MODEL 1
REMARK VINA RESULT:    -4.846      0.000      0.000
REMARK INTER + INTRA:          -7.660
REMARK INTER:                  -7.112
REMARK INTRA:                  -0.548
REMARK UNBOUND:                -0.548
REMARK SMILES O=C([O-])CCCCCCCC(=O)[O-]
REMARK SMILES IDX 7 1 6 2 5 3 4 4 2 5 1 6 3 7 8 8 9 9 10 10 11 11 12 12 13 13
REMARK H PARENT
REMARK Flexibility Score: inf
ROOT
ATOM      1  C   UNL     1      16.154  18.103  37.664  1.00  0.00     0.000 C 
ENDROOT
BRANCH   1   2
ATOM      2  C   UNL     1      15.429  16.988  38.434  1.00  0.00     0.000 C 
BRANCH   2   3
ATOM      3  C   UNL     1      15.580  15.604  37.777  1.00  0.00     0.006 C 
BRANCH   3   4
ATOM      4  C   UNL     1      14.263  15.032  37.223  1.00  0.00     0.053 C 
BRANCH   4   5
ATOM      5  C   UNL     1      13.513  16.022  36.385  1.00  0.00     0.041 C 
ATOM      6  O   UNL     1      12.368  16.408  36.736  1.00  0.00    -0.550 OA
ATOM      7  O   UNL     1      14.089  16.542  35.233  1.00  0.00    -0.550 OA
ENDBRANCH   4   5
ENDBRANCH   3   4
ENDBRANCH   2   3
ENDBRANCH   1   2
BRANCH   1   8
ATOM      8  C   UNL     1      17.184  17.562  36.655  1.00  0.00     0.000 C 
BRANCH   8   9
ATOM      9  C   UNL     1      17.442  18.476  35.443  1.00  0.00     0.006 C 
BRANCH   9  10
ATOM     10  C   UNL     1      18.024  17.723  34.240  1.00  0.00     0.053 C 
BRANCH  10  11
ATOM     11  C   UNL     1      19.311  17.057  34.614  1.00  0.00     0.041 C 
ATOM     12  O   UNL     1      19.448  15.815  34.467  1.00  0.00    -0.550 OA
ATOM     13  O   UNL     1      20.376  17.818  35.078  1.00  0.00    -0.550 OA
ENDBRANCH  10  11
ENDBRANCH   9  10
ENDBRANCH   8   9
ENDBRANCH   1   8
TORSDOF 8
ENDMDL
MODEL 2
REMARK VINA RESULT:    -4.844      1.395      5.426
REMARK INTER + INTRA:          -7.658
REMARK INTER:                  -7.047
REMARK INTRA:                  -0.611
REMARK UNBOUND:                -0.548
REMARK SMILES O=C([O-])CCCCCCCC(=O)[O-]
REMARK SMILES IDX 7 1 6 2 5 3 4 4 2 5 1 6 3 7 8 8 9 9 10 10 11 11 12 12 13 13
REMARK H PARENT
REMARK Flexibility Score: inf
ROOT
ATOM      1  C   UNL     1      16.399  18.343  36.492  1.00  0.00     0.000 C 
ENDROOT
BRANCH   1   2
ATOM      2  C   UNL     1      17.696  17.645  36.050  1.00  0.00     0.000 C 
BRANCH   2   3
ATOM      3  C   UNL     1      17.444  16.401  35.180  1.00  0.00     0.006 C 
BRANCH   3   4
ATOM      4  C   UNL     1      18.730  15.683  34.734  1.00  0.00     0.053 C 
BRANCH   4   5
ATOM      5  C   UNL     1      19.737  16.622  34.143  1.00  0.00     0.041 C 
ATOM      6  O   UNL     1      19.476  17.243  33.080  1.00  0.00    -0.550 OA
ATOM      7  O   UNL     1      20.952  16.836  34.782  1.00  0.00    -0.550 OA
ENDBRANCH   4   5
ENDBRANCH   3   4
ENDBRANCH   2   3
ENDBRANCH   1   2
BRANCH   1   8
ATOM      8  C   UNL     1      16.082  18.128  37.983  1.00  0.00     0.000 C 
BRANCH   8   9
ATOM      9  C   UNL     1      14.844  17.254  38.260  1.00  0.00     0.006 C 
BRANCH   9  10
ATOM     10  C   UNL     1      15.147  15.751  38.195  1.00  0.00     0.053 C 
BRANCH  10  11
ATOM     11  C   UNL     1      14.331  15.101  37.121  1.00  0.00     0.041 C 
ATOM     12  O   UNL     1      13.983  15.758  36.105  1.00  0.00    -0.550 OA
ATOM     13  O   UNL     1      13.997  13.757  37.220  1.00  0.00    -0.550 OA
ENDBRANCH  10  11
ENDBRANCH   9  10
ENDBRANCH   8   9
ENDBRANCH   1   8
TORSDOF 8
ENDMDL
MODEL 3
REMARK VINA RESULT:    -4.817      1.518      2.197
REMARK INTER + INTRA:          -7.619
REMARK INTER:                  -7.144
REMARK INTRA:                  -0.474
REMARK UNBOUND:                -0.548
REMARK SMILES O=C([O-])CCCCCCCC(=O)[O-]
REMARK SMILES IDX 7 1 6 2 5 3 4 4 2 5 1 6 3 7 8 8 9 9 10 10 11 11 12 12 13 13
REMARK H PARENT
REMARK Flexibility Score: inf
ROOT
ATOM      1  C   UNL     1      17.198  17.237  36.551  1.00  0.00     0.000 C 
ENDROOT
BRANCH   1   2
ATOM      2  C   UNL     1      16.113  18.009  37.320  1.00  0.00     0.000 C 
BRANCH   2   3
ATOM      3  C   UNL     1      15.308  17.119  38.284  1.00  0.00     0.006 C 
BRANCH   3   4
ATOM      4  C   UNL     1      15.745  15.644  38.281  1.00  0.00     0.053 C 
BRANCH   4   5
ATOM      5  C   UNL     1      14.710  14.739  37.686  1.00  0.00     0.041 C 
ATOM      6  O   UNL     1      13.963  15.154  36.762  1.00  0.00    -0.550 OA
ATOM      7  O   UNL     1      14.590  13.428  38.130  1.00  0.00    -0.550 OA
ENDBRANCH   4   5
ENDBRANCH   3   4
ENDBRANCH   2   3
ENDBRANCH   1   2
BRANCH   1   8
ATOM      8  C   UNL     1      16.932  17.184  35.035  1.00  0.00     0.000 C 
BRANCH   8   9
ATOM      9  C   UNL     1      18.080  17.722  34.160  1.00  0.00     0.006 C 
BRANCH   9  10
ATOM     10  C   UNL     1      19.272  18.227  34.982  1.00  0.00     0.053 C 
BRANCH  10  11
ATOM     11  C   UNL     1      20.537  17.572  34.524  1.00  0.00     0.041 C 
ATOM     12  O   UNL     1      21.583  18.255  34.366  1.00  0.00    -0.550 OA
ATOM     13  O   UNL     1      20.573  16.199  34.319  1.00  0.00    -0.550 OA
ENDBRANCH  10  11
ENDBRANCH   9  10
ENDBRANCH   8   9
ENDBRANCH   1   8
TORSDOF 8
ENDMDL
MODEL 4
REMARK VINA RESULT:    -4.802      2.124      2.923
REMARK INTER + INTRA:          -7.596
REMARK INTER:                  -7.148
REMARK INTRA:                  -0.448
REMARK UNBOUND:                -0.548
REMARK SMILES O=C([O-])CCCCCCCC(=O)[O-]
REMARK SMILES IDX 7 1 6 2 5 3 4 4 2 5 1 6 3 7 8 8 9 9 10 10 11 11 12 12 13 13
REMARK H PARENT
REMARK Flexibility Score: inf
ROOT
ATOM      1  C   UNL     1      17.592  17.403  34.367  1.00  0.00     0.000 C 
ENDROOT
BRANCH   1   2
ATOM      2  C   UNL     1      16.510  17.207  35.441  1.00  0.00     0.000 C 
BRANCH   2   3
ATOM      3  C   UNL     1      16.934  16.231  36.554  1.00  0.00     0.006 C 
BRANCH   3   4
ATOM      4  C   UNL     1      15.942  16.157  37.728  1.00  0.00     0.053 C 
BRANCH   4   5
ATOM      5  C   UNL     1      15.021  14.980  37.629  1.00  0.00     0.041 C 
ATOM      6  O   UNL     1      15.171  13.993  38.397  1.00  0.00    -0.550 OA
ATOM      7  O   UNL     1      13.978  14.982  36.712  1.00  0.00    -0.550 OA
ENDBRANCH   4   5
ENDBRANCH   3   4
ENDBRANCH   2   3
ENDBRANCH   1   2
BRANCH   1   8
ATOM      8  C   UNL     1      18.697  18.383  34.802  1.00  0.00     0.000 C 
BRANCH   8   9
ATOM      9  C   UNL     1      20.106  17.769  34.891  1.00  0.00     0.006 C 
BRANCH   9  10
ATOM     10  C   UNL     1      20.321  16.619  33.898  1.00  0.00     0.053 C 
BRANCH  10  11
ATOM     11  C   UNL     1      20.875  17.139  32.609  1.00  0.00     0.041 C 
ATOM     12  O   UNL     1      22.118  17.280  32.465  1.00  0.00    -0.550 OA
ATOM     13  O   UNL     1      20.023  17.423  31.550  1.00  0.00    -0.550 OA
ENDBRANCH  10  11
ENDBRANCH   9  10
ENDBRANCH   8   9
ENDBRANCH   1   8
TORSDOF 8
ENDMDL
MODEL 5
REMARK VINA RESULT:    -4.791      1.281      5.985
REMARK INTER + INTRA:          -7.580
REMARK INTER:                  -7.087
REMARK INTRA:                  -0.493
REMARK UNBOUND:                -0.548
REMARK SMILES O=C([O-])CCCCCCCC(=O)[O-]
REMARK SMILES IDX 7 1 6 2 5 3 4 4 2 5 1 6 3 7 8 8 9 9 10 10 11 11 12 12 13 13
REMARK H PARENT
REMARK Flexibility Score: inf
ROOT
ATOM      1  C   UNL     1      16.885  18.460  35.743  1.00  0.00     0.000 C 
ENDROOT
BRANCH   1   2
ATOM      2  C   UNL     1      17.174  17.475  34.599  1.00  0.00     0.000 C 
BRANCH   2   3
ATOM      3  C   UNL     1      18.431  17.842  33.790  1.00  0.00     0.006 C 
BRANCH   3   4
ATOM      4  C   UNL     1      19.623  18.282  34.657  1.00  0.00     0.053 C 
BRANCH   4   5
ATOM      5  C   UNL     1      20.785  17.342  34.558  1.00  0.00     0.041 C 
ATOM      6  O   UNL     1      21.957  17.763  34.745  1.00  0.00    -0.550 OA
ATOM      7  O   UNL     1      20.574  15.995  34.289  1.00  0.00    -0.550 OA
ENDBRANCH   4   5
ENDBRANCH   3   4
ENDBRANCH   2   3
ENDBRANCH   1   2
BRANCH   1   8
ATOM      8  C   UNL     1      16.630  17.757  37.088  1.00  0.00     0.000 C 
BRANCH   8   9
ATOM      9  C   UNL     1      16.624  16.218  37.021  1.00  0.00     0.006 C 
BRANCH   9  10
ATOM     10  C   UNL     1      15.700  15.577  38.065  1.00  0.00     0.053 C 
BRANCH  10  11
ATOM     11  C   UNL     1      14.275  15.948  37.797  1.00  0.00     0.041 C 
ATOM     12  O   UNL     1      13.709  15.566  36.740  1.00  0.00    -0.550 OA
ATOM     13  O   UNL     1      13.557  16.674  38.739  1.00  0.00    -0.550 OA
ENDBRANCH  10  11
ENDBRANCH   9  10
ENDBRANCH   8   9
ENDBRANCH   1   8
TORSDOF 8
ENDMDL
MODEL 6
REMARK VINA RESULT:    -4.755      1.757      5.866
REMARK INTER + INTRA:          -7.527
REMARK INTER:                  -7.147
REMARK INTRA:                  -0.380
REMARK UNBOUND:                -0.548
REMARK SMILES O=C([O-])CCCCCCCC(=O)[O-]
REMARK SMILES IDX 7 1 6 2 5 3 4 4 2 5 1 6 3 7 8 8 9 9 10 10 11 11 12 12 13 13
REMARK H PARENT
REMARK Flexibility Score: inf
ROOT
ATOM      1  C   UNL     1      16.087  17.898  36.059  1.00  0.00     0.000 C 
ENDROOT
BRANCH   1   2
ATOM      2  C   UNL     1      17.426  18.225  35.378  1.00  0.00     0.000 C 
BRANCH   2   3
ATOM      3  C   UNL     1      17.835  17.184  34.320  1.00  0.00     0.006 C 
BRANCH   3   4
ATOM      4  C   UNL     1      18.681  17.762  33.172  1.00  0.00     0.053 C 
BRANCH   4   5
ATOM      5  C   UNL     1      20.044  17.145  33.096  1.00  0.00     0.041 C 
ATOM      6  O   UNL     1      20.759  17.314  32.073  1.00  0.00    -0.550 OA
ATOM      7  O   UNL     1      20.540  16.410  34.165  1.00  0.00    -0.550 OA
ENDBRANCH   4   5
ENDBRANCH   3   4
ENDBRANCH   2   3
ENDBRANCH   1   2
BRANCH   1   8
ATOM      8  C   UNL     1      16.126  18.102  37.584  1.00  0.00     0.000 C 
BRANCH   8   9
ATOM      9  C   UNL     1      15.573  16.924  38.407  1.00  0.00     0.006 C 
BRANCH   9  10
ATOM     10  C   UNL     1      15.960  15.556  37.829  1.00  0.00     0.053 C 
BRANCH  10  11
ATOM     11  C   UNL     1      14.766  14.655  37.776  1.00  0.00     0.041 C 
ATOM     12  O   UNL     1      13.910  14.791  36.863  1.00  0.00    -0.550 OA
ATOM     13  O   UNL     1      14.624  13.635  38.707  1.00  0.00    -0.550 OA
ENDBRANCH  10  11
ENDBRANCH   9  10
ENDBRANCH   8   9
ENDBRANCH   1   8
TORSDOF 8
ENDMDL
MODEL 7
REMARK VINA RESULT:    -4.728      2.090      6.116
REMARK INTER + INTRA:          -7.488
REMARK INTER:                  -7.049
REMARK INTRA:                  -0.439
REMARK UNBOUND:                -0.548
REMARK SMILES O=C([O-])CCCCCCCC(=O)[O-]
REMARK SMILES IDX 7 1 6 2 5 3 4 4 2 5 1 6 3 7 8 8 9 9 10 10 11 11 12 12 13 13
REMARK H PARENT
REMARK Flexibility Score: inf
ROOT
ATOM      1  C   UNL     1      17.382  17.464  34.471  1.00  0.00     0.000 C 
ENDROOT
BRANCH   1   2
ATOM      2  C   UNL     1      18.466  18.214  35.262  1.00  0.00     0.000 C 
BRANCH   2   3
ATOM      3  C   UNL     1      19.888  17.704  34.968  1.00  0.00     0.006 C 
BRANCH   3   4
ATOM      4  C   UNL     1      19.948  16.617  33.881  1.00  0.00     0.053 C 
BRANCH   4   5
ATOM      5  C   UNL     1      20.736  17.047  32.681  1.00  0.00     0.041 C 
ATOM      6  O   UNL     1      20.143  17.422  31.636  1.00  0.00    -0.550 OA
ATOM      7  O   UNL     1      22.125  17.063  32.726  1.00  0.00    -0.550 OA
ENDBRANCH   4   5
ENDBRANCH   3   4
ENDBRANCH   2   3
ENDBRANCH   1   2
BRANCH   1   8
ATOM      8  C   UNL     1      16.319  16.818  35.378  1.00  0.00     0.000 C 
BRANCH   8   9
ATOM      9  C   UNL     1      16.828  16.395  36.769  1.00  0.00     0.006 C 
BRANCH   9  10
ATOM     10  C   UNL     1      15.706  16.292  37.810  1.00  0.00     0.053 C 
BRANCH  10  11
ATOM     11  C   UNL     1      14.967  15.000  37.655  1.00  0.00     0.041 C 
ATOM     12  O   UNL     1      15.324  13.984  38.306  1.00  0.00    -0.550 OA
ATOM     13  O   UNL     1      13.855  14.932  36.826  1.00  0.00    -0.550 OA
ENDBRANCH  10  11
ENDBRANCH   9  10
ENDBRANCH   8   9
ENDBRANCH   1   8
TORSDOF 8
ENDMDL
MODEL 8
REMARK VINA RESULT:    -4.630      1.488      1.981
REMARK INTER + INTRA:          -7.344
REMARK INTER:                  -6.910
REMARK INTRA:                  -0.434
REMARK UNBOUND:                -0.548
REMARK SMILES O=C([O-])CCCCCCCC(=O)[O-]
REMARK SMILES IDX 7 1 6 2 5 3 4 4 2 5 1 6 3 7 8 8 9 9 10 10 11 11 12 12 13 13
REMARK H PARENT
REMARK Flexibility Score: inf
ROOT
ATOM      1  C   UNL     1      16.942  17.710  36.576  1.00  0.00     0.000 C 
ENDROOT
BRANCH   1   2
ATOM      2  C   UNL     1      16.608  16.240  36.876  1.00  0.00     0.000 C 
BRANCH   2   3
ATOM      3  C   UNL     1      15.748  16.063  38.140  1.00  0.00     0.006 C 
BRANCH   3   4
ATOM      4  C   UNL     1      15.101  17.366  38.641  1.00  0.00     0.053 C 
BRANCH   4   5
ATOM      5  C   UNL     1      13.624  17.406  38.395  1.00  0.00     0.041 C 
ATOM      6  O   UNL     1      12.883  18.132  39.109  1.00  0.00    -0.550 OA
ATOM      7  O   UNL     1      13.067  16.667  37.359  1.00  0.00    -0.550 OA
ENDBRANCH   4   5
ENDBRANCH   3   4
ENDBRANCH   2   3
ENDBRANCH   1   2
BRANCH   1   8
ATOM      8  C   UNL     1      17.239  17.964  35.086  1.00  0.00     0.000 C 
BRANCH   8   9
ATOM      9  C   UNL     1      18.579  18.670  34.807  1.00  0.00     0.006 C 
BRANCH   9  10
ATOM     10  C   UNL     1      19.791  17.750  35.003  1.00  0.00     0.053 C 
BRANCH  10  11
ATOM     11  C   UNL     1      19.810  16.682  33.954  1.00  0.00     0.041 C 
ATOM     12  O   UNL     1      19.502  15.498  34.250  1.00  0.00    -0.550 OA
ATOM     13  O   UNL     1      20.121  17.005  32.639  1.00  0.00    -0.550 OA
ENDBRANCH  10  11
ENDBRANCH   9  10
ENDBRANCH   8   9
ENDBRANCH   1   8
TORSDOF 8
ENDMDL
MODEL 9
REMARK VINA RESULT:    -4.468      2.032      6.465
REMARK INTER + INTRA:          -7.106
REMARK INTER:                  -6.723
REMARK INTRA:                  -0.383
REMARK UNBOUND:                -0.548
REMARK SMILES O=C([O-])CCCCCCCC(=O)[O-]
REMARK SMILES IDX 7 1 6 2 5 3 4 4 2 5 1 6 3 7 8 8 9 9 10 10 11 11 12 12 13 13
REMARK H PARENT
REMARK Flexibility Score: inf
ROOT
ATOM      1  C   UNL     1      17.764  18.250  35.061  1.00  0.00     0.000 C 
ENDROOT
BRANCH   1   2
ATOM      2  C   UNL     1      19.239  18.202  34.628  1.00  0.00     0.000 C 
BRANCH   2   3
ATOM      3  C   UNL     1      19.639  16.858  33.995  1.00  0.00     0.006 C 
BRANCH   3   4
ATOM      4  C   UNL     1      21.085  16.432  34.299  1.00  0.00     0.053 C 
BRANCH   4   5
ATOM      5  C   UNL     1      22.094  17.407  33.775  1.00  0.00     0.041 C 
ATOM      6  O   UNL     1      22.898  17.971  34.563  1.00  0.00    -0.550 OA
ATOM      7  O   UNL     1      22.170  17.670  32.413  1.00  0.00    -0.550 OA
ENDBRANCH   4   5
ENDBRANCH   3   4
ENDBRANCH   2   3
ENDBRANCH   1   2
BRANCH   1   8
ATOM      8  C   UNL     1      17.109  16.857  35.108  1.00  0.00     0.000 C 
BRANCH   8   9
ATOM      9  C   UNL     1      17.089  16.200  36.500  1.00  0.00     0.006 C 
BRANCH   9  10
ATOM     10  C   UNL     1      15.825  16.537  37.302  1.00  0.00     0.053 C 
BRANCH  10  11
ATOM     11  C   UNL     1      14.880  15.376  37.298  1.00  0.00     0.041 C 
ATOM     12  O   UNL     1      13.983  15.292  36.418  1.00  0.00    -0.550 OA
ATOM     13  O   UNL     1      15.021  14.363  38.237  1.00  0.00    -0.550 OA
ENDBRANCH  10  11
ENDBRANCH   9  10
ENDBRANCH   8   9
ENDBRANCH   1   8
TORSDOF 8
ENDMDL
