MODEL 1
REMARK VINA RESULT:    -3.743      0.000      0.000
REMARK INTER + INTRA:          -5.763
REMARK INTER:                  -5.275
REMARK INTRA:                  -0.488
REMARK UNBOUND:                -0.488
REMARK SMILES CCCCCCCCC(=O)[O-]
REMARK SMILES IDX 6 1 7 2 8 3 9 4 10 5 11 6 5 7 4 8 3 9 2 10 1 11
REMARK H PARENT
REMARK Flexibility Score: inf
ROOT
ATOM      1  C   UNL     1      30.734   5.933  47.359  1.00  0.00     0.000 C 
ENDROOT
BRANCH   1   2
ATOM      2  C   UNL     1      31.680   5.850  48.570  1.00  0.00     0.006 C 
BRANCH   2   3
ATOM      3  C   UNL     1      31.147   4.939  49.684  1.00  0.00     0.053 C 
BRANCH   3   4
ATOM      4  C   UNL     1      32.191   3.948  50.092  1.00  0.00     0.041 C 
ATOM      5  O   UNL     1      32.675   3.978  51.254  1.00  0.00    -0.550 OA
ATOM      6  O   UNL     1      32.665   3.021  49.172  1.00  0.00    -0.550 OA
ENDBRANCH   3   4
ENDBRANCH   2   3
ENDBRANCH   1   2
BRANCH   1   7
ATOM      7  C   UNL     1      30.187   7.340  47.055  1.00  0.00     0.000 C 
BRANCH   7   8
ATOM      8  C   UNL     1      31.076   8.132  46.086  1.00  0.00    -0.000 C 
BRANCH   8   9
ATOM      9  C   UNL     1      31.915   7.187  45.213  1.00  0.00    -0.000 C 
BRANCH   9  10
ATOM     10  C   UNL     1      33.425   7.410  45.383  1.00  0.00    -0.003 C 
ATOM     11  C   UNL     1      33.752   8.484  46.419  1.00  0.00     0.004 C 
ENDBRANCH   9  10
ENDBRANCH   8   9
ENDBRANCH   7   8
ENDBRANCH   1   7
TORSDOF 7
ENDMDL
MODEL 2
REMARK VINA RESULT:    -3.685      9.797     11.020
REMARK INTER + INTRA:          -5.682
REMARK INTER:                  -5.376
REMARK INTRA:                  -0.305
REMARK UNBOUND:                -0.488
REMARK SMILES CCCCCCCCC(=O)[O-]
REMARK SMILES IDX 6 1 7 2 8 3 9 4 10 5 11 6 5 7 4 8 3 9 2 10 1 11
REMARK H PARENT
REMARK Flexibility Score: inf
ROOT
ATOM      1  C   UNL     1      25.501   3.335  39.852  1.00  0.00     0.000 C 
ENDROOT
BRANCH   1   2
ATOM      2  C   UNL     1      26.017   4.441  40.788  1.00  0.00     0.006 C 
BRANCH   2   3
ATOM      3  C   UNL     1      26.616   3.893  42.090  1.00  0.00     0.053 C 
BRANCH   3   4
ATOM      4  C   UNL     1      28.078   4.201  42.161  1.00  0.00     0.041 C 
ATOM      5  O   UNL     1      28.629   4.880  41.254  1.00  0.00    -0.550 OA
ATOM      6  O   UNL     1      28.844   3.697  43.205  1.00  0.00    -0.550 OA
ENDBRANCH   3   4
ENDBRANCH   2   3
ENDBRANCH   1   2
BRANCH   1   7
ATOM      7  C   UNL     1      24.155   2.709  40.262  1.00  0.00     0.000 C 
BRANCH   7   8
ATOM      8  C   UNL     1      23.237   2.422  39.065  1.00  0.00    -0.000 C 
BRANCH   8   9
ATOM      9  C   UNL     1      23.060   0.911  38.859  1.00  0.00    -0.000 C 
BRANCH   9  10
ATOM     10  C   UNL     1      23.655   0.082  40.007  1.00  0.00    -0.003 C 
ATOM     11  C   UNL     1      23.920  -1.371  39.613  1.00  0.00     0.004 C 
ENDBRANCH   9  10
ENDBRANCH   8   9
ENDBRANCH   7   8
ENDBRANCH   1   7
TORSDOF 7
ENDMDL
MODEL 3
REMARK VINA RESULT:    -3.635      3.147      5.394
REMARK INTER + INTRA:          -5.610
REMARK INTER:                  -5.290
REMARK INTRA:                  -0.320
REMARK UNBOUND:                -0.488
REMARK SMILES CCCCCCCCC(=O)[O-]
REMARK SMILES IDX 6 1 7 2 8 3 9 4 10 5 11 6 5 7 4 8 3 9 2 10 1 11
REMARK H PARENT
REMARK Flexibility Score: inf
ROOT
ATOM      1  C   UNL     1      31.304   5.854  46.133  1.00  0.00     0.000 C 
ENDROOT
BRANCH   1   2
ATOM      2  C   UNL     1      31.797   6.880  45.098  1.00  0.00     0.006 C 
BRANCH   2   3
ATOM      3  C   UNL     1      33.299   6.760  44.804  1.00  0.00     0.053 C 
BRANCH   3   4
ATOM      4  C   UNL     1      34.005   8.028  45.165  1.00  0.00     0.041 C 
ATOM      5  O   UNL     1      34.090   8.386  46.370  1.00  0.00    -0.550 OA
ATOM      6  O   UNL     1      34.526   8.842  44.167  1.00  0.00    -0.550 OA
ENDBRANCH   3   4
ENDBRANCH   2   3
ENDBRANCH   1   2
BRANCH   1   7
ATOM      7  C   UNL     1      31.637   6.194  47.598  1.00  0.00     0.000 C 
BRANCH   7   8
ATOM      8  C   UNL     1      30.950   5.258  48.602  1.00  0.00    -0.000 C 
BRANCH   8   9
ATOM      9  C   UNL     1      31.689   5.259  49.948  1.00  0.00    -0.000 C 
BRANCH   9  10
ATOM     10  C   UNL     1      32.318   3.898  50.279  1.00  0.00    -0.003 C 
ATOM     11  C   UNL     1      32.375   2.963  49.071  1.00  0.00     0.004 C 
ENDBRANCH   9  10
ENDBRANCH   8   9
ENDBRANCH   7   8
ENDBRANCH   1   7
TORSDOF 7
ENDMDL
MODEL 4
REMARK VINA RESULT:    -3.611      1.074      1.777
REMARK INTER + INTRA:          -5.577
REMARK INTER:                  -5.288
REMARK INTRA:                  -0.289
REMARK UNBOUND:                -0.488
REMARK SMILES CCCCCCCCC(=O)[O-]
REMARK SMILES IDX 6 1 7 2 8 3 9 4 10 5 11 6 5 7 4 8 3 9 2 10 1 11
REMARK H PARENT
REMARK Flexibility Score: inf
ROOT
ATOM      1  C   UNL     1      30.696   6.494  47.304  1.00  0.00     0.000 C 
ENDROOT
BRANCH   1   2
ATOM      2  C   UNL     1      31.499   5.304  47.857  1.00  0.00     0.006 C 
BRANCH   2   3
ATOM      3  C   UNL     1      31.615   5.319  49.387  1.00  0.00     0.053 C 
BRANCH   3   4
ATOM      4  C   UNL     1      32.159   4.016  49.882  1.00  0.00     0.041 C 
ATOM      5  O   UNL     1      32.247   3.029  49.105  1.00  0.00    -0.550 OA
ATOM      6  O   UNL     1      32.521   3.876  51.216  1.00  0.00    -0.550 OA
ENDBRANCH   3   4
ENDBRANCH   2   3
ENDBRANCH   1   2
BRANCH   1   7
ATOM      7  C   UNL     1      31.504   7.481  46.442  1.00  0.00     0.000 C 
BRANCH   7   8
ATOM      8  C   UNL     1      32.941   7.679  46.944  1.00  0.00    -0.000 C 
BRANCH   8   9
ATOM      9  C   UNL     1      33.815   8.336  45.866  1.00  0.00    -0.000 C 
BRANCH   9  10
ATOM     10  C   UNL     1      33.243   9.674  45.375  1.00  0.00    -0.003 C 
ATOM     11  C   UNL     1      33.229  10.747  46.464  1.00  0.00     0.004 C 
ENDBRANCH   9  10
ENDBRANCH   8   9
ENDBRANCH   7   8
ENDBRANCH   1   7
TORSDOF 7
ENDMDL
MODEL 5
REMARK VINA RESULT:    -3.551      9.507     10.536
REMARK INTER + INTRA:          -5.492
REMARK INTER:                  -5.212
REMARK INTRA:                  -0.280
REMARK UNBOUND:                -0.488
REMARK SMILES CCCCCCCCC(=O)[O-]
REMARK SMILES IDX 6 1 7 2 8 3 9 4 10 5 11 6 5 7 4 8 3 9 2 10 1 11
REMARK H PARENT
REMARK Flexibility Score: inf
ROOT
ATOM      1  C   UNL     1      25.852   3.389  39.882  1.00  0.00     0.000 C 
ENDROOT
BRANCH   1   2
ATOM      2  C   UNL     1      24.393   2.975  40.139  1.00  0.00     0.006 C 
BRANCH   2   3
ATOM      3  C   UNL     1      23.973   1.733  39.341  1.00  0.00     0.053 C 
BRANCH   3   4
ATOM      4  C   UNL     1      23.667   0.598  40.266  1.00  0.00     0.041 C 
ATOM      5  O   UNL     1      23.232   0.824  41.426  1.00  0.00    -0.550 OA
ATOM      6  O   UNL     1      23.909  -0.710  39.865  1.00  0.00    -0.550 OA
ENDBRANCH   3   4
ENDBRANCH   2   3
ENDBRANCH   1   2
BRANCH   1   7
ATOM      7  C   UNL     1      26.490   4.251  40.988  1.00  0.00     0.000 C 
BRANCH   7   8
ATOM      8  C   UNL     1      28.024   4.236  40.950  1.00  0.00    -0.000 C 
BRANCH   8   9
ATOM      9  C   UNL     1      28.536   3.917  39.537  1.00  0.00    -0.000 C 
BRANCH   9  10
ATOM     10  C   UNL     1      29.857   4.629  39.212  1.00  0.00    -0.003 C 
ATOM     11  C   UNL     1      30.525   5.231  40.448  1.00  0.00     0.004 C 
ENDBRANCH   9  10
ENDBRANCH   8   9
ENDBRANCH   7   8
ENDBRANCH   1   7
TORSDOF 7
ENDMDL
MODEL 6
REMARK VINA RESULT:    -3.511     14.530     15.673
REMARK INTER + INTRA:          -5.435
REMARK INTER:                  -4.812
REMARK INTRA:                  -0.623
REMARK UNBOUND:                -0.488
REMARK SMILES CCCCCCCCC(=O)[O-]
REMARK SMILES IDX 6 1 7 2 8 3 9 4 10 5 11 6 5 7 4 8 3 9 2 10 1 11
REMARK H PARENT
REMARK Flexibility Score: inf
ROOT
ATOM      1  C   UNL     1      24.348  -3.296  56.279  1.00  0.00     0.000 C 
ENDROOT
BRANCH   1   2
ATOM      2  C   UNL     1      23.279  -3.967  55.400  1.00  0.00     0.006 C 
BRANCH   2   3
ATOM      3  C   UNL     1      23.657  -3.995  53.913  1.00  0.00     0.053 C 
BRANCH   3   4
ATOM      4  C   UNL     1      24.131  -5.358  53.521  1.00  0.00     0.041 C 
ATOM      5  O   UNL     1      25.340  -5.548  53.222  1.00  0.00    -0.550 OA
ATOM      6  O   UNL     1      23.228  -6.410  53.436  1.00  0.00    -0.550 OA
ENDBRANCH   3   4
ENDBRANCH   2   3
ENDBRANCH   1   2
BRANCH   1   7
ATOM      7  C   UNL     1      24.011  -3.232  57.780  1.00  0.00     0.000 C 
BRANCH   7   8
ATOM      8  C   UNL     1      22.507  -3.091  58.052  1.00  0.00    -0.000 C 
BRANCH   8   9
ATOM      9  C   UNL     1      22.097  -1.612  58.124  1.00  0.00    -0.000 C 
BRANCH   9  10
ATOM     10  C   UNL     1      21.123  -1.213  57.006  1.00  0.00    -0.003 C 
ATOM     11  C   UNL     1      21.825  -0.569  55.811  1.00  0.00     0.004 C 
ENDBRANCH   9  10
ENDBRANCH   8   9
ENDBRANCH   7   8
ENDBRANCH   1   7
TORSDOF 7
ENDMDL
MODEL 7
REMARK VINA RESULT:    -3.503      3.569      5.580
REMARK INTER + INTRA:          -5.424
REMARK INTER:                  -5.101
REMARK INTRA:                  -0.323
REMARK UNBOUND:                -0.488
REMARK SMILES CCCCCCCCC(=O)[O-]
REMARK SMILES IDX 6 1 7 2 8 3 9 4 10 5 11 6 5 7 4 8 3 9 2 10 1 11
REMARK H PARENT
REMARK Flexibility Score: inf
ROOT
ATOM      1  C   UNL     1      32.629   7.321  46.863  1.00  0.00     0.000 C 
ENDROOT
BRANCH   1   2
ATOM      2  C   UNL     1      33.068   7.443  45.393  1.00  0.00     0.006 C 
BRANCH   2   3
ATOM      3  C   UNL     1      33.024   6.106  44.642  1.00  0.00     0.053 C 
BRANCH   3   4
ATOM      4  C   UNL     1      32.334   6.270  43.325  1.00  0.00     0.041 C 
ATOM      5  O   UNL     1      32.329   5.327  42.490  1.00  0.00    -0.550 OA
ATOM      6  O   UNL     1      31.739   7.482  42.998  1.00  0.00    -0.550 OA
ENDBRANCH   3   4
ENDBRANCH   2   3
ENDBRANCH   1   2
BRANCH   1   7
ATOM      7  C   UNL     1      31.240   6.690  47.077  1.00  0.00     0.000 C 
BRANCH   7   8
ATOM      8  C   UNL     1      31.308   5.294  47.711  1.00  0.00    -0.000 C 
BRANCH   8   9
ATOM      9  C   UNL     1      31.108   5.370  49.232  1.00  0.00    -0.000 C 
BRANCH   9  10
ATOM     10  C   UNL     1      32.010   4.391  49.998  1.00  0.00    -0.003 C 
ATOM     11  C   UNL     1      32.343   3.138  49.189  1.00  0.00     0.004 C 
ENDBRANCH   9  10
ENDBRANCH   8   9
ENDBRANCH   7   8
ENDBRANCH   1   7
TORSDOF 7
ENDMDL
MODEL 8
REMARK VINA RESULT:    -3.475      9.288     10.667
REMARK INTER + INTRA:          -5.386
REMARK INTER:                  -4.978
REMARK INTRA:                  -0.408
REMARK UNBOUND:                -0.488
REMARK SMILES CCCCCCCCC(=O)[O-]
REMARK SMILES IDX 6 1 7 2 8 3 9 4 10 5 11 6 5 7 4 8 3 9 2 10 1 11
REMARK H PARENT
REMARK Flexibility Score: inf
ROOT
ATOM      1  C   UNL     1      26.269   3.872  41.859  1.00  0.00     0.000 C 
ENDROOT
BRANCH   1   2
ATOM      2  C   UNL     1      27.806   3.945  41.874  1.00  0.00     0.006 C 
BRANCH   2   3
ATOM      3  C   UNL     1      28.358   5.101  41.029  1.00  0.00     0.053 C 
BRANCH   3   4
ATOM      4  C   UNL     1      29.237   4.577  39.938  1.00  0.00     0.041 C 
ATOM      5  O   UNL     1      30.396   5.043  39.779  1.00  0.00    -0.550 OA
ATOM      6  O   UNL     1      28.758   3.609  39.064  1.00  0.00    -0.550 OA
ENDBRANCH   3   4
ENDBRANCH   2   3
ENDBRANCH   1   2
BRANCH   1   7
ATOM      7  C   UNL     1      25.607   4.340  40.550  1.00  0.00     0.000 C 
BRANCH   7   8
ATOM      8  C   UNL     1      25.209   3.178  39.630  1.00  0.00    -0.000 C 
BRANCH   8   9
ATOM      9  C   UNL     1      24.264   2.205  40.351  1.00  0.00    -0.000 C 
BRANCH   9  10
ATOM     10  C   UNL     1      23.722   1.108  39.422  1.00  0.00    -0.003 C 
ATOM     11  C   UNL     1      22.642   1.620  38.469  1.00  0.00     0.004 C 
ENDBRANCH   9  10
ENDBRANCH   8   9
ENDBRANCH   7   8
ENDBRANCH   1   7
TORSDOF 7
ENDMDL
MODEL 9
REMARK VINA RESULT:    -3.331     14.643     16.276
REMARK INTER + INTRA:          -5.182
REMARK INTER:                  -4.330
REMARK INTRA:                  -0.852
REMARK UNBOUND:                -0.488
REMARK SMILES CCCCCCCCC(=O)[O-]
REMARK SMILES IDX 6 1 7 2 8 3 9 4 10 5 11 6 5 7 4 8 3 9 2 10 1 11
REMARK H PARENT
REMARK Flexibility Score: inf
ROOT
ATOM      1  C   UNL     1      23.930  -2.096  55.868  1.00  0.00     0.000 C 
ENDROOT
BRANCH   1   2
ATOM      2  C   UNL     1      23.225  -2.592  54.594  1.00  0.00     0.006 C 
BRANCH   2   3
ATOM      3  C   UNL     1      23.376  -4.103  54.376  1.00  0.00     0.053 C 
BRANCH   3   4
ATOM      4  C   UNL     1      22.047  -4.782  54.488  1.00  0.00     0.041 C 
ATOM      5  O   UNL     1      21.776  -5.482  55.500  1.00  0.00    -0.550 OA
ATOM      6  O   UNL     1      21.126  -4.682  53.453  1.00  0.00    -0.550 OA
ENDBRANCH   3   4
ENDBRANCH   2   3
ENDBRANCH   1   2
BRANCH   1   7
ATOM      7  C   UNL     1      24.424  -3.206  56.814  1.00  0.00     0.000 C 
BRANCH   7   8
ATOM      8  C   UNL     1      23.628  -3.275  58.125  1.00  0.00    -0.000 C 
BRANCH   8   9
ATOM      9  C   UNL     1      22.442  -2.300  58.100  1.00  0.00    -0.000 C 
BRANCH   9  10
ATOM     10  C   UNL     1      21.086  -3.020  58.045  1.00  0.00    -0.003 C 
ATOM     11  C   UNL     1      20.202  -2.530  56.898  1.00  0.00     0.004 C 
ENDBRANCH   9  10
ENDBRANCH   8   9
ENDBRANCH   7   8
ENDBRANCH   1   7
TORSDOF 7
ENDMDL
