MODEL 1
REMARK VINA RESULT:    -6.088      0.000      0.000
REMARK INTER + INTRA:          -8.472
REMARK INTER:                  -7.511
REMARK INTRA:                  -0.960
REMARK UNBOUND:                -0.960
REMARK SMILES C=C(CCC=C(C)C)[C@H]1CC=C(C)CC1
REMARK SMILES IDX 3 1 2 2 1 3 9 4 13 5 12 6 11 7 14 8 10 9 15 10 4 11 5 12
REMARK SMILES IDX 6 13 7 14 8 15
REMARK H PARENT
REMARK Flexibility Score: inf
ROOT
ATOM      1  C   UNL     1       2.939  12.605   2.748  1.00  0.00     0.035 C 
ENDROOT
BRANCH   1   2
ATOM      2  C   UNL     1       3.180  14.104   2.850  1.00  0.00    -0.074 C 
ATOM      3  C   UNL     1       4.323  14.532   3.417  1.00  0.00     0.008 C 
BRANCH   2   4
ATOM      4  C   UNL     1       2.163  15.151   2.384  1.00  0.00     0.018 C 
ATOM      5  C   UNL     1       2.395  14.758  -2.007  1.00  0.00     0.039 C 
ATOM      6  C   UNL     1       2.222  14.971  -0.528  1.00  0.00    -0.077 C 
ATOM      7  C   UNL     1       2.866  15.997   0.067  1.00  0.00    -0.027 C 
ATOM      8  C   UNL     1       1.435  13.956   0.273  1.00  0.00     0.031 C 
ATOM      9  C   UNL     1       2.741  16.310   1.540  1.00  0.00     0.035 C 
ATOM     10  C   UNL     1       0.988  14.502   1.633  1.00  0.00     0.013 C 
ENDBRANCH   2   4
ENDBRANCH   1   2
BRANCH   1  11
ATOM     11  C   UNL     1       2.668  11.953   4.113  1.00  0.00     0.032 C 
BRANCH  11  12
ATOM     12  C   UNL     1       1.380  12.446   4.729  1.00  0.00    -0.028 C 
ATOM     13  C   UNL     1       1.301  13.205   5.844  1.00  0.00    -0.080 C 
ATOM     14  C   UNL     1      -0.058  13.667   6.303  1.00  0.00     0.039 C 
ATOM     15  C   UNL     1       2.527  13.605   6.631  1.00  0.00     0.039 C 
ENDBRANCH  11  12
ENDBRANCH   1  11
TORSDOF 4
ENDMDL
MODEL 2
REMARK VINA RESULT:    -5.837      1.925      3.773
REMARK INTER + INTRA:          -8.162
REMARK INTER:                  -7.662
REMARK INTRA:                  -0.500
REMARK UNBOUND:                -0.960
REMARK SMILES C=C(CCC=C(C)C)[C@H]1CC=C(C)CC1
REMARK SMILES IDX 3 1 2 2 1 3 9 4 13 5 12 6 11 7 14 8 10 9 15 10 4 11 5 12
REMARK SMILES IDX 6 13 7 14 8 15
REMARK H PARENT
REMARK Flexibility Score: inf
ROOT
ATOM      1  C   UNL     1       0.091  13.741   4.672  1.00  0.00     0.035 C 
ENDROOT
BRANCH   1   2
ATOM      2  C   UNL     1       1.545  13.296   4.677  1.00  0.00    -0.074 C 
ATOM      3  C   UNL     1       2.227  13.350   5.837  1.00  0.00     0.008 C 
BRANCH   2   4
ATOM      4  C   UNL     1       2.288  12.838   3.417  1.00  0.00     0.018 C 
ATOM      5  C   UNL     1       3.600  16.681   1.686  1.00  0.00     0.039 C 
ATOM      6  C   UNL     1       3.220  15.315   2.187  1.00  0.00    -0.077 C 
ATOM      7  C   UNL     1       2.140  14.700   1.661  1.00  0.00    -0.027 C 
ATOM      8  C   UNL     1       3.979  14.724   3.355  1.00  0.00     0.031 C 
ATOM      9  C   UNL     1       1.687  13.321   2.078  1.00  0.00     0.035 C 
ATOM     10  C   UNL     1       3.780  13.209   3.476  1.00  0.00     0.013 C 
ENDBRANCH   2   4
ENDBRANCH   1   2
BRANCH   1  11
ATOM     11  C   UNL     1      -0.467  13.970   6.085  1.00  0.00     0.032 C 
BRANCH  11  12
ATOM     12  C   UNL     1      -1.926  13.591   6.185  1.00  0.00    -0.028 C 
ATOM     13  C   UNL     1      -2.951  14.470   6.182  1.00  0.00    -0.080 C 
ATOM     14  C   UNL     1      -4.358  13.932   6.231  1.00  0.00     0.039 C 
ATOM     15  C   UNL     1      -2.729  15.964   6.124  1.00  0.00     0.039 C 
ENDBRANCH  11  12
ENDBRANCH   1  11
TORSDOF 4
ENDMDL
MODEL 3
REMARK VINA RESULT:    -5.452      1.182      5.433
REMARK INTER + INTRA:          -7.687
REMARK INTER:                  -6.563
REMARK INTRA:                  -1.124
REMARK UNBOUND:                -0.960
REMARK SMILES C=C(CCC=C(C)C)[C@H]1CC=C(C)CC1
REMARK SMILES IDX 3 1 2 2 1 3 9 4 13 5 12 6 11 7 14 8 10 9 15 10 4 11 5 12
REMARK SMILES IDX 6 13 7 14 8 15
REMARK H PARENT
REMARK Flexibility Score: inf
ROOT
ATOM      1  C   UNL     1       3.093  16.183   1.982  1.00  0.00     0.035 C 
ENDROOT
BRANCH   1   2
ATOM      2  C   UNL     1       3.372  14.828   2.613  1.00  0.00    -0.074 C 
ATOM      3  C   UNL     1       4.432  14.710   3.435  1.00  0.00     0.008 C 
BRANCH   2   4
ATOM      4  C   UNL     1       2.537  13.577   2.320  1.00  0.00     0.018 C 
ATOM      5  C   UNL     1       0.577  12.858   6.210  1.00  0.00     0.039 C 
ATOM      6  C   UNL     1       1.175  13.011   4.838  1.00  0.00    -0.077 C 
ATOM      7  C   UNL     1       2.246  12.262   4.502  1.00  0.00    -0.027 C 
ATOM      8  C   UNL     1       0.642  14.090   3.921  1.00  0.00     0.031 C 
ATOM      9  C   UNL     1       2.906  12.323   3.145  1.00  0.00     0.035 C 
ATOM     10  C   UNL     1       1.031  13.859   2.457  1.00  0.00     0.013 C 
ENDBRANCH   2   4
ENDBRANCH   1   2
BRANCH   1  11
ATOM     11  C   UNL     1       3.133  16.144   0.446  1.00  0.00     0.032 C 
BRANCH  11  12
ATOM     12  C   UNL     1       1.766  16.359  -0.160  1.00  0.00    -0.028 C 
ATOM     13  C   UNL     1       1.121  15.464  -0.941  1.00  0.00    -0.080 C 
ATOM     14  C   UNL     1      -0.265  15.802  -1.425  1.00  0.00     0.039 C 
ATOM     15  C   UNL     1       1.744  14.144  -1.332  1.00  0.00     0.039 C 
ENDBRANCH  11  12
ENDBRANCH   1  11
TORSDOF 4
ENDMDL
MODEL 4
REMARK VINA RESULT:    -5.428      1.658      4.932
REMARK INTER + INTRA:          -7.658
REMARK INTER:                  -6.758
REMARK INTRA:                  -0.900
REMARK UNBOUND:                -0.960
REMARK SMILES C=C(CCC=C(C)C)[C@H]1CC=C(C)CC1
REMARK SMILES IDX 3 1 2 2 1 3 9 4 13 5 12 6 11 7 14 8 10 9 15 10 4 11 5 12
REMARK SMILES IDX 6 13 7 14 8 15
REMARK H PARENT
REMARK Flexibility Score: inf
ROOT
ATOM      1  C   UNL     1       2.301  13.877   1.910  1.00  0.00     0.035 C 
ENDROOT
BRANCH   1   2
ATOM      2  C   UNL     1       3.308  14.111   3.025  1.00  0.00    -0.074 C 
ATOM      3  C   UNL     1       4.015  15.257   3.019  1.00  0.00     0.008 C 
BRANCH   2   4
ATOM      4  C   UNL     1       3.597  13.085   4.127  1.00  0.00     0.018 C 
ATOM      5  C   UNL     1      -0.155  13.167   6.452  1.00  0.00     0.039 C 
ATOM      6  C   UNL     1       1.160  13.045   5.732  1.00  0.00    -0.077 C 
ATOM      7  C   UNL     1       2.231  13.715   6.204  1.00  0.00    -0.027 C 
ATOM      8  C   UNL     1       1.214  12.280   4.427  1.00  0.00     0.031 C 
ATOM      9  C   UNL     1       3.600  13.642   5.569  1.00  0.00     0.035 C 
ATOM     10  C   UNL     1       2.642  11.882   4.040  1.00  0.00     0.013 C 
ENDBRANCH   2   4
ENDBRANCH   1   2
BRANCH   1  11
ATOM     11  C   UNL     1       1.246  14.991   1.818  1.00  0.00     0.032 C 
BRANCH  11  12
ATOM     12  C   UNL     1      -0.004  14.527   1.106  1.00  0.00    -0.028 C 
ATOM     13  C   UNL     1      -1.208  14.362   1.696  1.00  0.00    -0.080 C 
ATOM     14  C   UNL     1      -2.375  13.946   0.838  1.00  0.00     0.039 C 
ATOM     15  C   UNL     1      -1.415  14.586   3.176  1.00  0.00     0.039 C 
ENDBRANCH  11  12
ENDBRANCH   1  11
TORSDOF 4
ENDMDL
MODEL 5
REMARK VINA RESULT:    -5.309      1.707      5.438
REMARK INTER + INTRA:          -7.511
REMARK INTER:                  -6.457
REMARK INTRA:                  -1.054
REMARK UNBOUND:                -0.960
REMARK SMILES C=C(CCC=C(C)C)[C@H]1CC=C(C)CC1
REMARK SMILES IDX 3 1 2 2 1 3 9 4 13 5 12 6 11 7 14 8 10 9 15 10 4 11 5 12
REMARK SMILES IDX 6 13 7 14 8 15
REMARK H PARENT
REMARK Flexibility Score: inf
ROOT
ATOM      1  C   UNL     1       0.884  15.601   1.499  1.00  0.00     0.035 C 
ENDROOT
BRANCH   1   2
ATOM      2  C   UNL     1       2.032  14.780   2.065  1.00  0.00    -0.074 C 
ATOM      3  C   UNL     1       3.247  15.354   2.156  1.00  0.00     0.008 C 
BRANCH   2   4
ATOM      4  C   UNL     1       1.888  13.314   2.491  1.00  0.00     0.018 C 
ATOM      5  C   UNL     1       2.498  13.569   6.856  1.00  0.00     0.039 C 
ATOM      6  C   UNL     1       2.263  13.362   5.385  1.00  0.00    -0.077 C 
ATOM      7  C   UNL     1       3.283  12.940   4.610  1.00  0.00    -0.027 C 
ATOM      8  C   UNL     1       0.927  13.757   4.793  1.00  0.00     0.031 C 
ATOM      9  C   UNL     1       3.145  12.680   3.128  1.00  0.00     0.035 C 
ATOM     10  C   UNL     1       0.680  13.115   3.423  1.00  0.00     0.013 C 
ENDBRANCH   2   4
ENDBRANCH   1   2
BRANCH   1  11
ATOM     11  C   UNL     1       0.664  15.359  -0.002  1.00  0.00     0.032 C 
BRANCH  11  12
ATOM     12  C   UNL     1      -0.602  14.578  -0.268  1.00  0.00    -0.028 C 
ATOM     13  C   UNL     1      -0.640  13.288  -0.667  1.00  0.00    -0.080 C 
ATOM     14  C   UNL     1      -1.985  12.629  -0.836  1.00  0.00     0.039 C 
ATOM     15  C   UNL     1       0.616  12.493  -0.938  1.00  0.00     0.039 C 
ENDBRANCH  11  12
ENDBRANCH   1  11
TORSDOF 4
ENDMDL
MODEL 6
REMARK VINA RESULT:    -5.282      1.643      3.521
REMARK INTER + INTRA:          -7.478
REMARK INTER:                  -6.079
REMARK INTRA:                  -1.399
REMARK UNBOUND:                -0.960
REMARK SMILES C=C(CCC=C(C)C)[C@H]1CC=C(C)CC1
REMARK SMILES IDX 3 1 2 2 1 3 9 4 13 5 12 6 11 7 14 8 10 9 15 10 4 11 5 12
REMARK SMILES IDX 6 13 7 14 8 15
REMARK H PARENT
REMARK Flexibility Score: inf
ROOT
ATOM      1  C   UNL     1      -0.966  15.045   2.460  1.00  0.00     0.035 C 
ENDROOT
BRANCH   1   2
ATOM      2  C   UNL     1      -0.687  14.433   1.096  1.00  0.00    -0.074 C 
ATOM      3  C   UNL     1      -1.626  13.641   0.545  1.00  0.00     0.008 C 
BRANCH   2   4
ATOM      4  C   UNL     1       0.632  14.631   0.340  1.00  0.00     0.018 C 
ATOM      5  C   UNL     1       3.618  13.907   3.509  1.00  0.00     0.039 C 
ATOM      6  C   UNL     1       2.695  14.160   2.349  1.00  0.00    -0.077 C 
ATOM      7  C   UNL     1       2.412  15.433   2.001  1.00  0.00    -0.027 C 
ATOM      8  C   UNL     1       2.008  12.985   1.686  1.00  0.00     0.031 C 
ATOM      9  C   UNL     1       1.517  15.795   0.840  1.00  0.00     0.035 C 
ATOM     10  C   UNL     1       1.459  13.334   0.299  1.00  0.00     0.013 C 
ENDBRANCH   2   4
ENDBRANCH   1   2
BRANCH   1  11
ATOM     11  C   UNL     1      -1.113  13.990   3.567  1.00  0.00     0.032 C 
BRANCH  11  12
ATOM     12  C   UNL     1      -0.008  14.090   4.593  1.00  0.00    -0.028 C 
ATOM     13  C   UNL     1       0.239  13.169   5.551  1.00  0.00    -0.080 C 
ATOM     14  C   UNL     1       1.416  13.385   6.466  1.00  0.00     0.039 C 
ATOM     15  C   UNL     1      -0.621  11.939   5.722  1.00  0.00     0.039 C 
ENDBRANCH  11  12
ENDBRANCH   1  11
TORSDOF 4
ENDMDL
MODEL 7
REMARK VINA RESULT:    -5.270      1.560      5.644
REMARK INTER + INTRA:          -7.462
REMARK INTER:                  -7.002
REMARK INTRA:                  -0.461
REMARK UNBOUND:                -0.960
REMARK SMILES C=C(CCC=C(C)C)[C@H]1CC=C(C)CC1
REMARK SMILES IDX 3 1 2 2 1 3 9 4 13 5 12 6 11 7 14 8 10 9 15 10 4 11 5 12
REMARK SMILES IDX 6 13 7 14 8 15
REMARK H PARENT
REMARK Flexibility Score: inf
ROOT
ATOM      1  C   UNL     1       3.061  13.541   5.132  1.00  0.00     0.035 C 
ENDROOT
BRANCH   1   2
ATOM      2  C   UNL     1       1.698  13.175   5.700  1.00  0.00    -0.074 C 
ATOM      3  C   UNL     1       1.492  13.330   7.021  1.00  0.00     0.008 C 
BRANCH   2   4
ATOM      4  C   UNL     1       0.564  12.590   4.851  1.00  0.00     0.018 C 
ATOM      5  C   UNL     1      -2.980  14.590   6.563  1.00  0.00     0.039 C 
ATOM      6  C   UNL     1      -1.848  13.861   5.893  1.00  0.00    -0.077 C 
ATOM      7  C   UNL     1      -1.584  12.587   6.252  1.00  0.00    -0.027 C 
ATOM      8  C   UNL     1      -0.955  14.615   4.931  1.00  0.00     0.031 C 
ATOM      9  C   UNL     1      -0.486  11.760   5.626  1.00  0.00     0.035 C 
ATOM     10  C   UNL     1      -0.144  13.679   4.028  1.00  0.00     0.013 C 
ENDBRANCH   2   4
ENDBRANCH   1   2
BRANCH   1  11
ATOM     11  C   UNL     1       3.169  13.269   3.624  1.00  0.00     0.032 C 
BRANCH  11  12
ATOM     12  C   UNL     1       3.242  14.549   2.823  1.00  0.00    -0.028 C 
ATOM     13  C   UNL     1       2.539  14.792   1.695  1.00  0.00    -0.080 C 
ATOM     14  C   UNL     1       2.678  16.142   1.041  1.00  0.00     0.039 C 
ATOM     15  C   UNL     1       1.622  13.759   1.082  1.00  0.00     0.039 C 
ENDBRANCH  11  12
ENDBRANCH   1  11
TORSDOF 4
ENDMDL
MODEL 8
REMARK VINA RESULT:    -5.150      1.868      2.908
REMARK INTER + INTRA:          -7.314
REMARK INTER:                  -6.308
REMARK INTRA:                  -1.006
REMARK UNBOUND:                -0.960
REMARK SMILES C=C(CCC=C(C)C)[C@H]1CC=C(C)CC1
REMARK SMILES IDX 3 1 2 2 1 3 9 4 13 5 12 6 11 7 14 8 10 9 15 10 4 11 5 12
REMARK SMILES IDX 6 13 7 14 8 15
REMARK H PARENT
REMARK Flexibility Score: inf
ROOT
ATOM      1  C   UNL     1       1.595  13.464   2.698  1.00  0.00     0.035 C 
ENDROOT
BRANCH   1   2
ATOM      2  C   UNL     1       2.130  14.441   1.662  1.00  0.00    -0.074 C 
ATOM      3  C   UNL     1       3.019  15.371   2.057  1.00  0.00     0.008 C 
BRANCH   2   4
ATOM      4  C   UNL     1       1.667  14.453   0.201  1.00  0.00     0.018 C 
ATOM      5  C   UNL     1      -2.706  14.878   0.634  1.00  0.00     0.039 C 
ATOM      6  C   UNL     1      -1.232  14.745   0.364  1.00  0.00    -0.077 C 
ATOM      7  C   UNL     1      -0.722  13.525   0.095  1.00  0.00    -0.027 C 
ATOM      8  C   UNL     1      -0.343  15.959   0.528  1.00  0.00     0.031 C 
ATOM      9  C   UNL     1       0.738  13.288  -0.211  1.00  0.00     0.035 C 
ATOM     10  C   UNL     1       1.010  15.793  -0.172  1.00  0.00     0.013 C 
ENDBRANCH   2   4
ENDBRANCH   1   2
BRANCH   1  11
ATOM     11  C   UNL     1       0.694  14.140   3.744  1.00  0.00     0.032 C 
BRANCH  11  12
ATOM     12  C   UNL     1      -0.113  13.132   4.528  1.00  0.00    -0.028 C 
ATOM     13  C   UNL     1       0.136  12.775   5.808  1.00  0.00    -0.080 C 
ATOM     14  C   UNL     1      -0.797  11.796   6.473  1.00  0.00     0.039 C 
ATOM     15  C   UNL     1       1.307  13.331   6.583  1.00  0.00     0.039 C 
ENDBRANCH  11  12
ENDBRANCH   1  11
TORSDOF 4
ENDMDL
MODEL 9
REMARK VINA RESULT:    -5.095      2.364      5.377
REMARK INTER + INTRA:          -7.246
REMARK INTER:                  -6.157
REMARK INTRA:                  -1.089
REMARK UNBOUND:                -0.960
REMARK SMILES C=C(CCC=C(C)C)[C@H]1CC=C(C)CC1
REMARK SMILES IDX 3 1 2 2 1 3 9 4 13 5 12 6 11 7 14 8 10 9 15 10 4 11 5 12
REMARK SMILES IDX 6 13 7 14 8 15
REMARK H PARENT
REMARK Flexibility Score: inf
ROOT
ATOM      1  C   UNL     1       1.290  13.208  -0.548  1.00  0.00     0.035 C 
ENDROOT
BRANCH   1   2
ATOM      2  C   UNL     1       1.679  14.658  -0.305  1.00  0.00    -0.074 C 
ATOM      3  C   UNL     1       2.496  15.259  -1.190  1.00  0.00     0.008 C 
BRANCH   2   4
ATOM      4  C   UNL     1       1.230  15.453   0.926  1.00  0.00     0.018 C 
ATOM      5  C   UNL     1       2.891  13.040   4.228  1.00  0.00     0.039 C 
ATOM      6  C   UNL     1       2.291  13.946   3.188  1.00  0.00    -0.077 C 
ATOM      7  C   UNL     1       0.979  13.833   2.897  1.00  0.00    -0.027 C 
ATOM      8  C   UNL     1       3.201  14.869   2.406  1.00  0.00     0.031 C 
ATOM      9  C   UNL     1       0.276  14.708   1.887  1.00  0.00     0.035 C 
ATOM     10  C   UNL     1       2.433  16.000   1.714  1.00  0.00     0.013 C 
ENDBRANCH   2   4
ENDBRANCH   1   2
BRANCH   1  11
ATOM     11  C   UNL     1       0.345  13.039  -1.748  1.00  0.00     0.032 C 
BRANCH  11  12
ATOM     12  C   UNL     1      -0.909  12.283  -1.376  1.00  0.00    -0.028 C 
ATOM     13  C   UNL     1      -2.076  12.859  -1.012  1.00  0.00    -0.080 C 
ATOM     14  C   UNL     1      -3.257  11.968  -0.725  1.00  0.00     0.039 C 
ATOM     15  C   UNL     1      -2.229  14.358  -0.893  1.00  0.00     0.039 C 
ENDBRANCH  11  12
ENDBRANCH   1  11
TORSDOF 4
ENDMDL
