MODEL 1
REMARK VINA RESULT:    -3.764      0.000      0.000
REMARK INTER + INTRA:          -4.454
REMARK INTER:                  -4.424
REMARK INTRA:                  -0.030
REMARK UNBOUND:                -0.030
REMARK SMILES O=C([O-])CCC(=O)[O-]
REMARK SMILES IDX 4 1 2 2 1 3 3 4 5 5 6 6 7 7 8 8
REMARK H PARENT
REMARK Flexibility Score: inf
ROOT
ATOM      1  C   UNL     1     -21.906  14.167  -4.936  1.00  0.00     0.059 C 
ENDROOT
BRANCH   1   2
ATOM      2  C   UNL     1     -21.545  12.725  -4.747  1.00  0.00     0.042 C 
ATOM      3  O   UNL     1     -22.441  11.840  -4.772  1.00  0.00    -0.550 OA
ATOM      4  O   UNL     1     -20.227  12.364  -4.504  1.00  0.00    -0.550 OA
ENDBRANCH   1   2
BRANCH   1   5
ATOM      5  C   UNL     1     -22.321  14.823  -3.615  1.00  0.00     0.059 C 
BRANCH   5   6
ATOM      6  C   UNL     1     -23.213  16.006  -3.841  1.00  0.00     0.042 C 
ATOM      7  O   UNL     1     -22.884  16.897  -4.667  1.00  0.00    -0.550 OA
ATOM      8  O   UNL     1     -24.386  16.143  -3.112  1.00  0.00    -0.550 OA
ENDBRANCH   5   6
ENDBRANCH   1   5
TORSDOF 3
ENDMDL
MODEL 2
REMARK VINA RESULT:    -3.754      0.305      4.268
REMARK INTER + INTRA:          -4.442
REMARK INTER:                  -4.413
REMARK INTRA:                  -0.029
REMARK UNBOUND:                -0.030
REMARK SMILES O=C([O-])CCC(=O)[O-]
REMARK SMILES IDX 4 1 2 2 1 3 3 4 5 5 6 6 7 7 8 8
REMARK H PARENT
REMARK Flexibility Score: inf
ROOT
ATOM      1  C   UNL     1     -22.401  15.027  -3.623  1.00  0.00     0.059 C 
ENDROOT
BRANCH   1   2
ATOM      2  C   UNL     1     -23.172  16.292  -3.852  1.00  0.00     0.042 C 
ATOM      3  O   UNL     1     -24.285  16.466  -3.288  1.00  0.00    -0.550 OA
ATOM      4  O   UNL     1     -22.680  17.259  -4.718  1.00  0.00    -0.550 OA
ENDBRANCH   1   2
BRANCH   1   5
ATOM      5  C   UNL     1     -21.980  14.376  -4.944  1.00  0.00     0.059 C 
BRANCH   5   6
ATOM      6  C   UNL     1     -21.705  12.912  -4.775  1.00  0.00     0.042 C 
ATOM      7  O   UNL     1     -22.658  12.094  -4.701  1.00  0.00    -0.550 OA
ATOM      8  O   UNL     1     -20.398  12.459  -4.659  1.00  0.00    -0.550 OA
ENDBRANCH   5   6
ENDBRANCH   1   5
TORSDOF 3
ENDMDL
MODEL 3
REMARK VINA RESULT:    -3.679     21.040     21.602
REMARK INTER + INTRA:          -4.354
REMARK INTER:                  -4.231
REMARK INTRA:                  -0.123
REMARK UNBOUND:                -0.030
REMARK SMILES O=C([O-])CCC(=O)[O-]
REMARK SMILES IDX 4 1 2 2 1 3 3 4 5 5 6 6 7 7 8 8
REMARK H PARENT
REMARK Flexibility Score: inf
ROOT
ATOM      1  C   UNL     1      -7.397  29.603  -3.807  1.00  0.00     0.059 C 
ENDROOT
BRANCH   1   2
ATOM      2  C   UNL     1      -6.832  29.455  -5.187  1.00  0.00     0.042 C 
ATOM      3  O   UNL     1      -6.542  28.314  -5.634  1.00  0.00    -0.550 OA
ATOM      4  O   UNL     1      -6.589  30.581  -5.963  1.00  0.00    -0.550 OA
ENDBRANCH   1   2
BRANCH   1   5
ATOM      5  C   UNL     1      -6.316  29.435  -2.733  1.00  0.00     0.059 C 
BRANCH   5   6
ATOM      6  C   UNL     1      -6.422  28.108  -2.045  1.00  0.00     0.042 C 
ATOM      7  O   UNL     1      -5.878  27.090  -2.547  1.00  0.00    -0.550 OA
ATOM      8  O   UNL     1      -7.157  27.989  -0.874  1.00  0.00    -0.550 OA
ENDBRANCH   5   6
ENDBRANCH   1   5
TORSDOF 3
ENDMDL
MODEL 4
REMARK VINA RESULT:    -3.677      0.308      1.185
REMARK INTER + INTRA:          -4.351
REMARK INTER:                  -4.321
REMARK INTRA:                  -0.030
REMARK UNBOUND:                -0.030
REMARK SMILES O=C([O-])CCC(=O)[O-]
REMARK SMILES IDX 4 1 2 2 1 3 3 4 5 5 6 6 7 7 8 8
REMARK H PARENT
REMARK Flexibility Score: inf
ROOT
ATOM      1  C   UNL     1     -22.000  14.324  -4.867  1.00  0.00     0.059 C 
ENDROOT
BRANCH   1   2
ATOM      2  C   UNL     1     -21.776  12.858  -4.654  1.00  0.00     0.042 C 
ATOM      3  O   UNL     1     -22.757  12.072  -4.577  1.00  0.00    -0.550 OA
ATOM      4  O   UNL     1     -20.486  12.367  -4.499  1.00  0.00    -0.550 OA
ENDBRANCH   1   2
BRANCH   1   5
ATOM      5  C   UNL     1     -22.382  15.033  -3.562  1.00  0.00     0.059 C 
BRANCH   5   6
ATOM      6  C   UNL     1     -23.176  16.277  -3.822  1.00  0.00     0.042 C 
ATOM      7  O   UNL     1     -24.252  16.482  -3.201  1.00  0.00    -0.550 OA
ATOM      8  O   UNL     1     -22.750  17.187  -4.779  1.00  0.00    -0.550 OA
ENDBRANCH   5   6
ENDBRANCH   1   5
TORSDOF 3
ENDMDL
MODEL 5
REMARK VINA RESULT:    -3.671      6.288      7.349
REMARK INTER + INTRA:          -4.344
REMARK INTER:                  -4.221
REMARK INTRA:                  -0.123
REMARK UNBOUND:                -0.030
REMARK SMILES O=C([O-])CCC(=O)[O-]
REMARK SMILES IDX 4 1 2 2 1 3 3 4 5 5 6 6 7 7 8 8
REMARK H PARENT
REMARK Flexibility Score: inf
ROOT
ATOM      1  C   UNL     1     -23.562  19.705   0.632  1.00  0.00     0.059 C 
ENDROOT
BRANCH   1   2
ATOM      2  C   UNL     1     -24.559  19.055  -0.278  1.00  0.00     0.042 C 
ATOM      3  O   UNL     1     -25.750  19.461  -0.306  1.00  0.00    -0.550 OA
ATOM      4  O   UNL     1     -24.181  17.975  -1.065  1.00  0.00    -0.550 OA
ENDBRANCH   1   2
BRANCH   1   5
ATOM      5  C   UNL     1     -22.877  20.899  -0.041  1.00  0.00     0.059 C 
BRANCH   5   6
ATOM      6  C   UNL     1     -21.548  20.519  -0.620  1.00  0.00     0.042 C 
ATOM      7  O   UNL     1     -21.477  20.040  -1.782  1.00  0.00    -0.550 OA
ATOM      8  O   UNL     1     -20.394  20.656   0.139  1.00  0.00    -0.550 OA
ENDBRANCH   5   6
ENDBRANCH   1   5
TORSDOF 3
ENDMDL
MODEL 6
REMARK VINA RESULT:    -3.664      6.222      7.259
REMARK INTER + INTRA:          -4.336
REMARK INTER:                  -4.218
REMARK INTRA:                  -0.118
REMARK UNBOUND:                -0.030
REMARK SMILES O=C([O-])CCC(=O)[O-]
REMARK SMILES IDX 4 1 2 2 1 3 3 4 5 5 6 6 7 7 8 8
REMARK H PARENT
REMARK Flexibility Score: inf
ROOT
ATOM      1  C   UNL     1     -22.883  20.860  -0.006  1.00  0.00     0.059 C 
ENDROOT
BRANCH   1   2
ATOM      2  C   UNL     1     -21.570  20.545  -0.657  1.00  0.00     0.042 C 
ATOM      3  O   UNL     1     -21.539  20.083  -1.829  1.00  0.00    -0.550 OA
ATOM      4  O   UNL     1     -20.385  20.725   0.043  1.00  0.00    -0.550 OA
ENDBRANCH   1   2
BRANCH   1   5
ATOM      5  C   UNL     1     -23.524  19.609   0.605  1.00  0.00     0.059 C 
BRANCH   5   6
ATOM      6  C   UNL     1     -24.535  19.000  -0.319  1.00  0.00     0.042 C 
ATOM      7  O   UNL     1     -25.714  19.440  -0.345  1.00  0.00    -0.550 OA
ATOM      8  O   UNL     1     -24.186  17.920  -1.118  1.00  0.00    -0.550 OA
ENDBRANCH   5   6
ENDBRANCH   1   5
TORSDOF 3
ENDMDL
MODEL 7
REMARK VINA RESULT:    -3.663     20.976     21.773
REMARK INTER + INTRA:          -4.335
REMARK INTER:                  -4.277
REMARK INTRA:                  -0.058
REMARK UNBOUND:                -0.030
REMARK SMILES O=C([O-])CCC(=O)[O-]
REMARK SMILES IDX 4 1 2 2 1 3 3 4 5 5 6 6 7 7 8 8
REMARK H PARENT
REMARK Flexibility Score: inf
ROOT
ATOM      1  C   UNL     1      -5.875  29.188  -2.759  1.00  0.00     0.059 C 
ENDROOT
BRANCH   1   2
ATOM      2  C   UNL     1      -6.332  27.964  -2.025  1.00  0.00     0.042 C 
ATOM      3  O   UNL     1      -5.887  26.830  -2.346  1.00  0.00    -0.550 OA
ATOM      4  O   UNL     1      -7.277  28.071  -1.013  1.00  0.00    -0.550 OA
ENDBRANCH   1   2
BRANCH   1   5
ATOM      5  C   UNL     1      -6.196  29.101  -4.255  1.00  0.00     0.059 C 
BRANCH   5   6
ATOM      6  C   UNL     1      -6.887  30.337  -4.744  1.00  0.00     0.042 C 
ATOM      7  O   UNL     1      -7.761  30.897  -4.032  1.00  0.00    -0.550 OA
ATOM      8  O   UNL     1      -6.597  30.845  -6.003  1.00  0.00    -0.550 OA
ENDBRANCH   5   6
ENDBRANCH   1   5
TORSDOF 3
ENDMDL
MODEL 8
REMARK VINA RESULT:    -3.632      6.850      7.913
REMARK INTER + INTRA:          -4.299
REMARK INTER:                  -4.175
REMARK INTRA:                  -0.124
REMARK UNBOUND:                -0.030
REMARK SMILES O=C([O-])CCC(=O)[O-]
REMARK SMILES IDX 4 1 2 2 1 3 3 4 5 5 6 6 7 7 8 8
REMARK H PARENT
REMARK Flexibility Score: inf
ROOT
ATOM      1  C   UNL     1     -22.918  19.410  -0.787  1.00  0.00     0.059 C 
ENDROOT
BRANCH   1   2
ATOM      2  C   UNL     1     -24.100  19.856   0.019  1.00  0.00     0.042 C 
ATOM      3  O   UNL     1     -23.931  20.435   1.124  1.00  0.00    -0.550 OA
ATOM      4  O   UNL     1     -25.387  19.596  -0.432  1.00  0.00    -0.550 OA
ENDBRANCH   1   2
BRANCH   1   5
ATOM      5  C   UNL     1     -21.887  20.534  -0.947  1.00  0.00     0.059 C 
BRANCH   5   6
ATOM      6  C   UNL     1     -20.584  20.184  -0.295  1.00  0.00     0.042 C 
ATOM      7  O   UNL     1     -20.565  19.732   0.879  1.00  0.00    -0.550 OA
ATOM      8  O   UNL     1     -19.390  20.398  -0.970  1.00  0.00    -0.550 OA
ENDBRANCH   5   6
ENDBRANCH   1   5
TORSDOF 3
ENDMDL
MODEL 9
REMARK VINA RESULT:    -3.617     20.650     21.060
REMARK INTER + INTRA:          -4.281
REMARK INTER:                  -4.232
REMARK INTRA:                  -0.049
REMARK UNBOUND:                -0.030
REMARK SMILES O=C([O-])CCC(=O)[O-]
REMARK SMILES IDX 4 1 2 2 1 3 3 4 5 5 6 6 7 7 8 8
REMARK H PARENT
REMARK Flexibility Score: inf
ROOT
ATOM      1  C   UNL     1      -5.875  27.693  -3.544  1.00  0.00     0.059 C 
ENDROOT
BRANCH   1   2
ATOM      2  C   UNL     1      -6.492  27.854  -4.900  1.00  0.00     0.042 C 
ATOM      3  O   UNL     1      -7.077  28.926  -5.206  1.00  0.00    -0.550 OA
ATOM      4  O   UNL     1      -6.455  26.806  -5.811  1.00  0.00    -0.550 OA
ENDBRANCH   1   2
BRANCH   1   5
ATOM      5  C   UNL     1      -6.513  28.636  -2.518  1.00  0.00     0.059 C 
BRANCH   5   6
ATOM      6  C   UNL     1      -6.611  27.996  -1.166  1.00  0.00     0.042 C 
ATOM      7  O   UNL     1      -6.471  26.751  -1.044  1.00  0.00    -0.550 OA
ATOM      8  O   UNL     1      -6.898  28.769  -0.050  1.00  0.00    -0.550 OA
ENDBRANCH   5   6
ENDBRANCH   1   5
TORSDOF 3
ENDMDL
