MODEL 1
REMARK VINA RESULT:    -8.685      0.000      0.000
REMARK INTER + INTRA:         -12.805
REMARK INTER:                 -11.985
REMARK INTRA:                  -0.819
REMARK UNBOUND:                -0.819
REMARK SMILES O=C([O-])[C@@H]1O[C@@H](Oc2cc3oc(-c4ccccc4)cc(=O)c3c(O)c2O)[C@H](O)[C@@H](O)[C@@H]1O
REMARK SMILES IDX 7 1 6 2 4 3 31 4 5 5 29 6 27 7 2 8 1 9 3 10 32 11 30 13
REMARK SMILES IDX 28 15 8 17 25 18 9 19 23 20 10 21 22 22 11 23 20 24 12 25
REMARK SMILES IDX 19 26 21 27 26 28 24 30 13 32 14 33 18 34 15 35 17 36 16 37
REMARK H PARENT 32 12 30 14 28 16 26 29 24 31
REMARK Flexibility Score: inf
ROOT
ATOM      1  O   UNL     1     -31.855  26.081   2.548  1.00  0.00    -0.458 OA
ENDROOT
BRANCH   1   2
ATOM      2  C   UNL     1     -32.359  25.336   1.430  1.00  0.00     0.339 C 
ATOM      3  C   UNL     1     -34.462  25.054   2.448  1.00  0.00     0.199 C 
ATOM      4  C   UNL     1     -34.293  23.521   2.605  1.00  0.00     0.180 C 
ATOM      5  O   UNL     1     -33.761  25.525   1.306  1.00  0.00    -0.328 OA
ATOM      6  C   UNL     1     -32.798  23.144   2.661  1.00  0.00     0.181 C 
ATOM      7  C   UNL     1     -32.003  23.832   1.530  1.00  0.00     0.214 C 
BRANCH   3   8
ATOM      8  C   UNL     1     -35.918  25.416   2.326  1.00  0.00     0.073 C 
ATOM      9  O   UNL     1     -36.322  26.558   2.680  1.00  0.00    -0.547 OA
ATOM     10  O   UNL     1     -36.837  24.477   1.871  1.00  0.00    -0.547 OA
ENDBRANCH   3   8
BRANCH   4  11
ATOM     11  O   UNL     1     -34.955  22.803   1.586  1.00  0.00    -0.387 OA
ATOM     12  H   UNL     1     -35.924  23.005   1.638  1.00  0.00     0.211 HD
ENDBRANCH   4  11
BRANCH   6  13
ATOM     13  O   UNL     1     -32.254  23.531   3.898  1.00  0.00    -0.387 OA
ATOM     14  H   UNL     1     -32.530  22.846   4.562  1.00  0.00     0.211 HD
ENDBRANCH   6  13
BRANCH   7  15
ATOM     15  O   UNL     1     -32.272  23.213   0.297  1.00  0.00    -0.384 OA
ATOM     16  H   UNL     1     -32.008  23.854  -0.414  1.00  0.00     0.211 HD
ENDBRANCH   7  15
ENDBRANCH   1   2
BRANCH   1  17
ATOM     17  C   UNL     1     -30.538  26.099   3.052  1.00  0.00     0.172 A 
ATOM     18  C   UNL     1     -30.201  25.982   4.421  1.00  0.00     0.201 A 
ATOM     19  C   UNL     1     -29.518  26.237   2.111  1.00  0.00     0.098 A 
ATOM     20  C   UNL     1     -28.851  26.045   4.830  1.00  0.00     0.176 A 
ATOM     21  C   UNL     1     -28.177  26.253   2.492  1.00  0.00     0.146 A 
ATOM     22  C   UNL     1     -27.817  26.131   3.856  1.00  0.00     0.111 A 
ATOM     23  O   UNL     1     -27.247  26.376   1.550  1.00  0.00    -0.456 OA
ATOM     24  C   UNL     1     -26.434  26.056   4.148  1.00  0.00     0.197 A 
ATOM     25  C   UNL     1     -25.944  26.375   1.803  1.00  0.00     0.138 A 
ATOM     26  C   UNL     1     -25.501  26.204   3.121  1.00  0.00     0.100 A 
ATOM     27  O   UNL     1     -26.009  25.817   5.309  1.00  0.00    -0.289 OA
BRANCH  18  28
ATOM     28  O   UNL     1     -31.200  25.806   5.379  1.00  0.00    -0.502 OA
ATOM     29  H   UNL     1     -31.361  24.926   5.853  1.00  0.00     0.293 HD
ENDBRANCH  18  28
BRANCH  20  30
ATOM     30  O   UNL     1     -28.596  26.049   6.206  1.00  0.00    -0.504 OA
ATOM     31  H   UNL     1     -28.409  26.881   6.747  1.00  0.00     0.293 HD
ENDBRANCH  20  30
BRANCH  25  32
ATOM     32  C   UNL     1     -24.993  26.526   0.673  1.00  0.00     0.017 A 
ATOM     33  C   UNL     1     -23.954  25.592   0.510  1.00  0.00     0.012 A 
ATOM     34  C   UNL     1     -25.118  27.574  -0.262  1.00  0.00     0.012 A 
ATOM     35  C   UNL     1     -23.045  25.716  -0.544  1.00  0.00     0.001 A 
ATOM     36  C   UNL     1     -24.205  27.693  -1.316  1.00  0.00     0.001 A 
ATOM     37  C   UNL     1     -23.170  26.767  -1.456  1.00  0.00     0.000 A 
ENDBRANCH  25  32
ENDBRANCH   1  17
TORSDOF 9
ENDMDL
MODEL 2
REMARK VINA RESULT:    -8.469      1.293      2.585
REMARK INTER + INTRA:         -12.507
REMARK INTER:                 -11.647
REMARK INTRA:                  -0.860
REMARK UNBOUND:                -0.819
REMARK SMILES O=C([O-])[C@@H]1O[C@@H](Oc2cc3oc(-c4ccccc4)cc(=O)c3c(O)c2O)[C@H](O)[C@@H](O)[C@@H]1O
REMARK SMILES IDX 7 1 6 2 4 3 31 4 5 5 29 6 27 7 2 8 1 9 3 10 32 11 30 13
REMARK SMILES IDX 28 15 8 17 25 18 9 19 23 20 10 21 22 22 11 23 20 24 12 25
REMARK SMILES IDX 19 26 21 27 26 28 24 30 13 32 14 33 18 34 15 35 17 36 16 37
REMARK H PARENT 32 12 30 14 28 16 26 29 24 31
REMARK Flexibility Score: inf
ROOT
ATOM      1  O   UNL     1     -31.114  26.010   2.563  1.00  0.00    -0.458 OA
ENDROOT
BRANCH   1   2
ATOM      2  C   UNL     1     -32.127  25.105   3.030  1.00  0.00     0.339 C 
ATOM      3  C   UNL     1     -32.044  23.841   1.047  1.00  0.00     0.199 C 
ATOM      4  C   UNL     1     -33.476  24.244   0.611  1.00  0.00     0.180 C 
ATOM      5  O   UNL     1     -31.935  23.818   2.463  1.00  0.00    -0.328 OA
ATOM      6  C   UNL     1     -33.870  25.600   1.234  1.00  0.00     0.181 C 
ATOM      7  C   UNL     1     -33.553  25.637   2.744  1.00  0.00     0.214 C 
BRANCH   3   8
ATOM      8  C   UNL     1     -31.684  22.488   0.495  1.00  0.00     0.073 C 
ATOM      9  O   UNL     1     -30.619  21.916   0.855  1.00  0.00    -0.547 OA
ATOM     10  O   UNL     1     -32.498  21.881  -0.456  1.00  0.00    -0.547 OA
ENDBRANCH   3   8
BRANCH   4  11
ATOM     11  O   UNL     1     -34.430  23.252   0.923  1.00  0.00    -0.387 OA
ATOM     12  H   UNL     1     -34.120  22.760   1.725  1.00  0.00     0.211 HD
ENDBRANCH   4  11
BRANCH   6  13
ATOM     13  O   UNL     1     -33.170  26.639   0.597  1.00  0.00    -0.387 OA
ATOM     14  H   UNL     1     -33.614  27.489   0.855  1.00  0.00     0.211 HD
ENDBRANCH   6  13
BRANCH   7  15
ATOM     15  O   UNL     1     -34.484  24.864   3.458  1.00  0.00    -0.384 OA
ATOM     16  H   UNL     1     -35.364  25.315   3.373  1.00  0.00     0.211 HD
ENDBRANCH   7  15
ENDBRANCH   1   2
BRANCH   1  17
ATOM     17  C   UNL     1     -29.763  26.074   2.960  1.00  0.00     0.172 A 
ATOM     18  C   UNL     1     -29.314  25.967   4.297  1.00  0.00     0.201 A 
ATOM     19  C   UNL     1     -28.827  26.252   1.942  1.00  0.00     0.098 A 
ATOM     20  C   UNL     1     -27.939  26.078   4.597  1.00  0.00     0.176 A 
ATOM     21  C   UNL     1     -27.462  26.316   2.215  1.00  0.00     0.146 A 
ATOM     22  C   UNL     1     -26.989  26.204   3.545  1.00  0.00     0.111 A 
ATOM     23  O   UNL     1     -26.615  26.474   1.202  1.00  0.00    -0.456 OA
ATOM     24  C   UNL     1     -25.586  26.178   3.725  1.00  0.00     0.197 A 
ATOM     25  C   UNL     1     -25.296  26.521   1.351  1.00  0.00     0.138 A 
ATOM     26  C   UNL     1     -24.743  26.362   2.628  1.00  0.00     0.100 A 
ATOM     27  O   UNL     1     -25.061  25.953   4.848  1.00  0.00    -0.289 OA
BRANCH  18  28
ATOM     28  O   UNL     1     -30.226  25.753   5.331  1.00  0.00    -0.502 OA
ATOM     29  H   UNL     1     -31.228  25.827   5.207  1.00  0.00     0.293 HD
ENDBRANCH  18  28
BRANCH  20  30
ATOM     30  O   UNL     1     -27.576  26.088   5.949  1.00  0.00    -0.504 OA
ATOM     31  H   UNL     1     -28.223  25.958   6.713  1.00  0.00     0.293 HD
ENDBRANCH  20  30
BRANCH  25  32
ATOM     32  C   UNL     1     -24.445  26.709   0.149  1.00  0.00     0.017 A 
ATOM     33  C   UNL     1     -23.452  25.759  -0.154  1.00  0.00     0.012 A 
ATOM     34  C   UNL     1     -24.621  27.808  -0.717  1.00  0.00     0.012 A 
ATOM     35  C   UNL     1     -22.635  25.918  -1.277  1.00  0.00     0.001 A 
ATOM     36  C   UNL     1     -23.802  27.960  -1.841  1.00  0.00     0.001 A 
ATOM     37  C   UNL     1     -22.810  27.018  -2.119  1.00  0.00     0.000 A 
ENDBRANCH  25  32
ENDBRANCH   1  17
TORSDOF 9
ENDMDL
MODEL 3
REMARK VINA RESULT:    -8.267      2.851      8.404
REMARK INTER + INTRA:         -12.228
REMARK INTER:                 -11.118
REMARK INTRA:                  -1.110
REMARK UNBOUND:                -0.819
REMARK SMILES O=C([O-])[C@@H]1O[C@@H](Oc2cc3oc(-c4ccccc4)cc(=O)c3c(O)c2O)[C@H](O)[C@@H](O)[C@@H]1O
REMARK SMILES IDX 7 1 6 2 4 3 31 4 5 5 29 6 27 7 2 8 1 9 3 10 32 11 30 13
REMARK SMILES IDX 28 15 8 17 25 18 9 19 23 20 10 21 22 22 11 23 20 24 12 25
REMARK SMILES IDX 19 26 21 27 26 28 24 30 13 32 14 33 18 34 15 35 17 36 16 37
REMARK H PARENT 32 12 30 14 28 16 26 29 24 31
REMARK Flexibility Score: inf
ROOT
ATOM      1  O   UNL     1     -26.945  26.151  -0.027  1.00  0.00    -0.458 OA
ENDROOT
BRANCH   1   2
ATOM      2  C   UNL     1     -25.748  25.358  -0.032  1.00  0.00     0.339 C 
ATOM      3  C   UNL     1     -25.401  25.700   2.270  1.00  0.00     0.199 C 
ATOM      4  C   UNL     1     -24.112  26.534   2.054  1.00  0.00     0.180 C 
ATOM      5  O   UNL     1     -25.562  24.742   1.233  1.00  0.00    -0.328 OA
ATOM      6  C   UNL     1     -24.125  27.200   0.662  1.00  0.00     0.181 C 
ATOM      7  C   UNL     1     -24.507  26.189  -0.440  1.00  0.00     0.214 C 
BRANCH   3   8
ATOM      8  C   UNL     1     -25.359  24.997   3.600  1.00  0.00     0.073 C 
ATOM      9  O   UNL     1     -24.528  24.070   3.805  1.00  0.00    -0.547 OA
ATOM     10  O   UNL     1     -26.271  25.329   4.597  1.00  0.00    -0.547 OA
ENDBRANCH   3   8
BRANCH   4  11
ATOM     11  O   UNL     1     -22.941  25.767   2.233  1.00  0.00    -0.387 OA
ATOM     12  H   UNL     1     -22.251  26.340   2.653  1.00  0.00     0.211 HD
ENDBRANCH   4  11
BRANCH   6  13
ATOM     13  O   UNL     1     -25.050  28.259   0.648  1.00  0.00    -0.387 OA
ATOM     14  H   UNL     1     -24.837  28.818  -0.145  1.00  0.00     0.211 HD
ENDBRANCH   6  13
BRANCH   7  15
ATOM     15  O   UNL     1     -23.435  25.317  -0.696  1.00  0.00    -0.384 OA
ATOM     16  H   UNL     1     -23.821  24.412  -0.832  1.00  0.00     0.211 HD
ENDBRANCH   7  15
ENDBRANCH   1   2
BRANCH   1  17
ATOM     17  C   UNL     1     -28.225  25.783   0.437  1.00  0.00     0.172 A 
ATOM     18  C   UNL     1     -28.979  26.518   1.382  1.00  0.00     0.201 A 
ATOM     19  C   UNL     1     -28.761  24.610  -0.095  1.00  0.00     0.098 A 
ATOM     20  C   UNL     1     -30.239  26.047   1.809  1.00  0.00     0.176 A 
ATOM     21  C   UNL     1     -30.024  24.156   0.279  1.00  0.00     0.146 A 
ATOM     22  C   UNL     1     -30.799  24.879   1.218  1.00  0.00     0.111 A 
ATOM     23  O   UNL     1     -30.488  23.038  -0.270  1.00  0.00    -0.456 OA
ATOM     24  C   UNL     1     -32.109  24.405   1.467  1.00  0.00     0.197 A 
ATOM     25  C   UNL     1     -31.688  22.534  -0.003  1.00  0.00     0.138 A 
ATOM     26  C   UNL     1     -32.540  23.218   0.874  1.00  0.00     0.100 A 
ATOM     27  O   UNL     1     -32.925  25.044   2.183  1.00  0.00    -0.289 OA
BRANCH  18  28
ATOM     28  O   UNL     1     -28.482  27.714   1.902  1.00  0.00    -0.502 OA
ATOM     29  H   UNL     1     -29.038  28.342   2.467  1.00  0.00     0.293 HD
ENDBRANCH  18  28
BRANCH  20  30
ATOM     30  O   UNL     1     -30.875  26.754   2.835  1.00  0.00    -0.504 OA
ATOM     31  H   UNL     1     -31.454  27.568   2.691  1.00  0.00     0.293 HD
ENDBRANCH  20  30
BRANCH  25  32
ATOM     32  C   UNL     1     -32.101  21.273  -0.669  1.00  0.00     0.017 A 
ATOM     33  C   UNL     1     -31.181  20.582  -1.478  1.00  0.00     0.012 A 
ATOM     34  C   UNL     1     -33.392  20.734  -0.494  1.00  0.00     0.012 A 
ATOM     35  C   UNL     1     -31.550  19.396  -2.119  1.00  0.00     0.001 A 
ATOM     36  C   UNL     1     -33.755  19.545  -1.136  1.00  0.00     0.001 A 
ATOM     37  C   UNL     1     -32.836  18.878  -1.949  1.00  0.00     0.000 A 
ENDBRANCH  25  32
ENDBRANCH   1  17
TORSDOF 9
ENDMDL
MODEL 4
REMARK VINA RESULT:    -8.079      5.137      9.741
REMARK INTER + INTRA:         -11.968
REMARK INTER:                 -10.793
REMARK INTRA:                  -1.175
REMARK UNBOUND:                -0.819
REMARK SMILES O=C([O-])[C@@H]1O[C@@H](Oc2cc3oc(-c4ccccc4)cc(=O)c3c(O)c2O)[C@H](O)[C@@H](O)[C@@H]1O
REMARK SMILES IDX 7 1 6 2 4 3 31 4 5 5 29 6 27 7 2 8 1 9 3 10 32 11 30 13
REMARK SMILES IDX 28 15 8 17 25 18 9 19 23 20 10 21 22 22 11 23 20 24 12 25
REMARK SMILES IDX 19 26 21 27 26 28 24 30 13 32 14 33 18 34 15 35 17 36 16 37
REMARK H PARENT 32 12 30 14 28 16 26 29 24 31
REMARK Flexibility Score: inf
ROOT
ATOM      1  O   UNL     1     -32.694  23.053   0.610  1.00  0.00    -0.458 OA
ENDROOT
BRANCH   1   2
ATOM      2  C   UNL     1     -32.859  23.291   2.016  1.00  0.00     0.339 C 
ATOM      3  C   UNL     1     -35.036  24.132   1.712  1.00  0.00     0.199 C 
ATOM      4  C   UNL     1     -34.649  25.571   2.141  1.00  0.00     0.180 C 
ATOM      5  O   UNL     1     -34.227  23.172   2.377  1.00  0.00    -0.328 OA
ATOM      6  C   UNL     1     -33.146  25.823   1.893  1.00  0.00     0.181 C 
ATOM      7  C   UNL     1     -32.285  24.665   2.440  1.00  0.00     0.214 C 
BRANCH   3   8
ATOM      8  C   UNL     1     -36.485  23.862   2.014  1.00  0.00     0.073 C 
ATOM      9  O   UNL     1     -37.337  24.789   1.931  1.00  0.00    -0.547 OA
ATOM     10  O   UNL     1     -36.889  22.600   2.439  1.00  0.00    -0.547 OA
ENDBRANCH   3   8
BRANCH   4  11
ATOM     11  O   UNL     1     -34.989  25.838   3.484  1.00  0.00    -0.387 OA
ATOM     12  H   UNL     1     -35.701  26.526   3.497  1.00  0.00     0.211 HD
ENDBRANCH   4  11
BRANCH   6  13
ATOM     13  O   UNL     1     -32.906  25.957   0.515  1.00  0.00    -0.387 OA
ATOM     14  H   UNL     1     -32.014  26.384   0.417  1.00  0.00     0.211 HD
ENDBRANCH   6  13
BRANCH   7  15
ATOM     15  O   UNL     1     -32.222  24.723   3.843  1.00  0.00    -0.384 OA
ATOM     16  H   UNL     1     -33.010  25.244   4.149  1.00  0.00     0.211 HD
ENDBRANCH   7  15
ENDBRANCH   1   2
BRANCH   1  17
ATOM     17  C   UNL     1     -32.451  21.824  -0.036  1.00  0.00     0.172 A 
ATOM     18  C   UNL     1     -31.183  21.392  -0.491  1.00  0.00     0.201 A 
ATOM     19  C   UNL     1     -33.557  20.994  -0.222  1.00  0.00     0.098 A 
ATOM     20  C   UNL     1     -31.048  20.156  -1.158  1.00  0.00     0.176 A 
ATOM     21  C   UNL     1     -33.434  19.749  -0.836  1.00  0.00     0.146 A 
ATOM     22  C   UNL     1     -32.173  19.294  -1.292  1.00  0.00     0.111 A 
ATOM     23  O   UNL     1     -34.521  18.996  -0.974  1.00  0.00    -0.456 OA
ATOM     24  C   UNL     1     -32.117  17.979  -1.812  1.00  0.00     0.197 A 
ATOM     25  C   UNL     1     -34.507  17.785  -1.520  1.00  0.00     0.138 A 
ATOM     26  C   UNL     1     -33.291  17.238  -1.948  1.00  0.00     0.100 A 
ATOM     27  O   UNL     1     -31.027  17.431  -2.125  1.00  0.00    -0.289 OA
BRANCH  18  28
ATOM     28  O   UNL     1     -30.054  22.187  -0.286  1.00  0.00    -0.502 OA
ATOM     29  H   UNL     1     -29.811  22.965  -0.887  1.00  0.00     0.293 HD
ENDBRANCH  18  28
BRANCH  20  30
ATOM     30  O   UNL     1     -29.792  19.848  -1.692  1.00  0.00    -0.504 OA
ATOM     31  H   UNL     1     -29.162  19.162  -1.302  1.00  0.00     0.293 HD
ENDBRANCH  20  30
BRANCH  25  32
ATOM     32  C   UNL     1     -35.784  17.034  -1.631  1.00  0.00     0.017 A 
ATOM     33  C   UNL     1     -36.993  17.739  -1.772  1.00  0.00     0.012 A 
ATOM     34  C   UNL     1     -35.815  15.624  -1.622  1.00  0.00     0.012 A 
ATOM     35  C   UNL     1     -38.207  17.053  -1.873  1.00  0.00     0.001 A 
ATOM     36  C   UNL     1     -37.033  14.944  -1.726  1.00  0.00     0.001 A 
ATOM     37  C   UNL     1     -38.227  15.657  -1.850  1.00  0.00     0.000 A 
ENDBRANCH  25  32
ENDBRANCH   1  17
TORSDOF 9
ENDMDL
MODEL 5
REMARK VINA RESULT:    -7.997      2.898      4.555
REMARK INTER + INTRA:         -11.856
REMARK INTER:                 -10.741
REMARK INTRA:                  -1.115
REMARK UNBOUND:                -0.819
REMARK SMILES O=C([O-])[C@@H]1O[C@@H](Oc2cc3oc(-c4ccccc4)cc(=O)c3c(O)c2O)[C@H](O)[C@@H](O)[C@@H]1O
REMARK SMILES IDX 7 1 6 2 4 3 31 4 5 5 29 6 27 7 2 8 1 9 3 10 32 11 30 13
REMARK SMILES IDX 28 15 8 17 25 18 9 19 23 20 10 21 22 22 11 23 20 24 12 25
REMARK SMILES IDX 19 26 21 27 26 28 24 30 13 32 14 33 18 34 15 35 17 36 16 37
REMARK H PARENT 32 12 30 14 28 16 26 29 24 31
REMARK Flexibility Score: inf
ROOT
ATOM      1  O   UNL     1     -30.735  23.687   0.011  1.00  0.00    -0.458 OA
ENDROOT
BRANCH   1   2
ATOM      2  C   UNL     1     -31.133  22.616   0.881  1.00  0.00     0.339 C 
ATOM      3  C   UNL     1     -31.683  21.222  -0.933  1.00  0.00     0.199 C 
ATOM      4  C   UNL     1     -33.198  21.226  -0.607  1.00  0.00     0.180 C 
ATOM      5  O   UNL     1     -30.911  21.363   0.251  1.00  0.00    -0.328 OA
ATOM      6  C   UNL     1     -33.581  22.503   0.172  1.00  0.00     0.181 C 
ATOM      7  C   UNL     1     -32.605  22.761   1.339  1.00  0.00     0.214 C 
BRANCH   3   8
ATOM      8  C   UNL     1     -31.296  19.948  -1.634  1.00  0.00     0.073 C 
ATOM      9  O   UNL     1     -32.185  19.148  -2.039  1.00  0.00    -0.547 OA
ATOM     10  O   UNL     1     -29.955  19.616  -1.794  1.00  0.00    -0.547 OA
ENDBRANCH   3   8
BRANCH   4  11
ATOM     11  O   UNL     1     -33.598  20.070   0.096  1.00  0.00    -0.387 OA
ATOM     12  H   UNL     1     -32.865  19.404   0.048  1.00  0.00     0.211 HD
ENDBRANCH   4  11
BRANCH   6  13
ATOM     13  O   UNL     1     -33.562  23.612  -0.691  1.00  0.00    -0.387 OA
ATOM     14  H   UNL     1     -34.188  24.284  -0.313  1.00  0.00     0.211 HD
ENDBRANCH   6  13
BRANCH   7  15
ATOM     15  O   UNL     1     -32.849  21.860   2.390  1.00  0.00    -0.384 OA
ATOM     16  H   UNL     1     -32.655  20.950   2.045  1.00  0.00     0.211 HD
ENDBRANCH   7  15
ENDBRANCH   1   2
BRANCH   1  17
ATOM     17  C   UNL     1     -29.650  24.573   0.171  1.00  0.00     0.172 A 
ATOM     18  C   UNL     1     -29.740  25.852   0.769  1.00  0.00     0.201 A 
ATOM     19  C   UNL     1     -28.414  24.129  -0.299  1.00  0.00     0.098 A 
ATOM     20  C   UNL     1     -28.601  26.681   0.852  1.00  0.00     0.176 A 
ATOM     21  C   UNL     1     -27.269  24.914  -0.181  1.00  0.00     0.146 A 
ATOM     22  C   UNL     1     -27.335  26.195   0.420  1.00  0.00     0.111 A 
ATOM     23  O   UNL     1     -26.116  24.433  -0.636  1.00  0.00    -0.456 OA
ATOM     24  C   UNL     1     -26.111  26.885   0.591  1.00  0.00     0.197 A 
ATOM     25  C   UNL     1     -24.964  25.089  -0.549  1.00  0.00     0.138 A 
ATOM     26  C   UNL     1     -24.932  26.339   0.082  1.00  0.00     0.100 A 
ATOM     27  O   UNL     1     -26.039  27.969   1.228  1.00  0.00    -0.289 OA
BRANCH  18  28
ATOM     28  O   UNL     1     -30.957  26.306   1.280  1.00  0.00    -0.502 OA
ATOM     29  H   UNL     1     -31.776  25.717   1.359  1.00  0.00     0.293 HD
ENDBRANCH  18  28
BRANCH  20  30
ATOM     30  O   UNL     1     -28.785  27.979   1.341  1.00  0.00    -0.504 OA
ATOM     31  H   UNL     1     -29.315  28.205   2.170  1.00  0.00     0.293 HD
ENDBRANCH  20  30
BRANCH  25  32
ATOM     32  C   UNL     1     -23.737  24.459  -1.098  1.00  0.00     0.017 A 
ATOM     33  C   UNL     1     -22.531  25.182  -1.109  1.00  0.00     0.012 A 
ATOM     34  C   UNL     1     -23.742  23.137  -1.589  1.00  0.00     0.012 A 
ATOM     35  C   UNL     1     -21.364  24.611  -1.625  1.00  0.00     0.001 A 
ATOM     36  C   UNL     1     -22.570  22.570  -2.102  1.00  0.00     0.001 A 
ATOM     37  C   UNL     1     -21.384  23.306  -2.122  1.00  0.00     0.000 A 
ENDBRANCH  25  32
ENDBRANCH   1  17
TORSDOF 9
ENDMDL
MODEL 6
REMARK VINA RESULT:    -7.621      2.969      9.473
REMARK INTER + INTRA:         -11.337
REMARK INTER:                 -10.249
REMARK INTRA:                  -1.088
REMARK UNBOUND:                -0.819
REMARK SMILES O=C([O-])[C@@H]1O[C@@H](Oc2cc3oc(-c4ccccc4)cc(=O)c3c(O)c2O)[C@H](O)[C@@H](O)[C@@H]1O
REMARK SMILES IDX 7 1 6 2 4 3 31 4 5 5 29 6 27 7 2 8 1 9 3 10 32 11 30 13
REMARK SMILES IDX 28 15 8 17 25 18 9 19 23 20 10 21 22 22 11 23 20 24 12 25
REMARK SMILES IDX 19 26 21 27 26 28 24 30 13 32 14 33 18 34 15 35 17 36 16 37
REMARK H PARENT 32 12 30 14 28 16 26 29 24 31
REMARK Flexibility Score: inf
ROOT
ATOM      1  O   UNL     1     -27.130  25.400   0.219  1.00  0.00    -0.458 OA
ENDROOT
BRANCH   1   2
ATOM      2  C   UNL     1     -26.195  26.019  -0.679  1.00  0.00     0.339 C 
ATOM      3  C   UNL     1     -24.480  24.529  -0.067  1.00  0.00     0.199 C 
ATOM      4  C   UNL     1     -23.623  25.633   0.604  1.00  0.00     0.180 C 
ATOM      5  O   UNL     1     -25.248  25.065  -1.135  1.00  0.00    -0.328 OA
ATOM      6  C   UNL     1     -24.516  26.800   1.076  1.00  0.00     0.181 C 
ATOM      7  C   UNL     1     -25.496  27.240  -0.032  1.00  0.00     0.214 C 
BRANCH   3   8
ATOM      8  C   UNL     1     -23.603  23.422  -0.587  1.00  0.00     0.073 C 
ATOM      9  O   UNL     1     -23.991  22.699  -1.545  1.00  0.00    -0.547 OA
ATOM     10  O   UNL     1     -22.380  23.153   0.020  1.00  0.00    -0.547 OA
ENDBRANCH   3   8
BRANCH   4  11
ATOM     11  O   UNL     1     -22.592  26.098  -0.241  1.00  0.00    -0.387 OA
ATOM     12  H   UNL     1     -23.005  26.511  -1.041  1.00  0.00     0.211 HD
ENDBRANCH   4  11
BRANCH   6  13
ATOM     13  O   UNL     1     -25.254  26.409   2.206  1.00  0.00    -0.387 OA
ATOM     14  H   UNL     1     -26.202  26.332   1.921  1.00  0.00     0.211 HD
ENDBRANCH   6  13
BRANCH   7  15
ATOM     15  O   UNL     1     -24.815  27.960  -1.029  1.00  0.00    -0.384 OA
ATOM     16  H   UNL     1     -25.029  28.920  -0.892  1.00  0.00     0.211 HD
ENDBRANCH   7  15
ENDBRANCH   1   2
BRANCH   1  17
ATOM     17  C   UNL     1     -28.217  24.564  -0.107  1.00  0.00     0.172 A 
ATOM     18  C   UNL     1     -28.125  23.409  -0.919  1.00  0.00     0.201 A 
ATOM     19  C   UNL     1     -29.455  24.921   0.427  1.00  0.00     0.098 A 
ATOM     20  C   UNL     1     -29.279  22.654  -1.216  1.00  0.00     0.176 A 
ATOM     21  C   UNL     1     -30.596  24.160   0.183  1.00  0.00     0.146 A 
ATOM     22  C   UNL     1     -30.526  22.997  -0.621  1.00  0.00     0.111 A 
ATOM     23  O   UNL     1     -31.747  24.543   0.729  1.00  0.00    -0.456 OA
ATOM     24  C   UNL     1     -31.708  22.226  -0.736  1.00  0.00     0.197 A 
ATOM     25  C   UNL     1     -32.885  23.875   0.581  1.00  0.00     0.138 A 
ATOM     26  C   UNL     1     -32.891  22.682  -0.154  1.00  0.00     0.100 A 
ATOM     27  O   UNL     1     -31.722  21.110  -1.318  1.00  0.00    -0.289 OA
BRANCH  18  28
ATOM     28  O   UNL     1     -26.892  23.008  -1.437  1.00  0.00    -0.502 OA
ATOM     29  H   UNL     1     -26.056  22.933  -0.872  1.00  0.00     0.293 HD
ENDBRANCH  18  28
BRANCH  20  30
ATOM     30  O   UNL     1     -29.141  21.598  -2.125  1.00  0.00    -0.504 OA
ATOM     31  H   UNL     1     -29.892  21.236  -2.694  1.00  0.00     0.293 HD
ENDBRANCH  20  30
BRANCH  25  32
ATOM     32  C   UNL     1     -34.113  24.399   1.230  1.00  0.00     0.017 A 
ATOM     33  C   UNL     1     -35.334  23.721   1.055  1.00  0.00     0.012 A 
ATOM     34  C   UNL     1     -34.086  25.551   2.043  1.00  0.00     0.012 A 
ATOM     35  C   UNL     1     -36.504  24.199   1.652  1.00  0.00     0.001 A 
ATOM     36  C   UNL     1     -35.260  26.022   2.640  1.00  0.00     0.001 A 
ATOM     37  C   UNL     1     -36.467  25.349   2.443  1.00  0.00     0.000 A 
ENDBRANCH  25  32
ENDBRANCH   1  17
TORSDOF 9
ENDMDL
MODEL 7
REMARK VINA RESULT:    -7.518      2.351      3.233
REMARK INTER + INTRA:         -11.195
REMARK INTER:                  -9.944
REMARK INTRA:                  -1.251
REMARK UNBOUND:                -0.819
REMARK SMILES O=C([O-])[C@@H]1O[C@@H](Oc2cc3oc(-c4ccccc4)cc(=O)c3c(O)c2O)[C@H](O)[C@@H](O)[C@@H]1O
REMARK SMILES IDX 7 1 6 2 4 3 31 4 5 5 29 6 27 7 2 8 1 9 3 10 32 11 30 13
REMARK SMILES IDX 28 15 8 17 25 18 9 19 23 20 10 21 22 22 11 23 20 24 12 25
REMARK SMILES IDX 19 26 21 27 26 28 24 30 13 32 14 33 18 34 15 35 17 36 16 37
REMARK H PARENT 32 12 30 14 28 16 26 29 24 31
REMARK Flexibility Score: inf
ROOT
ATOM      1  O   UNL     1     -30.771  23.948   0.617  1.00  0.00    -0.458 OA
ENDROOT
BRANCH   1   2
ATOM      2  C   UNL     1     -32.014  24.134  -0.079  1.00  0.00     0.339 C 
ATOM      3  C   UNL     1     -33.215  24.343   1.934  1.00  0.00     0.199 C 
ATOM      4  C   UNL     1     -34.002  23.024   1.719  1.00  0.00     0.180 C 
ATOM      5  O   UNL     1     -32.889  24.945   0.689  1.00  0.00    -0.328 OA
ATOM      6  C   UNL     1     -33.206  22.061   0.812  1.00  0.00     0.181 C 
ATOM      7  C   UNL     1     -32.677  22.783  -0.445  1.00  0.00     0.214 C 
BRANCH   3   8
ATOM      8  C   UNL     1     -34.018  25.309   2.763  1.00  0.00     0.073 C 
ATOM      9  O   UNL     1     -33.594  25.688   3.889  1.00  0.00    -0.547 OA
ATOM     10  O   UNL     1     -35.260  25.750   2.317  1.00  0.00    -0.547 OA
ENDBRANCH   3   8
BRANCH   4  11
ATOM     11  O   UNL     1     -35.294  23.251   1.200  1.00  0.00    -0.387 OA
ATOM     12  H   UNL     1     -35.938  22.692   1.705  1.00  0.00     0.211 HD
ENDBRANCH   4  11
BRANCH   6  13
ATOM     13  O   UNL     1     -32.117  21.528   1.522  1.00  0.00    -0.387 OA
ATOM     14  H   UNL     1     -32.490  20.908   2.202  1.00  0.00     0.211 HD
ENDBRANCH   6  13
BRANCH   7  15
ATOM     15  O   UNL     1     -33.726  23.018  -1.352  1.00  0.00    -0.384 OA
ATOM     16  H   UNL     1     -33.596  23.933  -1.717  1.00  0.00     0.211 HD
ENDBRANCH   7  15
ENDBRANCH   1   2
BRANCH   1  17
ATOM     17  C   UNL     1     -29.636  24.783   0.595  1.00  0.00     0.172 A 
ATOM     18  C   UNL     1     -29.617  26.123   1.049  1.00  0.00     0.201 A 
ATOM     19  C   UNL     1     -28.463  24.221   0.092  1.00  0.00     0.098 A 
ATOM     20  C   UNL     1     -28.436  26.890   0.954  1.00  0.00     0.176 A 
ATOM     21  C   UNL     1     -27.276  24.948   0.036  1.00  0.00     0.146 A 
ATOM     22  C   UNL     1     -27.232  26.288   0.490  1.00  0.00     0.111 A 
ATOM     23  O   UNL     1     -26.186  24.355  -0.443  1.00  0.00    -0.456 OA
ATOM     24  C   UNL     1     -25.967  26.922   0.492  1.00  0.00     0.197 A 
ATOM     25  C   UNL     1     -25.001  24.949  -0.515  1.00  0.00     0.138 A 
ATOM     26  C   UNL     1     -24.859  26.258  -0.035  1.00  0.00     0.100 A 
ATOM     27  O   UNL     1     -25.793  28.064   0.995  1.00  0.00    -0.289 OA
BRANCH  18  28
ATOM     28  O   UNL     1     -30.766  26.700   1.591  1.00  0.00    -0.502 OA
ATOM     29  H   UNL     1     -31.545  27.014   1.024  1.00  0.00     0.293 HD
ENDBRANCH  18  28
BRANCH  20  30
ATOM     30  O   UNL     1     -28.518  28.243   1.303  1.00  0.00    -0.504 OA
ATOM     31  H   UNL     1     -28.099  28.993   0.773  1.00  0.00     0.293 HD
ENDBRANCH  20  30
BRANCH  25  32
ATOM     32  C   UNL     1     -23.852  24.194  -1.075  1.00  0.00     0.017 A 
ATOM     33  C   UNL     1     -22.588  24.806  -1.148  1.00  0.00     0.012 A 
ATOM     34  C   UNL     1     -23.989  22.862  -1.518  1.00  0.00     0.012 A 
ATOM     35  C   UNL     1     -21.493  24.116  -1.676  1.00  0.00     0.001 A 
ATOM     36  C   UNL     1     -22.889  22.175  -2.043  1.00  0.00     0.001 A 
ATOM     37  C   UNL     1     -21.644  22.802  -2.124  1.00  0.00     0.000 A 
ENDBRANCH  25  32
ENDBRANCH   1  17
TORSDOF 9
ENDMDL
MODEL 8
REMARK VINA RESULT:    -7.433      3.179      8.368
REMARK INTER + INTRA:         -11.077
REMARK INTER:                  -9.879
REMARK INTRA:                  -1.198
REMARK UNBOUND:                -0.819
REMARK SMILES O=C([O-])[C@@H]1O[C@@H](Oc2cc3oc(-c4ccccc4)cc(=O)c3c(O)c2O)[C@H](O)[C@@H](O)[C@@H]1O
REMARK SMILES IDX 7 1 6 2 4 3 31 4 5 5 29 6 27 7 2 8 1 9 3 10 32 11 30 13
REMARK SMILES IDX 28 15 8 17 25 18 9 19 23 20 10 21 22 22 11 23 20 24 12 25
REMARK SMILES IDX 19 26 21 27 26 28 24 30 13 32 14 33 18 34 15 35 17 36 16 37
REMARK H PARENT 32 12 30 14 28 16 26 29 24 31
REMARK Flexibility Score: inf
ROOT
ATOM      1  O   UNL     1     -29.026  25.891   1.840  1.00  0.00    -0.458 OA
ENDROOT
BRANCH   1   2
ATOM      2  C   UNL     1     -28.207  26.792   1.079  1.00  0.00     0.339 C 
ATOM      3  C   UNL     1     -26.735  25.067   0.447  1.00  0.00     0.199 C 
ATOM      4  C   UNL     1     -25.547  25.649   1.255  1.00  0.00     0.180 C 
ATOM      5  O   UNL     1     -27.596  26.105  -0.002  1.00  0.00    -0.328 OA
ATOM      6  C   UNL     1     -26.060  26.511   2.428  1.00  0.00     0.181 C 
ATOM      7  C   UNL     1     -27.151  27.499   1.963  1.00  0.00     0.214 C 
BRANCH   3   8
ATOM      8  C   UNL     1     -26.237  24.282  -0.735  1.00  0.00     0.073 C 
ATOM      9  O   UNL     1     -27.038  23.909  -1.636  1.00  0.00    -0.547 OA
ATOM     10  O   UNL     1     -24.897  23.916  -0.818  1.00  0.00    -0.547 OA
ENDBRANCH   3   8
BRANCH   4  11
ATOM     11  O   UNL     1     -24.656  26.384   0.444  1.00  0.00    -0.387 OA
ATOM     12  H   UNL     1     -24.452  27.241   0.897  1.00  0.00     0.211 HD
ENDBRANCH   4  11
BRANCH   6  13
ATOM     13  O   UNL     1     -26.594  25.684   3.431  1.00  0.00    -0.387 OA
ATOM     14  H   UNL     1     -26.031  25.809   4.240  1.00  0.00     0.211 HD
ENDBRANCH   6  13
BRANCH   7  15
ATOM     15  O   UNL     1     -26.576  28.556   1.235  1.00  0.00    -0.384 OA
ATOM     16  H   UNL     1     -27.266  29.265   1.158  1.00  0.00     0.211 HD
ENDBRANCH   7  15
ENDBRANCH   1   2
BRANCH   1  17
ATOM     17  C   UNL     1     -30.298  25.385   1.504  1.00  0.00     0.172 A 
ATOM     18  C   UNL     1     -31.515  26.083   1.693  1.00  0.00     0.201 A 
ATOM     19  C   UNL     1     -30.328  24.109   0.943  1.00  0.00     0.098 A 
ATOM     20  C   UNL     1     -32.743  25.476   1.355  1.00  0.00     0.176 A 
ATOM     21  C   UNL     1     -31.528  23.514   0.558  1.00  0.00     0.146 A 
ATOM     22  C   UNL     1     -32.757  24.197   0.732  1.00  0.00     0.111 A 
ATOM     23  O   UNL     1     -31.494  22.300   0.017  1.00  0.00    -0.456 OA
ATOM     24  C   UNL     1     -33.917  23.565   0.224  1.00  0.00     0.197 A 
ATOM     25  C   UNL     1     -32.576  21.656  -0.406  1.00  0.00     0.138 A 
ATOM     26  C   UNL     1     -33.825  22.284  -0.321  1.00  0.00     0.100 A 
ATOM     27  O   UNL     1     -35.038  24.139   0.210  1.00  0.00    -0.289 OA
BRANCH  18  28
ATOM     28  O   UNL     1     -31.510  27.376   2.219  1.00  0.00    -0.502 OA
ATOM     29  H   UNL     1     -31.462  27.566   3.212  1.00  0.00     0.293 HD
ENDBRANCH  18  28
BRANCH  20  30
ATOM     30  O   UNL     1     -33.914  26.169   1.683  1.00  0.00    -0.504 OA
ATOM     31  H   UNL     1     -34.197  26.392   2.626  1.00  0.00     0.293 HD
ENDBRANCH  20  30
BRANCH  25  32
ATOM     32  C   UNL     1     -32.421  20.299  -0.988  1.00  0.00     0.017 A 
ATOM     33  C   UNL     1     -33.508  19.407  -0.967  1.00  0.00     0.012 A 
ATOM     34  C   UNL     1     -31.213  19.885  -1.587  1.00  0.00     0.012 A 
ATOM     35  C   UNL     1     -33.384  18.122  -1.504  1.00  0.00     0.001 A 
ATOM     36  C   UNL     1     -31.096  18.599  -2.125  1.00  0.00     0.001 A 
ATOM     37  C   UNL     1     -32.179  17.719  -2.082  1.00  0.00     0.000 A 
ENDBRANCH  25  32
ENDBRANCH   1  17
TORSDOF 9
ENDMDL
MODEL 9
REMARK VINA RESULT:    -7.334     13.786     15.757
REMARK INTER + INTRA:         -10.941
REMARK INTER:                 -10.125
REMARK INTRA:                  -0.816
REMARK UNBOUND:                -0.819
REMARK SMILES O=C([O-])[C@@H]1O[C@@H](Oc2cc3oc(-c4ccccc4)cc(=O)c3c(O)c2O)[C@H](O)[C@@H](O)[C@@H]1O
REMARK SMILES IDX 7 1 6 2 4 3 31 4 5 5 29 6 27 7 2 8 1 9 3 10 32 11 30 13
REMARK SMILES IDX 28 15 8 17 25 18 9 19 23 20 10 21 22 22 11 23 20 24 12 25
REMARK SMILES IDX 19 26 21 27 26 28 24 30 13 32 14 33 18 34 15 35 17 36 16 37
REMARK H PARENT 32 12 30 14 28 16 26 29 24 31
REMARK Flexibility Score: inf
ROOT
ATOM      1  O   UNL     1     -27.621  15.820  15.003  1.00  0.00    -0.458 OA
ENDROOT
BRANCH   1   2
ATOM      2  C   UNL     1     -28.452  16.771  14.319  1.00  0.00     0.339 C 
ATOM      3  C   UNL     1     -27.847  18.501  15.794  1.00  0.00     0.199 C 
ATOM      4  C   UNL     1     -29.270  18.620  16.398  1.00  0.00     0.180 C 
ATOM      5  O   UNL     1     -27.907  18.076  14.440  1.00  0.00    -0.328 OA
ATOM      6  C   UNL     1     -30.032  17.285  16.254  1.00  0.00     0.181 C 
ATOM      7  C   UNL     1     -29.916  16.725  14.821  1.00  0.00     0.214 C 
BRANCH   3   8
ATOM      8  C   UNL     1     -27.127  19.819  15.874  1.00  0.00     0.073 C 
ATOM      9  O   UNL     1     -27.602  20.764  16.563  1.00  0.00    -0.547 OA
ATOM     10  O   UNL     1     -25.958  20.024  15.148  1.00  0.00    -0.547 OA
ENDBRANCH   3   8
BRANCH   4  11
ATOM     11  O   UNL     1     -30.005  19.682  15.831  1.00  0.00    -0.387 OA
ATOM     12  H   UNL     1     -29.794  20.512  16.331  1.00  0.00     0.211 HD
ENDBRANCH   4  11
BRANCH   6  13
ATOM     13  O   UNL     1     -29.514  16.340  17.156  1.00  0.00    -0.387 OA
ATOM     14  H   UNL     1     -28.657  16.706  17.499  1.00  0.00     0.211 HD
ENDBRANCH   6  13
BRANCH   7  15
ATOM     15  O   UNL     1     -30.727  17.461  13.940  1.00  0.00    -0.384 OA
ATOM     16  H   UNL     1     -31.638  17.485  14.335  1.00  0.00     0.211 HD
ENDBRANCH   7  15
ENDBRANCH   1   2
BRANCH   1  17
ATOM     17  C   UNL     1     -26.217  15.832  15.128  1.00  0.00     0.172 A 
ATOM     18  C   UNL     1     -25.515  15.530  16.320  1.00  0.00     0.201 A 
ATOM     19  C   UNL     1     -25.496  16.163  13.982  1.00  0.00     0.098 A 
ATOM     20  C   UNL     1     -24.107  15.603  16.354  1.00  0.00     0.176 A 
ATOM     21  C   UNL     1     -24.103  16.194  13.985  1.00  0.00     0.146 A 
ATOM     22  C   UNL     1     -23.380  15.888  15.164  1.00  0.00     0.111 A 
ATOM     23  O   UNL     1     -23.469  16.505  12.858  1.00  0.00    -0.456 OA
ATOM     24  C   UNL     1     -21.969  15.844  15.056  1.00  0.00     0.197 A 
ATOM     25  C   UNL     1     -22.146  16.536  12.748  1.00  0.00     0.138 A 
ATOM     26  C   UNL     1     -21.356  16.193  13.853  1.00  0.00     0.100 A 
ATOM     27  O   UNL     1     -21.239  15.457  16.007  1.00  0.00    -0.289 OA
BRANCH  18  28
ATOM     28  O   UNL     1     -26.211  15.160  17.472  1.00  0.00    -0.502 OA
ATOM     29  H   UNL     1     -27.221  15.115  17.515  1.00  0.00     0.293 HD
ENDBRANCH  18  28
BRANCH  20  30
ATOM     30  O   UNL     1     -23.483  15.414  17.593  1.00  0.00    -0.504 OA
ATOM     31  H   UNL     1     -23.974  15.358  18.473  1.00  0.00     0.293 HD
ENDBRANCH  20  30
BRANCH  25  32
ATOM     32  C   UNL     1     -21.544  16.904  11.441  1.00  0.00     0.017 A 
ATOM     33  C   UNL     1     -22.114  16.416  10.252  1.00  0.00     0.012 A 
ATOM     34  C   UNL     1     -20.422  17.755  11.358  1.00  0.00     0.012 A 
ATOM     35  C   UNL     1     -21.562  16.746   9.011  1.00  0.00     0.001 A 
ATOM     36  C   UNL     1     -19.875  18.084  10.113  1.00  0.00     0.001 A 
ATOM     37  C   UNL     1     -20.442  17.578   8.942  1.00  0.00     0.000 A 
ENDBRANCH  25  32
ENDBRANCH   1  17
TORSDOF 9
ENDMDL
