MODEL 1
REMARK VINA RESULT:    -7.347      0.000      0.000
REMARK INTER + INTRA:          -9.223
REMARK INTER:                  -8.850
REMARK INTRA:                  -0.373
REMARK UNBOUND:                -0.373
REMARK SMILES Oc1cc(O)c2c(c1)O[C@H](c1ccc(O)c(O)c1)[C@@H](O)C2
REMARK SMILES IDX 21 1 19 2 10 3 9 4 7 5 8 6 2 7 3 8 4 9 6 10 20 11 11 13
REMARK SMILES IDX 18 14 12 15 16 16 13 17 14 18 17 19 15 21 5 23 1 25
REMARK H PARENT 20 12 17 20 15 22 5 24 1 26
REMARK Flexibility Score: inf
ROOT
ATOM      1  C   UNL     1      -1.441  -9.418 -42.114  1.00  0.00     0.079 C 
ATOM      2  C   UNL     1      -0.803 -10.718 -41.585  1.00  0.00     0.164 C 
ATOM      3  C   UNL     1      -0.526 -10.599 -40.073  1.00  0.00     0.232 C 
ATOM      4  O   UNL     1       0.300  -9.461 -39.825  1.00  0.00    -0.482 OA
ATOM      5  C   UNL     1       0.149  -8.259 -40.525  1.00  0.00     0.131 A 
ATOM      6  C   UNL     1       0.862  -7.134 -40.100  1.00  0.00     0.093 A 
ATOM      7  C   UNL     1       0.720  -5.915 -40.770  1.00  0.00     0.122 A 
ATOM      8  C   UNL     1      -0.144  -5.819 -41.862  1.00  0.00     0.092 A 
ATOM      9  C   UNL     1      -0.868  -6.934 -42.301  1.00  0.00     0.126 A 
ATOM     10  C   UNL     1      -0.695  -8.182 -41.655  1.00  0.00     0.039 A 
ENDROOT
BRANCH   2  11
ATOM     11  O   UNL     1      -1.624 -11.824 -41.871  1.00  0.00    -0.389 OA
ATOM     12  H   UNL     1      -1.056 -12.519 -42.294  1.00  0.00     0.211 HD
ENDBRANCH   2  11
BRANCH   3  13
ATOM     13  C   UNL     1       0.147 -11.842 -39.542  1.00  0.00    -0.001 A 
ATOM     14  C   UNL     1       1.399 -12.246 -40.041  1.00  0.00     0.057 A 
ATOM     15  C   UNL     1      -0.494 -12.636 -38.578  1.00  0.00     0.012 A 
ATOM     16  C   UNL     1       2.009 -13.416 -39.566  1.00  0.00     0.157 A 
ATOM     17  C   UNL     1       0.113 -13.803 -38.105  1.00  0.00     0.050 A 
ATOM     18  C   UNL     1       1.366 -14.194 -38.597  1.00  0.00     0.157 A 
BRANCH  16  19
ATOM     19  O   UNL     1       3.252 -13.811 -40.056  1.00  0.00    -0.504 OA
ATOM     20  H   UNL     1       3.360 -14.650 -40.616  1.00  0.00     0.293 HD
ENDBRANCH  16  19
BRANCH  18  21
ATOM     21  O   UNL     1       1.976 -15.356 -38.126  1.00  0.00    -0.504 OA
ATOM     22  H   UNL     1       1.458 -16.053 -37.604  1.00  0.00     0.293 HD
ENDBRANCH  18  21
ENDBRANCH   3  13
BRANCH   9  23
ATOM     23  O   UNL     1      -1.750  -6.766 -43.371  1.00  0.00    -0.507 OA
ATOM     24  H   UNL     1      -1.624  -6.068 -44.091  1.00  0.00     0.293 HD
ENDBRANCH   9  23
BRANCH   7  25
ATOM     25  O   UNL     1       1.429  -4.791 -40.354  1.00  0.00    -0.508 OA
ATOM     26  H   UNL     1       0.959  -3.983 -39.961  1.00  0.00     0.293 HD
ENDBRANCH   7  25
TORSDOF 6
ENDMDL
MODEL 2
REMARK VINA RESULT:    -7.303      0.924      1.612
REMARK INTER + INTRA:          -9.169
REMARK INTER:                  -8.867
REMARK INTRA:                  -0.303
REMARK UNBOUND:                -0.373
REMARK SMILES Oc1cc(O)c2c(c1)O[C@H](c1ccc(O)c(O)c1)[C@@H](O)C2
REMARK SMILES IDX 21 1 19 2 10 3 9 4 7 5 8 6 2 7 3 8 4 9 6 10 20 11 11 13
REMARK SMILES IDX 18 14 12 15 16 16 13 17 14 18 17 19 15 21 5 23 1 25
REMARK H PARENT 20 12 17 20 15 22 5 24 1 26
REMARK Flexibility Score: inf
ROOT
ATOM      1  C   UNL     1      -1.031  -8.756 -41.861  1.00  0.00     0.079 C 
ATOM      2  C   UNL     1      -0.513 -10.142 -41.426  1.00  0.00     0.164 C 
ATOM      3  C   UNL     1      -0.155 -10.132 -39.927  1.00  0.00     0.232 C 
ATOM      4  O   UNL     1       0.800  -9.103 -39.670  1.00  0.00    -0.482 OA
ATOM      5  C   UNL     1       0.748  -7.856 -40.304  1.00  0.00     0.131 A 
ATOM      6  C   UNL     1       1.597  -6.837 -39.864  1.00  0.00     0.093 A 
ATOM      7  C   UNL     1       1.558  -5.577 -40.468  1.00  0.00     0.122 A 
ATOM      8  C   UNL     1       0.659  -5.333 -41.509  1.00  0.00     0.092 A 
ATOM      9  C   UNL     1      -0.201  -6.341 -41.961  1.00  0.00     0.126 A 
ATOM     10  C   UNL     1      -0.135  -7.632 -41.383  1.00  0.00     0.039 A 
ENDROOT
BRANCH   2  11
ATOM     11  O   UNL     1      -1.462 -11.138 -41.721  1.00  0.00    -0.389 OA
ATOM     12  H   UNL     1      -1.491 -11.764 -40.951  1.00  0.00     0.211 HD
ENDBRANCH   2  11
BRANCH   3  13
ATOM     13  C   UNL     1       0.404 -11.465 -39.491  1.00  0.00    -0.001 A 
ATOM     14  C   UNL     1      -0.021 -12.061 -38.290  1.00  0.00     0.057 A 
ATOM     15  C   UNL     1       1.393 -12.102 -40.259  1.00  0.00     0.012 A 
ATOM     16  C   UNL     1       0.521 -13.286 -37.874  1.00  0.00     0.157 A 
ATOM     17  C   UNL     1       1.934 -13.322 -39.844  1.00  0.00     0.050 A 
ATOM     18  C   UNL     1       1.498 -13.917 -38.652  1.00  0.00     0.157 A 
BRANCH  16  19
ATOM     19  O   UNL     1       0.094 -13.878 -36.687  1.00  0.00    -0.504 OA
ATOM     20  H   UNL     1       0.730 -14.406 -36.098  1.00  0.00     0.293 HD
ENDBRANCH  16  19
BRANCH  18  21
ATOM     21  O   UNL     1       2.034 -15.135 -38.236  1.00  0.00    -0.504 OA
ATOM     22  H   UNL     1       1.647 -15.643 -37.448  1.00  0.00     0.293 HD
ENDBRANCH  18  21
ENDBRANCH   3  13
BRANCH   9  23
ATOM     23  O   UNL     1      -1.109  -6.025 -42.974  1.00  0.00    -0.507 OA
ATOM     24  H   UNL     1      -0.932  -5.325 -43.682  1.00  0.00     0.293 HD
ENDBRANCH   9  23
BRANCH   7  25
ATOM     25  O   UNL     1       2.403  -4.557 -40.038  1.00  0.00    -0.508 OA
ATOM     26  H   UNL     1       3.376  -4.733 -39.815  1.00  0.00     0.293 HD
ENDBRANCH   7  25
TORSDOF 6
ENDMDL
MODEL 3
REMARK VINA RESULT:    -7.002      1.346      2.828
REMARK INTER + INTRA:          -8.807
REMARK INTER:                  -8.817
REMARK INTRA:                   0.009
REMARK UNBOUND:                -0.373
REMARK SMILES Oc1cc(O)c2c(c1)O[C@H](c1ccc(O)c(O)c1)[C@@H](O)C2
REMARK SMILES IDX 21 1 19 2 10 3 9 4 7 5 8 6 2 7 3 8 4 9 6 10 20 11 11 13
REMARK SMILES IDX 18 14 12 15 16 16 13 17 14 18 17 19 15 21 5 23 1 25
REMARK H PARENT 20 12 17 20 15 22 5 24 1 26
REMARK Flexibility Score: inf
ROOT
ATOM      1  C   UNL     1       1.712  -7.901 -39.358  1.00  0.00     0.079 C 
ATOM      2  C   UNL     1       1.279  -9.338 -39.005  1.00  0.00     0.164 C 
ATOM      3  C   UNL     1       1.132 -10.181 -40.286  1.00  0.00     0.232 C 
ATOM      4  O   UNL     1       0.207  -9.550 -41.172  1.00  0.00    -0.482 OA
ATOM      5  C   UNL     1       0.154  -8.160 -41.334  1.00  0.00     0.131 A 
ATOM      6  C   UNL     1      -0.641  -7.628 -42.352  1.00  0.00     0.093 A 
ATOM      7  C   UNL     1      -0.703  -6.245 -42.547  1.00  0.00     0.122 A 
ATOM      8  C   UNL     1       0.040  -5.393 -41.727  1.00  0.00     0.092 A 
ATOM      9  C   UNL     1       0.842  -5.909 -40.702  1.00  0.00     0.126 A 
ATOM     10  C   UNL     1       0.875  -7.305 -40.471  1.00  0.00     0.039 A 
ENDROOT
BRANCH   2  11
ATOM     11  O   UNL     1       2.192  -9.922 -38.108  1.00  0.00    -0.389 OA
ATOM     12  H   UNL     1       1.825  -9.815 -37.192  1.00  0.00     0.211 HD
ENDBRANCH   2  11
BRANCH   3  13
ATOM     13  C   UNL     1       0.658 -11.579 -39.968  1.00  0.00    -0.001 A 
ATOM     14  C   UNL     1       1.522 -12.507 -39.360  1.00  0.00     0.057 A 
ATOM     15  C   UNL     1      -0.640 -11.982 -40.322  1.00  0.00     0.012 A 
ATOM     16  C   UNL     1       1.087 -13.813 -39.091  1.00  0.00     0.157 A 
ATOM     17  C   UNL     1      -1.074 -13.284 -40.055  1.00  0.00     0.050 A 
ATOM     18  C   UNL     1      -0.212 -14.201 -39.438  1.00  0.00     0.157 A 
BRANCH  16  19
ATOM     19  O   UNL     1       1.943 -14.729 -38.483  1.00  0.00    -0.504 OA
ATOM     20  H   UNL     1       1.754 -15.726 -38.503  1.00  0.00     0.293 HD
ENDBRANCH  16  19
BRANCH  18  21
ATOM     21  O   UNL     1      -0.642 -15.500 -39.168  1.00  0.00    -0.504 OA
ATOM     22  H   UNL     1      -0.110 -16.120 -38.569  1.00  0.00     0.293 HD
ENDBRANCH  18  21
ENDBRANCH   3  13
BRANCH   9  23
ATOM     23  O   UNL     1       1.597  -5.011 -39.944  1.00  0.00    -0.507 OA
ATOM     24  H   UNL     1       2.606  -5.035 -39.894  1.00  0.00     0.293 HD
ENDBRANCH   9  23
BRANCH   7  25
ATOM     25  O   UNL     1      -1.495  -5.706 -43.559  1.00  0.00    -0.508 OA
ATOM     26  H   UNL     1      -1.245  -5.804 -44.536  1.00  0.00     0.293 HD
ENDBRANCH   7  25
TORSDOF 6
ENDMDL
MODEL 4
REMARK VINA RESULT:    -6.906      3.693      5.250
REMARK INTER + INTRA:          -8.692
REMARK INTER:                  -8.336
REMARK INTRA:                  -0.356
REMARK UNBOUND:                -0.373
REMARK SMILES Oc1cc(O)c2c(c1)O[C@H](c1ccc(O)c(O)c1)[C@@H](O)C2
REMARK SMILES IDX 21 1 19 2 10 3 9 4 7 5 8 6 2 7 3 8 4 9 6 10 20 11 11 13
REMARK SMILES IDX 18 14 12 15 16 16 13 17 14 18 17 19 15 21 5 23 1 25
REMARK H PARENT 20 12 17 20 15 22 5 24 1 26
REMARK Flexibility Score: inf
ROOT
ATOM      1  C   UNL     1       4.929 -11.974 -41.938  1.00  0.00     0.079 C 
ATOM      2  C   UNL     1       4.197 -11.884 -40.584  1.00  0.00     0.164 C 
ATOM      3  C   UNL     1       2.694 -12.167 -40.770  1.00  0.00     0.232 C 
ATOM      4  O   UNL     1       2.150 -11.259 -41.729  1.00  0.00    -0.482 OA
ATOM      5  C   UNL     1       2.855 -10.869 -42.874  1.00  0.00     0.131 A 
ATOM      6  C   UNL     1       2.191 -10.132 -43.859  1.00  0.00     0.093 A 
ATOM      7  C   UNL     1       2.864  -9.740 -45.020  1.00  0.00     0.122 A 
ATOM      8  C   UNL     1       4.203 -10.095 -45.200  1.00  0.00     0.092 A 
ATOM      9  C   UNL     1       4.884 -10.833 -44.225  1.00  0.00     0.126 A 
ATOM     10  C   UNL     1       4.220 -11.195 -43.027  1.00  0.00     0.039 A 
ENDROOT
BRANCH   2  11
ATOM     11  O   UNL     1       4.774 -12.765 -39.651  1.00  0.00    -0.389 OA
ATOM     12  H   UNL     1       4.046 -13.329 -39.280  1.00  0.00     0.211 HD
ENDBRANCH   2  11
BRANCH   3  13
ATOM     13  C   UNL     1       1.948 -12.032 -39.464  1.00  0.00    -0.001 A 
ATOM     14  C   UNL     1       1.442 -13.169 -38.808  1.00  0.00     0.057 A 
ATOM     15  C   UNL     1       1.707 -10.762 -38.915  1.00  0.00     0.012 A 
ATOM     16  C   UNL     1       0.725 -13.038 -37.610  1.00  0.00     0.157 A 
ATOM     17  C   UNL     1       0.993 -10.631 -37.721  1.00  0.00     0.050 A 
ATOM     18  C   UNL     1       0.502 -11.768 -37.065  1.00  0.00     0.157 A 
BRANCH  16  19
ATOM     19  O   UNL     1       0.231 -14.166 -36.958  1.00  0.00    -0.504 OA
ATOM     20  H   UNL     1       0.817 -14.972 -36.773  1.00  0.00     0.293 HD
ENDBRANCH  16  19
BRANCH  18  21
ATOM     21  O   UNL     1      -0.210 -11.642 -35.873  1.00  0.00    -0.504 OA
ATOM     22  H   UNL     1      -0.836 -10.862 -35.709  1.00  0.00     0.293 HD
ENDBRANCH  18  21
ENDBRANCH   3  13
BRANCH   9  23
ATOM     23  O   UNL     1       6.208 -11.196 -44.481  1.00  0.00    -0.507 OA
ATOM     24  H   UNL     1       6.738 -10.848 -45.268  1.00  0.00     0.293 HD
ENDBRANCH   9  23
BRANCH   7  25
ATOM     25  O   UNL     1       2.210  -9.004 -46.005  1.00  0.00    -0.508 OA
ATOM     26  H   UNL     1       1.884  -9.437 -46.861  1.00  0.00     0.293 HD
ENDBRANCH   7  25
TORSDOF 6
ENDMDL
MODEL 5
REMARK VINA RESULT:    -6.861      2.605      7.097
REMARK INTER + INTRA:          -8.637
REMARK INTER:                  -8.277
REMARK INTRA:                  -0.360
REMARK UNBOUND:                -0.373
REMARK SMILES Oc1cc(O)c2c(c1)O[C@H](c1ccc(O)c(O)c1)[C@@H](O)C2
REMARK SMILES IDX 21 1 19 2 10 3 9 4 7 5 8 6 2 7 3 8 4 9 6 10 20 11 11 13
REMARK SMILES IDX 18 14 12 15 16 16 13 17 14 18 17 19 15 21 5 23 1 25
REMARK H PARENT 20 12 17 20 15 22 5 24 1 26
REMARK Flexibility Score: inf
ROOT
ATOM      1  C   UNL     1       3.030 -11.640 -40.635  1.00  0.00     0.079 C 
ATOM      2  C   UNL     1       2.971 -10.297 -41.391  1.00  0.00     0.164 C 
ATOM      3  C   UNL     1       3.018  -9.122 -40.395  1.00  0.00     0.232 C 
ATOM      4  O   UNL     1       1.954  -9.249 -39.452  1.00  0.00    -0.482 OA
ATOM      5  C   UNL     1       1.556 -10.487 -38.933  1.00  0.00     0.131 A 
ATOM      6  C   UNL     1       0.640 -10.516 -37.878  1.00  0.00     0.093 A 
ATOM      7  C   UNL     1       0.236 -11.736 -37.329  1.00  0.00     0.122 A 
ATOM      8  C   UNL     1       0.756 -12.931 -37.831  1.00  0.00     0.092 A 
ATOM      9  C   UNL     1       1.676 -12.921 -38.887  1.00  0.00     0.126 A 
ATOM     10  C   UNL     1       2.056 -11.691 -39.476  1.00  0.00     0.039 A 
ENDROOT
BRANCH   2  11
ATOM     11  O   UNL     1       4.012 -10.214 -42.333  1.00  0.00    -0.389 OA
ATOM     12  H   UNL     1       4.861 -10.090 -41.834  1.00  0.00     0.211 HD
ENDBRANCH   2  11
BRANCH   3  13
ATOM     13  C   UNL     1       2.909  -7.797 -41.110  1.00  0.00    -0.001 A 
ATOM     14  C   UNL     1       3.887  -6.803 -40.929  1.00  0.00     0.057 A 
ATOM     15  C   UNL     1       1.799  -7.524 -41.927  1.00  0.00     0.012 A 
ATOM     16  C   UNL     1       3.767  -5.562 -41.572  1.00  0.00     0.157 A 
ATOM     17  C   UNL     1       1.679  -6.288 -42.568  1.00  0.00     0.050 A 
ATOM     18  C   UNL     1       2.663  -5.305 -42.394  1.00  0.00     0.157 A 
BRANCH  16  19
ATOM     19  O   UNL     1       4.741  -4.580 -41.397  1.00  0.00    -0.504 OA
ATOM     20  H   UNL     1       5.082  -4.027 -42.175  1.00  0.00     0.293 HD
ENDBRANCH  16  19
BRANCH  18  21
ATOM     21  O   UNL     1       2.548  -4.072 -43.033  1.00  0.00    -0.504 OA
ATOM     22  H   UNL     1       3.210  -3.323 -42.864  1.00  0.00     0.293 HD
ENDBRANCH  18  21
ENDBRANCH   3  13
BRANCH   9  23
ATOM     23  O   UNL     1       2.196 -14.144 -39.316  1.00  0.00    -0.507 OA
ATOM     24  H   UNL     1       2.756 -14.249 -40.151  1.00  0.00     0.293 HD
ENDBRANCH   9  23
BRANCH   7  25
ATOM     25  O   UNL     1      -0.679 -11.773 -36.280  1.00  0.00    -0.508 OA
ATOM     26  H   UNL     1      -0.554 -11.208 -35.447  1.00  0.00     0.293 HD
ENDBRANCH   7  25
TORSDOF 6
ENDMDL
MODEL 6
REMARK VINA RESULT:    -6.797     10.622     11.973
REMARK INTER + INTRA:          -8.560
REMARK INTER:                  -8.357
REMARK INTRA:                  -0.203
REMARK UNBOUND:                -0.373
REMARK SMILES Oc1cc(O)c2c(c1)O[C@H](c1ccc(O)c(O)c1)[C@@H](O)C2
REMARK SMILES IDX 21 1 19 2 10 3 9 4 7 5 8 6 2 7 3 8 4 9 6 10 20 11 11 13
REMARK SMILES IDX 18 14 12 15 16 16 13 17 14 18 17 19 15 21 5 23 1 25
REMARK H PARENT 20 12 17 20 15 22 5 24 1 26
REMARK Flexibility Score: inf
ROOT
ATOM      1  C   UNL     1      11.050  -6.789 -38.654  1.00  0.00     0.079 C 
ATOM      2  C   UNL     1      11.354  -7.705 -39.857  1.00  0.00     0.164 C 
ATOM      3  C   UNL     1      11.631  -6.858 -41.115  1.00  0.00     0.232 C 
ATOM      4  O   UNL     1      10.521  -5.998 -41.369  1.00  0.00    -0.482 OA
ATOM      5  C   UNL     1       9.812  -5.366 -40.340  1.00  0.00     0.131 A 
ATOM      6  C   UNL     1       8.864  -4.394 -40.669  1.00  0.00     0.093 A 
ATOM      7  C   UNL     1       8.150  -3.736 -39.663  1.00  0.00     0.122 A 
ATOM      8  C   UNL     1       8.394  -4.044 -38.323  1.00  0.00     0.092 A 
ATOM      9  C   UNL     1       9.342  -5.014 -37.974  1.00  0.00     0.126 A 
ATOM     10  C   UNL     1      10.035  -5.716 -38.990  1.00  0.00     0.039 A 
ENDROOT
BRANCH   2  11
ATOM     11  O   UNL     1      12.431  -8.561 -39.566  1.00  0.00    -0.389 OA
ATOM     12  H   UNL     1      12.493  -9.227 -40.300  1.00  0.00     0.211 HD
ENDBRANCH   2  11
BRANCH   3  13
ATOM     13  C   UNL     1      11.879  -7.736 -42.319  1.00  0.00    -0.001 A 
ATOM     14  C   UNL     1      13.179  -8.175 -42.628  1.00  0.00     0.057 A 
ATOM     15  C   UNL     1      10.818  -8.082 -43.171  1.00  0.00     0.012 A 
ATOM     16  C   UNL     1      13.410  -8.967 -43.763  1.00  0.00     0.157 A 
ATOM     17  C   UNL     1      11.049  -8.870 -44.302  1.00  0.00     0.050 A 
ATOM     18  C   UNL     1      12.344  -9.316 -44.600  1.00  0.00     0.157 A 
BRANCH  16  19
ATOM     19  O   UNL     1      14.698  -9.407 -44.065  1.00  0.00    -0.504 OA
ATOM     20  H   UNL     1      14.919 -10.394 -44.130  1.00  0.00     0.293 HD
ENDBRANCH  16  19
BRANCH  18  21
ATOM     21  O   UNL     1      12.577 -10.104 -45.726  1.00  0.00    -0.504 OA
ATOM     22  H   UNL     1      11.890 -10.772 -46.057  1.00  0.00     0.293 HD
ENDBRANCH  18  21
ENDBRANCH   3  13
BRANCH   9  23
ATOM     23  O   UNL     1       9.573  -5.248 -36.617  1.00  0.00    -0.507 OA
ATOM     24  H   UNL     1       8.835  -5.323 -35.931  1.00  0.00     0.293 HD
ENDBRANCH   9  23
BRANCH   7  25
ATOM     25  O   UNL     1       7.202  -2.768 -39.983  1.00  0.00    -0.508 OA
ATOM     26  H   UNL     1       7.336  -2.130 -40.760  1.00  0.00     0.293 HD
ENDBRANCH   7  25
TORSDOF 6
ENDMDL
MODEL 7
REMARK VINA RESULT:    -6.755      7.835      9.393
REMARK INTER + INTRA:          -8.510
REMARK INTER:                  -8.332
REMARK INTRA:                  -0.178
REMARK UNBOUND:                -0.373
REMARK SMILES Oc1cc(O)c2c(c1)O[C@H](c1ccc(O)c(O)c1)[C@@H](O)C2
REMARK SMILES IDX 21 1 19 2 10 3 9 4 7 5 8 6 2 7 3 8 4 9 6 10 20 11 11 13
REMARK SMILES IDX 18 14 12 15 16 16 13 17 14 18 17 19 15 21 5 23 1 25
REMARK H PARENT 20 12 17 20 15 22 5 24 1 26
REMARK Flexibility Score: inf
ROOT
ATOM      1  C   UNL     1      11.050  -7.290 -40.570  1.00  0.00     0.079 C 
ATOM      2  C   UNL     1      10.375  -8.676 -40.581  1.00  0.00     0.164 C 
ATOM      3  C   UNL     1       9.177  -8.678 -41.551  1.00  0.00     0.232 C 
ATOM      4  O   UNL     1       8.263  -7.644 -41.186  1.00  0.00    -0.482 OA
ATOM      5  C   UNL     1       8.691  -6.391 -40.731  1.00  0.00     0.131 A 
ATOM      6  C   UNL     1       7.750  -5.370 -40.574  1.00  0.00     0.093 A 
ATOM      7  C   UNL     1       8.150  -4.104 -40.135  1.00  0.00     0.122 A 
ATOM      8  C   UNL     1       9.497  -3.857 -39.862  1.00  0.00     0.092 A 
ATOM      9  C   UNL     1      10.454  -4.867 -40.015  1.00  0.00     0.126 A 
ATOM     10  C   UNL     1      10.049  -6.163 -40.417  1.00  0.00     0.039 A 
ENDROOT
BRANCH   2  11
ATOM     11  O   UNL     1      11.307  -9.676 -40.914  1.00  0.00    -0.389 OA
ATOM     12  H   UNL     1      11.409 -10.268 -40.124  1.00  0.00     0.211 HD
ENDBRANCH   2  11
BRANCH   3  13
ATOM     13  C   UNL     1       8.468 -10.011 -41.539  1.00  0.00    -0.001 A 
ATOM     14  C   UNL     1       8.398 -10.774 -40.360  1.00  0.00     0.057 A 
ATOM     15  C   UNL     1       7.912 -10.526 -42.722  1.00  0.00     0.012 A 
ATOM     16  C   UNL     1       7.763 -12.024 -40.359  1.00  0.00     0.157 A 
ATOM     17  C   UNL     1       7.280 -11.772 -42.721  1.00  0.00     0.050 A 
ATOM     18  C   UNL     1       7.203 -12.523 -41.540  1.00  0.00     0.157 A 
BRANCH  16  19
ATOM     19  O   UNL     1       7.690 -12.776 -39.188  1.00  0.00    -0.504 OA
ATOM     20  H   UNL     1       7.740 -12.341 -38.273  1.00  0.00     0.293 HD
ENDBRANCH  16  19
BRANCH  18  21
ATOM     21  O   UNL     1       6.571 -13.766 -41.535  1.00  0.00    -0.504 OA
ATOM     22  H   UNL     1       6.708 -14.433 -42.286  1.00  0.00     0.293 HD
ENDBRANCH  18  21
ENDBRANCH   3  13
BRANCH   9  23
ATOM     23  O   UNL     1      11.791  -4.548 -39.770  1.00  0.00    -0.507 OA
ATOM     24  H   UNL     1      12.151  -4.326 -38.852  1.00  0.00     0.293 HD
ENDBRANCH   9  23
BRANCH   7  25
ATOM     25  O   UNL     1       7.218  -3.082 -39.974  1.00  0.00    -0.508 OA
ATOM     26  H   UNL     1       6.415  -3.188 -39.364  1.00  0.00     0.293 HD
ENDBRANCH   7  25
TORSDOF 6
ENDMDL
MODEL 8
REMARK VINA RESULT:    -6.724      7.250     10.468
REMARK INTER + INTRA:          -8.472
REMARK INTER:                  -8.149
REMARK INTRA:                  -0.324
REMARK UNBOUND:                -0.373
REMARK SMILES Oc1cc(O)c2c(c1)O[C@H](c1ccc(O)c(O)c1)[C@@H](O)C2
REMARK SMILES IDX 21 1 19 2 10 3 9 4 7 5 8 6 2 7 3 8 4 9 6 10 20 11 11 13
REMARK SMILES IDX 18 14 12 15 16 16 13 17 14 18 17 19 15 21 5 23 1 25
REMARK H PARENT 20 12 17 20 15 22 5 24 1 26
REMARK Flexibility Score: inf
ROOT
ATOM      1  C   UNL     1       9.865 -10.841 -41.072  1.00  0.00     0.079 C 
ATOM      2  C   UNL     1       9.814  -9.326 -40.792  1.00  0.00     0.164 C 
ATOM      3  C   UNL     1       8.816  -9.026 -39.656  1.00  0.00     0.232 C 
ATOM      4  O   UNL     1       7.531  -9.548 -39.997  1.00  0.00    -0.482 OA
ATOM      5  C   UNL     1       7.370 -10.771 -40.658  1.00  0.00     0.131 A 
ATOM      6  C   UNL     1       6.086 -11.306 -40.789  1.00  0.00     0.093 A 
ATOM      7  C   UNL     1       5.895 -12.533 -41.431  1.00  0.00     0.122 A 
ATOM      8  C   UNL     1       6.994 -13.231 -41.936  1.00  0.00     0.092 A 
ATOM      9  C   UNL     1       8.288 -12.711 -41.813  1.00  0.00     0.126 A 
ATOM     10  C   UNL     1       8.483 -11.449 -41.203  1.00  0.00     0.039 A 
ENDROOT
BRANCH   2  11
ATOM     11  O   UNL     1      11.097  -8.836 -40.490  1.00  0.00    -0.389 OA
ATOM     12  H   UNL     1      11.510  -9.457 -39.835  1.00  0.00     0.211 HD
ENDBRANCH   2  11
BRANCH   3  13
ATOM     13  C   UNL     1       8.710  -7.542 -39.400  1.00  0.00    -0.001 A 
ATOM     14  C   UNL     1       9.356  -6.959 -38.296  1.00  0.00     0.057 A 
ATOM     15  C   UNL     1       7.922  -6.735 -40.237  1.00  0.00     0.012 A 
ATOM     16  C   UNL     1       9.234  -5.584 -38.044  1.00  0.00     0.157 A 
ATOM     17  C   UNL     1       7.799  -5.365 -39.987  1.00  0.00     0.050 A 
ATOM     18  C   UNL     1       8.455  -4.787 -38.892  1.00  0.00     0.157 A 
BRANCH  16  19
ATOM     19  O   UNL     1       9.880  -5.006 -36.953  1.00  0.00    -0.504 OA
ATOM     20  H   UNL     1      10.249  -5.570 -36.196  1.00  0.00     0.293 HD
ENDBRANCH  16  19
BRANCH  18  21
ATOM     21  O   UNL     1       8.336  -3.421 -38.640  1.00  0.00    -0.504 OA
ATOM     22  H   UNL     1       9.149  -2.816 -38.599  1.00  0.00     0.293 HD
ENDBRANCH  18  21
ENDBRANCH   3  13
BRANCH   9  23
ATOM     23  O   UNL     1       9.352 -13.476 -42.298  1.00  0.00    -0.507 OA
ATOM     24  H   UNL     1       9.280 -14.463 -42.501  1.00  0.00     0.293 HD
ENDBRANCH   9  23
BRANCH   7  25
ATOM     25  O   UNL     1       4.618 -13.071 -41.567  1.00  0.00    -0.508 OA
ATOM     26  H   UNL     1       4.167 -13.565 -40.806  1.00  0.00     0.293 HD
ENDBRANCH   7  25
TORSDOF 6
ENDMDL
MODEL 9
REMARK VINA RESULT:    -6.587      1.787      2.079
REMARK INTER + INTRA:          -8.307
REMARK INTER:                  -7.953
REMARK INTRA:                  -0.354
REMARK UNBOUND:                -0.373
REMARK SMILES Oc1cc(O)c2c(c1)O[C@H](c1ccc(O)c(O)c1)[C@@H](O)C2
REMARK SMILES IDX 21 1 19 2 10 3 9 4 7 5 8 6 2 7 3 8 4 9 6 10 20 11 11 13
REMARK SMILES IDX 18 14 12 15 16 16 13 17 14 18 17 19 15 21 5 23 1 25
REMARK H PARENT 20 12 17 20 15 22 5 24 1 26
REMARK Flexibility Score: inf
ROOT
ATOM      1  C   UNL     1      -0.204  -7.619 -41.681  1.00  0.00     0.079 C 
ATOM      2  C   UNL     1       0.024  -9.084 -41.260  1.00  0.00     0.164 C 
ATOM      3  C   UNL     1       0.826  -9.141 -39.944  1.00  0.00     0.232 C 
ATOM      4  O   UNL     1       2.057  -8.435 -40.102  1.00  0.00    -0.482 OA
ATOM      5  C   UNL     1       2.150  -7.246 -40.835  1.00  0.00     0.131 A 
ATOM      6  C   UNL     1       3.339  -6.513 -40.788  1.00  0.00     0.093 A 
ATOM      7  C   UNL     1       3.457  -5.314 -41.497  1.00  0.00     0.122 A 
ATOM      8  C   UNL     1       2.378  -4.842 -42.247  1.00  0.00     0.092 A 
ATOM      9  C   UNL     1       1.178  -5.561 -42.304  1.00  0.00     0.126 A 
ATOM     10  C   UNL     1       1.068  -6.798 -41.624  1.00  0.00     0.039 A 
ENDROOT
BRANCH   2  11
ATOM     11  O   UNL     1      -1.203  -9.761 -41.142  1.00  0.00    -0.389 OA
ATOM     12  H   UNL     1      -1.925  -9.080 -41.150  1.00  0.00     0.211 HD
ENDBRANCH   2  11
BRANCH   3  13
ATOM     13  C   UNL     1       1.108 -10.568 -39.539  1.00  0.00    -0.001 A 
ATOM     14  C   UNL     1       2.010 -11.357 -40.276  1.00  0.00     0.057 A 
ATOM     15  C   UNL     1       0.432 -11.140 -38.448  1.00  0.00     0.012 A 
ATOM     16  C   UNL     1       2.248 -12.691 -39.914  1.00  0.00     0.157 A 
ATOM     17  C   UNL     1       0.668 -12.469 -38.088  1.00  0.00     0.050 A 
ATOM     18  C   UNL     1       1.577 -13.247 -38.818  1.00  0.00     0.157 A 
BRANCH  16  19
ATOM     19  O   UNL     1       3.146 -13.469 -40.641  1.00  0.00    -0.504 OA
ATOM     20  H   UNL     1       3.517 -13.159 -41.532  1.00  0.00     0.293 HD
ENDBRANCH  16  19
BRANCH  18  21
ATOM     21  O   UNL     1       1.817 -14.573 -38.460  1.00  0.00    -0.504 OA
ATOM     22  H   UNL     1       1.579 -15.340 -39.078  1.00  0.00     0.293 HD
ENDBRANCH  18  21
ENDBRANCH   3  13
BRANCH   9  23
ATOM     23  O   UNL     1       0.120  -5.016 -43.035  1.00  0.00    -0.507 OA
ATOM     24  H   UNL     1      -0.255  -5.441 -43.872  1.00  0.00     0.293 HD
ENDBRANCH   9  23
BRANCH   7  25
ATOM     25  O   UNL     1       4.639  -4.580 -41.457  1.00  0.00    -0.508 OA
ATOM     26  H   UNL     1       5.109  -4.378 -40.582  1.00  0.00     0.293 HD
ENDBRANCH   7  25
TORSDOF 6
ENDMDL
