MODEL 1
REMARK VINA RESULT:    -4.493      0.000      0.000
REMARK INTER + INTRA:          -8.271
REMARK INTER:                  -7.120
REMARK INTRA:                  -1.151
REMARK UNBOUND:                -1.151
REMARK SMILES CCCCCCCCCCCC(=O)[O-]
REMARK SMILES IDX 7 1 8 2 9 3 10 4 11 5 12 6 13 7 14 8 6 9 5 10 4 11 3 12 2 13
REMARK SMILES IDX 1 14
REMARK H PARENT
REMARK Flexibility Score: inf
ROOT
ATOM      1  C   UNL     1      31.625  19.411  10.223  1.00  0.00     0.000 C 
ENDROOT
BRANCH   1   2
ATOM      2  C   UNL     1      32.330  19.932  11.485  1.00  0.00     0.000 C 
BRANCH   2   3
ATOM      3  C   UNL     1      31.633  19.479  12.779  1.00  0.00     0.000 C 
BRANCH   3   4
ATOM      4  C   UNL     1      32.561  19.542  14.002  1.00  0.00     0.006 C 
BRANCH   4   5
ATOM      5  C   UNL     1      33.790  20.430  13.764  1.00  0.00     0.053 C 
BRANCH   5   6
ATOM      6  C   UNL     1      33.818  21.555  14.750  1.00  0.00     0.041 C 
ATOM      7  O   UNL     1      32.998  22.505  14.651  1.00  0.00    -0.550 OA
ATOM      8  O   UNL     1      34.718  21.532  15.807  1.00  0.00    -0.550 OA
ENDBRANCH   5   6
ENDBRANCH   4   5
ENDBRANCH   3   4
ENDBRANCH   2   3
ENDBRANCH   1   2
BRANCH   1   9
ATOM      9  C   UNL     1      31.029  18.005  10.418  1.00  0.00     0.000 C 
BRANCH   9  10
ATOM     10  C   UNL     1      29.542  17.936  10.033  1.00  0.00    -0.000 C 
BRANCH  10  11
ATOM     11  C   UNL     1      28.887  19.323   9.954  1.00  0.00    -0.000 C 
BRANCH  11  12
ATOM     12  C   UNL     1      27.755  19.453  10.984  1.00  0.00    -0.000 C 
BRANCH  12  13
ATOM     13  C   UNL     1      27.725  20.832  11.660  1.00  0.00    -0.003 C 
ATOM     14  C   UNL     1      28.934  21.695  11.297  1.00  0.00     0.004 C 
ENDBRANCH  12  13
ENDBRANCH  11  12
ENDBRANCH  10  11
ENDBRANCH   9  10
ENDBRANCH   1   9
TORSDOF 10
ENDMDL
MODEL 2
REMARK VINA RESULT:    -4.144      2.668      5.907
REMARK INTER + INTRA:          -7.718
REMARK INTER:                  -6.533
REMARK INTRA:                  -1.185
REMARK UNBOUND:                -1.151
REMARK SMILES CCCCCCCCCCCC(=O)[O-]
REMARK SMILES IDX 7 1 8 2 9 3 10 4 11 5 12 6 13 7 14 8 6 9 5 10 4 11 3 12 2 13
REMARK SMILES IDX 1 14
REMARK H PARENT
REMARK Flexibility Score: inf
ROOT
ATOM      1  C   UNL     1      31.685  20.391  13.253  1.00  0.00     0.000 C 
ENDROOT
BRANCH   1   2
ATOM      2  C   UNL     1      31.795  18.975  12.667  1.00  0.00     0.000 C 
BRANCH   2   3
ATOM      3  C   UNL     1      31.716  18.966  11.131  1.00  0.00     0.000 C 
BRANCH   3   4
ATOM      4  C   UNL     1      30.330  18.549  10.614  1.00  0.00     0.006 C 
BRANCH   4   5
ATOM      5  C   UNL     1      29.493  19.747  10.144  1.00  0.00     0.053 C 
BRANCH   5   6
ATOM      6  C   UNL     1      28.513  20.145  11.202  1.00  0.00     0.041 C 
ATOM      7  O   UNL     1      27.627  19.336  11.582  1.00  0.00    -0.550 OA
ATOM      8  O   UNL     1      28.608  21.393  11.805  1.00  0.00    -0.550 OA
ENDBRANCH   5   6
ENDBRANCH   4   5
ENDBRANCH   3   4
ENDBRANCH   2   3
ENDBRANCH   1   2
BRANCH   1   9
ATOM      9  C   UNL     1      32.170  21.475  12.274  1.00  0.00     0.000 C 
BRANCH   9  10
ATOM     10  C   UNL     1      32.384  22.835  12.956  1.00  0.00    -0.000 C 
BRANCH  10  11
ATOM     11  C   UNL     1      32.550  22.712  14.479  1.00  0.00    -0.000 C 
BRANCH  11  12
ATOM     12  C   UNL     1      34.030  22.806  14.877  1.00  0.00    -0.000 C 
BRANCH  12  13
ATOM     13  C   UNL     1      34.610  21.456  15.325  1.00  0.00    -0.003 C 
ATOM     14  C   UNL     1      35.240  20.672  14.175  1.00  0.00     0.004 C 
ENDBRANCH  12  13
ENDBRANCH  11  12
ENDBRANCH  10  11
ENDBRANCH   9  10
ENDBRANCH   1   9
TORSDOF 10
ENDMDL
MODEL 3
REMARK VINA RESULT:    -4.089      1.354      2.419
REMARK INTER + INTRA:          -7.630
REMARK INTER:                  -6.351
REMARK INTRA:                  -1.279
REMARK UNBOUND:                -1.151
REMARK SMILES CCCCCCCCCCCC(=O)[O-]
REMARK SMILES IDX 7 1 8 2 9 3 10 4 11 5 12 6 13 7 14 8 6 9 5 10 4 11 3 12 2 13
REMARK SMILES IDX 1 14
REMARK H PARENT
REMARK Flexibility Score: inf
ROOT
ATOM      1  C   UNL     1      29.475  18.203  10.731  1.00  0.00     0.000 C 
ENDROOT
BRANCH   1   2
ATOM      2  C   UNL     1      30.645  19.069  10.240  1.00  0.00     0.000 C 
BRANCH   2   3
ATOM      3  C   UNL     1      31.806  19.119  11.249  1.00  0.00     0.000 C 
BRANCH   3   4
ATOM      4  C   UNL     1      31.322  19.320  12.694  1.00  0.00     0.006 C 
BRANCH   4   5
ATOM      5  C   UNL     1      32.448  19.142  13.722  1.00  0.00     0.053 C 
BRANCH   5   6
ATOM      6  C   UNL     1      33.343  20.341  13.726  1.00  0.00     0.041 C 
ATOM      7  O   UNL     1      32.889  21.470  14.047  1.00  0.00    -0.550 OA
ATOM      8  O   UNL     1      34.692  20.205  13.421  1.00  0.00    -0.550 OA
ENDBRANCH   5   6
ENDBRANCH   4   5
ENDBRANCH   3   4
ENDBRANCH   2   3
ENDBRANCH   1   2
BRANCH   1   9
ATOM      9  C   UNL     1      28.254  19.043  11.148  1.00  0.00     0.000 C 
BRANCH   9  10
ATOM     10  C   UNL     1      27.915  20.141  10.128  1.00  0.00    -0.000 C 
BRANCH  10  11
ATOM     11  C   UNL     1      27.790  21.529  10.775  1.00  0.00    -0.000 C 
BRANCH  11  12
ATOM     12  C   UNL     1      29.019  22.393  10.459  1.00  0.00    -0.000 C 
BRANCH  12  13
ATOM     13  C   UNL     1      30.002  22.478  11.637  1.00  0.00    -0.003 C 
ATOM     14  C   UNL     1      31.418  22.854  11.201  1.00  0.00     0.004 C 
ENDBRANCH  12  13
ENDBRANCH  11  12
ENDBRANCH  10  11
ENDBRANCH   9  10
ENDBRANCH   1   9
TORSDOF 10
ENDMDL
MODEL 4
REMARK VINA RESULT:    -4.074      2.783      5.852
REMARK INTER + INTRA:          -7.607
REMARK INTER:                  -6.714
REMARK INTRA:                  -0.893
REMARK UNBOUND:                -1.151
REMARK SMILES CCCCCCCCCCCC(=O)[O-]
REMARK SMILES IDX 7 1 8 2 9 3 10 4 11 5 12 6 13 7 14 8 6 9 5 10 4 11 3 12 2 13
REMARK SMILES IDX 1 14
REMARK H PARENT
REMARK Flexibility Score: inf
ROOT
ATOM      1  C   UNL     1      31.036  19.923  12.424  1.00  0.00     0.000 C 
ENDROOT
BRANCH   1   2
ATOM      2  C   UNL     1      30.091  18.833  11.894  1.00  0.00     0.000 C 
BRANCH   2   3
ATOM      3  C   UNL     1      29.844  18.952  10.380  1.00  0.00     0.000 C 
BRANCH   3   4
ATOM      4  C   UNL     1      28.353  19.105  10.037  1.00  0.00     0.006 C 
BRANCH   4   5
ATOM      5  C   UNL     1      27.529  19.637  11.217  1.00  0.00     0.053 C 
BRANCH   5   6
ATOM      6  C   UNL     1      27.321  21.113  11.083  1.00  0.00     0.041 C 
ATOM      7  O   UNL     1      26.158  21.581  10.966  1.00  0.00    -0.550 OA
ATOM      8  O   UNL     1      28.407  21.977  11.137  1.00  0.00    -0.550 OA
ENDBRANCH   5   6
ENDBRANCH   4   5
ENDBRANCH   3   4
ENDBRANCH   2   3
ENDBRANCH   1   2
BRANCH   1   9
ATOM      9  C   UNL     1      32.173  20.249  11.438  1.00  0.00     0.000 C 
BRANCH   9  10
ATOM     10  C   UNL     1      33.563  20.146  12.085  1.00  0.00    -0.000 C 
BRANCH  10  11
ATOM     11  C   UNL     1      33.498  20.077  13.619  1.00  0.00    -0.000 C 
BRANCH  11  12
ATOM     12  C   UNL     1      34.448  21.103  14.254  1.00  0.00    -0.000 C 
BRANCH  12  13
ATOM     13  C   UNL     1      33.713  22.123  15.137  1.00  0.00    -0.003 C 
ATOM     14  C   UNL     1      32.509  22.753  14.436  1.00  0.00     0.004 C 
ENDBRANCH  12  13
ENDBRANCH  11  12
ENDBRANCH  10  11
ENDBRANCH   9  10
ENDBRANCH   1   9
TORSDOF 10
ENDMDL
MODEL 5
REMARK VINA RESULT:    -3.865      1.450      2.984
REMARK INTER + INTRA:          -7.275
REMARK INTER:                  -6.216
REMARK INTRA:                  -1.059
REMARK UNBOUND:                -1.151
REMARK SMILES CCCCCCCCCCCC(=O)[O-]
REMARK SMILES IDX 7 1 8 2 9 3 10 4 11 5 12 6 13 7 14 8 6 9 5 10 4 11 3 12 2 13
REMARK SMILES IDX 1 14
REMARK H PARENT
REMARK Flexibility Score: inf
ROOT
ATOM      1  C   UNL     1      29.058  21.594  11.417  1.00  0.00     0.000 C 
ENDROOT
BRANCH   1   2
ATOM      2  C   UNL     1      30.458  22.213  11.285  1.00  0.00     0.000 C 
BRANCH   2   3
ATOM      3  C   UNL     1      30.896  22.955  12.560  1.00  0.00     0.000 C 
BRANCH   3   4
ATOM      4  C   UNL     1      31.554  22.022  13.589  1.00  0.00     0.006 C 
BRANCH   4   5
ATOM      5  C   UNL     1      32.717  22.692  14.333  1.00  0.00     0.053 C 
BRANCH   5   6
ATOM      6  C   UNL     1      33.720  21.669  14.762  1.00  0.00     0.041 C 
ATOM      7  O   UNL     1      33.879  20.616  14.090  1.00  0.00    -0.550 OA
ATOM      8  O   UNL     1      34.516  21.899  15.877  1.00  0.00    -0.550 OA
ENDBRANCH   5   6
ENDBRANCH   4   5
ENDBRANCH   3   4
ENDBRANCH   2   3
ENDBRANCH   1   2
BRANCH   1   9
ATOM      9  C   UNL     1      28.831  20.433  10.431  1.00  0.00     0.000 C 
BRANCH   9  10
ATOM     10  C   UNL     1      28.737  19.070  11.135  1.00  0.00    -0.000 C 
BRANCH  10  11
ATOM     11  C   UNL     1      29.637  18.008  10.486  1.00  0.00    -0.000 C 
BRANCH  11  12
ATOM     12  C   UNL     1      30.987  18.612  10.071  1.00  0.00    -0.000 C 
BRANCH  12  13
ATOM     13  C   UNL     1      31.945  18.791  11.259  1.00  0.00    -0.003 C 
ATOM     14  C   UNL     1      33.090  19.757  10.956  1.00  0.00     0.004 C 
ENDBRANCH  12  13
ENDBRANCH  11  12
ENDBRANCH  10  11
ENDBRANCH   9  10
ENDBRANCH   1   9
TORSDOF 10
ENDMDL
MODEL 6
REMARK VINA RESULT:    -3.816     15.602     17.774
REMARK INTER + INTRA:          -7.198
REMARK INTER:                  -6.417
REMARK INTRA:                  -0.781
REMARK UNBOUND:                -1.151
REMARK SMILES CCCCCCCCCCCC(=O)[O-]
REMARK SMILES IDX 7 1 8 2 9 3 10 4 11 5 12 6 13 7 14 8 6 9 5 10 4 11 3 12 2 13
REMARK SMILES IDX 1 14
REMARK H PARENT
REMARK Flexibility Score: inf
ROOT
ATOM      1  C   UNL     1      41.517  13.801  22.768  1.00  0.00     0.000 C 
ENDROOT
BRANCH   1   2
ATOM      2  C   UNL     1      41.792  13.108  24.111  1.00  0.00     0.000 C 
BRANCH   2   3
ATOM      3  C   UNL     1      42.921  12.067  24.017  1.00  0.00     0.000 C 
BRANCH   3   4
ATOM      4  C   UNL     1      43.479  11.930  22.592  1.00  0.00     0.006 C 
BRANCH   4   5
ATOM      5  C   UNL     1      43.614  10.466  22.151  1.00  0.00     0.053 C 
BRANCH   5   6
ATOM      6  C   UNL     1      44.877  10.272  21.372  1.00  0.00     0.041 C 
ATOM      7  O   UNL     1      45.788  11.139  21.414  1.00  0.00    -0.550 OA
ATOM      8  O   UNL     1      45.068   9.109  20.636  1.00  0.00    -0.550 OA
ENDBRANCH   5   6
ENDBRANCH   4   5
ENDBRANCH   3   4
ENDBRANCH   2   3
ENDBRANCH   1   2
BRANCH   1   9
ATOM      9  C   UNL     1      42.149  15.202  22.686  1.00  0.00     0.000 C 
BRANCH   9  10
ATOM     10  C   UNL     1      41.622  16.020  21.497  1.00  0.00    -0.000 C 
BRANCH  10  11
ATOM     11  C   UNL     1      42.742  16.754  20.743  1.00  0.00    -0.000 C 
BRANCH  11  12
ATOM     12  C   UNL     1      44.109  16.473  21.383  1.00  0.00    -0.000 C 
BRANCH  12  13
ATOM     13  C   UNL     1      45.042  15.676  20.458  1.00  0.00    -0.003 C 
ATOM     14  C   UNL     1      45.758  14.535  21.181  1.00  0.00     0.004 C 
ENDBRANCH  12  13
ENDBRANCH  11  12
ENDBRANCH  10  11
ENDBRANCH   9  10
ENDBRANCH   1   9
TORSDOF 10
ENDMDL
MODEL 7
REMARK VINA RESULT:    -3.778      2.718      5.360
REMARK INTER + INTRA:          -7.137
REMARK INTER:                  -6.380
REMARK INTRA:                  -0.757
REMARK UNBOUND:                -1.151
REMARK SMILES CCCCCCCCCCCC(=O)[O-]
REMARK SMILES IDX 7 1 8 2 9 3 10 4 11 5 12 6 13 7 14 8 6 9 5 10 4 11 3 12 2 13
REMARK SMILES IDX 1 14
REMARK H PARENT
REMARK Flexibility Score: inf
ROOT
ATOM      1  C   UNL     1      28.547  21.574  11.747  1.00  0.00     0.000 C 
ENDROOT
BRANCH   1   2
ATOM      2  C   UNL     1      27.465  20.932  10.866  1.00  0.00     0.000 C 
BRANCH   2   3
ATOM      3  C   UNL     1      27.905  19.577  10.284  1.00  0.00     0.000 C 
BRANCH   3   4
ATOM      4  C   UNL     1      28.899  18.839  11.195  1.00  0.00     0.006 C 
BRANCH   4   5
ATOM      5  C   UNL     1      29.705  17.771  10.444  1.00  0.00     0.053 C 
BRANCH   5   6
ATOM      6  C   UNL     1      31.044  18.311  10.049  1.00  0.00     0.041 C 
ATOM      7  O   UNL     1      31.212  19.551   9.915  1.00  0.00    -0.550 OA
ATOM      8  O   UNL     1      32.119  17.448   9.876  1.00  0.00    -0.550 OA
ENDBRANCH   5   6
ENDBRANCH   4   5
ENDBRANCH   3   4
ENDBRANCH   2   3
ENDBRANCH   1   2
BRANCH   1   9
ATOM      9  C   UNL     1      29.614  22.318  10.923  1.00  0.00     0.000 C 
BRANCH   9  10
ATOM     10  C   UNL     1      30.729  22.911  11.799  1.00  0.00    -0.000 C 
BRANCH  10  11
ATOM     11  C   UNL     1      31.824  21.887  12.134  1.00  0.00    -0.000 C 
BRANCH  11  12
ATOM     12  C   UNL     1      31.700  21.409  13.588  1.00  0.00    -0.000 C 
BRANCH  12  13
ATOM     13  C   UNL     1      32.729  20.325  13.945  1.00  0.00    -0.003 C 
ATOM     14  C   UNL     1      32.268  18.921  13.555  1.00  0.00     0.004 C 
ENDBRANCH  12  13
ENDBRANCH  11  12
ENDBRANCH  10  11
ENDBRANCH   9  10
ENDBRANCH   1   9
TORSDOF 10
ENDMDL
MODEL 8
REMARK VINA RESULT:    -3.777     15.870     18.276
REMARK INTER + INTRA:          -7.136
REMARK INTER:                  -6.245
REMARK INTRA:                  -0.891
REMARK UNBOUND:                -1.151
REMARK SMILES CCCCCCCCCCCC(=O)[O-]
REMARK SMILES IDX 7 1 8 2 9 3 10 4 11 5 12 6 13 7 14 8 6 9 5 10 4 11 3 12 2 13
REMARK SMILES IDX 1 14
REMARK H PARENT
REMARK Flexibility Score: inf
ROOT
ATOM      1  C   UNL     1      42.626  13.093  23.438  1.00  0.00     0.000 C 
ENDROOT
BRANCH   1   2
ATOM      2  C   UNL     1      43.298  11.991  22.604  1.00  0.00     0.000 C 
BRANCH   2   3
ATOM      3  C   UNL     1      44.756  12.329  22.246  1.00  0.00     0.000 C 
BRANCH   3   4
ATOM      4  C   UNL     1      45.461  11.183  21.503  1.00  0.00     0.006 C 
BRANCH   4   5
ATOM      5  C   UNL     1      44.692   9.859  21.597  1.00  0.00     0.053 C 
BRANCH   5   6
ATOM      6  C   UNL     1      45.412   8.900  22.492  1.00  0.00     0.041 C 
ATOM      7  O   UNL     1      45.725   7.755  22.074  1.00  0.00    -0.550 OA
ATOM      8  O   UNL     1      45.782   9.289  23.774  1.00  0.00    -0.550 OA
ENDBRANCH   5   6
ENDBRANCH   4   5
ENDBRANCH   3   4
ENDBRANCH   2   3
ENDBRANCH   1   2
BRANCH   1   9
ATOM      9  C   UNL     1      41.662  13.957  22.606  1.00  0.00     0.000 C 
BRANCH   9  10
ATOM     10  C   UNL     1      42.037  15.447  22.625  1.00  0.00    -0.000 C 
BRANCH  10  11
ATOM     11  C   UNL     1      41.688  16.161  21.310  1.00  0.00    -0.000 C 
BRANCH  11  12
ATOM     12  C   UNL     1      42.959  16.630  20.587  1.00  0.00    -0.000 C 
BRANCH  12  13
ATOM     13  C   UNL     1      44.238  16.320  21.380  1.00  0.00    -0.003 C 
ATOM     14  C   UNL     1      45.248  15.500  20.576  1.00  0.00     0.004 C 
ENDBRANCH  12  13
ENDBRANCH  11  12
ENDBRANCH  10  11
ENDBRANCH   9  10
ENDBRANCH   1   9
TORSDOF 10
ENDMDL
