MODEL 1
REMARK VINA RESULT:    -3.845      0.000      0.000
REMARK INTER + INTRA:          -5.999
REMARK INTER:                  -5.307
REMARK INTRA:                  -0.693
REMARK UNBOUND:                -0.693
REMARK SMILES OC[C@H](O)C(O)[C@@H](O)CO
REMARK SMILES IDX 5 1 7 2 9 3 10 4 8 6 3 8 2 9 1 10 4 12 6 14
REMARK H PARENT 10 5 8 7 1 11 4 13 6 15
REMARK Flexibility Score: inf
ROOT
ATOM      1  C   UNL     1     173.707 162.565 168.768  1.00  0.00     0.176 C 
ENDROOT
BRANCH   1   2
ATOM      2  C   UNL     1     175.162 162.248 169.210  1.00  0.00     0.171 C 
BRANCH   2   3
ATOM      3  C   UNL     1     176.066 162.016 167.992  1.00  0.00     0.190 C 
BRANCH   3   4
ATOM      4  O   UNL     1     176.639 163.228 167.586  1.00  0.00    -0.394 OA
ATOM      5  H   UNL     1     177.588 163.196 167.875  1.00  0.00     0.210 HD
ENDBRANCH   3   4
ENDBRANCH   2   3
BRANCH   2   6
ATOM      6  O   UNL     1     175.183 161.113 170.039  1.00  0.00    -0.388 OA
ATOM      7  H   UNL     1     175.942 161.226 170.668  1.00  0.00     0.211 HD
ENDBRANCH   2   6
ENDBRANCH   1   2
BRANCH   1   8
ATOM      8  C   UNL     1     172.768 161.329 168.718  1.00  0.00     0.171 C 
BRANCH   8   9
ATOM      9  C   UNL     1     171.743 161.417 167.573  1.00  0.00     0.190 C 
BRANCH   9  10
ATOM     10  O   UNL     1     172.354 161.125 166.345  1.00  0.00    -0.394 OA
ATOM     11  H   UNL     1     171.971 160.261 166.036  1.00  0.00     0.210 HD
ENDBRANCH   9  10
ENDBRANCH   8   9
BRANCH   8  12
ATOM     12  O   UNL     1     172.104 161.168 169.947  1.00  0.00    -0.388 OA
ATOM     13  H   UNL     1     172.463 161.859 170.563  1.00  0.00     0.211 HD
ENDBRANCH   8  12
ENDBRANCH   1   8
BRANCH   1  14
ATOM     14  O   UNL     1     173.689 163.238 167.534  1.00  0.00    -0.388 OA
ATOM     15  H   UNL     1     172.820 163.046 167.094  1.00  0.00     0.211 HD
ENDBRANCH   1  14
TORSDOF 9
ENDMDL
MODEL 2
REMARK VINA RESULT:    -3.800      1.369      3.842
REMARK INTER + INTRA:          -5.937
REMARK INTER:                  -5.461
REMARK INTRA:                  -0.475
REMARK UNBOUND:                -0.693
REMARK SMILES OC[C@H](O)C(O)[C@@H](O)CO
REMARK SMILES IDX 5 1 7 2 9 3 10 4 8 6 3 8 2 9 1 10 4 12 6 14
REMARK H PARENT 10 5 8 7 1 11 4 13 6 15
REMARK Flexibility Score: inf
ROOT
ATOM      1  C   UNL     1     173.699 162.337 168.477  1.00  0.00     0.176 C 
ENDROOT
BRANCH   1   2
ATOM      2  C   UNL     1     172.778 162.271 167.228  1.00  0.00     0.171 C 
BRANCH   2   3
ATOM      3  C   UNL     1     172.419 163.679 166.736  1.00  0.00     0.190 C 
BRANCH   3   4
ATOM      4  O   UNL     1     173.473 164.201 165.976  1.00  0.00    -0.394 OA
ATOM      5  H   UNL     1     174.139 164.546 166.626  1.00  0.00     0.210 HD
ENDBRANCH   3   4
ENDBRANCH   2   3
BRANCH   2   6
ATOM      6  O   UNL     1     171.603 161.560 167.528  1.00  0.00    -0.388 OA
ATOM      7  H   UNL     1     171.255 161.198 166.671  1.00  0.00     0.211 HD
ENDBRANCH   2   6
ENDBRANCH   1   2
BRANCH   1   8
ATOM      8  C   UNL     1     175.188 161.997 168.196  1.00  0.00     0.171 C 
BRANCH   8   9
ATOM      9  C   UNL     1     176.063 162.104 169.459  1.00  0.00     0.190 C 
BRANCH   9  10
ATOM     10  O   UNL     1     175.747 161.078 170.361  1.00  0.00    -0.394 OA
ATOM     11  H   UNL     1     176.480 160.410 170.299  1.00  0.00     0.210 HD
ENDBRANCH   9  10
ENDBRANCH   8   9
BRANCH   8  12
ATOM     12  O   UNL     1     175.698 162.831 167.186  1.00  0.00    -0.388 OA
ATOM     13  H   UNL     1     176.657 162.983 167.392  1.00  0.00     0.211 HD
ENDBRANCH   8  12
ENDBRANCH   1   8
BRANCH   1  14
ATOM     14  O   UNL     1     173.204 161.526 169.514  1.00  0.00    -0.388 OA
ATOM     15  H   UNL     1     172.278 161.260 169.277  1.00  0.00     0.211 HD
ENDBRANCH   1  14
TORSDOF 9
ENDMDL
MODEL 3
REMARK VINA RESULT:    -3.787      1.227      2.600
REMARK INTER + INTRA:          -5.919
REMARK INTER:                  -5.267
REMARK INTRA:                  -0.652
REMARK UNBOUND:                -0.693
REMARK SMILES OC[C@H](O)C(O)[C@@H](O)CO
REMARK SMILES IDX 5 1 7 2 9 3 10 4 8 6 3 8 2 9 1 10 4 12 6 14
REMARK H PARENT 10 5 8 7 1 11 4 13 6 15
REMARK Flexibility Score: inf
ROOT
ATOM      1  C   UNL     1     174.576 161.906 168.994  1.00  0.00     0.176 C 
ENDROOT
BRANCH   1   2
ATOM      2  C   UNL     1     176.079 161.832 168.610  1.00  0.00     0.171 C 
BRANCH   2   3
ATOM      3  C   UNL     1     176.937 161.446 169.823  1.00  0.00     0.190 C 
BRANCH   3   4
ATOM      4  O   UNL     1     176.128 160.877 170.815  1.00  0.00    -0.394 OA
ATOM      5  H   UNL     1     175.191 161.057 170.544  1.00  0.00     0.210 HD
ENDBRANCH   3   4
ENDBRANCH   2   3
BRANCH   2   6
ATOM      6  O   UNL     1     176.512 163.068 168.098  1.00  0.00    -0.388 OA
ATOM      7  H   UNL     1     177.445 163.201 168.410  1.00  0.00     0.211 HD
ENDBRANCH   2   6
ENDBRANCH   1   2
BRANCH   1   8
ATOM      8  C   UNL     1     173.633 162.297 167.824  1.00  0.00     0.171 C 
BRANCH   8   9
ATOM      9  C   UNL     1     172.247 161.636 167.941  1.00  0.00     0.190 C 
BRANCH   9  10
ATOM     10  O   UNL     1     172.046 161.147 169.240  1.00  0.00    -0.394 OA
ATOM     11  H   UNL     1     171.094 161.323 169.465  1.00  0.00     0.210 HD
ENDBRANCH   9  10
ENDBRANCH   8   9
BRANCH   8  12
ATOM     12  O   UNL     1     174.220 161.967 166.590  1.00  0.00    -0.388 OA
ATOM     13  H   UNL     1     174.924 161.293 166.775  1.00  0.00     0.211 HD
ENDBRANCH   8  12
ENDBRANCH   1   8
BRANCH   1  14
ATOM     14  O   UNL     1     174.375 162.769 170.087  1.00  0.00    -0.388 OA
ATOM     15  H   UNL     1     173.426 163.057 170.078  1.00  0.00     0.211 HD
ENDBRANCH   1  14
TORSDOF 9
ENDMDL
MODEL 4
REMARK VINA RESULT:    -3.758     12.330     13.947
REMARK INTER + INTRA:          -5.879
REMARK INTER:                  -5.452
REMARK INTRA:                  -0.427
REMARK UNBOUND:                -0.693
REMARK SMILES OC[C@H](O)C(O)[C@@H](O)CO
REMARK SMILES IDX 5 1 7 2 9 3 10 4 8 6 3 8 2 9 1 10 4 12 6 14
REMARK H PARENT 10 5 8 7 1 11 4 13 6 15
REMARK Flexibility Score: inf
ROOT
ATOM      1  C   UNL     1     160.472 164.987 166.811  1.00  0.00     0.176 C 
ENDROOT
BRANCH   1   2
ATOM      2  C   UNL     1     161.498 165.247 165.674  1.00  0.00     0.171 C 
BRANCH   2   3
ATOM      3  C   UNL     1     161.807 163.953 164.908  1.00  0.00     0.190 C 
BRANCH   3   4
ATOM      4  O   UNL     1     162.932 163.328 165.462  1.00  0.00    -0.394 OA
ATOM      5  H   UNL     1     162.676 162.381 165.609  1.00  0.00     0.210 HD
ENDBRANCH   3   4
ENDBRANCH   2   3
BRANCH   2   6
ATOM      6  O   UNL     1     162.687 165.778 166.204  1.00  0.00    -0.388 OA
ATOM      7  H   UNL     1     163.402 165.617 165.534  1.00  0.00     0.211 HD
ENDBRANCH   2   6
ENDBRANCH   1   2
BRANCH   1   8
ATOM      8  C   UNL     1     159.844 166.273 167.414  1.00  0.00     0.171 C 
BRANCH   8   9
ATOM      9  C   UNL     1     159.032 165.986 168.691  1.00  0.00     0.190 C 
BRANCH   9  10
ATOM     10  O   UNL     1     159.793 166.278 169.831  1.00  0.00    -0.394 OA
ATOM     11  H   UNL     1     160.745 166.151 169.578  1.00  0.00     0.210 HD
ENDBRANCH   9  10
ENDBRANCH   8   9
BRANCH   8  12
ATOM     12  O   UNL     1     159.033 166.915 166.462  1.00  0.00    -0.388 OA
ATOM     13  H   UNL     1     158.121 166.973 166.850  1.00  0.00     0.211 HD
ENDBRANCH   8  12
ENDBRANCH   1   8
BRANCH   1  14
ATOM     14  O   UNL     1     161.035 164.198 167.830  1.00  0.00    -0.388 OA
ATOM     15  H   UNL     1     161.573 163.484 167.401  1.00  0.00     0.211 HD
ENDBRANCH   1  14
TORSDOF 9
ENDMDL
MODEL 5
REMARK VINA RESULT:    -3.682     12.842     14.018
REMARK INTER + INTRA:          -5.774
REMARK INTER:                  -5.087
REMARK INTRA:                  -0.687
REMARK UNBOUND:                -0.693
REMARK SMILES OC[C@H](O)C(O)[C@@H](O)CO
REMARK SMILES IDX 5 1 7 2 9 3 10 4 8 6 3 8 2 9 1 10 4 12 6 14
REMARK H PARENT 10 5 8 7 1 11 4 13 6 15
REMARK Flexibility Score: inf
ROOT
ATOM      1  C   UNL     1     160.211 163.896 168.277  1.00  0.00     0.176 C 
ENDROOT
BRANCH   1   2
ATOM      2  C   UNL     1     160.413 162.750 167.249  1.00  0.00     0.171 C 
BRANCH   2   3
ATOM      3  C   UNL     1     160.648 161.410 167.960  1.00  0.00     0.190 C 
BRANCH   3   4
ATOM      4  O   UNL     1     161.976 161.330 168.399  1.00  0.00    -0.394 OA
ATOM      5  H   UNL     1     162.527 161.753 167.690  1.00  0.00     0.210 HD
ENDBRANCH   3   4
ENDBRANCH   2   3
BRANCH   2   6
ATOM      6  O   UNL     1     161.503 163.037 166.409  1.00  0.00    -0.388 OA
ATOM      7  H   UNL     1     161.853 162.168 166.079  1.00  0.00     0.211 HD
ENDBRANCH   2   6
ENDBRANCH   1   2
BRANCH   1   8
ATOM      8  C   UNL     1     160.165 165.318 167.654  1.00  0.00     0.171 C 
BRANCH   8   9
ATOM      9  C   UNL     1     159.299 166.291 168.474  1.00  0.00     0.190 C 
BRANCH   9  10
ATOM     10  O   UNL     1     159.683 166.270 169.823  1.00  0.00    -0.394 OA
ATOM     11  H   UNL     1     160.213 165.439 169.955  1.00  0.00     0.210 HD
ENDBRANCH   9  10
ENDBRANCH   8   9
BRANCH   8  12
ATOM     12  O   UNL     1     159.697 165.256 166.330  1.00  0.00    -0.388 OA
ATOM     13  H   UNL     1     158.705 165.254 166.373  1.00  0.00     0.211 HD
ENDBRANCH   8  12
ENDBRANCH   1   8
BRANCH   1  14
ATOM     14  O   UNL     1     161.184 163.843 169.292  1.00  0.00    -0.388 OA
ATOM     15  H   UNL     1     162.062 163.668 168.864  1.00  0.00     0.211 HD
ENDBRANCH   1  14
TORSDOF 9
ENDMDL
MODEL 6
REMARK VINA RESULT:    -3.680     12.435     14.094
REMARK INTER + INTRA:          -5.772
REMARK INTER:                  -5.274
REMARK INTRA:                  -0.498
REMARK UNBOUND:                -0.693
REMARK SMILES OC[C@H](O)C(O)[C@@H](O)CO
REMARK SMILES IDX 5 1 7 2 9 3 10 4 8 6 3 8 2 9 1 10 4 12 6 14
REMARK H PARENT 10 5 8 7 1 11 4 13 6 15
REMARK Flexibility Score: inf
ROOT
ATOM      1  C   UNL     1     161.186 165.677 167.115  1.00  0.00     0.176 C 
ENDROOT
BRANCH   1   2
ATOM      2  C   UNL     1     159.917 166.542 167.348  1.00  0.00     0.171 C 
BRANCH   2   3
ATOM      3  C   UNL     1     159.088 165.994 168.518  1.00  0.00     0.190 C 
BRANCH   3   4
ATOM      4  O   UNL     1     159.737 166.265 169.730  1.00  0.00    -0.394 OA
ATOM      5  H   UNL     1     159.701 165.424 170.256  1.00  0.00     0.210 HD
ENDBRANCH   3   4
ENDBRANCH   2   3
BRANCH   2   6
ATOM      6  O   UNL     1     159.130 166.575 166.184  1.00  0.00    -0.388 OA
ATOM      7  H   UNL     1     158.747 167.488 166.118  1.00  0.00     0.211 HD
ENDBRANCH   2   6
ENDBRANCH   1   2
BRANCH   1   8
ATOM      8  C   UNL     1     161.535 165.439 165.621  1.00  0.00     0.171 C 
BRANCH   8   9
ATOM      9  C   UNL     1     161.574 163.943 165.259  1.00  0.00     0.190 C 
BRANCH   9  10
ATOM     10  O   UNL     1     162.873 163.436 165.411  1.00  0.00    -0.394 OA
ATOM     11  H   UNL     1     163.490 164.120 165.039  1.00  0.00     0.210 HD
ENDBRANCH   9  10
ENDBRANCH   8   9
BRANCH   8  12
ATOM     12  O   UNL     1     162.763 166.044 165.302  1.00  0.00    -0.388 OA
ATOM     13  H   UNL     1     162.737 166.964 165.670  1.00  0.00     0.211 HD
ENDBRANCH   8  12
ENDBRANCH   1   8
BRANCH   1  14
ATOM     14  O   UNL     1     161.093 164.449 167.793  1.00  0.00    -0.388 OA
ATOM     15  H   UNL     1     161.287 164.614 168.752  1.00  0.00     0.211 HD
ENDBRANCH   1  14
TORSDOF 9
ENDMDL
MODEL 7
REMARK VINA RESULT:    -3.601      1.378      3.736
REMARK INTER + INTRA:          -5.662
REMARK INTER:                  -5.389
REMARK INTRA:                  -0.274
REMARK UNBOUND:                -0.693
REMARK SMILES OC[C@H](O)C(O)[C@@H](O)CO
REMARK SMILES IDX 5 1 7 2 9 3 10 4 8 6 3 8 2 9 1 10 4 12 6 14
REMARK H PARENT 10 5 8 7 1 11 4 13 6 15
REMARK Flexibility Score: inf
ROOT
ATOM      1  C   UNL     1     174.085 162.311 167.478  1.00  0.00     0.176 C 
ENDROOT
BRANCH   1   2
ATOM      2  C   UNL     1     172.692 162.858 167.063  1.00  0.00     0.171 C 
BRANCH   2   3
ATOM      3  C   UNL     1     172.041 161.955 166.007  1.00  0.00     0.190 C 
BRANCH   3   4
ATOM      4  O   UNL     1     173.026 161.216 165.339  1.00  0.00    -0.394 OA
ATOM      5  H   UNL     1     173.533 161.867 164.788  1.00  0.00     0.210 HD
ENDBRANCH   3   4
ENDBRANCH   2   3
BRANCH   2   6
ATOM      6  O   UNL     1     172.813 164.164 166.558  1.00  0.00    -0.388 OA
ATOM      7  H   UNL     1     172.250 164.750 167.130  1.00  0.00     0.211 HD
ENDBRANCH   2   6
ENDBRANCH   1   2
BRANCH   1   8
ATOM      8  C   UNL     1     174.342 162.303 169.010  1.00  0.00     0.171 C 
BRANCH   8   9
ATOM      9  C   UNL     1     175.747 161.784 169.367  1.00  0.00     0.190 C 
BRANCH   9  10
ATOM     10  O   UNL     1     175.744 161.201 170.642  1.00  0.00    -0.394 OA
ATOM     11  H   UNL     1     174.800 161.199 170.952  1.00  0.00     0.210 HD
ENDBRANCH   9  10
ENDBRANCH   8   9
BRANCH   8  12
ATOM     12  O   UNL     1     173.364 161.536 169.666  1.00  0.00    -0.388 OA
ATOM     13  H   UNL     1     172.496 161.738 169.230  1.00  0.00     0.211 HD
ENDBRANCH   8  12
ENDBRANCH   1   8
BRANCH   1  14
ATOM     14  O   UNL     1     175.117 163.001 166.817  1.00  0.00    -0.388 OA
ATOM     15  H   UNL     1     175.974 162.763 167.257  1.00  0.00     0.211 HD
ENDBRANCH   1  14
TORSDOF 9
ENDMDL
MODEL 8
REMARK VINA RESULT:    -3.599     12.360     14.064
REMARK INTER + INTRA:          -5.660
REMARK INTER:                  -5.016
REMARK INTRA:                  -0.644
REMARK UNBOUND:                -0.693
REMARK SMILES OC[C@H](O)C(O)[C@@H](O)CO
REMARK SMILES IDX 5 1 7 2 9 3 10 4 8 6 3 8 2 9 1 10 4 12 6 14
REMARK H PARENT 10 5 8 7 1 11 4 13 6 15
REMARK Flexibility Score: inf
ROOT
ATOM      1  C   UNL     1     160.401 164.674 166.843  1.00  0.00     0.176 C 
ENDROOT
BRANCH   1   2
ATOM      2  C   UNL     1     159.295 164.804 167.925  1.00  0.00     0.171 C 
BRANCH   2   3
ATOM      3  C   UNL     1     159.273 166.219 168.520  1.00  0.00     0.190 C 
BRANCH   3   4
ATOM      4  O   UNL     1     159.864 166.211 169.790  1.00  0.00    -0.394 OA
ATOM      5  H   UNL     1     159.283 165.643 170.361  1.00  0.00     0.210 HD
ENDBRANCH   3   4
ENDBRANCH   2   3
BRANCH   2   6
ATOM      6  O   UNL     1     159.503 163.864 168.949  1.00  0.00    -0.388 OA
ATOM      7  H   UNL     1     160.439 163.976 169.261  1.00  0.00     0.211 HD
ENDBRANCH   2   6
ENDBRANCH   1   2
BRANCH   1   8
ATOM      8  C   UNL     1     160.748 163.212 166.452  1.00  0.00     0.171 C 
BRANCH   8   9
ATOM      9  C   UNL     1     161.577 163.131 165.157  1.00  0.00     0.190 C 
BRANCH   9  10
ATOM     10  O   UNL     1     162.934 163.356 165.429  1.00  0.00    -0.394 OA
ATOM     11  H   UNL     1     163.343 162.465 165.591  1.00  0.00     0.210 HD
ENDBRANCH   9  10
ENDBRANCH   8   9
BRANCH   8  12
ATOM     12  O   UNL     1     159.575 162.448 166.321  1.00  0.00    -0.388 OA
ATOM     13  H   UNL     1     159.717 161.609 166.832  1.00  0.00     0.211 HD
ENDBRANCH   8  12
ENDBRANCH   1   8
BRANCH   1  14
ATOM     14  O   UNL     1     161.565 165.364 167.224  1.00  0.00    -0.388 OA
ATOM     15  H   UNL     1     161.399 165.775 168.111  1.00  0.00     0.211 HD
ENDBRANCH   1  14
TORSDOF 9
ENDMDL
MODEL 9
REMARK VINA RESULT:    -3.564     17.281     18.394
REMARK INTER + INTRA:          -5.612
REMARK INTER:                  -5.317
REMARK INTRA:                  -0.295
REMARK UNBOUND:                -0.693
REMARK SMILES OC[C@H](O)C(O)[C@@H](O)CO
REMARK SMILES IDX 5 1 7 2 9 3 10 4 8 6 3 8 2 9 1 10 4 12 6 14
REMARK H PARENT 10 5 8 7 1 11 4 13 6 15
REMARK Flexibility Score: inf
ROOT
ATOM      1  C   UNL     1     164.802 178.009 167.187  1.00  0.00     0.176 C 
ENDROOT
BRANCH   1   2
ATOM      2  C   UNL     1     163.605 178.467 168.065  1.00  0.00     0.171 C 
BRANCH   2   3
ATOM      3  C   UNL     1     163.643 177.788 169.441  1.00  0.00     0.190 C 
BRANCH   3   4
ATOM      4  O   UNL     1     162.856 178.508 170.349  1.00  0.00    -0.394 OA
ATOM      5  H   UNL     1     162.875 177.995 171.198  1.00  0.00     0.210 HD
ENDBRANCH   3   4
ENDBRANCH   2   3
BRANCH   2   6
ATOM      6  O   UNL     1     162.390 178.169 167.423  1.00  0.00    -0.388 OA
ATOM      7  H   UNL     1     161.793 178.951 167.553  1.00  0.00     0.211 HD
ENDBRANCH   2   6
ENDBRANCH   1   2
BRANCH   1   8
ATOM      8  C   UNL     1     164.846 176.483 166.906  1.00  0.00     0.171 C 
BRANCH   8   9
ATOM      9  C   UNL     1     166.066 176.077 166.059  1.00  0.00     0.190 C 
BRANCH   9  10
ATOM     10  O   UNL     1     166.810 175.086 166.715  1.00  0.00    -0.394 OA
ATOM     11  H   UNL     1     166.876 175.363 167.667  1.00  0.00     0.210 HD
ENDBRANCH   9  10
ENDBRANCH   8   9
BRANCH   8  12
ATOM     12  O   UNL     1     163.661 176.067 166.274  1.00  0.00    -0.388 OA
ATOM     13  H   UNL     1     163.264 175.356 166.841  1.00  0.00     0.211 HD
ENDBRANCH   8  12
ENDBRANCH   1   8
BRANCH   1  14
ATOM     14  O   UNL     1     166.025 178.436 167.737  1.00  0.00    -0.388 OA
ATOM     15  H   UNL     1     166.270 179.295 167.306  1.00  0.00     0.211 HD
ENDBRANCH   1  14
TORSDOF 9
ENDMDL
