MODEL 1
REMARK VINA RESULT:   133.127      0.000      0.000
REMARK INTER + INTRA:         137.019
REMARK INTER:                 137.019
REMARK INTRA:                   0.000
REMARK UNBOUND:                 0.000
REMARK SMILES CC1(C)CC[C@@]2(C)CC[C@@]3(C)C(=CC[C@@H]4[C@]5(C)CC[C@@H](O)C(C)(C)[C@H]5CC[C@]43C)[C@@H]2C1
REMARK SMILES IDX 1 1 2 2 4 3 5 4 6 5 8 6 9 7 10 8 12 9 13 10 14 11 15 12
REMARK SMILES IDX 28 13 27 14 26 15 25 16 16 17 18 18 19 19 20 20 22 21 23 22
REMARK SMILES IDX 24 23 17 24 29 25 30 26 31 27 11 28 7 29 3 30 21 31
REMARK H PARENT 21 32
REMARK Flexibility Score: inf
ROOT
ATOM      1  C   UNL     1      84.158   7.067  66.517  1.00  0.00     0.011 C 
ATOM      2  C   UNL     1      84.862   7.401  65.180  1.00  0.00    -0.035 C 
ATOM      3  C   UNL     1      85.055   6.081  64.376  1.00  0.00     0.007 C 
ATOM      4  C   UNL     1      86.030   6.189  63.172  1.00  0.00     0.008 C 
ATOM      5  C   UNL     1      87.400   6.797  63.558  1.00  0.00    -0.026 C 
ATOM      6  C   UNL     1      88.295   6.989  62.273  1.00  0.00     0.008 C 
ATOM      7  C   UNL     1      88.609   8.456  61.875  1.00  0.00     0.012 C 
ATOM      8  C   UNL     1      89.010   9.464  63.042  1.00  0.00    -0.006 C 
ATOM      9  C   UNL     1      88.435   8.921  64.378  1.00  0.00    -0.064 C 
ATOM     10  C   UNL     1      89.209   8.698  65.490  1.00  0.00    -0.027 C 
ATOM     11  C   UNL     1      90.725   8.578  65.436  1.00  0.00     0.032 C 
ATOM     12  C   UNL     1      91.189   8.491  63.962  1.00  0.00     0.006 C 
ATOM     13  C   UNL     1      90.597   9.739  63.202  1.00  0.00    -0.020 C 
ATOM     14  C   UNL     1      91.393   9.937  61.876  1.00  0.00     0.008 C 
ATOM     15  C   UNL     1      92.900  10.211  62.128  1.00  0.00     0.005 C 
ATOM     16  C   UNL     1      93.536   9.379  63.298  1.00  0.00     0.003 C 
ATOM     17  C   UNL     1      92.706   8.089  63.629  1.00  0.00    -0.025 C 
ATOM     18  C   UNL     1      93.348   7.366  64.856  1.00  0.00     0.010 C 
ATOM     19  C   UNL     1      94.852   7.109  64.706  1.00  0.00     0.033 C 
ATOM     20  C   UNL     1      95.609   8.428  64.481  1.00  0.00     0.120 C 
ATOM     21  C   UNL     1      95.116   9.201  63.209  1.00  0.00    -0.006 C 
ATOM     22  C   UNL     1      95.618   8.493  61.912  1.00  0.00     0.014 C 
ATOM     23  C   UNL     1      95.769  10.605  63.235  1.00  0.00     0.014 C 
ATOM     24  C   UNL     1      92.717   7.101  62.402  1.00  0.00     0.012 C 
ATOM     25  C   UNL     1      90.792  11.078  64.021  1.00  0.00     0.012 C 
ATOM     26  C   UNL     1      87.119   8.176  64.234  1.00  0.00     0.022 C 
ATOM     27  C   UNL     1      86.237   8.063  65.489  1.00  0.00     0.015 C 
ATOM     28  C   UNL     1      88.260  10.806  62.732  1.00  0.00     0.017 C 
ATOM     29  C   UNL     1      88.144   5.807  64.505  1.00  0.00     0.012 C 
ATOM     30  C   UNL     1      83.944   8.368  64.395  1.00  0.00     0.011 C 
ENDROOT
BRANCH  20  31
ATOM     31  O   UNL     1      96.998   8.214  64.470  1.00  0.00    -0.393 OA
ATOM     32  H   UNL     1      97.175   7.374  63.965  1.00  0.00     0.210 HD
ENDBRANCH  20  31
TORSDOF 1
ENDMDL
