MODEL 1
REMARK VINA RESULT:    -4.156      0.000      0.000
REMARK INTER + INTRA:          -4.156
REMARK INTER:                  -4.156
REMARK INTRA:                   0.000
REMARK UNBOUND:                 0.000
REMARK SMILES CC(C)=C1CC[C@@H](C)CC1=O
REMARK SMILES IDX 8 1 7 2 6 3 5 4 4 5 2 6 1 7 3 8 10 9 11 10 9 11
REMARK H PARENT
REMARK Flexibility Score: inf
ROOT
ATOM      1  C   UNL     1     184.538 175.889 201.492  1.00  0.00     0.008 C 
ATOM      2  C   UNL     1     183.576 176.810 200.725  1.00  0.00    -0.006 C 
ATOM      3  C   UNL     1     183.347 176.340 199.277  1.00  0.00     0.008 C 
ATOM      4  C   UNL     1     184.607 176.450 198.403  1.00  0.00     0.039 C 
ATOM      5  C   UNL     1     185.283 177.811 198.503  1.00  0.00    -0.006 C 
ATOM      6  C   UNL     1     185.983 178.330 197.451  1.00  0.00    -0.070 C 
ATOM      7  C   UNL     1     186.130 177.567 196.154  1.00  0.00     0.039 C 
ATOM      8  C   UNL     1     186.612 179.703 197.513  1.00  0.00     0.039 C 
ATOM      9  C   UNL     1     185.235 178.478 199.838  1.00  0.00     0.159 C 
ATOM     10  O   UNL     1     186.179 179.210 200.238  1.00  0.00    -0.295 OA
ATOM     11  C   UNL     1     184.053 178.271 200.740  1.00  0.00     0.084 C 
ENDROOT
TORSDOF 0
ENDMDL
MODEL 2
REMARK VINA RESULT:    -4.138      1.962      3.354
REMARK INTER + INTRA:          -4.138
REMARK INTER:                  -4.138
REMARK INTRA:                   0.000
REMARK UNBOUND:                 0.000
REMARK SMILES CC(C)=C1CC[C@@H](C)CC1=O
REMARK SMILES IDX 8 1 7 2 6 3 5 4 4 5 2 6 1 7 3 8 10 9 11 10 9 11
REMARK H PARENT
REMARK Flexibility Score: inf
ROOT
ATOM      1  C   UNL     1     186.745 177.717 200.380  1.00  0.00     0.008 C 
ATOM      2  C   UNL     1     185.804 178.814 199.857  1.00  0.00    -0.006 C 
ATOM      3  C   UNL     1     184.345 178.587 200.290  1.00  0.00     0.008 C 
ATOM      4  C   UNL     1     183.714 177.340 199.650  1.00  0.00     0.039 C 
ATOM      5  C   UNL     1     183.920 177.278 198.142  1.00  0.00    -0.006 C 
ATOM      6  C   UNL     1     183.007 176.667 197.330  1.00  0.00    -0.070 C 
ATOM      7  C   UNL     1     181.768 176.011 197.897  1.00  0.00     0.039 C 
ATOM      8  C   UNL     1     183.167 176.646 195.827  1.00  0.00     0.039 C 
ATOM      9  C   UNL     1     185.215 177.812 197.627  1.00  0.00     0.159 C 
ATOM     10  O   UNL     1     185.772 177.314 196.613  1.00  0.00    -0.295 OA
ATOM     11  C   UNL     1     185.888 178.956 198.329  1.00  0.00     0.084 C 
ENDROOT
TORSDOF 0
ENDMDL
MODEL 3
REMARK VINA RESULT:    -4.029      2.151      3.079
REMARK INTER + INTRA:          -4.029
REMARK INTER:                  -4.029
REMARK INTRA:                   0.000
REMARK UNBOUND:                 0.000
REMARK SMILES CC(C)=C1CC[C@@H](C)CC1=O
REMARK SMILES IDX 8 1 7 2 6 3 5 4 4 5 2 6 1 7 3 8 10 9 11 10 9 11
REMARK H PARENT
REMARK Flexibility Score: inf
ROOT
ATOM      1  C   UNL     1     183.379 176.642 198.622  1.00  0.00     0.008 C 
ATOM      2  C   UNL     1     183.774 176.615 200.108  1.00  0.00    -0.006 C 
ATOM      3  C   UNL     1     183.842 178.026 200.719  1.00  0.00     0.008 C 
ATOM      4  C   UNL     1     184.980 178.880 200.136  1.00  0.00     0.039 C 
ATOM      5  C   UNL     1     186.319 178.155 200.122  1.00  0.00    -0.006 C 
ATOM      6  C   UNL     1     187.494 178.843 200.235  1.00  0.00    -0.070 C 
ATOM      7  C   UNL     1     187.513 180.349 200.358  1.00  0.00     0.039 C 
ATOM      8  C   UNL     1     188.829 178.135 200.279  1.00  0.00     0.039 C 
ATOM      9  C   UNL     1     186.275 176.686 199.863  1.00  0.00     0.159 C 
ATOM     10  O   UNL     1     187.204 176.103 199.242  1.00  0.00    -0.295 OA
ATOM     11  C   UNL     1     185.102 175.875 200.331  1.00  0.00     0.084 C 
ENDROOT
TORSDOF 0
ENDMDL
MODEL 4
REMARK VINA RESULT:    -4.010      2.295      3.185
REMARK INTER + INTRA:          -4.010
REMARK INTER:                  -4.010
REMARK INTRA:                   0.000
REMARK UNBOUND:                 0.000
REMARK SMILES CC(C)=C1CC[C@@H](C)CC1=O
REMARK SMILES IDX 8 1 7 2 6 3 5 4 4 5 2 6 1 7 3 8 10 9 11 10 9 11
REMARK H PARENT
REMARK Flexibility Score: inf
ROOT
ATOM      1  C   UNL     1     183.758 178.507 200.652  1.00  0.00     0.008 C 
ATOM      2  C   UNL     1     184.418 177.177 200.253  1.00  0.00    -0.006 C 
ATOM      3  C   UNL     1     185.622 177.380 199.316  1.00  0.00     0.008 C 
ATOM      4  C   UNL     1     185.225 177.928 197.935  1.00  0.00     0.039 C 
ATOM      5  C   UNL     1     184.079 177.155 197.297  1.00  0.00    -0.006 C 
ATOM      6  C   UNL     1     183.970 177.047 195.940  1.00  0.00    -0.070 C 
ATOM      7  C   UNL     1     184.971 177.707 195.018  1.00  0.00     0.039 C 
ATOM      8  C   UNL     1     182.871 176.237 195.291  1.00  0.00     0.039 C 
ATOM      9  C   UNL     1     183.034 176.632 198.226  1.00  0.00     0.159 C 
ATOM     10  O   UNL     1     181.827 176.545 197.872  1.00  0.00    -0.295 OA
ATOM     11  C   UNL     1     183.408 176.209 199.617  1.00  0.00     0.084 C 
ENDROOT
TORSDOF 0
ENDMDL
MODEL 5
REMARK VINA RESULT:    -3.765      1.840      3.181
REMARK INTER + INTRA:          -3.765
REMARK INTER:                  -3.765
REMARK INTRA:                   0.000
REMARK UNBOUND:                 0.000
REMARK SMILES CC(C)=C1CC[C@@H](C)CC1=O
REMARK SMILES IDX 8 1 7 2 6 3 5 4 4 5 2 6 1 7 3 8 10 9 11 10 9 11
REMARK H PARENT
REMARK Flexibility Score: inf
ROOT
ATOM      1  C   UNL     1     187.124 179.278 200.121  1.00  0.00     0.008 C 
ATOM      2  C   UNL     1     187.084 177.749 199.972  1.00  0.00    -0.006 C 
ATOM      3  C   UNL     1     187.268 177.301 198.510  1.00  0.00     0.008 C 
ATOM      4  C   UNL     1     186.095 177.708 197.603  1.00  0.00     0.039 C 
ATOM      5  C   UNL     1     184.738 177.341 198.188  1.00  0.00    -0.006 C 
ATOM      6  C   UNL     1     183.677 177.048 197.378  1.00  0.00    -0.070 C 
ATOM      7  C   UNL     1     183.804 177.094 195.872  1.00  0.00     0.039 C 
ATOM      8  C   UNL     1     182.339 176.628 197.941  1.00  0.00     0.039 C 
ATOM      9  C   UNL     1     184.607 177.438 199.671  1.00  0.00     0.159 C 
ATOM     10  O   UNL     1     183.518 177.766 200.213  1.00  0.00    -0.295 OA
ATOM     11  C   UNL     1     185.791 177.154 200.550  1.00  0.00     0.084 C 
ENDROOT
TORSDOF 0
ENDMDL
MODEL 6
REMARK VINA RESULT:    -3.757     15.917     17.558
REMARK INTER + INTRA:          -3.757
REMARK INTER:                  -3.757
REMARK INTRA:                   0.000
REMARK UNBOUND:                 0.000
REMARK SMILES CC(C)=C1CC[C@@H](C)CC1=O
REMARK SMILES IDX 8 1 7 2 6 3 5 4 4 5 2 6 1 7 3 8 10 9 11 10 9 11
REMARK H PARENT
REMARK Flexibility Score: inf
ROOT
ATOM      1  C   UNL     1     185.704 193.229 200.359  1.00  0.00     0.008 C 
ATOM      2  C   UNL     1     185.621 194.741 200.093  1.00  0.00    -0.006 C 
ATOM      3  C   UNL     1     185.396 195.060 198.604  1.00  0.00     0.008 C 
ATOM      4  C   UNL     1     186.594 194.680 197.719  1.00  0.00     0.039 C 
ATOM      5  C   UNL     1     187.921 195.197 198.261  1.00  0.00    -0.006 C 
ATOM      6  C   UNL     1     188.951 195.511 197.421  1.00  0.00    -0.070 C 
ATOM      7  C   UNL     1     188.823 195.339 195.925  1.00  0.00     0.039 C 
ATOM      8  C   UNL     1     190.254 196.077 197.937  1.00  0.00     0.039 C 
ATOM      9  C   UNL     1     188.064 195.225 199.747  1.00  0.00     0.159 C 
ATOM     10  O   UNL     1     189.178 195.026 200.301  1.00  0.00    -0.295 OA
ATOM     11  C   UNL     1     186.864 195.480 200.613  1.00  0.00     0.084 C 
ENDROOT
TORSDOF 0
ENDMDL
MODEL 7
REMARK VINA RESULT:    -3.734      9.595     11.198
REMARK INTER + INTRA:          -3.734
REMARK INTER:                  -3.734
REMARK INTRA:                   0.000
REMARK UNBOUND:                 0.000
REMARK SMILES CC(C)=C1CC[C@@H](C)CC1=O
REMARK SMILES IDX 8 1 7 2 6 3 5 4 4 5 2 6 1 7 3 8 10 9 11 10 9 11
REMARK H PARENT
REMARK Flexibility Score: inf
ROOT
ATOM      1  C   UNL     1     187.760 186.951 194.810  1.00  0.00     0.008 C 
ATOM      2  C   UNL     1     186.691 187.128 195.901  1.00  0.00    -0.006 C 
ATOM      3  C   UNL     1     185.647 185.996 195.883  1.00  0.00     0.008 C 
ATOM      4  C   UNL     1     184.771 186.004 194.620  1.00  0.00     0.039 C 
ATOM      5  C   UNL     1     184.189 187.377 194.310  1.00  0.00    -0.006 C 
ATOM      6  C   UNL     1     182.987 187.505 193.673  1.00  0.00    -0.070 C 
ATOM      7  C   UNL     1     182.199 186.292 193.233  1.00  0.00     0.039 C 
ATOM      8  C   UNL     1     182.368 188.858 193.407  1.00  0.00     0.039 C 
ATOM      9  C   UNL     1     185.051 188.551 194.632  1.00  0.00     0.159 C 
ATOM     10  O   UNL     1     185.018 189.600 193.934  1.00  0.00    -0.295 OA
ATOM     11  C   UNL     1     185.994 188.494 195.799  1.00  0.00     0.084 C 
ENDROOT
TORSDOF 0
ENDMDL
MODEL 8
REMARK VINA RESULT:    -3.729      7.955      9.684
REMARK INTER + INTRA:          -3.729
REMARK INTER:                  -3.729
REMARK INTRA:                   0.000
REMARK UNBOUND:                 0.000
REMARK SMILES CC(C)=C1CC[C@@H](C)CC1=O
REMARK SMILES IDX 8 1 7 2 6 3 5 4 4 5 2 6 1 7 3 8 10 9 11 10 9 11
REMARK H PARENT
REMARK Flexibility Score: inf
ROOT
ATOM      1  C   UNL     1     185.001 185.837 194.809  1.00  0.00     0.008 C 
ATOM      2  C   UNL     1     186.068 185.632 195.898  1.00  0.00    -0.006 C 
ATOM      3  C   UNL     1     187.115 186.760 195.907  1.00  0.00     0.008 C 
ATOM      4  C   UNL     1     187.994 186.776 194.645  1.00  0.00     0.039 C 
ATOM      5  C   UNL     1     188.572 185.409 194.307  1.00  0.00    -0.006 C 
ATOM      6  C   UNL     1     189.774 185.289 193.669  1.00  0.00    -0.070 C 
ATOM      7  C   UNL     1     190.568 186.508 193.258  1.00  0.00     0.039 C 
ATOM      8  C   UNL     1     190.389 183.940 193.376  1.00  0.00     0.039 C 
ATOM      9  C   UNL     1     187.704 184.231 194.602  1.00  0.00     0.159 C 
ATOM     10  O   UNL     1     187.735 183.197 193.881  1.00  0.00    -0.295 OA
ATOM     11  C   UNL     1     186.759 184.266 195.768  1.00  0.00     0.084 C 
ENDROOT
TORSDOF 0
ENDMDL
MODEL 9
REMARK VINA RESULT:    -3.653      1.787      4.265
REMARK INTER + INTRA:          -3.653
REMARK INTER:                  -3.653
REMARK INTRA:                   0.000
REMARK UNBOUND:                 0.000
REMARK SMILES CC(C)=C1CC[C@@H](C)CC1=O
REMARK SMILES IDX 8 1 7 2 6 3 5 4 4 5 2 6 1 7 3 8 10 9 11 10 9 11
REMARK H PARENT
REMARK Flexibility Score: inf
ROOT
ATOM      1  C   UNL     1     188.728 178.620 198.039  1.00  0.00     0.008 C 
ATOM      2  C   UNL     1     187.782 179.491 198.882  1.00  0.00    -0.006 C 
ATOM      3  C   UNL     1     187.703 179.020 200.345  1.00  0.00     0.008 C 
ATOM      4  C   UNL     1     187.036 177.643 200.499  1.00  0.00     0.039 C 
ATOM      5  C   UNL     1     185.714 177.537 199.751  1.00  0.00    -0.006 C 
ATOM      6  C   UNL     1     184.713 176.721 200.198  1.00  0.00    -0.070 C 
ATOM      7  C   UNL     1     184.886 175.879 201.442  1.00  0.00     0.039 C 
ATOM      8  C   UNL     1     183.375 176.646 199.500  1.00  0.00     0.039 C 
ATOM      9  C   UNL     1     185.624 178.274 198.456  1.00  0.00     0.159 C 
ATOM     10  O   UNL     1     184.935 177.832 197.497  1.00  0.00    -0.295 OA
ATOM     11  C   UNL     1     186.374 179.560 198.269  1.00  0.00     0.084 C 
ENDROOT
TORSDOF 0
ENDMDL
