MODEL 1
REMARK VINA RESULT:    -4.253      0.000      0.000
REMARK INTER + INTRA:          -4.253
REMARK INTER:                  -4.253
REMARK INTRA:                   0.000
REMARK UNBOUND:                 0.000
REMARK SMILES CC(C)=C1CC[C@H](C)CC1=O
REMARK SMILES IDX 8 1 7 2 6 3 5 4 4 5 2 6 1 7 3 8 10 9 11 10 9 11
REMARK H PARENT
REMARK Flexibility Score: inf
ROOT
ATOM      1  C   UNL     1     165.195 201.116 301.127  1.00  0.00     0.008 C 
ATOM      2  C   UNL     1     165.612 201.007 302.598  1.00  0.00    -0.006 C 
ATOM      3  C   UNL     1     164.482 201.498 303.518  1.00  0.00     0.008 C 
ATOM      4  C   UNL     1     164.919 201.492 304.989  1.00  0.00     0.039 C 
ATOM      5  C   UNL     1     165.483 200.147 305.424  1.00  0.00    -0.006 C 
ATOM      6  C   UNL     1     165.336 199.697 306.706  1.00  0.00    -0.070 C 
ATOM      7  C   UNL     1     165.843 198.340 307.136  1.00  0.00     0.039 C 
ATOM      8  C   UNL     1     164.622 200.525 307.749  1.00  0.00     0.039 C 
ATOM      9  C   UNL     1     166.297 199.417 304.408  1.00  0.00     0.159 C 
ATOM     10  O   UNL     1     167.263 198.681 304.747  1.00  0.00    -0.295 OA
ATOM     11  C   UNL     1     165.978 199.556 302.947  1.00  0.00     0.084 C 
ENDROOT
TORSDOF 0
ENDMDL
MODEL 2
REMARK VINA RESULT:    -4.158      1.284      4.267
REMARK INTER + INTRA:          -4.158
REMARK INTER:                  -4.158
REMARK INTRA:                   0.000
REMARK UNBOUND:                 0.000
REMARK SMILES CC(C)=C1CC[C@H](C)CC1=O
REMARK SMILES IDX 8 1 7 2 6 3 5 4 4 5 2 6 1 7 3 8 10 9 11 10 9 11
REMARK H PARENT
REMARK Flexibility Score: inf
ROOT
ATOM      1  C   UNL     1     165.779 199.032 306.743  1.00  0.00     0.008 C 
ATOM      2  C   UNL     1     165.471 199.454 305.302  1.00  0.00    -0.006 C 
ATOM      3  C   UNL     1     165.064 200.935 305.246  1.00  0.00     0.008 C 
ATOM      4  C   UNL     1     164.655 201.349 303.827  1.00  0.00     0.039 C 
ATOM      5  C   UNL     1     165.711 200.995 302.789  1.00  0.00    -0.006 C 
ATOM      6  C   UNL     1     165.896 201.763 301.675  1.00  0.00    -0.070 C 
ATOM      7  C   UNL     1     166.978 201.453 300.666  1.00  0.00     0.039 C 
ATOM      8  C   UNL     1     165.048 202.987 301.417  1.00  0.00     0.039 C 
ATOM      9  C   UNL     1     166.437 199.708 303.005  1.00  0.00     0.159 C 
ATOM     10  O   UNL     1     166.844 199.015 302.034  1.00  0.00    -0.295 OA
ATOM     11  C   UNL     1     166.691 199.212 304.399  1.00  0.00     0.084 C 
ENDROOT
TORSDOF 0
ENDMDL
MODEL 3
REMARK VINA RESULT:    -4.034      1.990      4.572
REMARK INTER + INTRA:          -4.034
REMARK INTER:                  -4.034
REMARK INTRA:                   0.000
REMARK UNBOUND:                 0.000
REMARK SMILES CC(C)=C1CC[C@H](C)CC1=O
REMARK SMILES IDX 8 1 7 2 6 3 5 4 4 5 2 6 1 7 3 8 10 9 11 10 9 11
REMARK H PARENT
REMARK Flexibility Score: inf
ROOT
ATOM      1  C   UNL     1     164.231 202.068 304.719  1.00  0.00     0.008 C 
ATOM      2  C   UNL     1     164.733 201.208 303.553  1.00  0.00    -0.006 C 
ATOM      3  C   UNL     1     165.113 202.091 302.353  1.00  0.00     0.008 C 
ATOM      4  C   UNL     1     165.520 201.241 301.142  1.00  0.00     0.039 C 
ATOM      5  C   UNL     1     166.598 200.221 301.482  1.00  0.00    -0.006 C 
ATOM      6  C   UNL     1     167.528 199.837 300.557  1.00  0.00    -0.070 C 
ATOM      7  C   UNL     1     168.637 198.868 300.899  1.00  0.00     0.039 C 
ATOM      8  C   UNL     1     167.515 200.397 299.154  1.00  0.00     0.039 C 
ATOM      9  C   UNL     1     166.502 199.589 302.831  1.00  0.00     0.159 C 
ATOM     10  O   UNL     1     166.877 198.402 303.026  1.00  0.00    -0.295 OA
ATOM     11  C   UNL     1     165.941 200.365 303.988  1.00  0.00     0.084 C 
ENDROOT
TORSDOF 0
ENDMDL
MODEL 4
REMARK VINA RESULT:    -3.915      2.623      4.097
REMARK INTER + INTRA:          -3.915
REMARK INTER:                  -3.915
REMARK INTRA:                   0.000
REMARK UNBOUND:                 0.000
REMARK SMILES CC(C)=C1CC[C@H](C)CC1=O
REMARK SMILES IDX 8 1 7 2 6 3 5 4 4 5 2 6 1 7 3 8 10 9 11 10 9 11
REMARK H PARENT
REMARK Flexibility Score: inf
ROOT
ATOM      1  C   UNL     1     168.519 199.235 299.130  1.00  0.00     0.008 C 
ATOM      2  C   UNL     1     167.391 199.625 300.092  1.00  0.00    -0.006 C 
ATOM      3  C   UNL     1     167.621 199.001 301.478  1.00  0.00     0.008 C 
ATOM      4  C   UNL     1     166.451 199.296 302.425  1.00  0.00     0.039 C 
ATOM      5  C   UNL     1     166.122 200.781 302.500  1.00  0.00    -0.006 C 
ATOM      6  C   UNL     1     165.631 201.341 303.645  1.00  0.00    -0.070 C 
ATOM      7  C   UNL     1     165.354 202.823 303.750  1.00  0.00     0.039 C 
ATOM      8  C   UNL     1     165.379 200.507 304.880  1.00  0.00     0.039 C 
ATOM      9  C   UNL     1     166.255 201.548 301.226  1.00  0.00     0.159 C 
ATOM     10  O   UNL     1     165.506 202.528 300.970  1.00  0.00    -0.295 OA
ATOM     11  C   UNL     1     167.293 201.153 300.215  1.00  0.00     0.084 C 
ENDROOT
TORSDOF 0
ENDMDL
MODEL 5
REMARK VINA RESULT:    -3.821      2.696      5.391
REMARK INTER + INTRA:          -3.821
REMARK INTER:                  -3.821
REMARK INTRA:                   0.000
REMARK UNBOUND:                 0.000
REMARK SMILES CC(C)=C1CC[C@H](C)CC1=O
REMARK SMILES IDX 8 1 7 2 6 3 5 4 4 5 2 6 1 7 3 8 10 9 11 10 9 11
REMARK H PARENT
REMARK Flexibility Score: inf
ROOT
ATOM      1  C   UNL     1     164.419 201.345 304.493  1.00  0.00     0.008 C 
ATOM      2  C   UNL     1     165.634 201.078 303.598  1.00  0.00    -0.006 C 
ATOM      3  C   UNL     1     165.571 199.659 303.009  1.00  0.00     0.008 C 
ATOM      4  C   UNL     1     166.829 199.338 302.192  1.00  0.00     0.039 C 
ATOM      5  C   UNL     1     167.125 200.395 301.137  1.00  0.00    -0.006 C 
ATOM      6  C   UNL     1     167.722 200.067 299.953  1.00  0.00    -0.070 C 
ATOM      7  C   UNL     1     167.970 201.098 298.875  1.00  0.00     0.039 C 
ATOM      8  C   UNL     1     168.129 198.645 299.648  1.00  0.00     0.039 C 
ATOM      9  C   UNL     1     166.835 201.807 301.524  1.00  0.00     0.159 C 
ATOM     10  O   UNL     1     167.526 202.764 301.081  1.00  0.00    -0.295 OA
ATOM     11  C   UNL     1     165.704 202.112 302.464  1.00  0.00     0.084 C 
ENDROOT
TORSDOF 0
ENDMDL
MODEL 6
REMARK VINA RESULT:    -3.747     17.129     19.844
REMARK INTER + INTRA:          -3.747
REMARK INTER:                  -3.747
REMARK INTRA:                   0.000
REMARK UNBOUND:                 0.000
REMARK SMILES CC(C)=C1CC[C@H](C)CC1=O
REMARK SMILES IDX 8 1 7 2 6 3 5 4 4 5 2 6 1 7 3 8 10 9 11 10 9 11
REMARK H PARENT
REMARK Flexibility Score: inf
ROOT
ATOM      1  C   UNL     1     167.188 182.881 319.125  1.00  0.00     0.008 C 
ATOM      2  C   UNL     1     167.270 183.721 317.845  1.00  0.00    -0.006 C 
ATOM      3  C   UNL     1     167.991 185.052 318.115  1.00  0.00     0.008 C 
ATOM      4  C   UNL     1     167.993 185.949 316.870  1.00  0.00     0.039 C 
ATOM      5  C   UNL     1     168.529 185.234 315.638  1.00  0.00    -0.006 C 
ATOM      6  C   UNL     1     169.203 185.912 314.662  1.00  0.00    -0.070 C 
ATOM      7  C   UNL     1     169.789 185.205 313.462  1.00  0.00     0.039 C 
ATOM      8  C   UNL     1     169.430 187.403 314.758  1.00  0.00     0.039 C 
ATOM      9  C   UNL     1     168.173 183.790 315.509  1.00  0.00     0.159 C 
ATOM     10  O   UNL     1     168.003 183.255 314.381  1.00  0.00    -0.295 OA
ATOM     11  C   UNL     1     168.001 182.945 316.739  1.00  0.00     0.084 C 
ENDROOT
TORSDOF 0
ENDMDL
MODEL 7
REMARK VINA RESULT:    -3.711      1.683      4.671
REMARK INTER + INTRA:          -3.711
REMARK INTER:                  -3.711
REMARK INTRA:                   0.000
REMARK UNBOUND:                 0.000
REMARK SMILES CC(C)=C1CC[C@H](C)CC1=O
REMARK SMILES IDX 8 1 7 2 6 3 5 4 4 5 2 6 1 7 3 8 10 9 11 10 9 11
REMARK H PARENT
REMARK Flexibility Score: inf
ROOT
ATOM      1  C   UNL     1     165.061 199.684 307.477  1.00  0.00     0.008 C 
ATOM      2  C   UNL     1     165.724 200.098 306.159  1.00  0.00    -0.006 C 
ATOM      3  C   UNL     1     166.063 198.862 305.311  1.00  0.00     0.008 C 
ATOM      4  C   UNL     1     166.819 199.251 304.033  1.00  0.00     0.039 C 
ATOM      5  C   UNL     1     166.097 200.327 303.234  1.00  0.00    -0.006 C 
ATOM      6  C   UNL     1     166.183 200.376 301.871  1.00  0.00    -0.070 C 
ATOM      7  C   UNL     1     165.426 201.405 301.063  1.00  0.00     0.039 C 
ATOM      8  C   UNL     1     167.011 199.373 301.102  1.00  0.00     0.039 C 
ATOM      9  C   UNL     1     165.399 201.379 304.030  1.00  0.00     0.159 C 
ATOM     10  O   UNL     1     165.300 202.563 303.609  1.00  0.00    -0.295 OA
ATOM     11  C   UNL     1     164.803 201.040 305.367  1.00  0.00     0.084 C 
ENDROOT
TORSDOF 0
ENDMDL
MODEL 8
REMARK VINA RESULT:    -3.709      1.539      2.429
REMARK INTER + INTRA:          -3.709
REMARK INTER:                  -3.709
REMARK INTRA:                   0.000
REMARK UNBOUND:                 0.000
REMARK SMILES CC(C)=C1CC[C@H](C)CC1=O
REMARK SMILES IDX 8 1 7 2 6 3 5 4 4 5 2 6 1 7 3 8 10 9 11 10 9 11
REMARK H PARENT
REMARK Flexibility Score: inf
ROOT
ATOM      1  C   UNL     1     166.096 201.830 301.074  1.00  0.00     0.008 C 
ATOM      2  C   UNL     1     165.556 201.088 302.301  1.00  0.00    -0.006 C 
ATOM      3  C   UNL     1     166.562 200.030 302.782  1.00  0.00     0.008 C 
ATOM      4  C   UNL     1     165.995 199.208 303.947  1.00  0.00     0.039 C 
ATOM      5  C   UNL     1     165.481 200.083 305.082  1.00  0.00    -0.006 C 
ATOM      6  C   UNL     1     165.539 199.665 306.381  1.00  0.00    -0.070 C 
ATOM      7  C   UNL     1     165.085 200.548 307.521  1.00  0.00     0.039 C 
ATOM      8  C   UNL     1     166.100 198.310 306.744  1.00  0.00     0.039 C 
ATOM      9  C   UNL     1     164.812 201.355 304.679  1.00  0.00     0.159 C 
ATOM     10  O   UNL     1     163.870 201.844 305.358  1.00  0.00    -0.295 OA
ATOM     11  C   UNL     1     165.254 202.077 303.438  1.00  0.00     0.084 C 
ENDROOT
TORSDOF 0
ENDMDL
MODEL 9
REMARK VINA RESULT:    -3.545      2.144      4.838
REMARK INTER + INTRA:          -3.545
REMARK INTER:                  -3.545
REMARK INTRA:                   0.000
REMARK UNBOUND:                 0.000
REMARK SMILES CC(C)=C1CC[C@H](C)CC1=O
REMARK SMILES IDX 8 1 7 2 6 3 5 4 4 5 2 6 1 7 3 8 10 9 11 10 9 11
REMARK H PARENT
REMARK Flexibility Score: inf
ROOT
ATOM      1  C   UNL     1     166.659 199.003 305.215  1.00  0.00     0.008 C 
ATOM      2  C   UNL     1     166.210 200.119 304.265  1.00  0.00    -0.006 C 
ATOM      3  C   UNL     1     165.831 199.541 302.891  1.00  0.00     0.008 C 
ATOM      4  C   UNL     1     165.476 200.654 301.896  1.00  0.00     0.039 C 
ATOM      5  C   UNL     1     164.421 201.608 302.440  1.00  0.00    -0.006 C 
ATOM      6  C   UNL     1     163.524 202.220 301.611  1.00  0.00    -0.070 C 
ATOM      7  C   UNL     1     162.437 203.124 302.144  1.00  0.00     0.039 C 
ATOM      8  C   UNL     1     163.553 201.989 300.118  1.00  0.00     0.039 C 
ATOM      9  C   UNL     1     164.505 201.918 303.897  1.00  0.00     0.159 C 
ATOM     10  O   UNL     1     164.160 203.043 304.349  1.00  0.00    -0.295 OA
ATOM     11  C   UNL     1     165.016 200.883 304.859  1.00  0.00     0.084 C 
ENDROOT
TORSDOF 0
ENDMDL
