MODEL 1
REMARK VINA RESULT:    -4.020      0.000      0.000
REMARK INTER + INTRA:          -5.887
REMARK INTER:                  -5.195
REMARK INTRA:                  -0.693
REMARK UNBOUND:                -0.693
REMARK SMILES CCO[C@@H]1O[C@H](CO)[C@H](O)[C@H](O)[C@H]1O
REMARK SMILES IDX 4 1 13 2 11 3 9 4 6 5 5 6 3 7 2 8 1 9 14 10 12 12 7 14 8 15
REMARK SMILES IDX 10 17
REMARK H PARENT 14 11 12 13 8 16 10 18
REMARK Flexibility Score: inf
ROOT
ATOM      1  C   UNL     1      21.893  26.040  32.748  1.00  0.00     0.281 C 
ATOM      2  C   UNL     1      20.709  25.061  32.893  1.00  0.00     0.202 C 
ATOM      3  C   UNL     1      19.386  25.734  32.493  1.00  0.00     0.179 C 
ATOM      4  C   UNL     1      19.537  26.377  31.101  1.00  0.00     0.177 C 
ATOM      5  C   UNL     1      20.843  27.207  30.934  1.00  0.00     0.178 C 
ATOM      6  O   UNL     1      22.009  26.552  31.428  1.00  0.00    -0.341 OA
ENDROOT
BRANCH   1   7
ATOM      7  O   UNL     1      21.797  27.104  33.681  1.00  0.00    -0.350 OA
BRANCH   7   8
ATOM      8  C   UNL     1      22.982  27.235  34.438  1.00  0.00     0.160 C 
ATOM      9  C   UNL     1      22.619  27.597  35.869  1.00  0.00     0.035 C 
ENDBRANCH   7   8
ENDBRANCH   1   7
BRANCH   2  10
ATOM     10  O   UNL     1      20.944  23.938  32.080  1.00  0.00    -0.385 OA
ATOM     11  H   UNL     1      21.801  23.536  32.384  1.00  0.00     0.211 HD
ENDBRANCH   2  10
BRANCH   3  12
ATOM     12  O   UNL     1      19.011  26.686  33.455  1.00  0.00    -0.387 OA
ATOM     13  H   UNL     1      18.101  26.438  33.768  1.00  0.00     0.211 HD
ENDBRANCH   3  12
BRANCH   5  14
ATOM     14  C   UNL     1      20.785  28.701  31.331  1.00  0.00     0.191 C 
BRANCH  14  15
ATOM     15  O   UNL     1      19.849  28.952  32.339  1.00  0.00    -0.394 OA
ATOM     16  H   UNL     1      19.451  28.074  32.573  1.00  0.00     0.210 HD
ENDBRANCH  14  15
ENDBRANCH   5  14
BRANCH   4  17
ATOM     17  O   UNL     1      18.391  27.098  30.718  1.00  0.00    -0.387 OA
ATOM     18  H   UNL     1      17.946  26.607  29.980  1.00  0.00     0.211 HD
ENDBRANCH   4  17
TORSDOF 7
ENDMDL
MODEL 2
REMARK VINA RESULT:    -3.910      1.394      4.256
REMARK INTER + INTRA:          -5.745
REMARK INTER:                  -4.957
REMARK INTRA:                  -0.789
REMARK UNBOUND:                -0.693
REMARK SMILES CCO[C@@H]1O[C@H](CO)[C@H](O)[C@H](O)[C@H]1O
REMARK SMILES IDX 4 1 13 2 11 3 9 4 6 5 5 6 3 7 2 8 1 9 14 10 12 12 7 14 8 15
REMARK SMILES IDX 10 17
REMARK H PARENT 14 11 12 13 8 16 10 18
REMARK Flexibility Score: inf
ROOT
ATOM      1  C   UNL     1      20.377  27.639  31.160  1.00  0.00     0.281 C 
ATOM      2  C   UNL     1      20.462  28.756  32.221  1.00  0.00     0.202 C 
ATOM      3  C   UNL     1      20.611  28.165  33.632  1.00  0.00     0.179 C 
ATOM      4  C   UNL     1      21.778  27.159  33.647  1.00  0.00     0.177 C 
ATOM      5  C   UNL     1      21.761  26.164  32.450  1.00  0.00     0.178 C 
ATOM      6  O   UNL     1      21.510  26.782  31.191  1.00  0.00    -0.341 OA
ENDROOT
BRANCH   1   7
ATOM      7  O   UNL     1      19.185  26.884  31.302  1.00  0.00    -0.350 OA
BRANCH   7   8
ATOM      8  C   UNL     1      18.694  26.455  30.050  1.00  0.00     0.160 C 
ATOM      9  C   UNL     1      18.142  25.046  30.190  1.00  0.00     0.035 C 
ENDBRANCH   7   8
ENDBRANCH   1   7
BRANCH   2  10
ATOM     10  O   UNL     1      21.560  29.584  31.926  1.00  0.00    -0.385 OA
ATOM     11  H   UNL     1      21.521  30.351  32.557  1.00  0.00     0.211 HD
ENDBRANCH   2  10
BRANCH   3  12
ATOM     12  O   UNL     1      19.412  27.558  34.038  1.00  0.00    -0.387 OA
ATOM     13  H   UNL     1      18.699  28.246  33.964  1.00  0.00     0.211 HD
ENDBRANCH   3  12
BRANCH   5  14
ATOM     14  C   UNL     1      20.967  24.849  32.638  1.00  0.00     0.191 C 
BRANCH  14  15
ATOM     15  O   UNL     1      19.852  25.009  33.465  1.00  0.00    -0.394 OA
ATOM     16  H   UNL     1      19.232  25.615  32.982  1.00  0.00     0.210 HD
ENDBRANCH  14  15
ENDBRANCH   5  14
BRANCH   4  17
ATOM     17  O   UNL     1      21.905  26.505  34.886  1.00  0.00    -0.387 OA
ATOM     18  H   UNL     1      20.996  26.313  35.232  1.00  0.00     0.211 HD
ENDBRANCH   4  17
TORSDOF 7
ENDMDL
MODEL 3
REMARK VINA RESULT:    -3.884     14.757     16.795
REMARK INTER + INTRA:          -5.712
REMARK INTER:                  -5.167
REMARK INTRA:                  -0.545
REMARK UNBOUND:                -0.693
REMARK SMILES CCO[C@@H]1O[C@H](CO)[C@H](O)[C@H](O)[C@H]1O
REMARK SMILES IDX 4 1 13 2 11 3 9 4 6 5 5 6 3 7 2 8 1 9 14 10 12 12 7 14 8 15
REMARK SMILES IDX 10 17
REMARK H PARENT 14 11 12 13 8 16 10 18
REMARK Flexibility Score: inf
ROOT
ATOM      1  C   UNL     1      23.264  24.344  49.018  1.00  0.00     0.281 C 
ATOM      2  C   UNL     1      22.427  23.153  48.507  1.00  0.00     0.202 C 
ATOM      3  C   UNL     1      23.325  22.087  47.858  1.00  0.00     0.179 C 
ATOM      4  C   UNL     1      24.464  21.718  48.827  1.00  0.00     0.177 C 
ATOM      5  C   UNL     1      25.164  22.951  49.469  1.00  0.00     0.178 C 
ATOM      6  O   UNL     1      24.259  23.941  49.949  1.00  0.00    -0.341 OA
ENDROOT
BRANCH   1   7
ATOM      7  O   UNL     1      23.857  25.056  47.943  1.00  0.00    -0.350 OA
BRANCH   7   8
ATOM      8  C   UNL     1      22.878  25.605  47.086  1.00  0.00     0.160 C 
ATOM      9  C   UNL     1      23.401  26.910  46.509  1.00  0.00     0.035 C 
ENDBRANCH   7   8
ENDBRANCH   1   7
BRANCH   2  10
ATOM     10  O   UNL     1      21.719  22.596  49.586  1.00  0.00    -0.385 OA
ATOM     11  H   UNL     1      22.324  22.624  50.373  1.00  0.00     0.211 HD
ENDBRANCH   2  10
BRANCH   3  12
ATOM     12  O   UNL     1      23.830  22.551  46.633  1.00  0.00    -0.387 OA
ATOM     13  H   UNL     1      24.281  23.417  46.815  1.00  0.00     0.211 HD
ENDBRANCH   3  12
BRANCH   5  14
ATOM     14  C   UNL     1      26.363  23.559  48.703  1.00  0.00     0.191 C 
BRANCH  14  15
ATOM     15  O   UNL     1      26.400  23.162  47.363  1.00  0.00    -0.394 OA
ATOM     16  H   UNL     1      27.281  22.725  47.228  1.00  0.00     0.210 HD
ENDBRANCH  14  15
ENDBRANCH   5  14
BRANCH   4  17
ATOM     17  O   UNL     1      25.383  20.818  48.255  1.00  0.00    -0.387 OA
ATOM     18  H   UNL     1      24.885  20.202  47.657  1.00  0.00     0.211 HD
ENDBRANCH   4  17
TORSDOF 7
ENDMDL
MODEL 4
REMARK VINA RESULT:    -3.858      1.998      3.591
REMARK INTER + INTRA:          -5.678
REMARK INTER:                  -5.286
REMARK INTRA:                  -0.392
REMARK UNBOUND:                -0.693
REMARK SMILES CCO[C@@H]1O[C@H](CO)[C@H](O)[C@H](O)[C@H]1O
REMARK SMILES IDX 4 1 13 2 11 3 9 4 6 5 5 6 3 7 2 8 1 9 14 10 12 12 7 14 8 15
REMARK SMILES IDX 10 17
REMARK H PARENT 14 11 12 13 8 16 10 18
REMARK Flexibility Score: inf
ROOT
ATOM      1  C   UNL     1      19.954  27.144  33.049  1.00  0.00     0.281 C 
ATOM      2  C   UNL     1      20.008  27.717  31.617  1.00  0.00     0.202 C 
ATOM      3  C   UNL     1      21.402  28.281  31.302  1.00  0.00     0.179 C 
ATOM      4  C   UNL     1      22.470  27.218  31.622  1.00  0.00     0.177 C 
ATOM      5  C   UNL     1      22.272  26.526  33.002  1.00  0.00     0.178 C 
ATOM      6  O   UNL     1      20.928  26.129  33.259  1.00  0.00    -0.341 OA
ENDROOT
BRANCH   1   7
ATOM      7  O   UNL     1      20.096  28.169  34.020  1.00  0.00    -0.350 OA
BRANCH   7   8
ATOM      8  C   UNL     1      18.846  28.727  34.366  1.00  0.00     0.160 C 
ATOM      9  C   UNL     1      18.857  29.088  35.843  1.00  0.00     0.035 C 
ENDBRANCH   7   8
ENDBRANCH   1   7
BRANCH   2  10
ATOM     10  O   UNL     1      19.682  26.698  30.705  1.00  0.00    -0.385 OA
ATOM     11  H   UNL     1      19.376  25.918  31.240  1.00  0.00     0.211 HD
ENDBRANCH   2  10
BRANCH   3  12
ATOM     12  O   UNL     1      21.628  29.462  32.027  1.00  0.00    -0.387 OA
ATOM     13  H   UNL     1      21.532  30.217  31.389  1.00  0.00     0.211 HD
ENDBRANCH   3  12
BRANCH   5  14
ATOM     14  C   UNL     1      22.942  27.192  34.227  1.00  0.00     0.191 C 
BRANCH  14  15
ATOM     15  O   UNL     1      22.349  26.811  35.435  1.00  0.00    -0.394 OA
ATOM     16  H   UNL     1      21.763  26.037  35.225  1.00  0.00     0.210 HD
ENDBRANCH  14  15
ENDBRANCH   5  14
BRANCH   4  17
ATOM     17  O   UNL     1      23.779  27.706  31.450  1.00  0.00    -0.387 OA
ATOM     18  H   UNL     1      24.168  27.278  30.644  1.00  0.00     0.211 HD
ENDBRANCH   4  17
TORSDOF 7
ENDMDL
MODEL 5
REMARK VINA RESULT:    -3.817      1.901      3.640
REMARK INTER + INTRA:          -5.625
REMARK INTER:                  -4.962
REMARK INTRA:                  -0.664
REMARK UNBOUND:                -0.693
REMARK SMILES CCO[C@@H]1O[C@H](CO)[C@H](O)[C@H](O)[C@H]1O
REMARK SMILES IDX 4 1 13 2 11 3 9 4 6 5 5 6 3 7 2 8 1 9 14 10 12 12 7 14 8 15
REMARK SMILES IDX 10 17
REMARK H PARENT 14 11 12 13 8 16 10 18
REMARK Flexibility Score: inf
ROOT
ATOM      1  C   UNL     1      19.792  27.013  31.735  1.00  0.00     0.281 C 
ATOM      2  C   UNL     1      21.083  26.450  32.366  1.00  0.00     0.202 C 
ATOM      3  C   UNL     1      21.037  24.915  32.437  1.00  0.00     0.179 C 
ATOM      4  C   UNL     1      20.685  24.347  31.049  1.00  0.00     0.177 C 
ATOM      5  C   UNL     1      19.490  25.069  30.362  1.00  0.00     0.178 C 
ATOM      6  O   UNL     1      19.558  26.490  30.434  1.00  0.00    -0.341 OA
ENDROOT
BRANCH   1   7
ATOM      7  O   UNL     1      18.668  26.779  32.568  1.00  0.00    -0.350 OA
BRANCH   7   8
ATOM      8  C   UNL     1      17.978  27.978  32.851  1.00  0.00     0.160 C 
ATOM      9  C   UNL     1      18.651  28.672  34.025  1.00  0.00     0.035 C 
ENDBRANCH   7   8
ENDBRANCH   1   7
BRANCH   2  10
ATOM     10  O   UNL     1      22.185  26.864  31.598  1.00  0.00    -0.385 OA
ATOM     11  H   UNL     1      22.422  27.779  31.903  1.00  0.00     0.211 HD
ENDBRANCH   2  10
BRANCH   3  12
ATOM     12  O   UNL     1      20.110  24.497  33.407  1.00  0.00    -0.387 OA
ATOM     13  H   UNL     1      20.494  23.694  33.847  1.00  0.00     0.211 HD
ENDBRANCH   3  12
BRANCH   5  14
ATOM     14  C   UNL     1      18.073  24.523  30.656  1.00  0.00     0.191 C 
BRANCH  14  15
ATOM     15  O   UNL     1      18.038  23.701  31.787  1.00  0.00    -0.394 OA
ATOM     16  H   UNL     1      18.184  24.297  32.567  1.00  0.00     0.210 HD
ENDBRANCH  14  15
ENDBRANCH   5  14
BRANCH   4  17
ATOM     17  O   UNL     1      20.528  22.948  31.068  1.00  0.00    -0.387 OA
ATOM     18  H   UNL     1      19.844  22.721  31.749  1.00  0.00     0.211 HD
ENDBRANCH   4  17
TORSDOF 7
ENDMDL
MODEL 6
REMARK VINA RESULT:    -3.767     14.993     17.283
REMARK INTER + INTRA:          -5.560
REMARK INTER:                  -4.858
REMARK INTRA:                  -0.702
REMARK UNBOUND:                -0.693
REMARK SMILES CCO[C@@H]1O[C@H](CO)[C@H](O)[C@H](O)[C@H]1O
REMARK SMILES IDX 4 1 13 2 11 3 9 4 6 5 5 6 3 7 2 8 1 9 14 10 12 12 7 14 8 15
REMARK SMILES IDX 10 17
REMARK H PARENT 14 11 12 13 8 16 10 18
REMARK Flexibility Score: inf
ROOT
ATOM      1  C   UNL     1      23.180  22.385  48.774  1.00  0.00     0.281 C 
ATOM      2  C   UNL     1      24.379  21.417  48.695  1.00  0.00     0.202 C 
ATOM      3  C   UNL     1      25.708  22.189  48.656  1.00  0.00     0.179 C 
ATOM      4  C   UNL     1      25.753  23.192  49.824  1.00  0.00     0.177 C 
ATOM      5  C   UNL     1      24.446  24.022  49.988  1.00  0.00     0.178 C 
ATOM      6  O   UNL     1      23.256  23.243  49.905  1.00  0.00    -0.341 OA
ENDROOT
BRANCH   1   7
ATOM      7  O   UNL     1      23.055  23.149  47.585  1.00  0.00    -0.350 OA
BRANCH   7   8
ATOM      8  C   UNL     1      21.740  23.635  47.420  1.00  0.00     0.160 C 
ATOM      9  C   UNL     1      21.769  24.836  46.490  1.00  0.00     0.035 C 
ENDBRANCH   7   8
ENDBRANCH   1   7
BRANCH   2  10
ATOM     10  O   UNL     1      24.350  20.562  49.810  1.00  0.00    -0.385 OA
ATOM     11  H   UNL     1      23.407  20.524  50.120  1.00  0.00     0.211 HD
ENDBRANCH   2  10
BRANCH   3  12
ATOM     12  O   UNL     1      25.861  22.841  47.421  1.00  0.00    -0.387 OA
ATOM     13  H   UNL     1      25.423  23.728  47.506  1.00  0.00     0.211 HD
ENDBRANCH   3  12
BRANCH   5  14
ATOM     14  C   UNL     1      24.348  25.347  49.196  1.00  0.00     0.191 C 
BRANCH  14  15
ATOM     15  O   UNL     1      24.932  25.259  47.928  1.00  0.00    -0.394 OA
ATOM     16  H   UNL     1      24.590  26.033  47.410  1.00  0.00     0.210 HD
ENDBRANCH  14  15
ENDBRANCH   5  14
BRANCH   4  17
ATOM     17  O   UNL     1      26.902  24.004  49.789  1.00  0.00    -0.387 OA
ATOM     18  H   UNL     1      26.656  24.907  50.116  1.00  0.00     0.211 HD
ENDBRANCH   4  17
TORSDOF 7
ENDMDL
MODEL 7
REMARK VINA RESULT:    -3.721      1.922      2.877
REMARK INTER + INTRA:          -5.501
REMARK INTER:                  -4.763
REMARK INTRA:                  -0.738
REMARK UNBOUND:                -0.693
REMARK SMILES CCO[C@@H]1O[C@H](CO)[C@H](O)[C@H](O)[C@H]1O
REMARK SMILES IDX 4 1 13 2 11 3 9 4 6 5 5 6 3 7 2 8 1 9 14 10 12 12 7 14 8 15
REMARK SMILES IDX 10 17
REMARK H PARENT 14 11 12 13 8 16 10 18
REMARK Flexibility Score: inf
ROOT
ATOM      1  C   UNL     1      20.806  28.051  33.514  1.00  0.00     0.281 C 
ATOM      2  C   UNL     1      21.833  26.916  33.710  1.00  0.00     0.202 C 
ATOM      3  C   UNL     1      21.495  25.709  32.820  1.00  0.00     0.179 C 
ATOM      4  C   UNL     1      21.311  26.180  31.365  1.00  0.00     0.177 C 
ATOM      5  C   UNL     1      20.416  27.446  31.226  1.00  0.00     0.178 C 
ATOM      6  O   UNL     1      20.726  28.476  32.160  1.00  0.00    -0.341 OA
ENDROOT
BRANCH   1   7
ATOM      7  O   UNL     1      19.523  27.671  33.986  1.00  0.00    -0.350 OA
BRANCH   7   8
ATOM      8  C   UNL     1      18.778  28.793  34.413  1.00  0.00     0.160 C 
ATOM      9  C   UNL     1      19.047  29.032  35.890  1.00  0.00     0.035 C 
ENDBRANCH   7   8
ENDBRANCH   1   7
BRANCH   2  10
ATOM     10  O   UNL     1      23.115  27.401  33.400  1.00  0.00    -0.385 OA
ATOM     11  H   UNL     1      23.186  27.415  32.409  1.00  0.00     0.211 HD
ENDBRANCH   2  10
BRANCH   3  12
ATOM     12  O   UNL     1      20.345  25.057  33.292  1.00  0.00    -0.387 OA
ATOM     13  H   UNL     1      19.621  25.737  33.329  1.00  0.00     0.211 HD
ENDBRANCH   3  12
BRANCH   5  14
ATOM     14  C   UNL     1      18.894  27.220  31.071  1.00  0.00     0.191 C 
BRANCH  14  15
ATOM     15  O   UNL     1      18.480  25.987  31.585  1.00  0.00    -0.394 OA
ATOM     16  H   UNL     1      18.009  26.185  32.436  1.00  0.00     0.210 HD
ENDBRANCH  14  15
ENDBRANCH   5  14
BRANCH   4  17
ATOM     17  O   UNL     1      20.901  25.138  30.512  1.00  0.00    -0.387 OA
ATOM     18  H   UNL     1      20.450  25.538  29.725  1.00  0.00     0.211 HD
ENDBRANCH   4  17
TORSDOF 7
ENDMDL
MODEL 8
REMARK VINA RESULT:    -3.691      1.359      2.458
REMARK INTER + INTRA:          -5.463
REMARK INTER:                  -4.718
REMARK INTRA:                  -0.745
REMARK UNBOUND:                -0.693
REMARK SMILES CCO[C@@H]1O[C@H](CO)[C@H](O)[C@H](O)[C@H]1O
REMARK SMILES IDX 4 1 13 2 11 3 9 4 6 5 5 6 3 7 2 8 1 9 14 10 12 12 7 14 8 15
REMARK SMILES IDX 10 17
REMARK H PARENT 14 11 12 13 8 16 10 18
REMARK Flexibility Score: inf
ROOT
ATOM      1  C   UNL     1      22.221  27.950  32.488  1.00  0.00     0.281 C 
ATOM      2  C   UNL     1      22.371  27.248  31.122  1.00  0.00     0.202 C 
ATOM      3  C   UNL     1      21.089  26.484  30.753  1.00  0.00     0.179 C 
ATOM      4  C   UNL     1      19.876  27.427  30.874  1.00  0.00     0.177 C 
ATOM      5  C   UNL     1      19.861  28.260  32.189  1.00  0.00     0.178 C 
ATOM      6  O   UNL     1      21.119  28.847  32.513  1.00  0.00    -0.341 OA
ENDROOT
BRANCH   1   7
ATOM      7  O   UNL     1      22.112  27.008  33.542  1.00  0.00    -0.350 OA
BRANCH   7   8
ATOM      8  C   UNL     1      23.112  27.209  34.519  1.00  0.00     0.160 C 
ATOM      9  C   UNL     1      22.452  27.609  35.829  1.00  0.00     0.035 C 
ENDBRANCH   7   8
ENDBRANCH   1   7
BRANCH   2  10
ATOM     10  O   UNL     1      22.657  28.213  30.141  1.00  0.00    -0.385 OA
ATOM     11  H   UNL     1      23.643  28.332  30.132  1.00  0.00     0.211 HD
ENDBRANCH   2  10
BRANCH   3  12
ATOM     12  O   UNL     1      20.937  25.354  31.573  1.00  0.00    -0.387 OA
ATOM     13  H   UNL     1      19.963  25.236  31.726  1.00  0.00     0.211 HD
ENDBRANCH   3  12
BRANCH   5  14
ATOM     14  C   UNL     1      19.163  27.629  33.417  1.00  0.00     0.191 C 
BRANCH  14  15
ATOM     15  O   UNL     1      19.179  26.231  33.382  1.00  0.00    -0.394 OA
ATOM     16  H   UNL     1      18.324  25.954  32.961  1.00  0.00     0.210 HD
ENDBRANCH  14  15
ENDBRANCH   5  14
BRANCH   4  17
ATOM     17  O   UNL     1      18.657  26.763  30.647  1.00  0.00    -0.387 OA
ATOM     18  H   UNL     1      18.820  25.786  30.693  1.00  0.00     0.211 HD
ENDBRANCH   4  17
TORSDOF 7
ENDMDL
MODEL 9
REMARK VINA RESULT:    -3.593      1.440      3.469
REMARK INTER + INTRA:          -5.335
REMARK INTER:                  -4.592
REMARK INTRA:                  -0.743
REMARK UNBOUND:                -0.693
REMARK SMILES CCO[C@@H]1O[C@H](CO)[C@H](O)[C@H](O)[C@H]1O
REMARK SMILES IDX 4 1 13 2 11 3 9 4 6 5 5 6 3 7 2 8 1 9 14 10 12 12 7 14 8 15
REMARK SMILES IDX 10 17
REMARK H PARENT 14 11 12 13 8 16 10 18
REMARK Flexibility Score: inf
ROOT
ATOM      1  C   UNL     1      21.613  28.201  31.547  1.00  0.00     0.281 C 
ATOM      2  C   UNL     1      21.981  28.023  33.035  1.00  0.00     0.202 C 
ATOM      3  C   UNL     1      21.122  26.928  33.687  1.00  0.00     0.179 C 
ATOM      4  C   UNL     1      21.194  25.645  32.838  1.00  0.00     0.177 C 
ATOM      5  C   UNL     1      21.004  25.892  31.313  1.00  0.00     0.178 C 
ATOM      6  O   UNL     1      21.755  26.994  30.810  1.00  0.00    -0.341 OA
ENDROOT
BRANCH   1   7
ATOM      7  O   UNL     1      20.299  28.714  31.399  1.00  0.00    -0.350 OA
BRANCH   7   8
ATOM      8  C   UNL     1      20.242  29.708  30.398  1.00  0.00     0.160 C 
ATOM      9  C   UNL     1      21.292  30.767  30.692  1.00  0.00     0.035 C 
ENDBRANCH   7   8
ENDBRANCH   1   7
BRANCH   2  10
ATOM     10  O   UNL     1      23.343  27.690  33.131  1.00  0.00    -0.385 OA
ATOM     11  H   UNL     1      23.703  27.676  32.206  1.00  0.00     0.211 HD
ENDBRANCH   2  10
BRANCH   3  12
ATOM     12  O   UNL     1      19.796  27.367  33.833  1.00  0.00    -0.387 OA
ATOM     13  H   UNL     1      19.816  28.149  34.444  1.00  0.00     0.211 HD
ENDBRANCH   3  12
BRANCH   5  14
ATOM     14  C   UNL     1      19.556  25.860  30.768  1.00  0.00     0.191 C 
BRANCH  14  15
ATOM     15  O   UNL     1      18.606  26.138  31.756  1.00  0.00    -0.394 OA
ATOM     16  H   UNL     1      18.232  27.031  31.537  1.00  0.00     0.210 HD
ENDBRANCH  14  15
ENDBRANCH   5  14
BRANCH   4  17
ATOM     17  O   UNL     1      20.349  24.631  33.326  1.00  0.00    -0.387 OA
ATOM     18  H   UNL     1      20.115  24.030  32.573  1.00  0.00     0.211 HD
ENDBRANCH   4  17
TORSDOF 7
ENDMDL
