MODEL 1
REMARK VINA RESULT:     2.140      0.000      0.000
REMARK INTER + INTRA:           3.139
REMARK INTER:                   4.892
REMARK INTRA:                  -1.753
REMARK UNBOUND:                -1.753
REMARK SMILES CCCCCCCCCCCCCCCCCCCCCCCC(=O)[O-]
REMARK SMILES IDX 13 1 14 2 15 3 16 4 17 5 18 6 19 7 20 8 21 9 22 10 23 11
REMARK SMILES IDX 24 12 25 13 26 14 12 15 11 16 10 17 9 18 8 19 7 20 6 21 5 22
REMARK SMILES IDX 4 23 3 24 2 25 1 26
REMARK H PARENT
REMARK Flexibility Score: inf
ROOT
ATOM      1  C   UNL     1     -11.032 -12.742  19.489  1.00  0.00     0.000 C 
ENDROOT
BRANCH   1   2
ATOM      2  C   UNL     1     -12.048 -13.771  20.030  1.00  0.00     0.000 C 
BRANCH   2   3
ATOM      3  C   UNL     1     -13.265 -13.134  20.726  1.00  0.00     0.000 C 
BRANCH   3   4
ATOM      4  C   UNL     1     -14.593 -13.260  19.956  1.00  0.00     0.000 C 
BRANCH   4   5
ATOM      5  C   UNL     1     -14.585 -14.275  18.795  1.00  0.00     0.000 C 
BRANCH   5   6
ATOM      6  C   UNL     1     -15.067 -15.692  19.155  1.00  0.00     0.000 C 
BRANCH   6   7
ATOM      7  C   UNL     1     -13.910 -16.668  19.430  1.00  0.00     0.000 C 
BRANCH   7   8
ATOM      8  C   UNL     1     -14.181 -17.576  20.641  1.00  0.00     0.000 C 
BRANCH   8   9
ATOM      9  C   UNL     1     -15.054 -16.895  21.712  1.00  0.00     0.000 C 
BRANCH   9  10
ATOM     10  C   UNL     1     -14.916 -17.544  23.101  1.00  0.00     0.006 C 
BRANCH  10  11
ATOM     11  C   UNL     1     -14.553 -16.550  24.219  1.00  0.00     0.053 C 
BRANCH  11  12
ATOM     12  C   UNL     1     -14.061 -15.239  23.684  1.00  0.00     0.041 C 
ATOM     13  O   UNL     1     -14.820 -14.235  23.669  1.00  0.00    -0.550 OA
ATOM     14  O   UNL     1     -12.753 -15.117  23.228  1.00  0.00    -0.550 OA
ENDBRANCH  11  12
ENDBRANCH  10  11
ENDBRANCH   9  10
ENDBRANCH   8   9
ENDBRANCH   7   8
ENDBRANCH   6   7
ENDBRANCH   5   6
ENDBRANCH   4   5
ENDBRANCH   3   4
ENDBRANCH   2   3
ENDBRANCH   1   2
BRANCH   1  15
ATOM     15  C   UNL     1     -10.955 -12.737  17.955  1.00  0.00     0.000 C 
BRANCH  15  16
ATOM     16  C   UNL     1     -12.195 -12.069  17.346  1.00  0.00     0.000 C 
BRANCH  16  17
ATOM     17  C   UNL     1     -11.991 -10.552  17.211  1.00  0.00     0.000 C 
BRANCH  17  18
ATOM     18  C   UNL     1     -10.507 -10.152  17.228  1.00  0.00    -0.000 C 
BRANCH  18  19
ATOM     19  C   UNL     1     -10.294  -8.695  17.674  1.00  0.00    -0.000 C 
BRANCH  19  20
ATOM     20  C   UNL     1      -8.852  -8.425  18.131  1.00  0.00    -0.000 C 
BRANCH  20  21
ATOM     21  C   UNL     1      -8.770  -7.331  19.211  1.00  0.00    -0.000 C 
BRANCH  21  22
ATOM     22  C   UNL     1      -9.086  -5.926  18.666  1.00  0.00    -0.000 C 
BRANCH  22  23
ATOM     23  C   UNL     1     -10.355  -5.275  19.244  1.00  0.00    -0.000 C 
BRANCH  23  24
ATOM     24  C   UNL     1     -10.585  -5.623  20.724  1.00  0.00    -0.000 C 
BRANCH  24  25
ATOM     25  C   UNL     1      -9.894  -4.634  21.675  1.00  0.00    -0.003 C 
ATOM     26  C   UNL     1      -9.281  -3.438  20.945  1.00  0.00     0.004 C 
ENDBRANCH  24  25
ENDBRANCH  23  24
ENDBRANCH  22  23
ENDBRANCH  21  22
ENDBRANCH  20  21
ENDBRANCH  19  20
ENDBRANCH  18  19
ENDBRANCH  17  18
ENDBRANCH  16  17
ENDBRANCH  15  16
ENDBRANCH   1  15
TORSDOF 22
ENDMDL
MODEL 2
REMARK VINA RESULT:     2.354      1.649      2.786
REMARK INTER + INTRA:           3.628
REMARK INTER:                   5.661
REMARK INTRA:                  -2.033
REMARK UNBOUND:                -1.753
REMARK SMILES CCCCCCCCCCCCCCCCCCCCCCCC(=O)[O-]
REMARK SMILES IDX 13 1 14 2 15 3 16 4 17 5 18 6 19 7 20 8 21 9 22 10 23 11
REMARK SMILES IDX 24 12 25 13 26 14 12 15 11 16 10 17 9 18 8 19 7 20 6 21 5 22
REMARK SMILES IDX 4 23 3 24 2 25 1 26
REMARK H PARENT
REMARK Flexibility Score: inf
ROOT
ATOM      1  C   UNL     1     -11.366 -12.927  19.780  1.00  0.00     0.000 C 
ENDROOT
BRANCH   1   2
ATOM      2  C   UNL     1     -12.218 -13.593  20.883  1.00  0.00     0.000 C 
BRANCH   2   3
ATOM      3  C   UNL     1     -13.679 -13.109  20.915  1.00  0.00     0.000 C 
BRANCH   3   4
ATOM      4  C   UNL     1     -14.435 -13.415  22.222  1.00  0.00     0.000 C 
BRANCH   4   5
ATOM      5  C   UNL     1     -13.551 -13.870  23.402  1.00  0.00     0.000 C 
BRANCH   5   6
ATOM      6  C   UNL     1     -14.278 -14.664  24.502  1.00  0.00     0.000 C 
BRANCH   6   7
ATOM      7  C   UNL     1     -15.067 -15.865  23.953  1.00  0.00     0.000 C 
BRANCH   7   8
ATOM      8  C   UNL     1     -14.150 -16.988  23.442  1.00  0.00     0.000 C 
BRANCH   8   9
ATOM      9  C   UNL     1     -14.912 -18.063  22.647  1.00  0.00     0.000 C 
BRANCH   9  10
ATOM     10  C   UNL     1     -14.711 -17.942  21.126  1.00  0.00     0.006 C 
BRANCH  10  11
ATOM     11  C   UNL     1     -13.823 -16.757  20.708  1.00  0.00     0.053 C 
BRANCH  11  12
ATOM     12  C   UNL     1     -13.911 -16.464  19.240  1.00  0.00     0.041 C 
ATOM     13  O   UNL     1     -13.151 -17.055  18.429  1.00  0.00    -0.550 OA
ATOM     14  O   UNL     1     -14.852 -15.558  18.764  1.00  0.00    -0.550 OA
ENDBRANCH  11  12
ENDBRANCH  10  11
ENDBRANCH   9  10
ENDBRANCH   8   9
ENDBRANCH   7   8
ENDBRANCH   6   7
ENDBRANCH   5   6
ENDBRANCH   4   5
ENDBRANCH   3   4
ENDBRANCH   2   3
ENDBRANCH   1   2
BRANCH   1  15
ATOM     15  C   UNL     1     -11.342 -13.742  18.478  1.00  0.00     0.000 C 
BRANCH  15  16
ATOM     16  C   UNL     1     -11.428 -12.823  17.254  1.00  0.00     0.000 C 
BRANCH  16  17
ATOM     17  C   UNL     1     -12.122 -11.498  17.607  1.00  0.00     0.000 C 
BRANCH  17  18
ATOM     18  C   UNL     1     -11.422 -10.280  16.983  1.00  0.00    -0.000 C 
BRANCH  18  19
ATOM     19  C   UNL     1     -10.174  -9.849  17.772  1.00  0.00    -0.000 C 
BRANCH  19  20
ATOM     20  C   UNL     1      -9.751  -8.405  17.459  1.00  0.00    -0.000 C 
BRANCH  20  21
ATOM     21  C   UNL     1      -9.634  -7.537  18.725  1.00  0.00    -0.000 C 
BRANCH  21  22
ATOM     22  C   UNL     1      -9.484  -6.037  18.411  1.00  0.00    -0.000 C 
BRANCH  22  23
ATOM     23  C   UNL     1     -10.365  -5.104  19.262  1.00  0.00    -0.000 C 
BRANCH  23  24
ATOM     24  C   UNL     1     -10.391  -5.498  20.749  1.00  0.00    -0.000 C 
BRANCH  24  25
ATOM     25  C   UNL     1      -9.988  -4.336  21.671  1.00  0.00    -0.003 C 
ATOM     26  C   UNL     1      -8.878  -3.466  21.081  1.00  0.00     0.004 C 
ENDBRANCH  24  25
ENDBRANCH  23  24
ENDBRANCH  22  23
ENDBRANCH  21  22
ENDBRANCH  20  21
ENDBRANCH  19  20
ENDBRANCH  18  19
ENDBRANCH  17  18
ENDBRANCH  16  17
ENDBRANCH  15  16
ENDBRANCH   1  15
TORSDOF 22
ENDMDL
MODEL 3
REMARK VINA RESULT:     2.422      3.161      9.099
REMARK INTER + INTRA:           3.782
REMARK INTER:                   5.008
REMARK INTRA:                  -1.225
REMARK UNBOUND:                -1.753
REMARK SMILES CCCCCCCCCCCCCCCCCCCCCCCC(=O)[O-]
REMARK SMILES IDX 13 1 14 2 15 3 16 4 17 5 18 6 19 7 20 8 21 9 22 10 23 11
REMARK SMILES IDX 24 12 25 13 26 14 12 15 11 16 10 17 9 18 8 19 7 20 6 21 5 22
REMARK SMILES IDX 4 23 3 24 2 25 1 26
REMARK H PARENT
REMARK Flexibility Score: inf
ROOT
ATOM      1  C   UNL     1     -13.719 -14.657  18.710  1.00  0.00     0.000 C 
ENDROOT
BRANCH   1   2
ATOM      2  C   UNL     1     -14.967 -13.759  18.857  1.00  0.00     0.000 C 
BRANCH   2   3
ATOM      3  C   UNL     1     -14.726 -12.292  18.455  1.00  0.00     0.000 C 
BRANCH   3   4
ATOM      4  C   UNL     1     -13.330 -11.745  18.804  1.00  0.00     0.000 C 
BRANCH   4   5
ATOM      5  C   UNL     1     -12.153 -12.447  18.096  1.00  0.00     0.000 C 
BRANCH   5   6
ATOM      6  C   UNL     1     -11.371 -11.574  17.098  1.00  0.00     0.000 C 
BRANCH   6   7
ATOM      7  C   UNL     1     -11.387 -10.081  17.466  1.00  0.00     0.000 C 
BRANCH   7   8
ATOM      8  C   UNL     1      -9.982  -9.532  17.764  1.00  0.00     0.000 C 
BRANCH   8   9
ATOM      9  C   UNL     1     -10.009  -8.099  18.326  1.00  0.00     0.000 C 
BRANCH   9  10
ATOM     10  C   UNL     1      -8.629  -7.616  18.807  1.00  0.00     0.006 C 
BRANCH  10  11
ATOM     11  C   UNL     1      -8.625  -6.170  19.334  1.00  0.00     0.053 C 
BRANCH  11  12
ATOM     12  C   UNL     1     -10.008  -5.647  19.585  1.00  0.00     0.041 C 
ATOM     13  O   UNL     1     -10.636  -5.050  18.672  1.00  0.00    -0.550 OA
ATOM     14  O   UNL     1     -10.616  -5.845  20.820  1.00  0.00    -0.550 OA
ENDBRANCH  11  12
ENDBRANCH  10  11
ENDBRANCH   9  10
ENDBRANCH   8   9
ENDBRANCH   7   8
ENDBRANCH   6   7
ENDBRANCH   5   6
ENDBRANCH   4   5
ENDBRANCH   3   4
ENDBRANCH   2   3
ENDBRANCH   1   2
BRANCH   1  15
ATOM     15  C   UNL     1     -13.490 -15.555  19.935  1.00  0.00     0.000 C 
BRANCH  15  16
ATOM     16  C   UNL     1     -14.781 -16.285  20.329  1.00  0.00     0.000 C 
BRANCH  16  17
ATOM     17  C   UNL     1     -14.503 -17.764  20.640  1.00  0.00     0.000 C 
BRANCH  17  18
ATOM     18  C   UNL     1     -14.734 -18.109  22.120  1.00  0.00    -0.000 C 
BRANCH  18  19
ATOM     19  C   UNL     1     -13.807 -17.319  23.060  1.00  0.00    -0.000 C 
BRANCH  19  20
ATOM     20  C   UNL     1     -14.375 -17.202  24.483  1.00  0.00    -0.000 C 
BRANCH  20  21
ATOM     21  C   UNL     1     -14.509 -15.740  24.946  1.00  0.00    -0.000 C 
BRANCH  21  22
ATOM     22  C   UNL     1     -15.125 -14.825  23.872  1.00  0.00    -0.000 C 
BRANCH  22  23
ATOM     23  C   UNL     1     -14.515 -13.414  23.791  1.00  0.00    -0.000 C 
BRANCH  23  24
ATOM     24  C   UNL     1     -13.671 -13.200  22.522  1.00  0.00    -0.000 C 
BRANCH  24  25
ATOM     25  C   UNL     1     -12.219 -13.672  22.696  1.00  0.00    -0.003 C 
ATOM     26  C   UNL     1     -11.449 -13.724  21.376  1.00  0.00     0.004 C 
ENDBRANCH  24  25
ENDBRANCH  23  24
ENDBRANCH  22  23
ENDBRANCH  21  22
ENDBRANCH  20  21
ENDBRANCH  19  20
ENDBRANCH  18  19
ENDBRANCH  17  18
ENDBRANCH  16  17
ENDBRANCH  15  16
ENDBRANCH   1  15
TORSDOF 22
ENDMDL
MODEL 4
REMARK VINA RESULT:     2.533      3.060      9.714
REMARK INTER + INTRA:           4.038
REMARK INTER:                   5.696
REMARK INTRA:                  -1.659
REMARK UNBOUND:                -1.753
REMARK SMILES CCCCCCCCCCCCCCCCCCCCCCCC(=O)[O-]
REMARK SMILES IDX 13 1 14 2 15 3 16 4 17 5 18 6 19 7 20 8 21 9 22 10 23 11
REMARK SMILES IDX 24 12 25 13 26 14 12 15 11 16 10 17 9 18 8 19 7 20 6 21 5 22
REMARK SMILES IDX 4 23 3 24 2 25 1 26
REMARK H PARENT
REMARK Flexibility Score: inf
ROOT
ATOM      1  C   UNL     1     -11.534 -13.008  20.056  1.00  0.00     0.000 C 
ENDROOT
BRANCH   1   2
ATOM      2  C   UNL     1     -11.456 -13.825  18.747  1.00  0.00     0.000 C 
BRANCH   2   3
ATOM      3  C   UNL     1     -11.424 -12.956  17.476  1.00  0.00     0.000 C 
BRANCH   3   4
ATOM      4  C   UNL     1     -11.606 -11.446  17.717  1.00  0.00     0.000 C 
BRANCH   4   5
ATOM      5  C   UNL     1     -11.203 -10.539  16.536  1.00  0.00     0.000 C 
BRANCH   5   6
ATOM      6  C   UNL     1     -11.392  -9.029  16.773  1.00  0.00     0.000 C 
BRANCH   6   7
ATOM      7  C   UNL     1     -10.506  -8.484  17.906  1.00  0.00     0.000 C 
BRANCH   7   8
ATOM      8  C   UNL     1     -10.684  -6.971  18.115  1.00  0.00     0.000 C 
BRANCH   8   9
ATOM      9  C   UNL     1      -9.618  -6.371  19.050  1.00  0.00     0.000 C 
BRANCH   9  10
ATOM     10  C   UNL     1      -9.778  -4.853  19.248  1.00  0.00     0.006 C 
BRANCH  10  11
ATOM     11  C   UNL     1      -9.210  -4.336  20.582  1.00  0.00     0.053 C 
BRANCH  11  12
ATOM     12  C   UNL     1     -10.130  -4.596  21.737  1.00  0.00     0.041 C 
ATOM     13  O   UNL     1     -10.378  -3.684  22.569  1.00  0.00    -0.550 OA
ATOM     14  O   UNL     1     -10.739  -5.838  21.879  1.00  0.00    -0.550 OA
ENDBRANCH  11  12
ENDBRANCH  10  11
ENDBRANCH   9  10
ENDBRANCH   8   9
ENDBRANCH   7   8
ENDBRANCH   6   7
ENDBRANCH   5   6
ENDBRANCH   4   5
ENDBRANCH   3   4
ENDBRANCH   2   3
ENDBRANCH   1   2
BRANCH   1  15
ATOM     15  C   UNL     1     -12.904 -13.122  20.742  1.00  0.00     0.000 C 
BRANCH  15  16
ATOM     16  C   UNL     1     -13.978 -12.365  19.951  1.00  0.00     0.000 C 
BRANCH  16  17
ATOM     17  C   UNL     1     -15.120 -13.305  19.535  1.00  0.00     0.000 C 
BRANCH  17  18
ATOM     18  C   UNL     1     -14.916 -14.742  20.043  1.00  0.00    -0.000 C 
BRANCH  18  19
ATOM     19  C   UNL     1     -14.648 -15.738  18.902  1.00  0.00    -0.000 C 
BRANCH  19  20
ATOM     20  C   UNL     1     -13.800 -16.937  19.356  1.00  0.00    -0.000 C 
BRANCH  20  21
ATOM     21  C   UNL     1     -13.718 -17.055  20.889  1.00  0.00    -0.000 C 
BRANCH  21  22
ATOM     22  C   UNL     1     -14.673 -18.120  21.459  1.00  0.00    -0.000 C 
BRANCH  22  23
ATOM     23  C   UNL     1     -14.848 -18.086  22.988  1.00  0.00    -0.000 C 
BRANCH  23  24
ATOM     24  C   UNL     1     -14.101 -16.915  23.649  1.00  0.00    -0.000 C 
BRANCH  24  25
ATOM     25  C   UNL     1     -14.822 -15.572  23.452  1.00  0.00    -0.003 C 
ATOM     26  C   UNL     1     -14.006 -14.381  23.954  1.00  0.00     0.004 C 
ENDBRANCH  24  25
ENDBRANCH  23  24
ENDBRANCH  22  23
ENDBRANCH  21  22
ENDBRANCH  20  21
ENDBRANCH  19  20
ENDBRANCH  18  19
ENDBRANCH  17  18
ENDBRANCH  16  17
ENDBRANCH  15  16
ENDBRANCH   1  15
TORSDOF 22
ENDMDL
MODEL 5
REMARK VINA RESULT:     2.616      1.491      2.664
REMARK INTER + INTRA:           4.228
REMARK INTER:                   4.336
REMARK INTRA:                  -0.109
REMARK UNBOUND:                -1.753
REMARK SMILES CCCCCCCCCCCCCCCCCCCCCCCC(=O)[O-]
REMARK SMILES IDX 13 1 14 2 15 3 16 4 17 5 18 6 19 7 20 8 21 9 22 10 23 11
REMARK SMILES IDX 24 12 25 13 26 14 12 15 11 16 10 17 9 18 8 19 7 20 6 21 5 22
REMARK SMILES IDX 4 23 3 24 2 25 1 26
REMARK H PARENT
REMARK Flexibility Score: inf
ROOT
ATOM      1  C   UNL     1     -12.007 -13.689  19.791  1.00  0.00     0.000 C 
ENDROOT
BRANCH   1   2
ATOM      2  C   UNL     1     -12.543 -15.134  19.688  1.00  0.00     0.000 C 
BRANCH   2   3
ATOM      3  C   UNL     1     -14.008 -15.219  19.220  1.00  0.00     0.000 C 
BRANCH   3   4
ATOM      4  C   UNL     1     -14.956 -14.191  19.866  1.00  0.00     0.000 C 
BRANCH   4   5
ATOM      5  C   UNL     1     -14.565 -12.714  19.656  1.00  0.00     0.000 C 
BRANCH   5   6
ATOM      6  C   UNL     1     -15.065 -11.740  20.738  1.00  0.00     0.000 C 
BRANCH   6   7
ATOM      7  C   UNL     1     -15.123 -12.377  22.137  1.00  0.00     0.000 C 
BRANCH   7   8
ATOM      8  C   UNL     1     -13.893 -13.249  22.438  1.00  0.00     0.000 C 
BRANCH   8   9
ATOM      9  C   UNL     1     -13.904 -13.819  23.868  1.00  0.00     0.000 C 
BRANCH   9  10
ATOM     10  C   UNL     1     -14.072 -15.348  23.905  1.00  0.00     0.006 C 
BRANCH  10  11
ATOM     11  C   UNL     1     -14.640 -15.943  22.604  1.00  0.00     0.053 C 
BRANCH  11  12
ATOM     12  C   UNL     1     -14.535 -17.438  22.562  1.00  0.00     0.041 C 
ATOM     13  O   UNL     1     -14.328 -18.089  23.620  1.00  0.00    -0.550 OA
ATOM     14  O   UNL     1     -14.695 -18.116  21.359  1.00  0.00    -0.550 OA
ENDBRANCH  11  12
ENDBRANCH  10  11
ENDBRANCH   9  10
ENDBRANCH   8   9
ENDBRANCH   7   8
ENDBRANCH   6   7
ENDBRANCH   5   6
ENDBRANCH   4   5
ENDBRANCH   3   4
ENDBRANCH   2   3
ENDBRANCH   1   2
BRANCH   1  15
ATOM     15  C   UNL     1     -10.800 -13.440  18.875  1.00  0.00     0.000 C 
BRANCH  15  16
ATOM     16  C   UNL     1     -11.189 -12.559  17.681  1.00  0.00     0.000 C 
BRANCH  16  17
ATOM     17  C   UNL     1     -11.799 -11.231  18.154  1.00  0.00     0.000 C 
BRANCH  17  18
ATOM     18  C   UNL     1     -12.381 -10.404  16.996  1.00  0.00    -0.000 C 
BRANCH  18  19
ATOM     19  C   UNL     1     -11.291  -9.714  16.158  1.00  0.00    -0.000 C 
BRANCH  19  20
ATOM     20  C   UNL     1      -9.972  -9.552  16.930  1.00  0.00    -0.000 C 
BRANCH  20  21
ATOM     21  C   UNL     1     -10.089  -8.551  18.094  1.00  0.00    -0.000 C 
BRANCH  21  22
ATOM     22  C   UNL     1      -8.722  -8.131  18.663  1.00  0.00    -0.000 C 
BRANCH  22  23
ATOM     23  C   UNL     1      -8.699  -6.753  19.350  1.00  0.00    -0.000 C 
BRANCH  23  24
ATOM     24  C   UNL     1     -10.025  -5.988  19.199  1.00  0.00    -0.000 C 
BRANCH  24  25
ATOM     25  C   UNL     1      -9.991  -4.614  19.888  1.00  0.00    -0.003 C 
ATOM     26  C   UNL     1     -10.346  -4.686  21.374  1.00  0.00     0.004 C 
ENDBRANCH  24  25
ENDBRANCH  23  24
ENDBRANCH  22  23
ENDBRANCH  21  22
ENDBRANCH  20  21
ENDBRANCH  19  20
ENDBRANCH  18  19
ENDBRANCH  17  18
ENDBRANCH  16  17
ENDBRANCH  15  16
ENDBRANCH   1  15
TORSDOF 22
ENDMDL
MODEL 6
REMARK VINA RESULT:     2.693      3.104      9.820
REMARK INTER + INTRA:           4.403
REMARK INTER:                   4.309
REMARK INTRA:                   0.094
REMARK UNBOUND:                -1.753
REMARK SMILES CCCCCCCCCCCCCCCCCCCCCCCC(=O)[O-]
REMARK SMILES IDX 13 1 14 2 15 3 16 4 17 5 18 6 19 7 20 8 21 9 22 10 23 11
REMARK SMILES IDX 24 12 25 13 26 14 12 15 11 16 10 17 9 18 8 19 7 20 6 21 5 22
REMARK SMILES IDX 4 23 3 24 2 25 1 26
REMARK H PARENT
REMARK Flexibility Score: inf
ROOT
ATOM      1  C   UNL     1     -12.363 -13.441  19.579  1.00  0.00     0.000 C 
ENDROOT
BRANCH   1   2
ATOM      2  C   UNL     1     -11.065 -12.743  19.117  1.00  0.00     0.000 C 
BRANCH   2   3
ATOM      3  C   UNL     1     -11.064 -12.360  17.625  1.00  0.00     0.000 C 
BRANCH   3   4
ATOM      4  C   UNL     1     -11.692 -10.991  17.306  1.00  0.00     0.000 C 
BRANCH   4   5
ATOM      5  C   UNL     1     -10.723  -9.944  16.719  1.00  0.00     0.000 C 
BRANCH   5   6
ATOM      6  C   UNL     1     -10.400  -8.756  17.642  1.00  0.00     0.000 C 
BRANCH   6   7
ATOM      7  C   UNL     1      -9.018  -8.871  18.306  1.00  0.00     0.000 C 
BRANCH   7   8
ATOM      8  C   UNL     1      -8.392  -7.498  18.604  1.00  0.00     0.000 C 
BRANCH   8   9
ATOM      9  C   UNL     1      -9.279  -6.623  19.508  1.00  0.00     0.000 C 
BRANCH   9  10
ATOM     10  C   UNL     1      -9.874  -5.409  18.772  1.00  0.00     0.006 C 
BRANCH  10  11
ATOM     11  C   UNL     1     -10.491  -4.355  19.709  1.00  0.00     0.053 C 
BRANCH  11  12
ATOM     12  C   UNL     1     -10.242  -4.657  21.156  1.00  0.00     0.041 C 
ATOM     13  O   UNL     1      -9.647  -3.821  21.885  1.00  0.00    -0.550 OA
ATOM     14  O   UNL     1     -10.694  -5.850  21.709  1.00  0.00    -0.550 OA
ENDBRANCH  11  12
ENDBRANCH  10  11
ENDBRANCH   9  10
ENDBRANCH   8   9
ENDBRANCH   7   8
ENDBRANCH   6   7
ENDBRANCH   5   6
ENDBRANCH   4   5
ENDBRANCH   3   4
ENDBRANCH   2   3
ENDBRANCH   1   2
BRANCH   1  15
ATOM     15  C   UNL     1     -13.605 -12.930  18.833  1.00  0.00     0.000 C 
BRANCH  15  16
ATOM     16  C   UNL     1     -14.846 -13.750  19.211  1.00  0.00     0.000 C 
BRANCH  16  17
ATOM     17  C   UNL     1     -15.124 -13.665  20.720  1.00  0.00     0.000 C 
BRANCH  17  18
ATOM     18  C   UNL     1     -14.156 -12.716  21.445  1.00  0.00    -0.000 C 
BRANCH  18  19
ATOM     19  C   UNL     1     -14.111 -12.968  22.962  1.00  0.00    -0.000 C 
BRANCH  19  20
ATOM     20  C   UNL     1     -13.312 -14.230  23.325  1.00  0.00    -0.000 C 
BRANCH  20  21
ATOM     21  C   UNL     1     -14.080 -15.157  24.285  1.00  0.00    -0.000 C 
BRANCH  21  22
ATOM     22  C   UNL     1     -14.277 -16.575  23.718  1.00  0.00    -0.000 C 
BRANCH  22  23
ATOM     23  C   UNL     1     -14.632 -16.634  22.222  1.00  0.00    -0.000 C 
BRANCH  23  24
ATOM     24  C   UNL     1     -14.241 -17.969  21.566  1.00  0.00    -0.000 C 
BRANCH  24  25
ATOM     25  C   UNL     1     -14.589 -18.013  20.069  1.00  0.00    -0.003 C 
ATOM     26  C   UNL     1     -13.786 -17.007  19.244  1.00  0.00     0.004 C 
ENDBRANCH  24  25
ENDBRANCH  23  24
ENDBRANCH  22  23
ENDBRANCH  21  22
ENDBRANCH  20  21
ENDBRANCH  19  20
ENDBRANCH  18  19
ENDBRANCH  17  18
ENDBRANCH  16  17
ENDBRANCH  15  16
ENDBRANCH   1  15
TORSDOF 22
ENDMDL
MODEL 7
REMARK VINA RESULT:     2.788      1.158      2.868
REMARK INTER + INTRA:           4.621
REMARK INTER:                   5.476
REMARK INTRA:                  -0.855
REMARK UNBOUND:                -1.753
REMARK SMILES CCCCCCCCCCCCCCCCCCCCCCCC(=O)[O-]
REMARK SMILES IDX 13 1 14 2 15 3 16 4 17 5 18 6 19 7 20 8 21 9 22 10 23 11
REMARK SMILES IDX 24 12 25 13 26 14 12 15 11 16 10 17 9 18 8 19 7 20 6 21 5 22
REMARK SMILES IDX 4 23 3 24 2 25 1 26
REMARK H PARENT
REMARK Flexibility Score: inf
ROOT
ATOM      1  C   UNL     1     -14.834 -13.292  19.792  1.00  0.00     0.000 C 
ENDROOT
BRANCH   1   2
ATOM      2  C   UNL     1     -15.085 -13.931  18.408  1.00  0.00     0.000 C 
BRANCH   2   3
ATOM      3  C   UNL     1     -14.950 -15.465  18.399  1.00  0.00     0.000 C 
BRANCH   3   4
ATOM      4  C   UNL     1     -13.503 -15.989  18.352  1.00  0.00     0.000 C 
BRANCH   4   5
ATOM      5  C   UNL     1     -13.091 -16.888  19.536  1.00  0.00     0.000 C 
BRANCH   5   6
ATOM      6  C   UNL     1     -14.222 -17.739  20.141  1.00  0.00     0.000 C 
BRANCH   6   7
ATOM      7  C   UNL     1     -14.021 -18.027  21.638  1.00  0.00     0.000 C 
BRANCH   7   8
ATOM      8  C   UNL     1     -15.125 -17.406  22.511  1.00  0.00     0.000 C 
BRANCH   8   9
ATOM      9  C   UNL     1     -14.854 -15.929  22.852  1.00  0.00     0.000 C 
BRANCH   9  10
ATOM     10  C   UNL     1     -13.490 -15.710  23.531  1.00  0.00     0.006 C 
BRANCH  10  11
ATOM     11  C   UNL     1     -12.596 -14.682  22.815  1.00  0.00     0.053 C 
BRANCH  11  12
ATOM     12  C   UNL     1     -12.946 -13.269  23.173  1.00  0.00     0.041 C 
ATOM     13  O   UNL     1     -12.050 -12.385  23.212  1.00  0.00    -0.550 OA
ATOM     14  O   UNL     1     -14.266 -12.921  23.435  1.00  0.00    -0.550 OA
ENDBRANCH  11  12
ENDBRANCH  10  11
ENDBRANCH   9  10
ENDBRANCH   8   9
ENDBRANCH   7   8
ENDBRANCH   6   7
ENDBRANCH   5   6
ENDBRANCH   4   5
ENDBRANCH   3   4
ENDBRANCH   2   3
ENDBRANCH   1   2
BRANCH   1  15
ATOM     15  C   UNL     1     -13.409 -12.737  19.936  1.00  0.00     0.000 C 
BRANCH  15  16
ATOM     16  C   UNL     1     -12.373 -13.745  19.421  1.00  0.00     0.000 C 
BRANCH  16  17
ATOM     17  C   UNL     1     -11.179 -13.025  18.774  1.00  0.00     0.000 C 
BRANCH  17  18
ATOM     18  C   UNL     1     -11.471 -12.577  17.333  1.00  0.00    -0.000 C 
BRANCH  18  19
ATOM     19  C   UNL     1     -12.226 -11.239  17.273  1.00  0.00    -0.000 C 
BRANCH  19  20
ATOM     20  C   UNL     1     -11.315 -10.067  16.874  1.00  0.00    -0.000 C 
BRANCH  20  21
ATOM     21  C   UNL     1     -10.416  -9.598  18.033  1.00  0.00    -0.000 C 
BRANCH  21  22
ATOM     22  C   UNL     1     -10.000  -8.121  17.907  1.00  0.00    -0.000 C 
BRANCH  22  23
ATOM     23  C   UNL     1      -8.637  -7.774  18.531  1.00  0.00    -0.000 C 
BRANCH  23  24
ATOM     24  C   UNL     1      -8.746  -6.756  19.680  1.00  0.00    -0.000 C 
BRANCH  24  25
ATOM     25  C   UNL     1     -10.099  -6.028  19.693  1.00  0.00    -0.003 C 
ATOM     26  C   UNL     1      -9.967  -4.524  19.450  1.00  0.00     0.004 C 
ENDBRANCH  24  25
ENDBRANCH  23  24
ENDBRANCH  22  23
ENDBRANCH  21  22
ENDBRANCH  20  21
ENDBRANCH  19  20
ENDBRANCH  18  19
ENDBRANCH  17  18
ENDBRANCH  16  17
ENDBRANCH  15  16
ENDBRANCH   1  15
TORSDOF 22
ENDMDL
MODEL 8
REMARK VINA RESULT:     2.958      3.228      9.878
REMARK INTER + INTRA:           5.008
REMARK INTER:                   5.982
REMARK INTRA:                  -0.974
REMARK UNBOUND:                -1.753
REMARK SMILES CCCCCCCCCCCCCCCCCCCCCCCC(=O)[O-]
REMARK SMILES IDX 13 1 14 2 15 3 16 4 17 5 18 6 19 7 20 8 21 9 22 10 23 11
REMARK SMILES IDX 24 12 25 13 26 14 12 15 11 16 10 17 9 18 8 19 7 20 6 21 5 22
REMARK SMILES IDX 4 23 3 24 2 25 1 26
REMARK H PARENT
REMARK Flexibility Score: inf
ROOT
ATOM      1  C   UNL     1     -12.113 -12.854  20.471  1.00  0.00     0.000 C 
ENDROOT
BRANCH   1   2
ATOM      2  C   UNL     1     -11.482 -13.988  19.633  1.00  0.00     0.000 C 
BRANCH   2   3
ATOM      3  C   UNL     1     -11.974 -14.028  18.174  1.00  0.00     0.000 C 
BRANCH   3   4
ATOM      4  C   UNL     1     -13.118 -13.049  17.848  1.00  0.00     0.000 C 
BRANCH   4   5
ATOM      5  C   UNL     1     -12.720 -11.559  17.821  1.00  0.00     0.000 C 
BRANCH   5   6
ATOM      6  C   UNL     1     -11.479 -11.224  16.973  1.00  0.00     0.000 C 
BRANCH   6   7
ATOM      7  C   UNL     1     -11.312  -9.716  16.723  1.00  0.00     0.000 C 
BRANCH   7   8
ATOM      8  C   UNL     1     -10.399  -9.045  17.762  1.00  0.00     0.000 C 
BRANCH   8   9
ATOM      9  C   UNL     1     -10.788  -7.582  18.040  1.00  0.00     0.000 C 
BRANCH   9  10
ATOM     10  C   UNL     1      -9.622  -6.744  18.596  1.00  0.00     0.006 C 
BRANCH  10  11
ATOM     11  C   UNL     1     -10.004  -5.292  18.933  1.00  0.00     0.053 C 
BRANCH  11  12
ATOM     12  C   UNL     1      -9.776  -4.958  20.376  1.00  0.00     0.041 C 
ATOM     13  O   UNL     1      -8.796  -4.244  20.715  1.00  0.00    -0.550 OA
ATOM     14  O   UNL     1     -10.663  -5.410  21.347  1.00  0.00    -0.550 OA
ENDBRANCH  11  12
ENDBRANCH  10  11
ENDBRANCH   9  10
ENDBRANCH   8   9
ENDBRANCH   7   8
ENDBRANCH   6   7
ENDBRANCH   5   6
ENDBRANCH   4   5
ENDBRANCH   3   4
ENDBRANCH   2   3
ENDBRANCH   1   2
BRANCH   1  15
ATOM     15  C   UNL     1     -13.564 -13.157  20.875  1.00  0.00     0.000 C 
BRANCH  15  16
ATOM     16  C   UNL     1     -13.761 -12.978  22.386  1.00  0.00     0.000 C 
BRANCH  16  17
ATOM     17  C   UNL     1     -14.977 -13.776  22.881  1.00  0.00     0.000 C 
BRANCH  17  18
ATOM     18  C   UNL     1     -15.121 -13.745  24.411  1.00  0.00    -0.000 C 
BRANCH  18  19
ATOM     19  C   UNL     1     -14.436 -14.942  25.092  1.00  0.00    -0.000 C 
BRANCH  19  20
ATOM     20  C   UNL     1     -13.636 -15.802  24.101  1.00  0.00    -0.000 C 
BRANCH  20  21
ATOM     21  C   UNL     1     -13.836 -17.311  24.335  1.00  0.00    -0.000 C 
BRANCH  21  22
ATOM     22  C   UNL     1     -14.872 -17.932  23.380  1.00  0.00    -0.000 C 
BRANCH  22  23
ATOM     23  C   UNL     1     -15.124 -17.136  22.087  1.00  0.00    -0.000 C 
BRANCH  23  24
ATOM     24  C   UNL     1     -14.498 -17.796  20.846  1.00  0.00    -0.000 C 
BRANCH  24  25
ATOM     25  C   UNL     1     -13.607 -16.827  20.052  1.00  0.00    -0.003 C 
ATOM     26  C   UNL     1     -13.394 -17.268  18.604  1.00  0.00     0.004 C 
ENDBRANCH  24  25
ENDBRANCH  23  24
ENDBRANCH  22  23
ENDBRANCH  21  22
ENDBRANCH  20  21
ENDBRANCH  19  20
ENDBRANCH  18  19
ENDBRANCH  17  18
ENDBRANCH  16  17
ENDBRANCH  15  16
ENDBRANCH   1  15
TORSDOF 22
ENDMDL
