MODEL 1
REMARK VINA RESULT:    -2.169      0.000      0.000
REMARK INTER + INTRA:          -4.213
REMARK INTER:                  -3.374
REMARK INTRA:                  -0.839
REMARK UNBOUND:                -0.839
REMARK SMILES COc1cc(CNC(=O)CCCCC=CC(C)C)ccc1O
REMARK SMILES IDX 11 1 12 2 13 3 14 4 15 5 16 6 17 7 18 8 10 9 8 10 9 11 7 12
REMARK SMILES IDX 6 14 5 15 4 16 19 17 3 18 20 19 21 20 2 21 1 22 22 23
REMARK H PARENT 7 13 22 24
REMARK Flexibility Score: inf
ROOT
ATOM      1  C   UNL     1     -24.469 -18.096 -14.565  1.00  0.00     0.010 C 
ENDROOT
BRANCH   1   2
ATOM      2  C   UNL     1     -25.122 -19.487 -14.602  1.00  0.00     0.005 C 
BRANCH   2   3
ATOM      3  C   UNL     1     -26.212 -19.661 -13.535  1.00  0.00     0.027 C 
BRANCH   3   4
ATOM      4  C   UNL     1     -25.633 -20.180 -12.248  1.00  0.00    -0.031 C 
ATOM      5  C   UNL     1     -25.813 -19.513 -11.096  1.00  0.00    -0.028 C 
BRANCH   5   6
ATOM      6  C   UNL     1     -25.239 -19.984  -9.778  1.00  0.00     0.005 C 
ATOM      7  C   UNL     1     -24.492 -21.313  -9.940  1.00  0.00     0.012 C 
ATOM      8  C   UNL     1     -24.341 -18.914  -9.144  1.00  0.00     0.012 C 
ENDBRANCH   5   6
ENDBRANCH   3   4
ENDBRANCH   2   3
ENDBRANCH   1   2
BRANCH   1   9
ATOM      9  C   UNL     1     -24.314 -17.476 -15.961  1.00  0.00     0.100 C 
BRANCH   9  10
ATOM     10  C   UNL     1     -24.156 -15.989 -15.857  1.00  0.00     0.220 C 
ATOM     11  O   UNL     1     -23.619 -15.356 -16.807  1.00  0.00    -0.275 OA
ATOM     12  N   UNL     1     -24.589 -15.296 -14.677  1.00  0.00    -0.352 N 
ATOM     13  H   UNL     1     -25.102 -15.823 -13.933  1.00  0.00     0.163 HD
BRANCH  12  14
ATOM     14  C   UNL     1     -24.214 -13.912 -14.402  1.00  0.00     0.151 C 
BRANCH  14  15
ATOM     15  C   UNL     1     -22.897 -13.876 -13.676  1.00  0.00    -0.025 A 
ATOM     16  C   UNL     1     -22.871 -13.877 -12.272  1.00  0.00     0.056 A 
ATOM     17  C   UNL     1     -21.691 -13.899 -14.390  1.00  0.00     0.009 A 
ATOM     18  C   UNL     1     -21.645 -13.880 -11.580  1.00  0.00     0.160 A 
ATOM     19  C   UNL     1     -20.472 -13.893 -13.708  1.00  0.00     0.050 A 
ATOM     20  C   UNL     1     -20.445 -13.881 -12.307  1.00  0.00     0.157 A 
BRANCH  18  21
ATOM     21  O   UNL     1     -21.577 -13.883 -10.177  1.00  0.00    -0.493 OA
ATOM     22  C   UNL     1     -22.627 -14.320  -9.321  1.00  0.00     0.278 C 
ENDBRANCH  18  21
BRANCH  20  23
ATOM     23  O   UNL     1     -19.228 -13.876 -11.628  1.00  0.00    -0.504 OA
ATOM     24  H   UNL     1     -18.816 -14.732 -11.275  1.00  0.00     0.293 HD
ENDBRANCH  20  23
ENDBRANCH  14  15
ENDBRANCH  12  14
ENDBRANCH   9  10
ENDBRANCH   1   9
TORSDOF 10
ENDMDL
MODEL 2
REMARK VINA RESULT:    -0.790      1.045      2.024
REMARK INTER + INTRA:          -2.068
REMARK INTER:                  -1.597
REMARK INTRA:                  -0.471
REMARK UNBOUND:                -0.839
REMARK SMILES COc1cc(CNC(=O)CCCCC=CC(C)C)ccc1O
REMARK SMILES IDX 11 1 12 2 13 3 14 4 15 5 16 6 17 7 18 8 10 9 8 10 9 11 7 12
REMARK SMILES IDX 6 14 5 15 4 16 19 17 3 18 20 19 21 20 2 21 1 22 22 23
REMARK H PARENT 7 13 22 24
REMARK Flexibility Score: inf
ROOT
ATOM      1  C   UNL     1     -24.128 -18.417 -15.518  1.00  0.00     0.010 C 
ENDROOT
BRANCH   1   2
ATOM      2  C   UNL     1     -24.820 -18.508 -14.149  1.00  0.00     0.005 C 
BRANCH   2   3
ATOM      3  C   UNL     1     -25.746 -19.727 -14.030  1.00  0.00     0.027 C 
BRANCH   3   4
ATOM      4  C   UNL     1     -26.003 -20.074 -12.589  1.00  0.00    -0.031 C 
ATOM      5  C   UNL     1     -25.155 -19.678 -11.626  1.00  0.00    -0.028 C 
BRANCH   5   6
ATOM      6  C   UNL     1     -25.360 -20.014 -10.165  1.00  0.00     0.005 C 
ATOM      7  C   UNL     1     -24.596 -21.285  -9.774  1.00  0.00     0.012 C 
ATOM      8  C   UNL     1     -24.978 -18.835  -9.262  1.00  0.00     0.012 C 
ENDBRANCH   5   6
ENDBRANCH   3   4
ENDBRANCH   2   3
ENDBRANCH   1   2
BRANCH   1   9
ATOM      9  C   UNL     1     -24.599 -17.209 -16.341  1.00  0.00     0.100 C 
BRANCH   9  10
ATOM     10  C   UNL     1     -24.263 -15.931 -15.633  1.00  0.00     0.220 C 
ATOM     11  O   UNL     1     -25.142 -15.363 -14.930  1.00  0.00    -0.275 OA
ATOM     12  N   UNL     1     -22.960 -15.347 -15.775  1.00  0.00    -0.352 N 
ATOM     13  H   UNL     1     -22.219 -15.870 -16.297  1.00  0.00     0.163 HD
BRANCH  12  14
ATOM     14  C   UNL     1     -22.663 -13.984 -15.347  1.00  0.00     0.151 C 
BRANCH  14  15
ATOM     15  C   UNL     1     -22.257 -13.982 -13.898  1.00  0.00    -0.025 A 
ATOM     16  C   UNL     1     -20.896 -13.978 -13.553  1.00  0.00     0.056 A 
ATOM     17  C   UNL     1     -23.227 -13.926 -12.887  1.00  0.00     0.009 A 
ATOM     18  C   UNL     1     -20.502 -13.939 -12.202  1.00  0.00     0.160 A 
ATOM     19  C   UNL     1     -22.841 -13.897 -11.545  1.00  0.00     0.050 A 
ATOM     20  C   UNL     1     -21.483 -13.906 -11.200  1.00  0.00     0.157 A 
BRANCH  18  21
ATOM     21  O   UNL     1     -19.151 -13.933 -11.816  1.00  0.00    -0.493 OA
ATOM     22  C   UNL     1     -18.064 -14.229 -12.686  1.00  0.00     0.278 C 
ENDBRANCH  18  21
BRANCH  20  23
ATOM     23  O   UNL     1     -21.100 -13.876  -9.860  1.00  0.00    -0.504 OA
ATOM     24  H   UNL     1     -21.052 -14.722  -9.305  1.00  0.00     0.293 HD
ENDBRANCH  20  23
ENDBRANCH  14  15
ENDBRANCH  12  14
ENDBRANCH   9  10
ENDBRANCH   1   9
TORSDOF 10
ENDMDL
MODEL 3
REMARK VINA RESULT:    -0.788      1.584      2.325
REMARK INTER + INTRA:          -2.064
REMARK INTER:                  -2.304
REMARK INTRA:                   0.240
REMARK UNBOUND:                -0.839
REMARK SMILES COc1cc(CNC(=O)CCCCC=CC(C)C)ccc1O
REMARK SMILES IDX 11 1 12 2 13 3 14 4 15 5 16 6 17 7 18 8 10 9 8 10 9 11 7 12
REMARK SMILES IDX 6 14 5 15 4 16 19 17 3 18 20 19 21 20 2 21 1 22 22 23
REMARK H PARENT 7 13 22 24
REMARK Flexibility Score: inf
ROOT
ATOM      1  C   UNL     1     -24.615 -17.731 -14.477  1.00  0.00     0.010 C 
ENDROOT
BRANCH   1   2
ATOM      2  C   UNL     1     -25.102 -19.121 -14.917  1.00  0.00     0.005 C 
BRANCH   2   3
ATOM      3  C   UNL     1     -25.985 -19.803 -13.863  1.00  0.00     0.027 C 
BRANCH   3   4
ATOM      4  C   UNL     1     -25.293 -19.857 -12.529  1.00  0.00    -0.031 C 
ATOM      5  C   UNL     1     -25.995 -20.046 -11.400  1.00  0.00    -0.028 C 
BRANCH   5   6
ATOM      6  C   UNL     1     -25.350 -20.094 -10.032  1.00  0.00     0.005 C 
ATOM      7  C   UNL     1     -24.407 -21.296  -9.903  1.00  0.00     0.012 C 
ATOM      8  C   UNL     1     -24.626 -18.781  -9.709  1.00  0.00     0.012 C 
ENDBRANCH   5   6
ENDBRANCH   3   4
ENDBRANCH   2   3
ENDBRANCH   1   2
BRANCH   1   9
ATOM      9  C   UNL     1     -25.011 -16.623 -15.463  1.00  0.00     0.100 C 
BRANCH   9  10
ATOM     10  C   UNL     1     -24.107 -15.437 -15.308  1.00  0.00     0.220 C 
ATOM     11  O   UNL     1     -23.500 -14.986 -16.317  1.00  0.00    -0.275 OA
ATOM     12  N   UNL     1     -23.914 -14.839 -14.018  1.00  0.00    -0.352 N 
ATOM     13  H   UNL     1     -24.484 -15.175 -13.208  1.00  0.00     0.163 HD
BRANCH  12  14
ATOM     14  C   UNL     1     -22.850 -13.875 -13.755  1.00  0.00     0.151 C 
BRANCH  14  15
ATOM     15  C   UNL     1     -21.551 -14.600 -13.531  1.00  0.00    -0.025 A 
ATOM     16  C   UNL     1     -20.414 -13.888 -13.118  1.00  0.00     0.056 A 
ATOM     17  C   UNL     1     -21.479 -15.993 -13.677  1.00  0.00     0.009 A 
ATOM     18  C   UNL     1     -19.201 -14.560 -12.869  1.00  0.00     0.160 A 
ATOM     19  C   UNL     1     -20.277 -16.662 -13.440  1.00  0.00     0.050 A 
ATOM     20  C   UNL     1     -19.138 -15.950 -13.040  1.00  0.00     0.157 A 
BRANCH  18  21
ATOM     21  O   UNL     1     -18.043 -13.883 -12.453  1.00  0.00    -0.493 OA
ATOM     22  C   UNL     1     -16.715 -14.310 -12.736  1.00  0.00     0.278 C 
ENDBRANCH  18  21
BRANCH  20  23
ATOM     23  O   UNL     1     -17.939 -16.620 -12.804  1.00  0.00    -0.504 OA
ATOM     24  H   UNL     1     -17.049 -16.228 -13.090  1.00  0.00     0.293 HD
ENDBRANCH  20  23
ENDBRANCH  14  15
ENDBRANCH  12  14
ENDBRANCH   9  10
ENDBRANCH   1   9
TORSDOF 10
ENDMDL
MODEL 4
REMARK VINA RESULT:    -0.243      1.729      3.038
REMARK INTER + INTRA:          -1.217
REMARK INTER:                  -0.441
REMARK INTRA:                  -0.777
REMARK UNBOUND:                -0.839
REMARK SMILES COc1cc(CNC(=O)CCCCC=CC(C)C)ccc1O
REMARK SMILES IDX 11 1 12 2 13 3 14 4 15 5 16 6 17 7 18 8 10 9 8 10 9 11 7 12
REMARK SMILES IDX 6 14 5 15 4 16 19 17 3 18 20 19 21 20 2 21 1 22 22 23
REMARK H PARENT 7 13 22 24
REMARK Flexibility Score: inf
ROOT
ATOM      1  C   UNL     1     -25.810 -18.882 -12.770  1.00  0.00     0.010 C 
ENDROOT
BRANCH   1   2
ATOM      2  C   UNL     1     -25.791 -20.089 -11.819  1.00  0.00     0.005 C 
BRANCH   2   3
ATOM      3  C   UNL     1     -25.389 -19.711 -10.386  1.00  0.00     0.027 C 
BRANCH   3   4
ATOM      4  C   UNL     1     -25.010 -20.930  -9.590  1.00  0.00    -0.031 C 
ATOM      5  C   UNL     1     -23.945 -21.671  -9.937  1.00  0.00    -0.028 C 
BRANCH   5   6
ATOM      6  C   UNL     1     -23.530 -22.914  -9.180  1.00  0.00     0.005 C 
ATOM      7  C   UNL     1     -24.751 -23.722  -8.727  1.00  0.00     0.012 C 
ATOM      8  C   UNL     1     -22.566 -23.776 -10.004  1.00  0.00     0.012 C 
ENDBRANCH   5   6
ENDBRANCH   3   4
ENDBRANCH   2   3
ENDBRANCH   1   2
BRANCH   1   9
ATOM      9  C   UNL     1     -25.636 -19.283 -14.242  1.00  0.00     0.100 C 
BRANCH   9  10
ATOM     10  C   UNL     1     -24.720 -18.324 -14.940  1.00  0.00     0.220 C 
ATOM     11  O   UNL     1     -23.609 -18.733 -15.373  1.00  0.00    -0.275 OA
ATOM     12  N   UNL     1     -25.095 -16.947 -15.092  1.00  0.00    -0.352 N 
ATOM     13  H   UNL     1     -26.052 -16.641 -14.798  1.00  0.00     0.163 HD
BRANCH  12  14
ATOM     14  C   UNL     1     -24.144 -15.919 -15.505  1.00  0.00     0.151 C 
BRANCH  14  15
ATOM     15  C   UNL     1     -23.401 -15.400 -14.305  1.00  0.00    -0.025 A 
ATOM     16  C   UNL     1     -22.128 -15.905 -13.997  1.00  0.00     0.056 A 
ATOM     17  C   UNL     1     -23.945 -14.371 -13.522  1.00  0.00     0.009 A 
ATOM     18  C   UNL     1     -21.406 -15.402 -12.897  1.00  0.00     0.160 A 
ATOM     19  C   UNL     1     -23.237 -13.875 -12.425  1.00  0.00     0.050 A 
ATOM     20  C   UNL     1     -21.972 -14.389 -12.109  1.00  0.00     0.157 A 
BRANCH  18  21
ATOM     21  O   UNL     1     -20.130 -15.881 -12.558  1.00  0.00    -0.493 OA
ATOM     22  C   UNL     1     -18.909 -15.328 -13.036  1.00  0.00     0.278 C 
ENDBRANCH  18  21
BRANCH  20  23
ATOM     23  O   UNL     1     -21.266 -13.892 -11.015  1.00  0.00    -0.504 OA
ATOM     24  H   UNL     1     -21.261 -12.904 -10.793  1.00  0.00     0.293 HD
ENDBRANCH  20  23
ENDBRANCH  14  15
ENDBRANCH  12  14
ENDBRANCH   9  10
ENDBRANCH   1   9
TORSDOF 10
ENDMDL
MODEL 5
REMARK VINA RESULT:     0.610      1.983      2.875
REMARK INTER + INTRA:           0.110
REMARK INTER:                   0.791
REMARK INTRA:                  -0.681
REMARK UNBOUND:                -0.839
REMARK SMILES COc1cc(CNC(=O)CCCCC=CC(C)C)ccc1O
REMARK SMILES IDX 11 1 12 2 13 3 14 4 15 5 16 6 17 7 18 8 10 9 8 10 9 11 7 12
REMARK SMILES IDX 6 14 5 15 4 16 19 17 3 18 20 19 21 20 2 21 1 22 22 23
REMARK H PARENT 7 13 22 24
REMARK Flexibility Score: inf
ROOT
ATOM      1  C   UNL     1     -24.236 -18.159 -15.342  1.00  0.00     0.010 C 
ENDROOT
BRANCH   1   2
ATOM      2  C   UNL     1     -25.395 -18.309 -14.344  1.00  0.00     0.005 C 
BRANCH   2   3
ATOM      3  C   UNL     1     -25.727 -19.775 -14.034  1.00  0.00     0.027 C 
BRANCH   3   4
ATOM      4  C   UNL     1     -25.301 -20.145 -12.640  1.00  0.00    -0.031 C 
ATOM      5  C   UNL     1     -25.877 -19.569 -11.572  1.00  0.00    -0.028 C 
BRANCH   5   6
ATOM      6  C   UNL     1     -25.475 -19.894 -10.150  1.00  0.00     0.005 C 
ATOM      7  C   UNL     1     -24.714 -21.223 -10.076  1.00  0.00     0.012 C 
ATOM      8  C   UNL     1     -24.665 -18.753  -9.523  1.00  0.00     0.012 C 
ENDBRANCH   5   6
ENDBRANCH   3   4
ENDBRANCH   2   3
ENDBRANCH   1   2
BRANCH   1   9
ATOM      9  C   UNL     1     -24.099 -16.728 -15.882  1.00  0.00     0.100 C 
BRANCH   9  10
ATOM     10  C   UNL     1     -23.899 -15.761 -14.754  1.00  0.00     0.220 C 
ATOM     11  O   UNL     1     -24.588 -14.706 -14.715  1.00  0.00    -0.275 OA
ATOM     12  N   UNL     1     -22.915 -16.023 -13.743  1.00  0.00    -0.352 N 
ATOM     13  H   UNL     1     -22.408 -16.938 -13.747  1.00  0.00     0.163 HD
BRANCH  12  14
ATOM     14  C   UNL     1     -22.483 -15.005 -12.790  1.00  0.00     0.151 C 
BRANCH  14  15
ATOM     15  C   UNL     1     -20.982 -15.006 -12.689  1.00  0.00    -0.025 A 
ATOM     16  C   UNL     1     -20.252 -16.122 -13.126  1.00  0.00     0.056 A 
ATOM     17  C   UNL     1     -20.300 -13.876 -12.214  1.00  0.00     0.009 A 
ATOM     18  C   UNL     1     -18.845 -16.122 -13.071  1.00  0.00     0.160 A 
ATOM     19  C   UNL     1     -18.905 -13.875 -12.149  1.00  0.00     0.050 A 
ATOM     20  C   UNL     1     -18.177 -14.994 -12.573  1.00  0.00     0.157 A 
BRANCH  18  21
ATOM     21  O   UNL     1     -18.079 -17.219 -13.501  1.00  0.00    -0.493 OA
ATOM     22  C   UNL     1     -17.471 -17.324 -14.783  1.00  0.00     0.278 C 
ENDBRANCH  18  21
BRANCH  20  23
ATOM     23  O   UNL     1     -16.784 -14.991 -12.508  1.00  0.00    -0.504 OA
ATOM     24  H   UNL     1     -16.223 -14.532 -13.216  1.00  0.00     0.293 HD
ENDBRANCH  20  23
ENDBRANCH  14  15
ENDBRANCH  12  14
ENDBRANCH   9  10
ENDBRANCH   1   9
TORSDOF 10
ENDMDL
