MODEL 1
REMARK VINA RESULT:     3.939      0.000      0.000
REMARK INTER + INTRA:           8.782
REMARK INTER:                  10.386
REMARK INTRA:                  -1.605
REMARK UNBOUND:                -1.605
REMARK SMILES CCCCCCCCCCCCCCCCCCCCCCCCCCCCCC(=O)[O-]
REMARK SMILES IDX 16 1 17 2 18 3 19 4 20 5 21 6 22 7 23 8 24 9 25 10 26 11
REMARK SMILES IDX 27 12 28 13 29 14 30 15 31 16 32 17 15 18 14 19 13 20 12 21
REMARK SMILES IDX 11 22 10 23 9 24 8 25 7 26 6 27 5 28 4 29 3 30 2 31 1 32
REMARK H PARENT
REMARK Flexibility Score: inf
ROOT
ATOM      1  C   UNL     1      -7.777  -8.425  16.775  1.00  0.00     0.000 C 
ENDROOT
BRANCH   1   2
ATOM      2  C   UNL     1      -6.498  -8.750  15.988  1.00  0.00     0.000 C 
BRANCH   2   3
ATOM      3  C   UNL     1      -5.249  -8.422  16.817  1.00  0.00     0.000 C 
BRANCH   3   4
ATOM      4  C   UNL     1      -3.963  -8.729  16.034  1.00  0.00     0.000 C 
BRANCH   4   5
ATOM      5  C   UNL     1      -2.908  -7.619  16.171  1.00  0.00     0.000 C 
BRANCH   5   6
ATOM      6  C   UNL     1      -1.641  -7.899  15.343  1.00  0.00     0.000 C 
BRANCH   6   7
ATOM      7  C   UNL     1      -0.379  -7.292  15.975  1.00  0.00     0.000 C 
BRANCH   7   8
ATOM      8  C   UNL     1       0.876  -7.494  15.113  1.00  0.00     0.000 C 
BRANCH   8   9
ATOM      9  C   UNL     1       1.713  -6.209  15.056  1.00  0.00     0.000 C 
BRANCH   9  10
ATOM     10  C   UNL     1       2.559  -6.098  13.773  1.00  0.00     0.000 C 
BRANCH  10  11
ATOM     11  C   UNL     1       3.915  -5.387  13.947  1.00  0.00     0.000 C 
BRANCH  11  12
ATOM     12  C   UNL     1       4.527  -4.929  12.609  1.00  0.00     0.000 C 
BRANCH  12  13
ATOM     13  C   UNL     1       3.584  -4.008  11.809  1.00  0.00     0.006 C 
BRANCH  13  14
ATOM     14  C   UNL     1       3.843  -2.509  12.038  1.00  0.00     0.053 C 
BRANCH  14  15
ATOM     15  C   UNL     1       4.195  -1.788  10.775  1.00  0.00     0.041 C 
ATOM     16  O   UNL     1       4.317  -2.423   9.695  1.00  0.00    -0.550 OA
ATOM     17  O   UNL     1       4.400  -0.415  10.792  1.00  0.00    -0.550 OA
ENDBRANCH  14  15
ENDBRANCH  13  14
ENDBRANCH  12  13
ENDBRANCH  11  12
ENDBRANCH  10  11
ENDBRANCH   9  10
ENDBRANCH   8   9
ENDBRANCH   7   8
ENDBRANCH   6   7
ENDBRANCH   5   6
ENDBRANCH   4   5
ENDBRANCH   3   4
ENDBRANCH   2   3
ENDBRANCH   1   2
BRANCH   1  18
ATOM     18  C   UNL     1      -9.016  -9.155  16.221  1.00  0.00     0.000 C 
BRANCH  18  19
ATOM     19  C   UNL     1     -10.159  -9.317  17.248  1.00  0.00     0.000 C 
BRANCH  19  20
ATOM     20  C   UNL     1     -11.396 -10.030  16.674  1.00  0.00     0.000 C 
BRANCH  20  21
ATOM     21  C   UNL     1     -11.381 -11.551  16.939  1.00  0.00     0.000 C 
BRANCH  21  22
ATOM     22  C   UNL     1     -11.635 -11.886  18.417  1.00  0.00     0.000 C 
BRANCH  22  23
ATOM     23  C   UNL     1     -13.113 -12.231  18.674  1.00  0.00     0.000 C 
BRANCH  23  24
ATOM     24  C   UNL     1     -13.330 -13.711  19.036  1.00  0.00    -0.000 C 
BRANCH  24  25
ATOM     25  C   UNL     1     -14.798 -14.181  18.999  1.00  0.00    -0.000 C 
BRANCH  25  26
ATOM     26  C   UNL     1     -15.004 -15.705  19.117  1.00  0.00    -0.000 C 
BRANCH  26  27
ATOM     27  C   UNL     1     -13.768 -16.493  19.591  1.00  0.00    -0.000 C 
BRANCH  27  28
ATOM     28  C   UNL     1     -13.944 -17.090  20.995  1.00  0.00    -0.000 C 
BRANCH  28  29
ATOM     29  C   UNL     1     -14.418 -16.022  21.989  1.00  0.00    -0.000 C 
BRANCH  29  30
ATOM     30  C   UNL     1     -13.287 -15.630  22.951  1.00  0.00    -0.000 C 
BRANCH  30  31
ATOM     31  C   UNL     1     -12.851 -14.164  22.787  1.00  0.00    -0.003 C 
ATOM     32  C   UNL     1     -14.018 -13.230  22.474  1.00  0.00     0.004 C 
ENDBRANCH  30  31
ENDBRANCH  29  30
ENDBRANCH  28  29
ENDBRANCH  27  28
ENDBRANCH  26  27
ENDBRANCH  25  26
ENDBRANCH  24  25
ENDBRANCH  23  24
ENDBRANCH  22  23
ENDBRANCH  21  22
ENDBRANCH  20  21
ENDBRANCH  19  20
ENDBRANCH  18  19
ENDBRANCH   1  18
TORSDOF 28
ENDMDL
MODEL 2
REMARK VINA RESULT:     3.952      0.937      1.941
REMARK INTER + INTRA:           8.816
REMARK INTER:                  10.009
REMARK INTRA:                  -1.194
REMARK UNBOUND:                -1.605
REMARK SMILES CCCCCCCCCCCCCCCCCCCCCCCCCCCCCC(=O)[O-]
REMARK SMILES IDX 16 1 17 2 18 3 19 4 20 5 21 6 22 7 23 8 24 9 25 10 26 11
REMARK SMILES IDX 27 12 28 13 29 14 30 15 31 16 32 17 15 18 14 19 13 20 12 21
REMARK SMILES IDX 11 22 10 23 9 24 8 25 7 26 6 27 5 28 4 29 3 30 2 31 1 32
REMARK H PARENT
REMARK Flexibility Score: inf
ROOT
ATOM      1  C   UNL     1      -7.829  -8.430  16.729  1.00  0.00     0.000 C 
ENDROOT
BRANCH   1   2
ATOM      2  C   UNL     1      -6.539  -8.712  15.945  1.00  0.00     0.000 C 
BRANCH   2   3
ATOM      3  C   UNL     1      -5.329  -8.768  16.887  1.00  0.00     0.000 C 
BRANCH   3   4
ATOM      4  C   UNL     1      -4.012  -8.852  16.099  1.00  0.00     0.000 C 
BRANCH   4   5
ATOM      5  C   UNL     1      -3.229  -7.529  16.115  1.00  0.00     0.000 C 
BRANCH   5   6
ATOM      6  C   UNL     1      -1.760  -7.704  15.687  1.00  0.00     0.000 C 
BRANCH   6   7
ATOM      7  C   UNL     1      -0.857  -6.579  16.214  1.00  0.00     0.000 C 
BRANCH   7   8
ATOM      8  C   UNL     1       0.637  -6.931  16.145  1.00  0.00     0.000 C 
BRANCH   8   9
ATOM      9  C   UNL     1       1.139  -6.908  14.694  1.00  0.00     0.000 C 
BRANCH   9  10
ATOM     10  C   UNL     1       2.482  -6.172  14.533  1.00  0.00     0.000 C 
BRANCH  10  11
ATOM     11  C   UNL     1       2.895  -5.882  13.077  1.00  0.00     0.000 C 
BRANCH  11  12
ATOM     12  C   UNL     1       3.762  -4.616  12.941  1.00  0.00     0.000 C 
BRANCH  12  13
ATOM     13  C   UNL     1       4.966  -4.819  11.999  1.00  0.00     0.006 C 
BRANCH  13  14
ATOM     14  C   UNL     1       4.879  -4.002  10.699  1.00  0.00     0.053 C 
BRANCH  14  15
ATOM     15  C   UNL     1       4.795  -2.530  10.951  1.00  0.00     0.041 C 
ATOM     16  O   UNL     1       4.504  -1.742  10.014  1.00  0.00    -0.550 OA
ATOM     17  O   UNL     1       5.049  -2.025  12.219  1.00  0.00    -0.550 OA
ENDBRANCH  14  15
ENDBRANCH  13  14
ENDBRANCH  12  13
ENDBRANCH  11  12
ENDBRANCH  10  11
ENDBRANCH   9  10
ENDBRANCH   8   9
ENDBRANCH   7   8
ENDBRANCH   6   7
ENDBRANCH   5   6
ENDBRANCH   4   5
ENDBRANCH   3   4
ENDBRANCH   2   3
ENDBRANCH   1   2
BRANCH   1  18
ATOM     18  C   UNL     1      -9.054  -9.151  16.135  1.00  0.00     0.000 C 
BRANCH  18  19
ATOM     19  C   UNL     1     -10.150  -9.483  17.172  1.00  0.00     0.000 C 
BRANCH  19  20
ATOM     20  C   UNL     1     -11.452 -10.001  16.537  1.00  0.00     0.000 C 
BRANCH  20  21
ATOM     21  C   UNL     1     -12.102 -11.137  17.356  1.00  0.00     0.000 C 
BRANCH  21  22
ATOM     22  C   UNL     1     -11.118 -11.771  18.352  1.00  0.00     0.000 C 
BRANCH  22  23
ATOM     23  C   UNL     1     -11.363 -13.283  18.506  1.00  0.00     0.000 C 
BRANCH  23  24
ATOM     24  C   UNL     1     -11.917 -13.664  19.890  1.00  0.00    -0.000 C 
BRANCH  24  25
ATOM     25  C   UNL     1     -13.320 -13.105  20.204  1.00  0.00    -0.000 C 
BRANCH  25  26
ATOM     26  C   UNL     1     -13.818 -13.351  21.642  1.00  0.00    -0.000 C 
BRANCH  26  27
ATOM     27  C   UNL     1     -12.844 -14.135  22.543  1.00  0.00    -0.000 C 
BRANCH  27  28
ATOM     28  C   UNL     1     -13.380 -15.519  22.939  1.00  0.00    -0.000 C 
BRANCH  28  29
ATOM     29  C   UNL     1     -14.447 -15.997  21.946  1.00  0.00    -0.000 C 
BRANCH  29  30
ATOM     30  C   UNL     1     -14.212 -17.465  21.556  1.00  0.00    -0.000 C 
BRANCH  30  31
ATOM     31  C   UNL     1     -14.410 -17.716  20.052  1.00  0.00    -0.003 C 
ATOM     32  C   UNL     1     -13.748 -16.651  19.181  1.00  0.00     0.004 C 
ENDBRANCH  30  31
ENDBRANCH  29  30
ENDBRANCH  28  29
ENDBRANCH  27  28
ENDBRANCH  26  27
ENDBRANCH  25  26
ENDBRANCH  24  25
ENDBRANCH  23  24
ENDBRANCH  22  23
ENDBRANCH  21  22
ENDBRANCH  20  21
ENDBRANCH  19  20
ENDBRANCH  18  19
ENDBRANCH   1  18
TORSDOF 28
ENDMDL
MODEL 3
REMARK VINA RESULT:     4.466      6.648     18.521
REMARK INTER + INTRA:          10.173
REMARK INTER:                  11.517
REMARK INTRA:                  -1.344
REMARK UNBOUND:                -1.605
REMARK SMILES CCCCCCCCCCCCCCCCCCCCCCCCCCCCCC(=O)[O-]
REMARK SMILES IDX 16 1 17 2 18 3 19 4 20 5 21 6 22 7 23 8 24 9 25 10 26 11
REMARK SMILES IDX 27 12 28 13 29 14 30 15 31 16 32 17 15 18 14 19 13 20 12 21
REMARK SMILES IDX 11 22 10 23 9 24 8 25 7 26 6 27 5 28 4 29 3 30 2 31 1 32
REMARK H PARENT
REMARK Flexibility Score: inf
ROOT
ATOM      1  C   UNL     1      -4.519  -8.573  16.083  1.00  0.00     0.000 C 
ENDROOT
BRANCH   1   2
ATOM      2  C   UNL     1      -5.771  -8.747  16.957  1.00  0.00     0.000 C 
BRANCH   2   3
ATOM      3  C   UNL     1      -7.047  -8.573  16.122  1.00  0.00     0.000 C 
BRANCH   3   4
ATOM      4  C   UNL     1      -8.305  -8.681  16.998  1.00  0.00     0.000 C 
BRANCH   4   5
ATOM      5  C   UNL     1      -9.524  -9.202  16.219  1.00  0.00     0.000 C 
BRANCH   5   6
ATOM      6  C   UNL     1     -10.193 -10.409  16.902  1.00  0.00     0.000 C 
BRANCH   6   7
ATOM      7  C   UNL     1     -11.724 -10.287  16.943  1.00  0.00     0.000 C 
BRANCH   7   8
ATOM      8  C   UNL     1     -12.398 -11.478  17.641  1.00  0.00     0.000 C 
BRANCH   8   9
ATOM      9  C   UNL     1     -11.422 -12.178  18.597  1.00  0.00     0.000 C 
BRANCH   9  10
ATOM     10  C   UNL     1     -12.087 -13.291  19.427  1.00  0.00     0.000 C 
BRANCH  10  11
ATOM     11  C   UNL     1     -13.049 -14.203  18.642  1.00  0.00     0.000 C 
BRANCH  11  12
ATOM     12  C   UNL     1     -14.234 -14.699  19.494  1.00  0.00     0.000 C 
BRANCH  12  13
ATOM     13  C   UNL     1     -14.205 -14.142  20.932  1.00  0.00     0.006 C 
BRANCH  13  14
ATOM     14  C   UNL     1     -14.547 -15.186  22.007  1.00  0.00     0.053 C 
BRANCH  14  15
ATOM     15  C   UNL     1     -14.120 -14.763  23.376  1.00  0.00     0.041 C 
ATOM     16  O   UNL     1     -13.547 -13.655  23.548  1.00  0.00    -0.550 OA
ATOM     17  O   UNL     1     -14.344 -15.595  24.465  1.00  0.00    -0.550 OA
ENDBRANCH  14  15
ENDBRANCH  13  14
ENDBRANCH  12  13
ENDBRANCH  11  12
ENDBRANCH  10  11
ENDBRANCH   9  10
ENDBRANCH   8   9
ENDBRANCH   7   8
ENDBRANCH   6   7
ENDBRANCH   5   6
ENDBRANCH   4   5
ENDBRANCH   3   4
ENDBRANCH   2   3
ENDBRANCH   1   2
BRANCH   1  18
ATOM     18  C   UNL     1      -3.643  -7.387  16.531  1.00  0.00     0.000 C 
BRANCH  18  19
ATOM     19  C   UNL     1      -2.230  -7.381  15.907  1.00  0.00     0.000 C 
BRANCH  19  20
ATOM     20  C   UNL     1      -1.217  -6.538  16.704  1.00  0.00     0.000 C 
BRANCH  20  21
ATOM     21  C   UNL     1       0.195  -6.563  16.082  1.00  0.00     0.000 C 
BRANCH  21  22
ATOM     22  C   UNL     1       0.434  -7.821  15.231  1.00  0.00     0.000 C 
BRANCH  22  23
ATOM     23  C   UNL     1       1.648  -7.654  14.300  1.00  0.00     0.000 C 
BRANCH  23  24
ATOM     24  C   UNL     1       2.395  -6.326  14.519  1.00  0.00    -0.000 C 
BRANCH  24  25
ATOM     25  C   UNL     1       3.255  -5.860  13.326  1.00  0.00    -0.000 C 
BRANCH  25  26
ATOM     26  C   UNL     1       4.467  -4.981  13.694  1.00  0.00    -0.000 C 
BRANCH  26  27
ATOM     27  C   UNL     1       4.918  -4.002  12.593  1.00  0.00    -0.000 C 
BRANCH  27  28
ATOM     28  C   UNL     1       4.625  -4.520  11.177  1.00  0.00    -0.000 C 
BRANCH  28  29
ATOM     29  C   UNL     1       4.279  -3.363  10.232  1.00  0.00    -0.000 C 
BRANCH  29  30
ATOM     30  C   UNL     1       5.026  -2.083  10.638  1.00  0.00    -0.000 C 
BRANCH  30  31
ATOM     31  C   UNL     1       4.897  -0.965   9.590  1.00  0.00    -0.003 C 
ATOM     32  C   UNL     1       4.653  -1.499   8.180  1.00  0.00     0.004 C 
ENDBRANCH  30  31
ENDBRANCH  29  30
ENDBRANCH  28  29
ENDBRANCH  27  28
ENDBRANCH  26  27
ENDBRANCH  25  26
ENDBRANCH  24  25
ENDBRANCH  23  24
ENDBRANCH  22  23
ENDBRANCH  21  22
ENDBRANCH  20  21
ENDBRANCH  19  20
ENDBRANCH  18  19
ENDBRANCH   1  18
TORSDOF 28
ENDMDL
MODEL 4
REMARK VINA RESULT:     4.604      1.091      1.854
REMARK INTER + INTRA:          10.536
REMARK INTER:                  11.549
REMARK INTRA:                  -1.012
REMARK UNBOUND:                -1.605
REMARK SMILES CCCCCCCCCCCCCCCCCCCCCCCCCCCCCC(=O)[O-]
REMARK SMILES IDX 16 1 17 2 18 3 19 4 20 5 21 6 22 7 23 8 24 9 25 10 26 11
REMARK SMILES IDX 27 12 28 13 29 14 30 15 31 16 32 17 15 18 14 19 13 20 12 21
REMARK SMILES IDX 11 22 10 23 9 24 8 25 7 26 6 27 5 28 4 29 3 30 2 31 1 32
REMARK H PARENT
REMARK Flexibility Score: inf
ROOT
ATOM      1  C   UNL     1      -6.332  -8.841  15.937  1.00  0.00     0.000 C 
ENDROOT
BRANCH   1   2
ATOM      2  C   UNL     1      -5.089  -8.461  16.756  1.00  0.00     0.000 C 
BRANCH   2   3
ATOM      3  C   UNL     1      -3.811  -8.649  15.927  1.00  0.00     0.000 C 
BRANCH   3   4
ATOM      4  C   UNL     1      -2.818  -7.501  16.164  1.00  0.00     0.000 C 
BRANCH   4   5
ATOM      5  C   UNL     1      -1.541  -7.640  15.320  1.00  0.00     0.000 C 
BRANCH   5   6
ATOM      6  C   UNL     1      -0.259  -7.600  16.172  1.00  0.00     0.000 C 
BRANCH   6   7
ATOM      7  C   UNL     1       0.724  -6.516  15.704  1.00  0.00     0.000 C 
BRANCH   7   8
ATOM      8  C   UNL     1       1.493  -6.916  14.435  1.00  0.00     0.000 C 
BRANCH   8   9
ATOM      9  C   UNL     1       2.805  -6.129  14.319  1.00  0.00     0.000 C 
BRANCH   9  10
ATOM     10  C   UNL     1       2.917  -5.336  13.003  1.00  0.00     0.000 C 
BRANCH  10  11
ATOM     11  C   UNL     1       4.353  -4.957  12.591  1.00  0.00     0.000 C 
BRANCH  11  12
ATOM     12  C   UNL     1       4.647  -3.454  12.761  1.00  0.00     0.000 C 
BRANCH  12  13
ATOM     13  C   UNL     1       3.969  -2.590  11.678  1.00  0.00     0.006 C 
BRANCH  13  14
ATOM     14  C   UNL     1       4.365  -1.105  11.734  1.00  0.00     0.053 C 
BRANCH  14  15
ATOM     15  C   UNL     1       4.292  -0.441  10.395  1.00  0.00     0.041 C 
ATOM     16  O   UNL     1       4.365  -1.126   9.342  1.00  0.00    -0.550 OA
ATOM     17  O   UNL     1       4.154   0.938  10.309  1.00  0.00    -0.550 OA
ENDBRANCH  14  15
ENDBRANCH  13  14
ENDBRANCH  12  13
ENDBRANCH  11  12
ENDBRANCH  10  11
ENDBRANCH   9  10
ENDBRANCH   8   9
ENDBRANCH   7   8
ENDBRANCH   6   7
ENDBRANCH   5   6
ENDBRANCH   4   5
ENDBRANCH   3   4
ENDBRANCH   2   3
ENDBRANCH   1   2
BRANCH   1  18
ATOM     18  C   UNL     1      -7.642  -8.359  16.588  1.00  0.00     0.000 C 
BRANCH  18  19
ATOM     19  C   UNL     1      -8.895  -9.131  16.121  1.00  0.00     0.000 C 
BRANCH  19  20
ATOM     20  C   UNL     1      -9.926  -9.354  17.243  1.00  0.00     0.000 C 
BRANCH  20  21
ATOM     21  C   UNL     1     -11.097 -10.257  16.802  1.00  0.00     0.000 C 
BRANCH  21  22
ATOM     22  C   UNL     1     -11.357 -11.401  17.796  1.00  0.00     0.000 C 
BRANCH  22  23
ATOM     23  C   UNL     1     -12.861 -11.603  18.049  1.00  0.00     0.000 C 
BRANCH  23  24
ATOM     24  C   UNL     1     -13.244 -13.081  18.243  1.00  0.00    -0.000 C 
BRANCH  24  25
ATOM     25  C   UNL     1     -14.117 -13.368  19.481  1.00  0.00    -0.000 C 
BRANCH  25  26
ATOM     26  C   UNL     1     -14.080 -14.824  19.987  1.00  0.00    -0.000 C 
BRANCH  26  27
ATOM     27  C   UNL     1     -13.995 -14.978  21.518  1.00  0.00    -0.000 C 
BRANCH  27  28
ATOM     28  C   UNL     1     -12.739 -14.325  22.115  1.00  0.00    -0.000 C 
BRANCH  28  29
ATOM     29  C   UNL     1     -13.046 -13.698  23.481  1.00  0.00    -0.000 C 
BRANCH  29  30
ATOM     30  C   UNL     1     -14.473 -14.040  23.932  1.00  0.00    -0.000 C 
BRANCH  30  31
ATOM     31  C   UNL     1     -14.500 -15.012  25.124  1.00  0.00    -0.003 C 
ATOM     32  C   UNL     1     -14.887 -16.433  24.721  1.00  0.00     0.004 C 
ENDBRANCH  30  31
ENDBRANCH  29  30
ENDBRANCH  28  29
ENDBRANCH  27  28
ENDBRANCH  26  27
ENDBRANCH  25  26
ENDBRANCH  24  25
ENDBRANCH  23  24
ENDBRANCH  22  23
ENDBRANCH  21  22
ENDBRANCH  20  21
ENDBRANCH  19  20
ENDBRANCH  18  19
ENDBRANCH   1  18
TORSDOF 28
ENDMDL
MODEL 5
REMARK VINA RESULT:     4.667      6.485     17.946
REMARK INTER + INTRA:          10.701
REMARK INTER:                  11.987
REMARK INTRA:                  -1.286
REMARK UNBOUND:                -1.605
REMARK SMILES CCCCCCCCCCCCCCCCCCCCCCCCCCCCCC(=O)[O-]
REMARK SMILES IDX 16 1 17 2 18 3 19 4 20 5 21 6 22 7 23 8 24 9 25 10 26 11
REMARK SMILES IDX 27 12 28 13 29 14 30 15 31 16 32 17 15 18 14 19 13 20 12 21
REMARK SMILES IDX 11 22 10 23 9 24 8 25 7 26 6 27 5 28 4 29 3 30 2 31 1 32
REMARK H PARENT
REMARK Flexibility Score: inf
ROOT
ATOM      1  C   UNL     1      -7.213  -8.723  16.126  1.00  0.00     0.000 C 
ENDROOT
BRANCH   1   2
ATOM      2  C   UNL     1      -8.485  -8.715  16.988  1.00  0.00     0.000 C 
BRANCH   2   3
ATOM      3  C   UNL     1      -9.549  -9.651  16.399  1.00  0.00     0.000 C 
BRANCH   3   4
ATOM      4  C   UNL     1     -10.894  -9.494  17.126  1.00  0.00     0.000 C 
BRANCH   4   5
ATOM      5  C   UNL     1     -11.732 -10.783  17.103  1.00  0.00     0.000 C 
BRANCH   5   6
ATOM      6  C   UNL     1     -10.999 -11.979  17.739  1.00  0.00     0.000 C 
BRANCH   6   7
ATOM      7  C   UNL     1     -11.731 -12.528  18.972  1.00  0.00     0.000 C 
BRANCH   7   8
ATOM      8  C   UNL     1     -13.260 -12.438  18.847  1.00  0.00     0.000 C 
BRANCH   8   9
ATOM      9  C   UNL     1     -13.902 -13.828  18.957  1.00  0.00     0.000 C 
BRANCH   9  10
ATOM     10  C   UNL     1     -12.875 -14.947  19.216  1.00  0.00     0.000 C 
BRANCH  10  11
ATOM     11  C   UNL     1     -13.483 -16.325  19.540  1.00  0.00     0.000 C 
BRANCH  11  12
ATOM     12  C   UNL     1     -14.550 -16.264  20.650  1.00  0.00     0.000 C 
BRANCH  12  13
ATOM     13  C   UNL     1     -13.941 -16.351  22.064  1.00  0.00     0.006 C 
BRANCH  13  14
ATOM     14  C   UNL     1     -13.099 -15.124  22.452  1.00  0.00     0.053 C 
BRANCH  14  15
ATOM     15  C   UNL     1     -13.907 -14.066  23.135  1.00  0.00     0.041 C 
ATOM     16  O   UNL     1     -14.565 -13.234  22.459  1.00  0.00    -0.550 OA
ATOM     17  O   UNL     1     -13.925 -13.992  24.522  1.00  0.00    -0.550 OA
ENDBRANCH  14  15
ENDBRANCH  13  14
ENDBRANCH  12  13
ENDBRANCH  11  12
ENDBRANCH  10  11
ENDBRANCH   9  10
ENDBRANCH   8   9
ENDBRANCH   7   8
ENDBRANCH   6   7
ENDBRANCH   5   6
ENDBRANCH   4   5
ENDBRANCH   3   4
ENDBRANCH   2   3
ENDBRANCH   1   2
BRANCH   1  18
ATOM     18  C   UNL     1      -5.927  -8.828  16.967  1.00  0.00     0.000 C 
BRANCH  18  19
ATOM     19  C   UNL     1      -4.627  -8.752  16.137  1.00  0.00     0.000 C 
BRANCH  19  20
ATOM     20  C   UNL     1      -4.006  -7.344  16.108  1.00  0.00     0.000 C 
BRANCH  20  21
ATOM     21  C   UNL     1      -2.503  -7.351  16.461  1.00  0.00     0.000 C 
BRANCH  21  22
ATOM     22  C   UNL     1      -1.613  -7.484  15.215  1.00  0.00     0.000 C 
BRANCH  22  23
ATOM     23  C   UNL     1      -0.126  -7.277  15.555  1.00  0.00     0.000 C 
BRANCH  23  24
ATOM     24  C   UNL     1       0.785  -8.359  14.948  1.00  0.00    -0.000 C 
BRANCH  24  25
ATOM     25  C   UNL     1       2.056  -7.825  14.257  1.00  0.00    -0.000 C 
BRANCH  25  26
ATOM     26  C   UNL     1       2.278  -6.304  14.376  1.00  0.00    -0.000 C 
BRANCH  26  27
ATOM     27  C   UNL     1       3.551  -5.777  13.686  1.00  0.00    -0.000 C 
BRANCH  27  28
ATOM     28  C   UNL     1       3.271  -5.164  12.305  1.00  0.00    -0.000 C 
BRANCH  28  29
ATOM     29  C   UNL     1       4.538  -4.522  11.724  1.00  0.00    -0.000 C 
BRANCH  29  30
ATOM     30  C   UNL     1       4.203  -3.673  10.489  1.00  0.00    -0.000 C 
BRANCH  30  31
ATOM     31  C   UNL     1       4.518  -2.182  10.693  1.00  0.00    -0.003 C 
ATOM     32  C   UNL     1       3.943  -1.627  11.994  1.00  0.00     0.004 C 
ENDBRANCH  30  31
ENDBRANCH  29  30
ENDBRANCH  28  29
ENDBRANCH  27  28
ENDBRANCH  26  27
ENDBRANCH  25  26
ENDBRANCH  24  25
ENDBRANCH  23  24
ENDBRANCH  22  23
ENDBRANCH  21  22
ENDBRANCH  20  21
ENDBRANCH  19  20
ENDBRANCH  18  19
ENDBRANCH   1  18
TORSDOF 28
ENDMDL
MODEL 6
REMARK VINA RESULT:     4.701      6.326     18.175
REMARK INTER + INTRA:          10.792
REMARK INTER:                  11.759
REMARK INTRA:                  -0.967
REMARK UNBOUND:                -1.605
REMARK SMILES CCCCCCCCCCCCCCCCCCCCCCCCCCCCCC(=O)[O-]
REMARK SMILES IDX 16 1 17 2 18 3 19 4 20 5 21 6 22 7 23 8 24 9 25 10 26 11
REMARK SMILES IDX 27 12 28 13 29 14 30 15 31 16 32 17 15 18 14 19 13 20 12 21
REMARK SMILES IDX 11 22 10 23 9 24 8 25 7 26 6 27 5 28 4 29 3 30 2 31 1 32
REMARK H PARENT
REMARK Flexibility Score: inf
ROOT
ATOM      1  C   UNL     1      -6.406  -8.735  16.098  1.00  0.00     0.000 C 
ENDROOT
BRANCH   1   2
ATOM      2  C   UNL     1      -7.642  -8.568  16.995  1.00  0.00     0.000 C 
BRANCH   2   3
ATOM      3  C   UNL     1      -8.921  -8.956  16.240  1.00  0.00     0.000 C 
BRANCH   3   4
ATOM      4  C   UNL     1      -9.892  -9.728  17.147  1.00  0.00     0.000 C 
BRANCH   4   5
ATOM      5  C   UNL     1     -11.301  -9.842  16.542  1.00  0.00     0.000 C 
BRANCH   5   6
ATOM      6  C   UNL     1     -12.069 -11.074  17.057  1.00  0.00     0.000 C 
BRANCH   6   7
ATOM      7  C   UNL     1     -11.426 -11.685  18.311  1.00  0.00     0.000 C 
BRANCH   7   8
ATOM      8  C   UNL     1     -11.128 -13.184  18.158  1.00  0.00     0.000 C 
BRANCH   8   9
ATOM      9  C   UNL     1     -11.501 -13.951  19.434  1.00  0.00     0.000 C 
BRANCH   9  10
ATOM     10  C   UNL     1     -12.366 -13.123  20.402  1.00  0.00     0.000 C 
BRANCH  10  11
ATOM     11  C   UNL     1     -12.728 -13.833  21.721  1.00  0.00     0.000 C 
BRANCH  11  12
ATOM     12  C   UNL     1     -14.066 -14.593  21.645  1.00  0.00     0.000 C 
BRANCH  12  13
ATOM     13  C   UNL     1     -13.907 -16.103  21.916  1.00  0.00     0.006 C 
BRANCH  13  14
ATOM     14  C   UNL     1     -14.481 -16.995  20.803  1.00  0.00     0.053 C 
BRANCH  14  15
ATOM     15  C   UNL     1     -14.239 -16.436  19.437  1.00  0.00     0.041 C 
ATOM     16  O   UNL     1     -14.931 -15.474  19.014  1.00  0.00    -0.550 OA
ATOM     17  O   UNL     1     -13.254 -16.983  18.625  1.00  0.00    -0.550 OA
ENDBRANCH  14  15
ENDBRANCH  13  14
ENDBRANCH  12  13
ENDBRANCH  11  12
ENDBRANCH  10  11
ENDBRANCH   9  10
ENDBRANCH   8   9
ENDBRANCH   7   8
ENDBRANCH   6   7
ENDBRANCH   5   6
ENDBRANCH   4   5
ENDBRANCH   3   4
ENDBRANCH   2   3
ENDBRANCH   1   2
BRANCH   1  18
ATOM     18  C   UNL     1      -5.099  -8.852  16.906  1.00  0.00     0.000 C 
BRANCH  18  19
ATOM     19  C   UNL     1      -3.833  -8.474  16.106  1.00  0.00     0.000 C 
BRANCH  19  20
ATOM     20  C   UNL     1      -3.407  -7.007  16.300  1.00  0.00     0.000 C 
BRANCH  20  21
ATOM     21  C   UNL     1      -1.906  -6.863  16.632  1.00  0.00     0.000 C 
BRANCH  21  22
ATOM     22  C   UNL     1      -1.012  -7.148  15.414  1.00  0.00     0.000 C 
BRANCH  22  23
ATOM     23  C   UNL     1       0.456  -6.774  15.688  1.00  0.00     0.000 C 
BRANCH  23  24
ATOM     24  C   UNL     1       1.378  -7.042  14.485  1.00  0.00    -0.000 C 
BRANCH  24  25
ATOM     25  C   UNL     1       2.735  -6.310  14.531  1.00  0.00    -0.000 C 
BRANCH  25  26
ATOM     26  C   UNL     1       3.260  -5.814  13.169  1.00  0.00    -0.000 C 
BRANCH  26  27
ATOM     27  C   UNL     1       4.185  -4.584  13.238  1.00  0.00    -0.000 C 
BRANCH  27  28
ATOM     28  C   UNL     1       4.827  -4.244  11.885  1.00  0.00    -0.000 C 
BRANCH  28  29
ATOM     29  C   UNL     1       4.027  -3.156  11.157  1.00  0.00    -0.000 C 
BRANCH  29  30
ATOM     30  C   UNL     1       3.924  -3.465   9.656  1.00  0.00    -0.000 C 
BRANCH  30  31
ATOM     31  C   UNL     1       4.683  -2.446   8.789  1.00  0.00    -0.003 C 
ATOM     32  C   UNL     1       4.497  -1.008   9.266  1.00  0.00     0.004 C 
ENDBRANCH  30  31
ENDBRANCH  29  30
ENDBRANCH  28  29
ENDBRANCH  27  28
ENDBRANCH  26  27
ENDBRANCH  25  26
ENDBRANCH  24  25
ENDBRANCH  23  24
ENDBRANCH  22  23
ENDBRANCH  21  22
ENDBRANCH  20  21
ENDBRANCH  19  20
ENDBRANCH  18  19
ENDBRANCH   1  18
TORSDOF 28
ENDMDL
MODEL 7
REMARK VINA RESULT:     5.175      6.104     18.500
REMARK INTER + INTRA:          12.040
REMARK INTER:                  13.128
REMARK INTRA:                  -1.088
REMARK UNBOUND:                -1.605
REMARK SMILES CCCCCCCCCCCCCCCCCCCCCCCCCCCCCC(=O)[O-]
REMARK SMILES IDX 16 1 17 2 18 3 19 4 20 5 21 6 22 7 23 8 24 9 25 10 26 11
REMARK SMILES IDX 27 12 28 13 29 14 30 15 31 16 32 17 15 18 14 19 13 20 12 21
REMARK SMILES IDX 11 22 10 23 9 24 8 25 7 26 6 27 5 28 4 29 3 30 2 31 1 32
REMARK H PARENT
REMARK Flexibility Score: inf
ROOT
ATOM      1  C   UNL     1      -1.204  -6.881  16.519  1.00  0.00     0.000 C 
ENDROOT
BRANCH   1   2
ATOM      2  C   UNL     1      -2.234  -7.744  15.774  1.00  0.00     0.000 C 
BRANCH   2   3
ATOM      3  C   UNL     1      -3.664  -7.354  16.174  1.00  0.00     0.000 C 
BRANCH   3   4
ATOM      4  C   UNL     1      -4.607  -8.566  16.126  1.00  0.00     0.000 C 
BRANCH   4   5
ATOM      5  C   UNL     1      -6.000  -8.254  16.696  1.00  0.00     0.000 C 
BRANCH   5   6
ATOM      6  C   UNL     1      -7.113  -9.084  16.030  1.00  0.00     0.000 C 
BRANCH   6   7
ATOM      7  C   UNL     1      -8.507  -8.748  16.582  1.00  0.00     0.000 C 
BRANCH   7   8
ATOM      8  C   UNL     1      -9.574  -9.772  16.170  1.00  0.00     0.000 C 
BRANCH   8   9
ATOM      9  C   UNL     1     -10.866  -9.571  16.974  1.00  0.00     0.000 C 
BRANCH   9  10
ATOM     10  C   UNL     1     -11.634 -10.884  17.219  1.00  0.00     0.000 C 
BRANCH  10  11
ATOM     11  C   UNL     1     -11.041 -11.789  18.316  1.00  0.00     0.000 C 
BRANCH  11  12
ATOM     12  C   UNL     1     -11.684 -13.190  18.349  1.00  0.00     0.000 C 
BRANCH  12  13
ATOM     13  C   UNL     1     -12.062 -13.636  19.776  1.00  0.00     0.006 C 
BRANCH  13  14
ATOM     14  C   UNL     1     -13.416 -13.088  20.257  1.00  0.00     0.053 C 
BRANCH  14  15
ATOM     15  C   UNL     1     -14.370 -12.846  19.131  1.00  0.00     0.041 C 
ATOM     16  O   UNL     1     -14.752 -11.678  18.863  1.00  0.00    -0.550 OA
ATOM     17  O   UNL     1     -14.848 -13.914  18.382  1.00  0.00    -0.550 OA
ENDBRANCH  14  15
ENDBRANCH  13  14
ENDBRANCH  12  13
ENDBRANCH  11  12
ENDBRANCH  10  11
ENDBRANCH   9  10
ENDBRANCH   8   9
ENDBRANCH   7   8
ENDBRANCH   6   7
ENDBRANCH   5   6
ENDBRANCH   4   5
ENDBRANCH   3   4
ENDBRANCH   2   3
ENDBRANCH   1   2
BRANCH   1  18
ATOM     18  C   UNL     1       0.126  -6.752  15.752  1.00  0.00     0.000 C 
BRANCH  18  19
ATOM     19  C   UNL     1       0.649  -8.086  15.176  1.00  0.00     0.000 C 
BRANCH  19  20
ATOM     20  C   UNL     1       1.867  -7.914  14.250  1.00  0.00     0.000 C 
BRANCH  20  21
ATOM     21  C   UNL     1       2.124  -6.438  13.876  1.00  0.00     0.000 C 
BRANCH  21  22
ATOM     22  C   UNL     1       3.427  -5.902  14.490  1.00  0.00     0.000 C 
BRANCH  22  23
ATOM     23  C   UNL     1       4.177  -4.979  13.512  1.00  0.00     0.000 C 
BRANCH  23  24
ATOM     24  C   UNL     1       3.601  -5.021  12.086  1.00  0.00    -0.000 C 
BRANCH  24  25
ATOM     25  C   UNL     1       4.647  -4.900  10.959  1.00  0.00    -0.000 C 
BRANCH  25  26
ATOM     26  C   UNL     1       5.047  -3.459  10.585  1.00  0.00    -0.000 C 
BRANCH  26  27
ATOM     27  C   UNL     1       4.032  -2.713   9.698  1.00  0.00    -0.000 C 
BRANCH  27  28
ATOM     28  C   UNL     1       4.693  -1.981   8.520  1.00  0.00    -0.000 C 
BRANCH  28  29
ATOM     29  C   UNL     1       4.735  -0.468   8.769  1.00  0.00    -0.000 C 
BRANCH  29  30
ATOM     30  C   UNL     1       4.671  -0.159  10.273  1.00  0.00    -0.000 C 
BRANCH  30  31
ATOM     31  C   UNL     1       4.033   1.208  10.570  1.00  0.00    -0.003 C 
ATOM     32  C   UNL     1       3.192   1.735   9.409  1.00  0.00     0.004 C 
ENDBRANCH  30  31
ENDBRANCH  29  30
ENDBRANCH  28  29
ENDBRANCH  27  28
ENDBRANCH  26  27
ENDBRANCH  25  26
ENDBRANCH  24  25
ENDBRANCH  23  24
ENDBRANCH  22  23
ENDBRANCH  21  22
ENDBRANCH  20  21
ENDBRANCH  19  20
ENDBRANCH  18  19
ENDBRANCH   1  18
TORSDOF 28
ENDMDL
MODEL 8
REMARK VINA RESULT:     5.202      6.441     18.696
REMARK INTER + INTRA:          12.113
REMARK INTER:                  13.177
REMARK INTRA:                  -1.065
REMARK UNBOUND:                -1.605
REMARK SMILES CCCCCCCCCCCCCCCCCCCCCCCCCCCCCC(=O)[O-]
REMARK SMILES IDX 16 1 17 2 18 3 19 4 20 5 21 6 22 7 23 8 24 9 25 10 26 11
REMARK SMILES IDX 27 12 28 13 29 14 30 15 31 16 32 17 15 18 14 19 13 20 12 21
REMARK SMILES IDX 11 22 10 23 9 24 8 25 7 26 6 27 5 28 4 29 3 30 2 31 1 32
REMARK H PARENT
REMARK Flexibility Score: inf
ROOT
ATOM      1  C   UNL     1      -3.173  -7.917  16.131  1.00  0.00     0.000 C 
ENDROOT
BRANCH   1   2
ATOM      2  C   UNL     1      -4.678  -7.610  16.087  1.00  0.00     0.000 C 
BRANCH   2   3
ATOM      3  C   UNL     1      -5.498  -8.837  16.508  1.00  0.00     0.000 C 
BRANCH   3   4
ATOM      4  C   UNL     1      -7.004  -8.585  16.341  1.00  0.00     0.000 C 
BRANCH   4   5
ATOM      5  C   UNL     1      -7.726  -8.402  17.686  1.00  0.00     0.000 C 
BRANCH   5   6
ATOM      6  C   UNL     1      -9.254  -8.551  17.565  1.00  0.00     0.000 C 
BRANCH   6   7
ATOM      7  C   UNL     1      -9.660  -9.798  16.764  1.00  0.00     0.000 C 
BRANCH   7   8
ATOM      8  C   UNL     1     -11.167 -10.087  16.836  1.00  0.00     0.000 C 
BRANCH   8   9
ATOM      9  C   UNL     1     -11.476 -11.118  17.930  1.00  0.00     0.000 C 
BRANCH   9  10
ATOM     10  C   UNL     1     -12.678 -12.018  17.588  1.00  0.00     0.000 C 
BRANCH  10  11
ATOM     11  C   UNL     1     -13.839 -11.966  18.599  1.00  0.00     0.000 C 
BRANCH  11  12
ATOM     12  C   UNL     1     -13.500 -12.654  19.936  1.00  0.00     0.000 C 
BRANCH  12  13
ATOM     13  C   UNL     1     -12.906 -14.064  19.744  1.00  0.00     0.006 C 
BRANCH  13  14
ATOM     14  C   UNL     1     -13.642 -15.158  20.536  1.00  0.00     0.053 C 
BRANCH  14  15
ATOM     15  C   UNL     1     -13.555 -16.499  19.879  1.00  0.00     0.041 C 
ATOM     16  O   UNL     1     -13.204 -16.593  18.674  1.00  0.00    -0.550 OA
ATOM     17  O   UNL     1     -13.872 -17.646  20.594  1.00  0.00    -0.550 OA
ENDBRANCH  14  15
ENDBRANCH  13  14
ENDBRANCH  12  13
ENDBRANCH  11  12
ENDBRANCH  10  11
ENDBRANCH   9  10
ENDBRANCH   8   9
ENDBRANCH   7   8
ENDBRANCH   6   7
ENDBRANCH   5   6
ENDBRANCH   4   5
ENDBRANCH   3   4
ENDBRANCH   2   3
ENDBRANCH   1   2
BRANCH   1  18
ATOM     18  C   UNL     1      -2.326  -6.683  16.496  1.00  0.00     0.000 C 
BRANCH  18  19
ATOM     19  C   UNL     1      -0.804  -6.899  16.341  1.00  0.00     0.000 C 
BRANCH  19  20
ATOM     20  C   UNL     1      -0.438  -7.816  15.159  1.00  0.00     0.000 C 
BRANCH  20  21
ATOM     21  C   UNL     1       1.086  -7.909  14.930  1.00  0.00     0.000 C 
BRANCH  21  22
ATOM     22  C   UNL     1       1.742  -6.524  14.818  1.00  0.00     0.000 C 
BRANCH  22  23
ATOM     23  C   UNL     1       2.874  -6.515  13.775  1.00  0.00     0.000 C 
BRANCH  23  24
ATOM     24  C   UNL     1       3.378  -5.098  13.448  1.00  0.00    -0.000 C 
BRANCH  24  25
ATOM     25  C   UNL     1       4.333  -5.012  12.240  1.00  0.00    -0.000 C 
BRANCH  25  26
ATOM     26  C   UNL     1       4.854  -3.597  11.915  1.00  0.00    -0.000 C 
BRANCH  26  27
ATOM     27  C   UNL     1       3.764  -2.515  11.794  1.00  0.00    -0.000 C 
BRANCH  27  28
ATOM     28  C   UNL     1       4.052  -1.500  10.678  1.00  0.00    -0.000 C 
BRANCH  28  29
ATOM     29  C   UNL     1       4.903  -0.337  11.202  1.00  0.00    -0.000 C 
BRANCH  29  30
ATOM     30  C   UNL     1       4.106   0.976  11.182  1.00  0.00    -0.000 C 
BRANCH  30  31
ATOM     31  C   UNL     1       3.849   1.492   9.757  1.00  0.00    -0.003 C 
ATOM     32  C   UNL     1       5.109   1.503   8.894  1.00  0.00     0.004 C 
ENDBRANCH  30  31
ENDBRANCH  29  30
ENDBRANCH  28  29
ENDBRANCH  27  28
ENDBRANCH  26  27
ENDBRANCH  25  26
ENDBRANCH  24  25
ENDBRANCH  23  24
ENDBRANCH  22  23
ENDBRANCH  21  22
ENDBRANCH  20  21
ENDBRANCH  19  20
ENDBRANCH  18  19
ENDBRANCH   1  18
TORSDOF 28
ENDMDL
MODEL 9
REMARK VINA RESULT:     5.730      1.248      2.752
REMARK INTER + INTRA:          13.504
REMARK INTER:                  14.880
REMARK INTRA:                  -1.376
REMARK UNBOUND:                -1.605
REMARK SMILES CCCCCCCCCCCCCCCCCCCCCCCCCCCCCC(=O)[O-]
REMARK SMILES IDX 16 1 17 2 18 3 19 4 20 5 21 6 22 7 23 8 24 9 25 10 26 11
REMARK SMILES IDX 27 12 28 13 29 14 30 15 31 16 32 17 15 18 14 19 13 20 12 21
REMARK SMILES IDX 11 22 10 23 9 24 8 25 7 26 6 27 5 28 4 29 3 30 2 31 1 32
REMARK H PARENT
REMARK Flexibility Score: inf
ROOT
ATOM      1  C   UNL     1      -9.779  -9.187  17.132  1.00  0.00     0.000 C 
ENDROOT
BRANCH   1   2
ATOM      2  C   UNL     1      -8.689  -9.244  16.051  1.00  0.00     0.000 C 
BRANCH   2   3
ATOM      3  C   UNL     1      -7.619  -8.172  16.299  1.00  0.00     0.000 C 
BRANCH   3   4
ATOM      4  C   UNL     1      -6.406  -8.755  17.041  1.00  0.00     0.000 C 
BRANCH   4   5
ATOM      5  C   UNL     1      -5.154  -8.838  16.152  1.00  0.00     0.000 C 
BRANCH   5   6
ATOM      6  C   UNL     1      -4.091  -7.789  16.526  1.00  0.00     0.000 C 
BRANCH   6   7
ATOM      7  C   UNL     1      -2.727  -8.078  15.879  1.00  0.00     0.000 C 
BRANCH   7   8
ATOM      8  C   UNL     1      -1.664  -7.028  16.235  1.00  0.00     0.000 C 
BRANCH   8   9
ATOM      9  C   UNL     1      -0.565  -6.977  15.165  1.00  0.00     0.000 C 
BRANCH   9  10
ATOM     10  C   UNL     1       0.461  -8.117  15.299  1.00  0.00     0.000 C 
BRANCH  10  11
ATOM     11  C   UNL     1       1.773  -7.908  14.519  1.00  0.00     0.000 C 
BRANCH  11  12
ATOM     12  C   UNL     1       2.043  -6.427  14.187  1.00  0.00     0.000 C 
BRANCH  12  13
ATOM     13  C   UNL     1       3.360  -6.224  13.410  1.00  0.00     0.006 C 
BRANCH  13  14
ATOM     14  C   UNL     1       4.026  -4.862  13.667  1.00  0.00     0.053 C 
BRANCH  14  15
ATOM     15  C   UNL     1       3.981  -3.965  12.471  1.00  0.00     0.041 C 
ATOM     16  O   UNL     1       4.952  -3.210  12.208  1.00  0.00    -0.550 OA
ATOM     17  O   UNL     1       2.860  -3.954  11.651  1.00  0.00    -0.550 OA
ENDBRANCH  14  15
ENDBRANCH  13  14
ENDBRANCH  12  13
ENDBRANCH  11  12
ENDBRANCH  10  11
ENDBRANCH   9  10
ENDBRANCH   8   9
ENDBRANCH   7   8
ENDBRANCH   6   7
ENDBRANCH   5   6
ENDBRANCH   4   5
ENDBRANCH   3   4
ENDBRANCH   2   3
ENDBRANCH   1   2
BRANCH   1  18
ATOM     18  C   UNL     1     -10.989 -10.082  16.801  1.00  0.00     0.000 C 
BRANCH  18  19
ATOM     19  C   UNL     1     -11.201 -11.243  17.798  1.00  0.00     0.000 C 
BRANCH  19  20
ATOM     20  C   UNL     1     -12.685 -11.573  18.041  1.00  0.00     0.000 C 
BRANCH  20  21
ATOM     21  C   UNL     1     -12.955 -13.092  18.092  1.00  0.00     0.000 C 
BRANCH  21  22
ATOM     22  C   UNL     1     -13.203 -13.590  19.525  1.00  0.00     0.000 C 
BRANCH  22  23
ATOM     23  C   UNL     1     -14.150 -14.804  19.548  1.00  0.00     0.000 C 
BRANCH  23  24
ATOM     24  C   UNL     1     -13.518 -16.045  20.203  1.00  0.00    -0.000 C 
BRANCH  24  25
ATOM     25  C   UNL     1     -14.512 -17.172  20.552  1.00  0.00    -0.000 C 
BRANCH  25  26
ATOM     26  C   UNL     1     -14.526 -17.599  22.033  1.00  0.00    -0.000 C 
BRANCH  26  27
ATOM     27  C   UNL     1     -13.940 -16.566  23.014  1.00  0.00    -0.000 C 
BRANCH  27  28
ATOM     28  C   UNL     1     -14.880 -16.256  24.188  1.00  0.00    -0.000 C 
BRANCH  28  29
ATOM     29  C   UNL     1     -14.987 -14.743  24.419  1.00  0.00    -0.000 C 
BRANCH  29  30
ATOM     30  C   UNL     1     -13.661 -14.044  24.085  1.00  0.00    -0.000 C 
BRANCH  30  31
ATOM     31  C   UNL     1     -13.732 -13.231  22.782  1.00  0.00    -0.003 C 
ATOM     32  C   UNL     1     -15.122 -12.655  22.517  1.00  0.00     0.004 C 
ENDBRANCH  30  31
ENDBRANCH  29  30
ENDBRANCH  28  29
ENDBRANCH  27  28
ENDBRANCH  26  27
ENDBRANCH  25  26
ENDBRANCH  24  25
ENDBRANCH  23  24
ENDBRANCH  22  23
ENDBRANCH  21  22
ENDBRANCH  20  21
ENDBRANCH  19  20
ENDBRANCH  18  19
ENDBRANCH   1  18
TORSDOF 28
ENDMDL
