MODEL 1
REMARK VINA RESULT:    -4.504      0.000      0.000
REMARK INTER + INTRA:          -7.802
REMARK INTER:                  -6.873
REMARK INTRA:                  -0.929
REMARK UNBOUND:                -0.929
REMARK SMILES O=C([O-])CCCCCCCCC(=O)[O-]
REMARK SMILES IDX 7 1 6 2 5 3 4 4 2 5 1 6 3 7 8 8 9 9 10 10 11 11 12 12 13 13
REMARK SMILES IDX 14 14
REMARK H PARENT
REMARK Flexibility Score: inf
ROOT
ATOM      1  C   UNL     1      -2.630   8.902  20.618  1.00  0.00     0.000 C 
ENDROOT
BRANCH   1   2
ATOM      2  C   UNL     1      -3.721   9.781  21.253  1.00  0.00     0.000 C 
BRANCH   2   3
ATOM      3  C   UNL     1      -3.253  11.223  21.498  1.00  0.00     0.006 C 
BRANCH   3   4
ATOM      4  C   UNL     1      -4.094  11.892  22.591  1.00  0.00     0.053 C 
BRANCH   4   5
ATOM      5  C   UNL     1      -3.517  11.613  23.941  1.00  0.00     0.041 C 
ATOM      6  O   UNL     1      -2.356  12.005  24.228  1.00  0.00    -0.550 OA
ATOM      7  O   UNL     1      -4.281  10.962  24.903  1.00  0.00    -0.550 OA
ENDBRANCH   4   5
ENDBRANCH   3   4
ENDBRANCH   2   3
ENDBRANCH   1   2
BRANCH   1   8
ATOM      8  C   UNL     1      -1.722   8.239  21.667  1.00  0.00     0.000 C 
BRANCH   8   9
ATOM      9  C   UNL     1      -2.415   8.079  23.031  1.00  0.00     0.000 C 
BRANCH   9  10
ATOM     10  C   UNL     1      -1.492   8.424  24.209  1.00  0.00     0.006 C 
BRANCH  10  11
ATOM     11  C   UNL     1      -0.256   9.193  23.729  1.00  0.00     0.053 C 
BRANCH  11  12
ATOM     12  C   UNL     1       0.547   9.674  24.895  1.00  0.00     0.041 C 
ATOM     13  O   UNL     1       1.744   9.309  25.034  1.00  0.00    -0.550 OA
ATOM     14  O   UNL     1      -0.041  10.487  25.856  1.00  0.00    -0.550 OA
ENDBRANCH  11  12
ENDBRANCH  10  11
ENDBRANCH   9  10
ENDBRANCH   8   9
ENDBRANCH   1   8
TORSDOF 9
ENDMDL
MODEL 2
REMARK VINA RESULT:    -4.266      1.502      2.623
REMARK INTER + INTRA:          -7.439
REMARK INTER:                  -6.555
REMARK INTRA:                  -0.884
REMARK UNBOUND:                -0.929
REMARK SMILES O=C([O-])CCCCCCCCC(=O)[O-]
REMARK SMILES IDX 7 1 6 2 5 3 4 4 2 5 1 6 3 7 8 8 9 9 10 10 11 11 12 12 13 13
REMARK SMILES IDX 14 14
REMARK H PARENT
REMARK Flexibility Score: inf
ROOT
ATOM      1  C   UNL     1      -3.251  11.329  21.503  1.00  0.00     0.000 C 
ENDROOT
BRANCH   1   2
ATOM      2  C   UNL     1      -3.790  12.108  22.715  1.00  0.00     0.000 C 
BRANCH   2   3
ATOM      3  C   UNL     1      -3.461  11.427  24.052  1.00  0.00     0.006 C 
BRANCH   3   4
ATOM      4  C   UNL     1      -2.255  12.094  24.722  1.00  0.00     0.053 C 
BRANCH   4   5
ATOM      5  C   UNL     1      -2.223  11.773  26.182  1.00  0.00     0.041 C 
ATOM      6  O   UNL     1      -1.148  11.412  26.729  1.00  0.00    -0.550 OA
ATOM      7  O   UNL     1      -3.371  11.921  26.952  1.00  0.00    -0.550 OA
ENDBRANCH   4   5
ENDBRANCH   3   4
ENDBRANCH   2   3
ENDBRANCH   1   2
BRANCH   1   8
ATOM      8  C   UNL     1      -3.850   9.917  21.395  1.00  0.00     0.000 C 
BRANCH   8   9
ATOM      9  C   UNL     1      -2.945   8.949  20.614  1.00  0.00     0.000 C 
BRANCH   9  10
ATOM     10  C   UNL     1      -1.784   8.409  21.460  1.00  0.00     0.006 C 
BRANCH  10  11
ATOM     11  C   UNL     1      -2.252   8.069  22.879  1.00  0.00     0.053 C 
BRANCH  11  12
ATOM     12  C   UNL     1      -1.284   8.595  23.891  1.00  0.00     0.041 C 
ATOM     13  O   UNL     1      -0.213   9.142  23.519  1.00  0.00    -0.550 OA
ATOM     14  O   UNL     1      -1.542   8.438  25.247  1.00  0.00    -0.550 OA
ENDBRANCH  11  12
ENDBRANCH  10  11
ENDBRANCH   9  10
ENDBRANCH   8   9
ENDBRANCH   1   8
TORSDOF 9
ENDMDL
MODEL 3
REMARK VINA RESULT:    -4.261      1.470      4.306
REMARK INTER + INTRA:          -7.432
REMARK INTER:                  -6.677
REMARK INTRA:                  -0.755
REMARK UNBOUND:                -0.929
REMARK SMILES O=C([O-])CCCCCCCCC(=O)[O-]
REMARK SMILES IDX 7 1 6 2 5 3 4 4 2 5 1 6 3 7 8 8 9 9 10 10 11 11 12 12 13 13
REMARK SMILES IDX 14 14
REMARK H PARENT
REMARK Flexibility Score: inf
ROOT
ATOM      1  C   UNL     1      -0.792   8.980  23.302  1.00  0.00     0.000 C 
ENDROOT
BRANCH   1   2
ATOM      2  C   UNL     1      -1.527   8.631  24.607  1.00  0.00     0.000 C 
BRANCH   2   3
ATOM      3  C   UNL     1      -0.760   9.082  25.859  1.00  0.00     0.006 C 
BRANCH   3   4
ATOM      4  C   UNL     1       0.297  10.133  25.504  1.00  0.00     0.053 C 
BRANCH   4   5
ATOM      5  C   UNL     1      -0.055  11.455  26.107  1.00  0.00     0.041 C 
ATOM      6  O   UNL     1       0.834  12.329  26.283  1.00  0.00    -0.550 OA
ATOM      7  O   UNL     1      -1.376  11.743  26.431  1.00  0.00    -0.550 OA
ENDBRANCH   4   5
ENDBRANCH   3   4
ENDBRANCH   2   3
ENDBRANCH   1   2
BRANCH   1   8
ATOM      8  C   UNL     1      -1.619   8.644  22.050  1.00  0.00     0.000 C 
BRANCH   8   9
ATOM      9  C   UNL     1      -3.106   8.413  22.368  1.00  0.00     0.000 C 
BRANCH   9  10
ATOM     10  C   UNL     1      -4.020   9.465  21.726  1.00  0.00     0.006 C 
BRANCH  10  11
ATOM     11  C   UNL     1      -3.240  10.744  21.401  1.00  0.00     0.053 C 
BRANCH  11  12
ATOM     12  C   UNL     1      -3.536  11.809  22.409  1.00  0.00     0.041 C 
ATOM     13  O   UNL     1      -2.857  11.888  23.466  1.00  0.00    -0.550 OA
ATOM     14  O   UNL     1      -4.594  12.686  22.202  1.00  0.00    -0.550 OA
ENDBRANCH  11  12
ENDBRANCH  10  11
ENDBRANCH   9  10
ENDBRANCH   8   9
ENDBRANCH   1   8
TORSDOF 9
ENDMDL
MODEL 4
REMARK VINA RESULT:    -4.244      2.321      3.605
REMARK INTER + INTRA:          -7.406
REMARK INTER:                  -6.560
REMARK INTRA:                  -0.846
REMARK UNBOUND:                -0.929
REMARK SMILES O=C([O-])CCCCCCCCC(=O)[O-]
REMARK SMILES IDX 7 1 6 2 5 3 4 4 2 5 1 6 3 7 8 8 9 9 10 10 11 11 12 12 13 13
REMARK SMILES IDX 14 14
REMARK H PARENT
REMARK Flexibility Score: inf
ROOT
ATOM      1  C   UNL     1      -3.249   9.797  25.632  1.00  0.00     0.000 C 
ENDROOT
BRANCH   1   2
ATOM      2  C   UNL     1      -4.413   8.911  25.155  1.00  0.00     0.000 C 
BRANCH   2   3
ATOM      3  C   UNL     1      -4.401   8.683  23.636  1.00  0.00     0.006 C 
BRANCH   3   4
ATOM      4  C   UNL     1      -3.093   8.019  23.193  1.00  0.00     0.053 C 
BRANCH   4   5
ATOM      5  C   UNL     1      -2.434   8.823  22.119  1.00  0.00     0.041 C 
ATOM      6  O   UNL     1      -2.669  10.055  22.015  1.00  0.00    -0.550 OA
ATOM      7  O   UNL     1      -1.522   8.221  21.261  1.00  0.00    -0.550 OA
ENDBRANCH   4   5
ENDBRANCH   3   4
ENDBRANCH   2   3
ENDBRANCH   1   2
BRANCH   1   8
ATOM      8  C   UNL     1      -2.358   9.093  26.669  1.00  0.00     0.000 C 
BRANCH   8   9
ATOM      9  C   UNL     1      -0.916   8.895  26.171  1.00  0.00     0.000 C 
BRANCH   9  10
ATOM     10  C   UNL     1      -0.546   9.851  25.028  1.00  0.00     0.006 C 
BRANCH  10  11
ATOM     11  C   UNL     1       0.837   9.515  24.461  1.00  0.00     0.053 C 
BRANCH  11  12
ATOM     12  C   UNL     1       1.907   9.872  25.443  1.00  0.00     0.041 C 
ATOM     13  O   UNL     1       2.019  11.055  25.857  1.00  0.00    -0.550 OA
ATOM     14  O   UNL     1       2.812   8.906  25.866  1.00  0.00    -0.550 OA
ENDBRANCH  11  12
ENDBRANCH  10  11
ENDBRANCH   9  10
ENDBRANCH   8   9
ENDBRANCH   1   8
TORSDOF 9
ENDMDL
MODEL 5
REMARK VINA RESULT:    -4.180      1.879      3.194
REMARK INTER + INTRA:          -7.308
REMARK INTER:                  -6.267
REMARK INTRA:                  -1.041
REMARK UNBOUND:                -0.929
REMARK SMILES O=C([O-])CCCCCCCCC(=O)[O-]
REMARK SMILES IDX 7 1 6 2 5 3 4 4 2 5 1 6 3 7 8 8 9 9 10 10 11 11 12 12 13 13
REMARK SMILES IDX 14 14
REMARK H PARENT
REMARK Flexibility Score: inf
ROOT
ATOM      1  C   UNL     1      -3.691  11.960  22.656  1.00  0.00     0.000 C 
ENDROOT
BRANCH   1   2
ATOM      2  C   UNL     1      -3.291  11.263  21.344  1.00  0.00     0.000 C 
BRANCH   2   3
ATOM      3  C   UNL     1      -3.779   9.808  21.274  1.00  0.00     0.006 C 
BRANCH   3   4
ATOM      4  C   UNL     1      -2.610   8.852  21.008  1.00  0.00     0.053 C 
BRANCH   4   5
ATOM      5  C   UNL     1      -1.947   8.465  22.291  1.00  0.00     0.041 C 
ATOM      6  O   UNL     1      -0.757   8.808  22.517  1.00  0.00    -0.550 OA
ATOM      7  O   UNL     1      -2.659   7.768  23.259  1.00  0.00    -0.550 OA
ENDBRANCH   4   5
ENDBRANCH   3   4
ENDBRANCH   2   3
ENDBRANCH   1   2
BRANCH   1   8
ATOM      8  C   UNL     1      -4.403  11.012  23.636  1.00  0.00     0.000 C 
BRANCH   8   9
ATOM      9  C   UNL     1      -3.589  10.769  24.919  1.00  0.00     0.000 C 
BRANCH   9  10
ATOM     10  C   UNL     1      -2.181  11.378  24.853  1.00  0.00     0.006 C 
BRANCH  10  11
ATOM     11  C   UNL     1      -1.363  11.001  26.093  1.00  0.00     0.053 C 
BRANCH  11  12
ATOM     12  C   UNL     1      -0.553   9.772  25.832  1.00  0.00     0.041 C 
ATOM     13  O   UNL     1      -1.023   8.634  26.098  1.00  0.00    -0.550 OA
ATOM     14  O   UNL     1       0.741   9.884  25.339  1.00  0.00    -0.550 OA
ENDBRANCH  11  12
ENDBRANCH  10  11
ENDBRANCH   9  10
ENDBRANCH   8   9
ENDBRANCH   1   8
TORSDOF 9
ENDMDL
MODEL 6
REMARK VINA RESULT:    -4.159      1.895      3.961
REMARK INTER + INTRA:          -7.276
REMARK INTER:                  -6.254
REMARK INTRA:                  -1.022
REMARK UNBOUND:                -0.929
REMARK SMILES O=C([O-])CCCCCCCCC(=O)[O-]
REMARK SMILES IDX 7 1 6 2 5 3 4 4 2 5 1 6 3 7 8 8 9 9 10 10 11 11 12 12 13 13
REMARK SMILES IDX 14 14
REMARK H PARENT
REMARK Flexibility Score: inf
ROOT
ATOM      1  C   UNL     1      -4.398  10.975  23.611  1.00  0.00     0.000 C 
ENDROOT
BRANCH   1   2
ATOM      2  C   UNL     1      -3.593  10.750  24.901  1.00  0.00     0.000 C 
BRANCH   2   3
ATOM      3  C   UNL     1      -2.220  11.439  24.872  1.00  0.00     0.006 C 
BRANCH   3   4
ATOM      4  C   UNL     1      -1.381  11.040  26.090  1.00  0.00     0.053 C 
BRANCH   4   5
ATOM      5  C   UNL     1      -0.588   9.807  25.799  1.00  0.00     0.041 C 
ATOM      6  O   UNL     1       0.566   9.898  25.303  1.00  0.00    -0.550 OA
ATOM      7  O   UNL     1      -1.102   8.556  26.120  1.00  0.00    -0.550 OA
ENDBRANCH   4   5
ENDBRANCH   3   4
ENDBRANCH   2   3
ENDBRANCH   1   2
BRANCH   1   8
ATOM      8  C   UNL     1      -3.691  11.926  22.631  1.00  0.00     0.000 C 
BRANCH   8   9
ATOM      9  C   UNL     1      -3.279  11.229  21.324  1.00  0.00     0.000 C 
BRANCH   9  10
ATOM     10  C   UNL     1      -3.772   9.777  21.245  1.00  0.00     0.006 C 
BRANCH  10  11
ATOM     11  C   UNL     1      -2.604   8.816  20.994  1.00  0.00     0.053 C 
BRANCH  11  12
ATOM     12  C   UNL     1      -1.934   8.458  22.282  1.00  0.00     0.041 C 
ATOM     13  O   UNL     1      -0.730   8.770  22.478  1.00  0.00    -0.550 OA
ATOM     14  O   UNL     1      -2.624   7.737  23.248  1.00  0.00    -0.550 OA
ENDBRANCH  11  12
ENDBRANCH  10  11
ENDBRANCH   9  10
ENDBRANCH   8   9
ENDBRANCH   1   8
TORSDOF 9
ENDMDL
MODEL 7
REMARK VINA RESULT:    -4.147      1.943      4.847
REMARK INTER + INTRA:          -7.258
REMARK INTER:                  -6.456
REMARK INTRA:                  -0.802
REMARK UNBOUND:                -0.929
REMARK SMILES O=C([O-])CCCCCCCCC(=O)[O-]
REMARK SMILES IDX 7 1 6 2 5 3 4 4 2 5 1 6 3 7 8 8 9 9 10 10 11 11 12 12 13 13
REMARK SMILES IDX 14 14
REMARK H PARENT
REMARK Flexibility Score: inf
ROOT
ATOM      1  C   UNL     1      -2.058  11.117  24.613  1.00  0.00     0.000 C 
ENDROOT
BRANCH   1   2
ATOM      2  C   UNL     1      -2.271   9.808  25.391  1.00  0.00     0.000 C 
BRANCH   2   3
ATOM      3  C   UNL     1      -0.956   9.067  25.677  1.00  0.00     0.006 C 
BRANCH   3   4
ATOM      4  C   UNL     1       0.122   9.453  24.658  1.00  0.00     0.053 C 
BRANCH   4   5
ATOM      5  C   UNL     1       1.363   9.909  25.355  1.00  0.00     0.041 C 
ATOM      6  O   UNL     1       2.344   9.129  25.477  1.00  0.00    -0.550 OA
ATOM      7  O   UNL     1       1.456  11.212  25.829  1.00  0.00    -0.550 OA
ENDBRANCH   4   5
ENDBRANCH   3   4
ENDBRANCH   2   3
ENDBRANCH   1   2
BRANCH   1   8
ATOM      8  C   UNL     1      -3.297  11.530  23.802  1.00  0.00     0.000 C 
BRANCH   8   9
ATOM      9  C   UNL     1      -3.054  11.475  22.284  1.00  0.00     0.000 C 
BRANCH   9  10
ATOM     10  C   UNL     1      -3.968  10.466  21.573  1.00  0.00     0.006 C 
BRANCH  10  11
ATOM     11  C   UNL     1      -3.143   9.440  20.789  1.00  0.00     0.053 C 
BRANCH  11  12
ATOM     12  C   UNL     1      -2.402   8.538  21.724  1.00  0.00     0.041 C 
ATOM     13  O   UNL     1      -3.002   7.994  22.688  1.00  0.00    -0.550 OA
ATOM     14  O   UNL     1      -1.038   8.335  21.558  1.00  0.00    -0.550 OA
ENDBRANCH  11  12
ENDBRANCH  10  11
ENDBRANCH   9  10
ENDBRANCH   8   9
ENDBRANCH   1   8
TORSDOF 9
ENDMDL
MODEL 8
REMARK VINA RESULT:    -4.110      2.231      3.639
REMARK INTER + INTRA:          -7.201
REMARK INTER:                  -6.327
REMARK INTRA:                  -0.874
REMARK UNBOUND:                -0.929
REMARK SMILES O=C([O-])CCCCCCCCC(=O)[O-]
REMARK SMILES IDX 7 1 6 2 5 3 4 4 2 5 1 6 3 7 8 8 9 9 10 10 11 11 12 12 13 13
REMARK SMILES IDX 14 14
REMARK H PARENT
REMARK Flexibility Score: inf
ROOT
ATOM      1  C   UNL     1      -4.528  11.116  22.102  1.00  0.00     0.000 C 
ENDROOT
BRANCH   1   2
ATOM      2  C   UNL     1      -3.235  10.689  21.386  1.00  0.00     0.000 C 
BRANCH   2   3
ATOM      3  C   UNL     1      -3.310   9.261  20.827  1.00  0.00     0.006 C 
BRANCH   3   4
ATOM      4  C   UNL     1      -2.016   8.492  21.114  1.00  0.00     0.053 C 
BRANCH   4   5
ATOM      5  C   UNL     1      -1.737   8.466  22.582  1.00  0.00     0.041 C 
ATOM      6  O   UNL     1      -0.658   8.935  23.031  1.00  0.00    -0.550 OA
ATOM      7  O   UNL     1      -2.689   7.967  23.463  1.00  0.00    -0.550 OA
ENDBRANCH   4   5
ENDBRANCH   3   4
ENDBRANCH   2   3
ENDBRANCH   1   2
BRANCH   1   8
ATOM      8  C   UNL     1      -4.327  11.325  23.612  1.00  0.00     0.000 C 
BRANCH   8   9
ATOM      9  C   UNL     1      -2.869  11.659  23.973  1.00  0.00     0.000 C 
BRANCH   9  10
ATOM     10  C   UNL     1      -2.445  11.079  25.329  1.00  0.00     0.006 C 
BRANCH  10  11
ATOM     11  C   UNL     1      -1.065  11.601  25.741  1.00  0.00     0.053 C 
BRANCH  11  12
ATOM     12  C   UNL     1      -1.126  13.066  26.038  1.00  0.00     0.041 C 
ATOM     13  O   UNL     1      -0.258  13.846  25.565  1.00  0.00    -0.550 OA
ATOM     14  O   UNL     1      -2.115  13.563  26.878  1.00  0.00    -0.550 OA
ENDBRANCH  11  12
ENDBRANCH  10  11
ENDBRANCH   9  10
ENDBRANCH   8   9
ENDBRANCH   1   8
TORSDOF 9
ENDMDL
MODEL 9
REMARK VINA RESULT:    -4.104      2.384      4.912
REMARK INTER + INTRA:          -7.191
REMARK INTER:                  -6.335
REMARK INTRA:                  -0.856
REMARK UNBOUND:                -0.929
REMARK SMILES O=C([O-])CCCCCCCCC(=O)[O-]
REMARK SMILES IDX 7 1 6 2 5 3 4 4 2 5 1 6 3 7 8 8 9 9 10 10 11 11 12 12 13 13
REMARK SMILES IDX 14 14
REMARK H PARENT
REMARK Flexibility Score: inf
ROOT
ATOM      1  C   UNL     1      -3.557   8.884  24.869  1.00  0.00     0.000 C 
ENDROOT
BRANCH   1   2
ATOM      2  C   UNL     1      -2.937   9.310  26.211  1.00  0.00     0.000 C 
BRANCH   2   3
ATOM      3  C   UNL     1      -1.436   8.994  26.297  1.00  0.00     0.006 C 
BRANCH   3   4
ATOM      4  C   UNL     1      -0.602  10.137  25.708  1.00  0.00     0.053 C 
BRANCH   4   5
ATOM      5  C   UNL     1       0.413   9.604  24.748  1.00  0.00     0.041 C 
ATOM      6  O   UNL     1       1.640   9.661  25.026  1.00  0.00    -0.550 OA
ATOM      7  O   UNL     1       0.003   8.999  23.567  1.00  0.00    -0.550 OA
ENDBRANCH   4   5
ENDBRANCH   3   4
ENDBRANCH   2   3
ENDBRANCH   1   2
BRANCH   1   8
ATOM      8  C   UNL     1      -4.630   9.868  24.375  1.00  0.00     0.000 C 
BRANCH   8   9
ATOM      9  C   UNL     1      -4.025  11.123  23.721  1.00  0.00     0.000 C 
BRANCH   9  10
ATOM     10  C   UNL     1      -2.845  10.798  22.794  1.00  0.00     0.006 C 
BRANCH  10  11
ATOM     11  C   UNL     1      -3.322  10.601  21.351  1.00  0.00     0.053 C 
BRANCH  11  12
ATOM     12  C   UNL     1      -3.272   9.154  20.976  1.00  0.00     0.041 C 
ATOM     13  O   UNL     1      -2.174   8.538  20.968  1.00  0.00    -0.550 OA
ATOM     14  O   UNL     1      -4.433   8.496  20.589  1.00  0.00    -0.550 OA
ENDBRANCH  11  12
ENDBRANCH  10  11
ENDBRANCH   9  10
ENDBRANCH   8   9
ENDBRANCH   1   8
TORSDOF 9
ENDMDL
