MODEL 1
REMARK VINA RESULT:    -4.230      0.000      0.000
REMARK INTER + INTRA:          -4.493
REMARK INTER:                  -4.477
REMARK INTRA:                  -0.016
REMARK UNBOUND:                -0.016
REMARK SMILES O=C([O-])c1cccnc1
REMARK SMILES IDX 4 1 5 2 9 3 6 4 8 5 7 6 2 7 1 8 3 9
REMARK H PARENT
REMARK Flexibility Score: inf
ROOT
ATOM      1  C   UNL     1      25.522  13.100  17.143  1.00  0.00     0.016 A 
ATOM      2  C   UNL     1      25.958  14.125  17.999  1.00  0.00     0.013 A 
ATOM      3  C   UNL     1      25.663  11.768  17.569  1.00  0.00     0.120 A 
ATOM      4  C   UNL     1      26.515  13.812  19.240  1.00  0.00     0.021 A 
ATOM      5  N   UNL     1      26.209  11.491  18.784  1.00  0.00    -0.264 NA
ATOM      6  C   UNL     1      26.635  12.475  19.620  1.00  0.00     0.111 A 
ENDROOT
BRANCH   1   7
ATOM      7  C   UNL     1      24.929  13.410  15.825  1.00  0.00     0.073 C 
ATOM      8  O   UNL     1      23.680  13.373  15.659  1.00  0.00    -0.545 OA
ATOM      9  O   UNL     1      25.742  13.747  14.748  1.00  0.00    -0.545 OA
ENDBRANCH   1   7
TORSDOF 1
ENDMDL
MODEL 2
REMARK VINA RESULT:    -4.125      2.798      3.614
REMARK INTER + INTRA:          -4.382
REMARK INTER:                  -4.358
REMARK INTRA:                  -0.024
REMARK UNBOUND:                -0.016
REMARK SMILES O=C([O-])c1cccnc1
REMARK SMILES IDX 4 1 5 2 9 3 6 4 8 5 7 6 2 7 1 8 3 9
REMARK H PARENT
REMARK Flexibility Score: inf
ROOT
ATOM      1  C   UNL     1      25.749  12.986  17.986  1.00  0.00     0.016 A 
ATOM      2  C   UNL     1      25.028  14.121  17.580  1.00  0.00     0.013 A 
ATOM      3  C   UNL     1      25.716  11.844  17.168  1.00  0.00     0.120 A 
ATOM      4  C   UNL     1      24.302  14.100  16.388  1.00  0.00     0.021 A 
ATOM      5  N   UNL     1      25.000  11.850  16.011  1.00  0.00    -0.264 NA
ATOM      6  C   UNL     1      24.299  12.943  15.608  1.00  0.00     0.111 A 
ENDROOT
BRANCH   1   7
ATOM      7  C   UNL     1      26.525  12.987  19.245  1.00  0.00     0.073 C 
ATOM      8  O   UNL     1      26.543  14.007  19.985  1.00  0.00    -0.545 OA
ATOM      9  O   UNL     1      27.246  11.862  19.630  1.00  0.00    -0.545 OA
ENDBRANCH   1   7
TORSDOF 1
ENDMDL
MODEL 3
REMARK VINA RESULT:    -3.527     16.468     17.243
REMARK INTER + INTRA:          -3.749
REMARK INTER:                  -3.730
REMARK INTRA:                  -0.020
REMARK UNBOUND:                -0.016
REMARK SMILES O=C([O-])c1cccnc1
REMARK SMILES IDX 4 1 5 2 9 3 6 4 8 5 7 6 2 7 1 8 3 9
REMARK H PARENT
REMARK Flexibility Score: inf
ROOT
ATOM      1  C   UNL     1      19.319  -2.207  13.260  1.00  0.00     0.016 A 
ATOM      2  C   UNL     1      20.081  -2.162  14.440  1.00  0.00     0.013 A 
ATOM      3  C   UNL     1      18.302  -3.172  13.158  1.00  0.00     0.120 A 
ATOM      4  C   UNL     1      19.821  -3.060  15.476  1.00  0.00     0.021 A 
ATOM      5  N   UNL     1      18.070  -4.035  14.183  1.00  0.00    -0.264 NA
ATOM      6  C   UNL     1      18.801  -4.000  15.329  1.00  0.00     0.111 A 
ENDROOT
BRANCH   1   7
ATOM      7  C   UNL     1      19.577  -1.265  12.150  1.00  0.00     0.073 C 
ATOM      8  O   UNL     1      19.726  -0.035  12.376  1.00  0.00    -0.545 OA
ATOM      9  O   UNL     1      19.659  -1.725  10.841  1.00  0.00    -0.545 OA
ENDBRANCH   1   7
TORSDOF 1
ENDMDL
MODEL 4
REMARK VINA RESULT:    -3.489     16.922     17.912
REMARK INTER + INTRA:          -3.709
REMARK INTER:                  -3.688
REMARK INTRA:                  -0.021
REMARK UNBOUND:                -0.016
REMARK SMILES O=C([O-])c1cccnc1
REMARK SMILES IDX 4 1 5 2 9 3 6 4 8 5 7 6 2 7 1 8 3 9
REMARK H PARENT
REMARK Flexibility Score: inf
ROOT
ATOM      1  C   UNL     1      19.078  -2.993  14.228  1.00  0.00     0.016 A 
ATOM      2  C   UNL     1      19.917  -1.930  13.853  1.00  0.00     0.013 A 
ATOM      3  C   UNL     1      18.108  -3.434  13.313  1.00  0.00     0.120 A 
ATOM      4  C   UNL     1      19.778  -1.338  12.596  1.00  0.00     0.021 A 
ATOM      5  N   UNL     1      17.994  -2.840  12.094  1.00  0.00    -0.264 NA
ATOM      6  C   UNL     1      18.800  -1.811  11.721  1.00  0.00     0.111 A 
ENDROOT
BRANCH   1   7
ATOM      7  C   UNL     1      19.209  -3.634  15.555  1.00  0.00     0.073 C 
ATOM      8  O   UNL     1      19.003  -4.869  15.692  1.00  0.00    -0.545 OA
ATOM      9  O   UNL     1      19.562  -2.881  16.669  1.00  0.00    -0.545 OA
ENDBRANCH   1   7
TORSDOF 1
ENDMDL
MODEL 5
REMARK VINA RESULT:    -3.260     16.730     17.889
REMARK INTER + INTRA:          -3.467
REMARK INTER:                  -3.448
REMARK INTRA:                  -0.019
REMARK UNBOUND:                -0.016
REMARK SMILES O=C([O-])c1cccnc1
REMARK SMILES IDX 4 1 5 2 9 3 6 4 8 5 7 6 2 7 1 8 3 9
REMARK H PARENT
REMARK Flexibility Score: inf
ROOT
ATOM      1  C   UNL     1      19.301  -2.978  14.551  1.00  0.00     0.016 A 
ATOM      2  C   UNL     1      18.249  -3.658  13.914  1.00  0.00     0.013 A 
ATOM      3  C   UNL     1      19.957  -1.953  13.848  1.00  0.00     0.120 A 
ATOM      4  C   UNL     1      17.875  -3.310  12.615  1.00  0.00     0.021 A 
ATOM      5  N   UNL     1      19.572  -1.634  12.583  1.00  0.00    -0.264 NA
ATOM      6  C   UNL     1      18.556  -2.285  11.957  1.00  0.00     0.111 A 
ENDROOT
BRANCH   1   7
ATOM      7  C   UNL     1      19.712  -3.331  15.927  1.00  0.00     0.073 C 
ATOM      8  O   UNL     1      20.022  -4.516  16.219  1.00  0.00    -0.545 OA
ATOM      9  O   UNL     1      19.763  -2.357  16.918  1.00  0.00    -0.545 OA
ENDBRANCH   1   7
TORSDOF 1
ENDMDL
MODEL 6
REMARK VINA RESULT:    -3.046     16.729     17.738
REMARK INTER + INTRA:          -3.240
REMARK INTER:                  -3.217
REMARK INTRA:                  -0.023
REMARK UNBOUND:                -0.016
REMARK SMILES O=C([O-])c1cccnc1
REMARK SMILES IDX 4 1 5 2 9 3 6 4 8 5 7 6 2 7 1 8 3 9
REMARK H PARENT
REMARK Flexibility Score: inf
ROOT
ATOM      1  C   UNL     1      18.822  -2.765  13.281  1.00  0.00     0.016 A 
ATOM      2  C   UNL     1      18.238  -3.888  13.889  1.00  0.00     0.013 A 
ATOM      3  C   UNL     1      19.787  -2.040  14.002  1.00  0.00     0.120 A 
ATOM      4  C   UNL     1      18.619  -4.264  15.178  1.00  0.00     0.021 A 
ATOM      5  N   UNL     1      20.140  -2.428  15.257  1.00  0.00    -0.264 NA
ATOM      6  C   UNL     1      19.581  -3.514  15.854  1.00  0.00     0.111 A 
ENDROOT
BRANCH   1   7
ATOM      7  C   UNL     1      18.433  -2.350  11.916  1.00  0.00     0.073 C 
ATOM      8  O   UNL     1      17.877  -3.164  11.133  1.00  0.00    -0.545 OA
ATOM      9  O   UNL     1      18.677  -1.052  11.478  1.00  0.00    -0.545 OA
ENDBRANCH   1   7
TORSDOF 1
ENDMDL
MODEL 7
REMARK VINA RESULT:    -3.011     17.374     18.488
REMARK INTER + INTRA:          -3.203
REMARK INTER:                  -3.185
REMARK INTRA:                  -0.018
REMARK UNBOUND:                -0.016
REMARK SMILES O=C([O-])c1cccnc1
REMARK SMILES IDX 4 1 5 2 9 3 6 4 8 5 7 6 2 7 1 8 3 9
REMARK H PARENT
REMARK Flexibility Score: inf
ROOT
ATOM      1  C   UNL     1      19.361  -3.619  15.336  1.00  0.00     0.016 A 
ATOM      2  C   UNL     1      18.742  -3.231  14.136  1.00  0.00     0.013 A 
ATOM      3  C   UNL     1      19.208  -4.947  15.768  1.00  0.00     0.120 A 
ATOM      4  C   UNL     1      17.998  -4.155  13.401  1.00  0.00     0.021 A 
ATOM      5  N   UNL     1      18.478  -5.828  15.033  1.00  0.00    -0.264 NA
ATOM      6  C   UNL     1      17.875  -5.463  13.870  1.00  0.00     0.111 A 
ENDROOT
BRANCH   1   7
ATOM      7  C   UNL     1      20.154  -2.655  16.130  1.00  0.00     0.073 C 
ATOM      8  O   UNL     1      21.162  -2.089  15.629  1.00  0.00    -0.545 OA
ATOM      9  O   UNL     1      19.797  -2.360  17.441  1.00  0.00    -0.545 OA
ENDBRANCH   1   7
TORSDOF 1
ENDMDL
MODEL 8
REMARK VINA RESULT:    -2.981      9.819     10.730
REMARK INTER + INTRA:          -3.172
REMARK INTER:                  -3.155
REMARK INTRA:                  -0.017
REMARK UNBOUND:                -0.016
REMARK SMILES O=C([O-])c1cccnc1
REMARK SMILES IDX 4 1 5 2 9 3 6 4 8 5 7 6 2 7 1 8 3 9
REMARK H PARENT
REMARK Flexibility Score: inf
ROOT
ATOM      1  C   UNL     1      19.513   7.426  11.243  1.00  0.00     0.016 A 
ATOM      2  C   UNL     1      20.878   7.753  11.302  1.00  0.00     0.013 A 
ATOM      3  C   UNL     1      18.627   8.352  10.665  1.00  0.00     0.120 A 
ATOM      4  C   UNL     1      21.329   8.972  10.792  1.00  0.00     0.021 A 
ATOM      5  N   UNL     1      19.093   9.533  10.176  1.00  0.00    -0.264 NA
ATOM      6  C   UNL     1      20.412   9.859  10.228  1.00  0.00     0.111 A 
ENDROOT
BRANCH   1   7
ATOM      7  C   UNL     1      19.014   6.140  11.777  1.00  0.00     0.073 C 
ATOM      8  O   UNL     1      19.030   5.911  13.016  1.00  0.00    -0.545 OA
ATOM      9  O   UNL     1      18.520   5.165  10.918  1.00  0.00    -0.545 OA
ENDBRANCH   1   7
TORSDOF 1
ENDMDL
MODEL 9
REMARK VINA RESULT:    -2.877     10.006     11.095
REMARK INTER + INTRA:          -3.062
REMARK INTER:                  -3.046
REMARK INTRA:                  -0.016
REMARK UNBOUND:                -0.016
REMARK SMILES O=C([O-])c1cccnc1
REMARK SMILES IDX 4 1 5 2 9 3 6 4 8 5 7 6 2 7 1 8 3 9
REMARK H PARENT
REMARK Flexibility Score: inf
ROOT
ATOM      1  C   UNL     1      19.815   7.057  11.018  1.00  0.00     0.016 A 
ATOM      2  C   UNL     1      19.391   6.622  12.285  1.00  0.00     0.013 A 
ATOM      3  C   UNL     1      19.377   6.347   9.887  1.00  0.00     0.120 A 
ATOM      4  C   UNL     1      18.554   5.511  12.401  1.00  0.00     0.021 A 
ATOM      5  N   UNL     1      18.561   5.267  10.028  1.00  0.00    -0.264 NA
ATOM      6  C   UNL     1      18.146   4.838  11.250  1.00  0.00     0.111 A 
ENDROOT
BRANCH   1   7
ATOM      7  C   UNL     1      20.701   8.232  10.873  1.00  0.00     0.073 C 
ATOM      8  O   UNL     1      21.946   8.118  11.030  1.00  0.00    -0.545 OA
ATOM      9  O   UNL     1      20.172   9.479  10.561  1.00  0.00    -0.545 OA
ENDBRANCH   1   7
TORSDOF 1
ENDMDL
