MODEL 1
REMARK VINA RESULT:    -6.797      0.000      0.000
REMARK INTER + INTRA:          -7.668
REMARK INTER:                  -7.393
REMARK INTRA:                  -0.275
REMARK UNBOUND:                -0.275
REMARK SMILES C[C@@H]1[C@H](C)CC[C@]2(C(=O)[O-])CC[C@@]3(C)C(=CC[C@@H]4[C@@]5(C)CC[C@H](O)C(C)(C)[C@H]5CC[C@@]43C)[C@H]12
REMARK SMILES IDX 7 1 6 2 11 3 33 4 5 5 12 6 15 7 2 8 3 9 13 10 16 11 1 12
REMARK SMILES IDX 4 13 14 14 31 15 17 16 18 17 30 18 32 19 19 20 29 21 28 22
REMARK SMILES IDX 21 23 20 24 25 25 22 26 23 27 26 28 27 29 8 30 9 31 10 32
REMARK SMILES IDX 24 33
REMARK H PARENT 24 34
REMARK Flexibility Score: inf
ROOT
ATOM      1  C   UNL     1      -8.226  25.793  51.235  1.00  0.00     0.017 C 
ATOM      2  C   UNL     1      -8.218  26.428  49.819  1.00  0.00     0.014 C 
ATOM      3  C   UNL     1      -9.452  26.409  52.006  1.00  0.00     0.014 C 
ATOM      4  C   UNL     1      -6.881  26.090  52.013  1.00  0.00     0.030 C 
ATOM      5  C   UNL     1      -6.962  26.101  49.007  1.00  0.00     0.004 C 
ATOM      6  C   UNL     1      -9.389  26.246  53.543  1.00  0.00     0.013 C 
ATOM      7  C   UNL     1      -7.116  27.170  53.081  1.00  0.00    -0.063 C 
ATOM      8  C   UNL     1      -5.569  26.139  51.142  1.00  0.00    -0.003 C 
ATOM      9  C   UNL     1      -5.691  26.649  49.674  1.00  0.00    -0.011 C 
ATOM     10  C   UNL     1      -8.051  26.766  54.233  1.00  0.00    -0.006 C 
ATOM     11  C   UNL     1      -6.997  28.451  52.723  1.00  0.00    -0.027 C 
ATOM     12  C   UNL     1      -4.341  26.679  51.899  1.00  0.00     0.008 C 
ATOM     13  C   UNL     1      -5.536  28.165  49.436  1.00  0.00     0.008 C 
ATOM     14  C   UNL     1      -7.381  25.560  54.986  1.00  0.00     0.017 C 
ATOM     15  C   UNL     1      -8.323  27.958  55.299  1.00  0.00    -0.020 C 
ATOM     16  C   UNL     1      -7.532  29.609  53.484  1.00  0.00     0.032 C 
ATOM     17  C   UNL     1      -8.632  29.322  54.562  1.00  0.00     0.006 C 
ATOM     18  C   UNL     1      -7.066  28.224  56.183  1.00  0.00     0.008 C 
ATOM     19  C   UNL     1      -9.512  27.497  56.217  1.00  0.00     0.012 C 
ATOM     20  C   UNL     1      -8.803  30.629  55.497  1.00  0.00    -0.025 C 
ATOM     21  C   UNL     1      -7.197  29.428  57.136  1.00  0.00     0.005 C 
ATOM     22  C   UNL     1      -7.555  30.790  56.464  1.00  0.00     0.003 C 
ATOM     23  C   UNL     1     -10.110  30.600  56.351  1.00  0.00     0.010 C 
ATOM     24  C   UNL     1      -8.940  31.850  54.522  1.00  0.00     0.012 C 
ATOM     25  C   UNL     1      -7.691  31.963  57.543  1.00  0.00    -0.006 C 
ATOM     26  C   UNL     1     -10.261  31.780  57.325  1.00  0.00     0.033 C 
ATOM     27  C   UNL     1      -9.066  31.885  58.282  1.00  0.00     0.120 C 
ATOM     28  C   UNL     1      -6.564  31.857  58.612  1.00  0.00     0.014 C 
ATOM     29  C   UNL     1      -7.498  33.363  56.885  1.00  0.00     0.014 C 
ENDROOT
BRANCH   1  30
ATOM     30  C   UNL     1      -8.440  24.286  51.079  1.00  0.00     0.048 C 
ATOM     31  O   UNL     1      -7.722  23.463  51.711  1.00  0.00    -0.550 OA
ATOM     32  O   UNL     1      -9.366  23.792  50.166  1.00  0.00    -0.550 OA
ENDBRANCH   1  30
BRANCH  27  33
ATOM     33  O   UNL     1      -9.254  33.013  59.104  1.00  0.00    -0.393 OA
ATOM     34  H   UNL     1     -10.201  33.296  59.006  1.00  0.00     0.210 HD
ENDBRANCH  27  33
TORSDOF 2
ENDMDL
MODEL 2
REMARK VINA RESULT:    -6.236      1.601      3.726
REMARK INTER + INTRA:          -7.057
REMARK INTER:                  -6.769
REMARK INTRA:                  -0.288
REMARK UNBOUND:                -0.275
REMARK SMILES C[C@@H]1[C@H](C)CC[C@]2(C(=O)[O-])CC[C@@]3(C)C(=CC[C@@H]4[C@@]5(C)CC[C@H](O)C(C)(C)[C@H]5CC[C@@]43C)[C@H]12
REMARK SMILES IDX 7 1 6 2 11 3 33 4 5 5 12 6 15 7 2 8 3 9 13 10 16 11 1 12
REMARK SMILES IDX 4 13 14 14 31 15 17 16 18 17 30 18 32 19 19 20 29 21 28 22
REMARK SMILES IDX 21 23 20 24 25 25 22 26 23 27 26 28 27 29 8 30 9 31 10 32
REMARK SMILES IDX 24 33
REMARK H PARENT 24 34
REMARK Flexibility Score: inf
ROOT
ATOM      1  C   UNL     1      -7.512  26.507  52.245  1.00  0.00     0.017 C 
ATOM      2  C   UNL     1      -6.447  25.540  52.830  1.00  0.00     0.014 C 
ATOM      3  C   UNL     1      -6.938  27.965  52.398  1.00  0.00     0.014 C 
ATOM      4  C   UNL     1      -8.894  26.379  53.004  1.00  0.00     0.030 C 
ATOM      5  C   UNL     1      -6.937  24.096  52.959  1.00  0.00     0.004 C 
ATOM      6  C   UNL     1      -7.998  29.086  52.281  1.00  0.00     0.013 C 
ATOM      7  C   UNL     1      -9.095  27.579  53.942  1.00  0.00    -0.063 C 
ATOM      8  C   UNL     1      -9.282  24.935  53.503  1.00  0.00    -0.003 C 
ATOM      9  C   UNL     1      -8.125  23.978  53.925  1.00  0.00    -0.011 C 
ATOM     10  C   UNL     1      -9.257  28.941  53.245  1.00  0.00    -0.006 C 
ATOM     11  C   UNL     1      -8.600  27.506  55.179  1.00  0.00    -0.027 C 
ATOM     12  C   UNL     1     -10.498  24.912  54.448  1.00  0.00     0.008 C 
ATOM     13  C   UNL     1      -7.666  24.028  55.396  1.00  0.00     0.008 C 
ATOM     14  C   UNL     1     -10.554  28.868  52.359  1.00  0.00     0.017 C 
ATOM     15  C   UNL     1      -9.400  30.185  54.275  1.00  0.00    -0.020 C 
ATOM     16  C   UNL     1      -8.369  28.664  56.082  1.00  0.00     0.032 C 
ATOM     17  C   UNL     1      -8.331  30.090  55.435  1.00  0.00     0.006 C 
ATOM     18  C   UNL     1     -10.793  30.184  54.974  1.00  0.00     0.008 C 
ATOM     19  C   UNL     1      -9.245  31.503  53.433  1.00  0.00     0.012 C 
ATOM     20  C   UNL     1      -8.433  31.198  56.608  1.00  0.00    -0.025 C 
ATOM     21  C   UNL     1     -10.964  31.261  56.063  1.00  0.00     0.005 C 
ATOM     22  C   UNL     1      -9.902  31.244  57.206  1.00  0.00     0.003 C 
ATOM     23  C   UNL     1      -8.032  32.630  56.128  1.00  0.00     0.010 C 
ATOM     24  C   UNL     1      -7.379  30.786  57.693  1.00  0.00     0.012 C 
ATOM     25  C   UNL     1     -10.157  32.415  58.266  1.00  0.00    -0.006 C 
ATOM     26  C   UNL     1      -8.208  33.729  57.188  1.00  0.00     0.033 C 
ATOM     27  C   UNL     1      -9.648  33.787  57.716  1.00  0.00     0.120 C 
ATOM     28  C   UNL     1     -11.677  32.554  58.573  1.00  0.00     0.014 C 
ATOM     29  C   UNL     1      -9.491  32.091  59.639  1.00  0.00     0.014 C 
ENDROOT
BRANCH   1  30
ATOM     30  C   UNL     1      -7.678  26.189  50.758  1.00  0.00     0.048 C 
ATOM     31  O   UNL     1      -6.671  26.037  50.014  1.00  0.00    -0.550 OA
ATOM     32  O   UNL     1      -8.941  26.154  50.177  1.00  0.00    -0.550 OA
ENDBRANCH   1  30
BRANCH  27  33
ATOM     33  O   UNL     1      -9.715  34.779  58.712  1.00  0.00    -0.393 OA
ATOM     34  H   UNL     1     -10.642  34.775  59.072  1.00  0.00     0.210 HD
ENDBRANCH  27  33
TORSDOF 2
ENDMDL
MODEL 3
REMARK VINA RESULT:    -6.172     11.335     13.660
REMARK INTER + INTRA:          -6.989
REMARK INTER:                  -6.700
REMARK INTRA:                  -0.288
REMARK UNBOUND:                -0.275
REMARK SMILES C[C@@H]1[C@H](C)CC[C@]2(C(=O)[O-])CC[C@@]3(C)C(=CC[C@@H]4[C@@]5(C)CC[C@H](O)C(C)(C)[C@H]5CC[C@@]43C)[C@H]12
REMARK SMILES IDX 7 1 6 2 11 3 33 4 5 5 12 6 15 7 2 8 3 9 13 10 16 11 1 12
REMARK SMILES IDX 4 13 14 14 31 15 17 16 18 17 30 18 32 19 19 20 29 21 28 22
REMARK SMILES IDX 21 23 20 24 25 25 22 26 23 27 26 28 27 29 8 30 9 31 10 32
REMARK SMILES IDX 24 33
REMARK H PARENT 24 34
REMARK Flexibility Score: inf
ROOT
ATOM      1  C   UNL     1      -1.348  29.448  43.634  1.00  0.00     0.017 C 
ATOM      2  C   UNL     1      -1.340  28.722  42.262  1.00  0.00     0.014 C 
ATOM      3  C   UNL     1      -2.732  30.189  43.750  1.00  0.00     0.014 C 
ATOM      4  C   UNL     1      -0.158  30.484  43.751  1.00  0.00     0.030 C 
ATOM      5  C   UNL     1       0.021  28.127  41.891  1.00  0.00     0.004 C 
ATOM      6  C   UNL     1      -2.772  31.304  44.822  1.00  0.00     0.013 C 
ATOM      7  C   UNL     1      -0.688  31.917  43.592  1.00  0.00    -0.063 C 
ATOM      8  C   UNL     1       1.191  30.076  43.045  1.00  0.00    -0.003 C 
ATOM      9  C   UNL     1       1.100  29.211  41.751  1.00  0.00    -0.011 C 
ATOM     10  C   UNL     1      -1.625  32.402  44.712  1.00  0.00    -0.006 C 
ATOM     11  C   UNL     1      -0.786  32.423  42.361  1.00  0.00    -0.027 C 
ATOM     12  C   UNL     1       2.221  31.219  42.972  1.00  0.00     0.008 C 
ATOM     13  C   UNL     1       0.982  29.958  40.407  1.00  0.00     0.008 C 
ATOM     14  C   UNL     1      -0.802  32.397  46.052  1.00  0.00     0.017 C 
ATOM     15  C   UNL     1      -2.211  33.894  44.468  1.00  0.00    -0.020 C 
ATOM     16  C   UNL     1      -1.598  33.608  41.980  1.00  0.00     0.032 C 
ATOM     17  C   UNL     1      -2.712  34.074  42.979  1.00  0.00     0.006 C 
ATOM     18  C   UNL     1      -1.110  34.978  44.683  1.00  0.00     0.008 C 
ATOM     19  C   UNL     1      -3.364  34.115  45.512  1.00  0.00     0.012 C 
ATOM     20  C   UNL     1      -3.210  35.551  42.554  1.00  0.00    -0.025 C 
ATOM     21  C   UNL     1      -1.552  36.415  44.346  1.00  0.00     0.005 C 
ATOM     22  C   UNL     1      -2.106  36.635  42.905  1.00  0.00     0.003 C 
ATOM     23  C   UNL     1      -4.557  35.958  43.234  1.00  0.00     0.010 C 
ATOM     24  C   UNL     1      -3.495  35.492  41.013  1.00  0.00     0.012 C 
ATOM     25  C   UNL     1      -2.557  38.152  42.670  1.00  0.00    -0.006 C 
ATOM     26  C   UNL     1      -5.015  37.393  42.931  1.00  0.00     0.033 C 
ATOM     27  C   UNL     1      -3.951  38.427  43.323  1.00  0.00     0.120 C 
ATOM     28  C   UNL     1      -1.528  39.134  43.303  1.00  0.00     0.014 C 
ATOM     29  C   UNL     1      -2.581  38.508  41.152  1.00  0.00     0.014 C 
ENDROOT
BRANCH   1  30
ATOM     30  C   UNL     1      -1.255  28.388  44.733  1.00  0.00     0.048 C 
ATOM     31  O   UNL     1      -2.003  27.373  44.717  1.00  0.00    -0.550 OA
ATOM     32  O   UNL     1      -0.410  28.570  45.824  1.00  0.00    -0.550 OA
ENDBRANCH   1  30
BRANCH  27  33
ATOM     33  O   UNL     1      -4.422  39.705  42.971  1.00  0.00    -0.393 OA
ATOM     34  H   UNL     1      -5.288  39.841  43.439  1.00  0.00     0.210 HD
ENDBRANCH  27  33
TORSDOF 2
ENDMDL
MODEL 4
REMARK VINA RESULT:    -5.972      8.471     13.272
REMARK INTER + INTRA:          -6.771
REMARK INTER:                  -6.484
REMARK INTRA:                  -0.287
REMARK UNBOUND:                -0.275
REMARK SMILES C[C@@H]1[C@H](C)CC[C@]2(C(=O)[O-])CC[C@@]3(C)C(=CC[C@@H]4[C@@]5(C)CC[C@H](O)C(C)(C)[C@H]5CC[C@@]43C)[C@H]12
REMARK SMILES IDX 7 1 6 2 11 3 33 4 5 5 12 6 15 7 2 8 3 9 13 10 16 11 1 12
REMARK SMILES IDX 4 13 14 14 31 15 17 16 18 17 30 18 32 19 19 20 29 21 28 22
REMARK SMILES IDX 21 23 20 24 25 25 22 26 23 27 26 28 27 29 8 30 9 31 10 32
REMARK SMILES IDX 24 33
REMARK H PARENT 24 34
REMARK Flexibility Score: inf
ROOT
ATOM      1  C   UNL     1      -5.319  33.464  46.759  1.00  0.00     0.017 C 
ATOM      2  C   UNL     1      -5.938  34.683  46.024  1.00  0.00     0.014 C 
ATOM      3  C   UNL     1      -3.758  33.666  46.744  1.00  0.00     0.014 C 
ATOM      4  C   UNL     1      -5.703  32.102  46.052  1.00  0.00     0.030 C 
ATOM      5  C   UNL     1      -7.439  34.540  45.756  1.00  0.00     0.004 C 
ATOM      6  C   UNL     1      -2.944  32.383  47.032  1.00  0.00     0.013 C 
ATOM      7  C   UNL     1      -4.501  31.559  45.263  1.00  0.00    -0.063 C 
ATOM      8  C   UNL     1      -7.142  32.031  45.412  1.00  0.00    -0.003 C 
ATOM      9  C   UNL     1      -7.745  33.349  44.836  1.00  0.00    -0.011 C 
ATOM     10  C   UNL     1      -3.294  31.129  46.114  1.00  0.00    -0.006 C 
ATOM     11  C   UNL     1      -4.331  31.970  44.005  1.00  0.00    -0.027 C 
ATOM     12  C   UNL     1      -7.366  30.792  44.525  1.00  0.00     0.008 C 
ATOM     13  C   UNL     1      -7.442  33.680  43.361  1.00  0.00     0.008 C 
ATOM     14  C   UNL     1      -3.764  29.951  47.042  1.00  0.00     0.017 C 
ATOM     15  C   UNL     1      -2.026  30.626  45.236  1.00  0.00    -0.020 C 
ATOM     16  C   UNL     1      -3.069  31.859  43.227  1.00  0.00     0.032 C 
ATOM     17  C   UNL     1      -1.746  31.604  44.027  1.00  0.00     0.006 C 
ATOM     18  C   UNL     1      -2.296  29.227  44.603  1.00  0.00     0.008 C 
ATOM     19  C   UNL     1      -0.799  30.524  46.212  1.00  0.00     0.012 C 
ATOM     20  C   UNL     1      -0.586  31.163  42.991  1.00  0.00    -0.025 C 
ATOM     21  C   UNL     1      -1.191  28.733  43.649  1.00  0.00     0.005 C 
ATOM     22  C   UNL     1      -0.838  29.687  42.466  1.00  0.00     0.003 C 
ATOM     23  C   UNL     1       0.846  31.248  43.609  1.00  0.00     0.010 C 
ATOM     24  C   UNL     1      -0.624  32.207  41.821  1.00  0.00     0.012 C 
ATOM     25  C   UNL     1       0.334  29.091  41.555  1.00  0.00    -0.006 C 
ATOM     26  C   UNL     1       1.968  30.745  42.687  1.00  0.00     0.033 C 
ATOM     27  C   UNL     1       1.728  29.299  42.232  1.00  0.00     0.120 C 
ATOM     28  C   UNL     1       0.131  27.563  41.332  1.00  0.00     0.014 C 
ATOM     29  C   UNL     1       0.316  29.717  40.128  1.00  0.00     0.014 C 
ENDROOT
BRANCH   1  30
ATOM     30  C   UNL     1      -5.812  33.481  48.207  1.00  0.00     0.048 C 
ATOM     31  O   UNL     1      -5.734  34.529  48.903  1.00  0.00    -0.550 OA
ATOM     32  O   UNL     1      -6.268  32.316  48.814  1.00  0.00    -0.550 OA
ENDBRANCH   1  30
BRANCH  27  33
ATOM     33  O   UNL     1       2.766  28.930  41.357  1.00  0.00    -0.393 OA
ATOM     34  H   UNL     1       3.316  29.741  41.191  1.00  0.00     0.210 HD
ENDBRANCH  27  33
TORSDOF 2
ENDMDL
MODEL 5
REMARK VINA RESULT:    -5.910     10.702     14.556
REMARK INTER + INTRA:          -6.703
REMARK INTER:                  -6.428
REMARK INTRA:                  -0.275
REMARK UNBOUND:                -0.275
REMARK SMILES C[C@@H]1[C@H](C)CC[C@]2(C(=O)[O-])CC[C@@]3(C)C(=CC[C@@H]4[C@@]5(C)CC[C@H](O)C(C)(C)[C@H]5CC[C@@]43C)[C@H]12
REMARK SMILES IDX 7 1 6 2 11 3 33 4 5 5 12 6 15 7 2 8 3 9 13 10 16 11 1 12
REMARK SMILES IDX 4 13 14 14 31 15 17 16 18 17 30 18 32 19 19 20 29 21 28 22
REMARK SMILES IDX 21 23 20 24 25 25 22 26 23 27 26 28 27 29 8 30 9 31 10 32
REMARK SMILES IDX 24 33
REMARK H PARENT 24 34
REMARK Flexibility Score: inf
ROOT
ATOM      1  C   UNL     1      -5.819  36.735  44.717  1.00  0.00     0.017 C 
ATOM      2  C   UNL     1      -6.574  36.538  46.059  1.00  0.00     0.014 C 
ATOM      3  C   UNL     1      -5.989  35.403  43.897  1.00  0.00     0.014 C 
ATOM      4  C   UNL     1      -4.285  37.044  44.953  1.00  0.00     0.030 C 
ATOM      5  C   UNL     1      -6.328  37.660  47.072  1.00  0.00     0.004 C 
ATOM      6  C   UNL     1      -4.974  35.228  42.743  1.00  0.00     0.013 C 
ATOM      7  C   UNL     1      -3.441  35.801  44.628  1.00  0.00    -0.063 C 
ATOM      8  C   UNL     1      -3.935  37.904  46.226  1.00  0.00    -0.003 C 
ATOM      9  C   UNL     1      -4.850  37.749  47.480  1.00  0.00    -0.011 C 
ATOM     10  C   UNL     1      -3.441  35.371  43.152  1.00  0.00    -0.006 C 
ATOM     11  C   UNL     1      -3.237  34.904  45.595  1.00  0.00    -0.027 C 
ATOM     12  C   UNL     1      -2.430  37.956  46.544  1.00  0.00     0.008 C 
ATOM     13  C   UNL     1      -4.476  36.654  48.498  1.00  0.00     0.008 C 
ATOM     14  C   UNL     1      -2.812  36.545  42.316  1.00  0.00     0.017 C 
ATOM     15  C   UNL     1      -2.592  34.019  42.869  1.00  0.00    -0.020 C 
ATOM     16  C   UNL     1      -2.782  33.504  45.388  1.00  0.00     0.032 C 
ATOM     17  C   UNL     1      -2.915  32.907  43.945  1.00  0.00     0.006 C 
ATOM     18  C   UNL     1      -1.058  34.281  42.971  1.00  0.00     0.008 C 
ATOM     19  C   UNL     1      -2.940  33.550  41.410  1.00  0.00     0.012 C 
ATOM     20  C   UNL     1      -2.049  31.544  43.863  1.00  0.00    -0.025 C 
ATOM     21  C   UNL     1      -0.183  33.020  42.841  1.00  0.00     0.005 C 
ATOM     22  C   UNL     1      -0.497  31.870  43.847  1.00  0.00     0.003 C 
ATOM     23  C   UNL     1      -2.402  30.675  42.614  1.00  0.00     0.010 C 
ATOM     24  C   UNL     1      -2.449  30.694  45.119  1.00  0.00     0.012 C 
ATOM     25  C   UNL     1       0.451  30.602  43.609  1.00  0.00    -0.006 C 
ATOM     26  C   UNL     1      -1.533  29.417  42.448  1.00  0.00     0.033 C 
ATOM     27  C   UNL     1      -0.038  29.761  42.386  1.00  0.00     0.120 C 
ATOM     28  C   UNL     1       1.913  31.057  43.327  1.00  0.00     0.014 C 
ATOM     29  C   UNL     1       0.539  29.713  44.887  1.00  0.00     0.014 C 
ENDROOT
BRANCH   1  30
ATOM     30  C   UNL     1      -6.491  37.880  43.957  1.00  0.00     0.048 C 
ATOM     31  O   UNL     1      -7.747  37.996  43.944  1.00  0.00    -0.550 OA
ATOM     32  O   UNL     1      -5.738  38.760  43.188  1.00  0.00    -0.550 OA
ENDBRANCH   1  30
BRANCH  27  33
ATOM     33  O   UNL     1       0.689  28.561  42.284  1.00  0.00    -0.393 OA
ATOM     34  H   UNL     1       0.890  28.417  41.321  1.00  0.00     0.210 HD
ENDBRANCH  27  33
TORSDOF 2
ENDMDL
MODEL 6
REMARK VINA RESULT:    -5.876     11.534     14.661
REMARK INTER + INTRA:          -6.666
REMARK INTER:                  -6.445
REMARK INTRA:                  -0.221
REMARK UNBOUND:                -0.275
REMARK SMILES C[C@@H]1[C@H](C)CC[C@]2(C(=O)[O-])CC[C@@]3(C)C(=CC[C@@H]4[C@@]5(C)CC[C@H](O)C(C)(C)[C@H]5CC[C@@]43C)[C@H]12
REMARK SMILES IDX 7 1 6 2 11 3 33 4 5 5 12 6 15 7 2 8 3 9 13 10 16 11 1 12
REMARK SMILES IDX 4 13 14 14 31 15 17 16 18 17 30 18 32 19 19 20 29 21 28 22
REMARK SMILES IDX 21 23 20 24 25 25 22 26 23 27 26 28 27 29 8 30 9 31 10 32
REMARK SMILES IDX 24 33
REMARK H PARENT 24 34
REMARK Flexibility Score: inf
ROOT
ATOM      1  C   UNL     1      -4.978  36.567  44.311  1.00  0.00     0.017 C 
ATOM      2  C   UNL     1      -4.506  38.018  44.597  1.00  0.00     0.014 C 
ATOM      3  C   UNL     1      -4.418  35.667  45.474  1.00  0.00     0.014 C 
ATOM      4  C   UNL     1      -4.451  36.049  42.912  1.00  0.00     0.030 C 
ATOM      5  C   UNL     1      -4.781  38.990  43.446  1.00  0.00     0.004 C 
ATOM      6  C   UNL     1      -4.403  34.152  45.161  1.00  0.00     0.013 C 
ATOM      7  C   UNL     1      -3.292  35.061  43.118  1.00  0.00    -0.063 C 
ATOM      8  C   UNL     1      -4.355  37.123  41.763  1.00  0.00    -0.003 C 
ATOM      9  C   UNL     1      -4.027  38.592  42.169  1.00  0.00    -0.011 C 
ATOM     10  C   UNL     1      -3.666  33.739  43.811  1.00  0.00    -0.006 C 
ATOM     11  C   UNL     1      -2.053  35.549  43.215  1.00  0.00    -0.027 C 
ATOM     12  C   UNL     1      -3.604  36.628  40.513  1.00  0.00     0.008 C 
ATOM     13  C   UNL     1      -2.539  38.990  42.242  1.00  0.00     0.008 C 
ATOM     14  C   UNL     1      -4.701  32.998  42.888  1.00  0.00     0.017 C 
ATOM     15  C   UNL     1      -2.400  32.758  44.066  1.00  0.00    -0.020 C 
ATOM     16  C   UNL     1      -0.883  34.821  43.771  1.00  0.00     0.032 C 
ATOM     17  C   UNL     1      -1.169  33.557  44.652  1.00  0.00     0.006 C 
ATOM     18  C   UNL     1      -1.902  32.119  42.734  1.00  0.00     0.008 C 
ATOM     19  C   UNL     1      -2.885  31.621  45.036  1.00  0.00     0.012 C 
ATOM     20  C   UNL     1       0.208  32.731  44.842  1.00  0.00    -0.025 C 
ATOM     21  C   UNL     1      -0.622  31.272  42.870  1.00  0.00     0.005 C 
ATOM     22  C   UNL     1       0.610  31.999  43.493  1.00  0.00     0.003 C 
ATOM     23  C   UNL     1       0.130  31.676  45.992  1.00  0.00     0.010 C 
ATOM     24  C   UNL     1       1.291  33.778  45.277  1.00  0.00     0.012 C 
ATOM     25  C   UNL     1       1.873  31.024  43.611  1.00  0.00    -0.006 C 
ATOM     26  C   UNL     1       1.387  30.804  46.141  1.00  0.00     0.033 C 
ATOM     27  C   UNL     1       1.728  30.067  44.839  1.00  0.00     0.120 C 
ATOM     28  C   UNL     1       2.010  30.148  42.332  1.00  0.00     0.014 C 
ATOM     29  C   UNL     1       3.205  31.831  43.698  1.00  0.00     0.014 C 
ENDROOT
BRANCH   1  30
ATOM     30  C   UNL     1      -6.507  36.547  44.355  1.00  0.00     0.048 C 
ATOM     31  O   UNL     1      -7.163  35.757  43.623  1.00  0.00    -0.550 OA
ATOM     32  O   UNL     1      -7.206  37.465  45.132  1.00  0.00    -0.550 OA
ENDBRANCH   1  30
BRANCH  27  33
ATOM     33  O   UNL     1       2.911  29.333  45.041  1.00  0.00    -0.393 OA
ATOM     34  H   UNL     1       3.480  29.854  45.668  1.00  0.00     0.210 HD
ENDBRANCH  27  33
TORSDOF 2
ENDMDL
MODEL 7
REMARK VINA RESULT:    -5.866      8.896     12.505
REMARK INTER + INTRA:          -6.655
REMARK INTER:                  -6.380
REMARK INTRA:                  -0.275
REMARK UNBOUND:                -0.275
REMARK SMILES C[C@@H]1[C@H](C)CC[C@]2(C(=O)[O-])CC[C@@]3(C)C(=CC[C@@H]4[C@@]5(C)CC[C@H](O)C(C)(C)[C@H]5CC[C@@]43C)[C@H]12
REMARK SMILES IDX 7 1 6 2 11 3 33 4 5 5 12 6 15 7 2 8 3 9 13 10 16 11 1 12
REMARK SMILES IDX 4 13 14 14 31 15 17 16 18 17 30 18 32 19 19 20 29 21 28 22
REMARK SMILES IDX 21 23 20 24 25 25 22 26 23 27 26 28 27 29 8 30 9 31 10 32
REMARK SMILES IDX 24 33
REMARK H PARENT 24 34
REMARK Flexibility Score: inf
ROOT
ATOM      1  C   UNL     1      -3.817  35.305  42.693  1.00  0.00     0.017 C 
ATOM      2  C   UNL     1      -4.328  36.386  41.702  1.00  0.00     0.014 C 
ATOM      3  C   UNL     1      -4.384  33.925  42.195  1.00  0.00     0.014 C 
ATOM      4  C   UNL     1      -4.300  35.597  44.171  1.00  0.00     0.030 C 
ATOM      5  C   UNL     1      -4.048  37.819  42.161  1.00  0.00     0.004 C 
ATOM      6  C   UNL     1      -4.359  32.801  43.258  1.00  0.00     0.013 C 
ATOM      7  C   UNL     1      -5.442  34.641  44.552  1.00  0.00    -0.063 C 
ATOM      8  C   UNL     1      -4.393  37.115  44.586  1.00  0.00    -0.003 C 
ATOM      9  C   UNL     1      -4.764  38.149  43.479  1.00  0.00    -0.011 C 
ATOM     10  C   UNL     1      -5.055  33.156  44.646  1.00  0.00    -0.006 C 
ATOM     11  C   UNL     1      -6.693  34.997  44.251  1.00  0.00    -0.027 C 
ATOM     12  C   UNL     1      -5.105  37.347  45.932  1.00  0.00     0.008 C 
ATOM     13  C   UNL     1      -6.261  38.438  43.254  1.00  0.00     0.008 C 
ATOM     14  C   UNL     1      -3.983  33.018  45.788  1.00  0.00     0.017 C 
ATOM     15  C   UNL     1      -6.304  32.179  44.984  1.00  0.00    -0.020 C 
ATOM     16  C   UNL     1      -7.859  34.078  44.197  1.00  0.00     0.032 C 
ATOM     17  C   UNL     1      -7.566  32.541  44.105  1.00  0.00     0.006 C 
ATOM     18  C   UNL     1      -6.757  32.332  46.468  1.00  0.00     0.008 C 
ATOM     19  C   UNL     1      -5.817  30.704  44.743  1.00  0.00     0.012 C 
ATOM     20  C   UNL     1      -8.928  31.730  44.420  1.00  0.00    -0.025 C 
ATOM     21  C   UNL     1      -8.021  31.532  46.838  1.00  0.00     0.005 C 
ATOM     22  C   UNL     1      -9.282  31.814  45.964  1.00  0.00     0.003 C 
ATOM     23  C   UNL     1      -8.853  30.228  43.995  1.00  0.00     0.010 C 
ATOM     24  C   UNL     1     -10.044  32.384  43.534  1.00  0.00     0.012 C 
ATOM     25  C   UNL     1     -10.527  30.915  46.416  1.00  0.00    -0.006 C 
ATOM     26  C   UNL     1     -10.094  29.399  44.366  1.00  0.00     0.033 C 
ATOM     27  C   UNL     1     -10.388  29.456  45.871  1.00  0.00     0.120 C 
ATOM     28  C   UNL     1     -10.615  30.842  47.969  1.00  0.00     0.014 C 
ATOM     29  C   UNL     1     -11.877  31.547  45.960  1.00  0.00     0.014 C 
ENDROOT
BRANCH   1  30
ATOM     30  C   UNL     1      -2.289  35.276  42.618  1.00  0.00     0.048 C 
ATOM     31  O   UNL     1      -1.593  35.235  43.669  1.00  0.00    -0.550 OA
ATOM     32  O   UNL     1      -1.637  35.389  41.395  1.00  0.00    -0.550 OA
ENDBRANCH   1  30
BRANCH  27  33
ATOM     33  O   UNL     1     -11.560  28.717  46.122  1.00  0.00    -0.393 OA
ATOM     34  H   UNL     1     -11.302  27.931  46.672  1.00  0.00     0.210 HD
ENDBRANCH  27  33
TORSDOF 2
ENDMDL
MODEL 8
REMARK VINA RESULT:    -5.857      7.834     10.967
REMARK INTER + INTRA:          -6.646
REMARK INTER:                  -6.358
REMARK INTRA:                  -0.287
REMARK UNBOUND:                -0.275
REMARK SMILES C[C@@H]1[C@H](C)CC[C@]2(C(=O)[O-])CC[C@@]3(C)C(=CC[C@@H]4[C@@]5(C)CC[C@H](O)C(C)(C)[C@H]5CC[C@@]43C)[C@H]12
REMARK SMILES IDX 7 1 6 2 11 3 33 4 5 5 12 6 15 7 2 8 3 9 13 10 16 11 1 12
REMARK SMILES IDX 4 13 14 14 31 15 17 16 18 17 30 18 32 19 19 20 29 21 28 22
REMARK SMILES IDX 21 23 20 24 25 25 22 26 23 27 26 28 27 29 8 30 9 31 10 32
REMARK SMILES IDX 24 33
REMARK H PARENT 24 34
REMARK Flexibility Score: inf
ROOT
ATOM      1  C   UNL     1      -3.421  29.743  46.063  1.00  0.00     0.017 C 
ATOM      2  C   UNL     1      -2.159  29.783  46.967  1.00  0.00     0.014 C 
ATOM      3  C   UNL     1      -3.170  30.752  44.882  1.00  0.00     0.014 C 
ATOM      4  C   UNL     1      -4.724  30.148  46.865  1.00  0.00     0.030 C 
ATOM      5  C   UNL     1      -2.324  29.019  48.284  1.00  0.00     0.004 C 
ATOM      6  C   UNL     1      -4.448  31.182  44.125  1.00  0.00     0.013 C 
ATOM      7  C   UNL     1      -5.154  31.574  46.487  1.00  0.00    -0.063 C 
ATOM      8  C   UNL     1      -4.780  29.699  48.374  1.00  0.00    -0.003 C 
ATOM      9  C   UNL     1      -3.434  29.620  49.159  1.00  0.00    -0.011 C 
ATOM     10  C   UNL     1      -5.622  31.759  45.034  1.00  0.00    -0.006 C 
ATOM     11  C   UNL     1      -4.623  32.596  47.163  1.00  0.00    -0.027 C 
ATOM     12  C   UNL     1      -5.938  30.332  49.167  1.00  0.00     0.008 C 
ATOM     13  C   UNL     1      -2.959  30.899  49.878  1.00  0.00     0.008 C 
ATOM     14  C   UNL     1      -6.895  30.860  44.828  1.00  0.00     0.017 C 
ATOM     15  C   UNL     1      -6.002  33.291  44.663  1.00  0.00    -0.020 C 
ATOM     16  C   UNL     1      -4.623  34.013  46.717  1.00  0.00     0.032 C 
ATOM     17  C   UNL     1      -4.909  34.296  45.203  1.00  0.00     0.006 C 
ATOM     18  C   UNL     1      -7.345  33.719  45.331  1.00  0.00     0.008 C 
ATOM     19  C   UNL     1      -6.156  33.365  43.101  1.00  0.00     0.012 C 
ATOM     20  C   UNL     1      -5.216  35.872  45.015  1.00  0.00    -0.025 C 
ATOM     21  C   UNL     1      -7.715  35.201  45.134  1.00  0.00     0.005 C 
ATOM     22  C   UNL     1      -6.644  36.236  45.602  1.00  0.00     0.003 C 
ATOM     23  C   UNL     1      -5.144  36.332  43.524  1.00  0.00     0.010 C 
ATOM     24  C   UNL     1      -4.071  36.635  45.767  1.00  0.00     0.012 C 
ATOM     25  C   UNL     1      -7.118  37.740  45.328  1.00  0.00    -0.006 C 
ATOM     26  C   UNL     1      -5.525  37.803  43.292  1.00  0.00     0.033 C 
ATOM     27  C   UNL     1      -6.929  38.120  43.824  1.00  0.00     0.120 C 
ATOM     28  C   UNL     1      -8.624  37.913  45.683  1.00  0.00     0.014 C 
ATOM     29  C   UNL     1      -6.363  38.747  46.249  1.00  0.00     0.014 C 
ENDROOT
BRANCH   1  30
ATOM     30  C   UNL     1      -3.553  28.329  45.493  1.00  0.00     0.048 C 
ATOM     31  O   UNL     1      -2.554  27.734  45.005  1.00  0.00    -0.550 OA
ATOM     32  O   UNL     1      -4.796  27.709  45.415  1.00  0.00    -0.550 OA
ENDBRANCH   1  30
BRANCH  27  33
ATOM     33  O   UNL     1      -7.183  39.489  43.620  1.00  0.00    -0.393 OA
ATOM     34  H   UNL     1      -7.770  39.566  42.822  1.00  0.00     0.210 HD
ENDBRANCH  27  33
TORSDOF 2
ENDMDL
MODEL 9
REMARK VINA RESULT:    -5.792     10.694     14.386
REMARK INTER + INTRA:          -6.575
REMARK INTER:                  -6.305
REMARK INTRA:                  -0.270
REMARK UNBOUND:                -0.275
REMARK SMILES C[C@@H]1[C@H](C)CC[C@]2(C(=O)[O-])CC[C@@]3(C)C(=CC[C@@H]4[C@@]5(C)CC[C@H](O)C(C)(C)[C@H]5CC[C@@]43C)[C@H]12
REMARK SMILES IDX 7 1 6 2 11 3 33 4 5 5 12 6 15 7 2 8 3 9 13 10 16 11 1 12
REMARK SMILES IDX 4 13 14 14 31 15 17 16 18 17 30 18 32 19 19 20 29 21 28 22
REMARK SMILES IDX 21 23 20 24 25 25 22 26 23 27 26 28 27 29 8 30 9 31 10 32
REMARK SMILES IDX 24 33
REMARK H PARENT 24 34
REMARK Flexibility Score: inf
ROOT
ATOM      1  C   UNL     1      -5.540  37.067  44.149  1.00  0.00     0.017 C 
ATOM      2  C   UNL     1      -7.001  36.573  43.975  1.00  0.00     0.014 C 
ATOM      3  C   UNL     1      -4.724  36.522  42.919  1.00  0.00     0.014 C 
ATOM      4  C   UNL     1      -4.907  36.547  45.503  1.00  0.00     0.030 C 
ATOM      5  C   UNL     1      -7.885  36.833  45.198  1.00  0.00     0.004 C 
ATOM      6  C   UNL     1      -3.189  36.529  43.115  1.00  0.00     0.013 C 
ATOM      7  C   UNL     1      -3.921  35.403  45.220  1.00  0.00    -0.063 C 
ATOM      8  C   UNL     1      -5.888  36.435  46.731  1.00  0.00    -0.003 C 
ATOM      9  C   UNL     1      -7.379  36.084  46.440  1.00  0.00    -0.011 C 
ATOM     10  C   UNL     1      -2.662  35.798  44.428  1.00  0.00    -0.006 C 
ATOM     11  C   UNL     1      -4.396  34.158  45.158  1.00  0.00    -0.027 C 
ATOM     12  C   UNL     1      -5.287  35.690  47.938  1.00  0.00     0.008 C 
ATOM     13  C   UNL     1      -7.759  34.590  46.395  1.00  0.00     0.008 C 
ATOM     14  C   UNL     1      -1.868  36.843  45.292  1.00  0.00     0.017 C 
ATOM     15  C   UNL     1      -1.685  34.548  44.096  1.00  0.00    -0.020 C 
ATOM     16  C   UNL     1      -3.696  32.999  44.546  1.00  0.00     0.032 C 
ATOM     17  C   UNL     1      -2.508  33.304  43.571  1.00  0.00     0.006 C 
ATOM     18  C   UNL     1      -0.937  34.058  45.373  1.00  0.00     0.008 C 
ATOM     19  C   UNL     1      -0.633  35.050  43.042  1.00  0.00     0.012 C 
ATOM     20  C   UNL     1      -1.678  31.941  43.315  1.00  0.00    -0.025 C 
ATOM     21  C   UNL     1      -0.084  32.791  45.171  1.00  0.00     0.005 C 
ATOM     22  C   UNL     1      -0.838  31.549  44.603  1.00  0.00     0.003 C 
ATOM     23  C   UNL     1      -0.717  32.035  42.088  1.00  0.00     0.010 C 
ATOM     24  C   UNL     1      -2.739  30.842  42.961  1.00  0.00     0.012 C 
ATOM     25  C   UNL     1       0.143  30.301  44.408  1.00  0.00    -0.006 C 
ATOM     26  C   UNL     1       0.161  30.792  41.869  1.00  0.00     0.033 C 
ATOM     27  C   UNL     1       1.001  30.461  43.111  1.00  0.00     0.120 C 
ATOM     28  C   UNL     1       1.118  30.176  45.616  1.00  0.00     0.014 C 
ATOM     29  C   UNL     1      -0.648  28.957  44.382  1.00  0.00     0.014 C 
ENDROOT
BRANCH   1  30
ATOM     30  C   UNL     1      -5.546  38.597  44.106  1.00  0.00     0.048 C 
ATOM     31  O   UNL     1      -4.835  39.267  44.903  1.00  0.00    -0.550 OA
ATOM     32  O   UNL     1      -6.408  39.278  43.253  1.00  0.00    -0.550 OA
ENDBRANCH   1  30
BRANCH  27  33
ATOM     33  O   UNL     1       1.735  29.289  42.851  1.00  0.00    -0.393 OA
ATOM     34  H   UNL     1       2.578  29.345  43.374  1.00  0.00     0.210 HD
ENDBRANCH  27  33
TORSDOF 2
ENDMDL
