MODEL 1
REMARK VINA RESULT:    -7.477      0.000      0.000
REMARK INTER + INTRA:          -9.572
REMARK INTER:                  -9.225
REMARK INTRA:                  -0.347
REMARK UNBOUND:                -0.347
REMARK SMILES Oc1cc(O)c2cc(O)c(-c3cc(O)c(O)c(O)c3)[o+]c2c1
REMARK SMILES IDX 10 1 20 2 21 3 22 4 2 5 3 6 4 7 6 8 7 9 8 10 11 11 12 12
REMARK SMILES IDX 13 13 19 14 15 15 17 16 14 17 16 19 18 21 9 23 1 25 5 27
REMARK H PARENT 14 18 16 20 18 22 9 24 1 26 5 28
REMARK Flexibility Score: inf
ROOT
ATOM      1  C   UNL     1     -41.029  11.273   8.936  1.00  0.00     0.402 A 
ATOM      2  O   UNL     1     -41.362  12.534   9.200  1.00  0.00    -0.202 OA
ATOM      3  C   UNL     1     -41.991  12.906  10.310  1.00  0.00     0.368 A 
ATOM      4  C   UNL     1     -42.300  14.256  10.496  1.00  0.00     0.162 A 
ATOM      5  C   UNL     1     -42.964  14.675  11.654  1.00  0.00     0.128 A 
ATOM      6  C   UNL     1     -43.320  13.740  12.627  1.00  0.00     0.093 A 
ATOM      7  C   UNL     1     -43.021  12.381  12.464  1.00  0.00     0.136 A 
ATOM      8  C   UNL     1     -42.346  11.951  11.293  1.00  0.00     0.125 A 
ATOM      9  C   UNL     1     -41.994  10.613  11.051  1.00  0.00     0.078 A 
ATOM     10  C   UNL     1     -41.323  10.266   9.875  1.00  0.00     0.223 A 
ENDROOT
BRANCH   1  11
ATOM     11  C   UNL     1     -40.338  10.983   7.659  1.00  0.00     0.091 A 
ATOM     12  C   UNL     1     -41.016  10.395   6.579  1.00  0.00     0.068 A 
ATOM     13  C   UNL     1     -40.349  10.148   5.372  1.00  0.00     0.162 A 
ATOM     14  C   UNL     1     -38.996  11.354   7.501  1.00  0.00     0.068 A 
ATOM     15  C   UNL     1     -39.000  10.499   5.224  1.00  0.00     0.200 A 
ATOM     16  C   UNL     1     -38.317  11.114   6.301  1.00  0.00     0.162 A 
BRANCH  13  17
ATOM     17  O   UNL     1     -41.026   9.557   4.307  1.00  0.00    -0.504 OA
ATOM     18  H   UNL     1     -41.363   8.602   4.356  1.00  0.00     0.293 HD
ENDBRANCH  13  17
BRANCH  15  19
ATOM     19  O   UNL     1     -38.381  10.224   4.001  1.00  0.00    -0.502 OA
ATOM     20  H   UNL     1     -38.698  10.584   3.113  1.00  0.00     0.293 HD
ENDBRANCH  15  19
BRANCH  16  21
ATOM     21  O   UNL     1     -36.978  11.500   6.222  1.00  0.00    -0.504 OA
ATOM     22  H   UNL     1     -36.557  11.924   5.408  1.00  0.00     0.293 HD
ENDBRANCH  16  21
ENDBRANCH   1  11
BRANCH  10  23
ATOM     23  O   UNL     1     -40.930   8.946   9.656  1.00  0.00    -0.500 OA
ATOM     24  H   UNL     1     -41.494   8.305   9.109  1.00  0.00     0.294 HD
ENDBRANCH  10  23
BRANCH   5  25
ATOM     25  O   UNL     1     -43.276  16.019  11.845  1.00  0.00    -0.507 OA
ATOM     26  H   UNL     1     -44.212  16.316  12.092  1.00  0.00     0.293 HD
ENDBRANCH   5  25
BRANCH   7  27
ATOM     27  O   UNL     1     -43.415  11.508  13.484  1.00  0.00    -0.507 OA
ATOM     28  H   UNL     1     -42.859  10.735  13.819  1.00  0.00     0.293 HD
ENDBRANCH   7  27
TORSDOF 7
ENDMDL
MODEL 2
REMARK VINA RESULT:    -7.417      0.203      1.810
REMARK INTER + INTRA:          -9.498
REMARK INTER:                  -9.183
REMARK INTRA:                  -0.315
REMARK UNBOUND:                -0.347
REMARK SMILES Oc1cc(O)c2cc(O)c(-c3cc(O)c(O)c(O)c3)[o+]c2c1
REMARK SMILES IDX 10 1 20 2 21 3 22 4 2 5 3 6 4 7 6 8 7 9 8 10 11 11 12 12
REMARK SMILES IDX 13 13 19 14 15 15 17 16 14 17 16 19 18 21 9 23 1 25 5 27
REMARK H PARENT 14 18 16 20 18 22 9 24 1 26 5 28
REMARK Flexibility Score: inf
ROOT
ATOM      1  C   UNL     1     -40.895  11.344   8.779  1.00  0.00     0.402 A 
ATOM      2  O   UNL     1     -41.252  12.595   9.060  1.00  0.00    -0.202 OA
ATOM      3  C   UNL     1     -41.903  12.937  10.167  1.00  0.00     0.368 A 
ATOM      4  C   UNL     1     -42.237  14.278  10.372  1.00  0.00     0.162 A 
ATOM      5  C   UNL     1     -42.925  14.665  11.527  1.00  0.00     0.128 A 
ATOM      6  C   UNL     1     -43.279  13.708  12.478  1.00  0.00     0.093 A 
ATOM      7  C   UNL     1     -42.956  12.357  12.296  1.00  0.00     0.136 A 
ATOM      8  C   UNL     1     -42.257  11.959  11.128  1.00  0.00     0.125 A 
ATOM      9  C   UNL     1     -41.880  10.631  10.868  1.00  0.00     0.078 A 
ATOM     10  C   UNL     1     -41.187  10.316   9.696  1.00  0.00     0.223 A 
ENDROOT
BRANCH   1  11
ATOM     11  C   UNL     1     -40.182  11.087   7.507  1.00  0.00     0.091 A 
ATOM     12  C   UNL     1     -38.829  11.422   7.348  1.00  0.00     0.068 A 
ATOM     13  C   UNL     1     -38.167  11.152   6.143  1.00  0.00     0.162 A 
ATOM     14  C   UNL     1     -40.854  10.444   6.458  1.00  0.00     0.068 A 
ATOM     15  C   UNL     1     -38.847  10.529   5.087  1.00  0.00     0.200 A 
ATOM     16  C   UNL     1     -40.205  10.167   5.249  1.00  0.00     0.162 A 
BRANCH  13  17
ATOM     17  O   UNL     1     -36.825  11.494   5.989  1.00  0.00    -0.504 OA
ATOM     18  H   UNL     1     -36.121  11.195   6.655  1.00  0.00     0.293 HD
ENDBRANCH  13  17
BRANCH  15  19
ATOM     19  O   UNL     1     -38.141  10.288   3.904  1.00  0.00    -0.502 OA
ATOM     20  H   UNL     1     -38.354   9.539   3.262  1.00  0.00     0.293 HD
ENDBRANCH  15  19
BRANCH  16  21
ATOM     21  O   UNL     1     -40.942   9.535   4.246  1.00  0.00    -0.504 OA
ATOM     22  H   UNL     1     -41.699   8.890   4.420  1.00  0.00     0.293 HD
ENDBRANCH  16  21
ENDBRANCH   1  11
BRANCH  10  23
ATOM     23  O   UNL     1     -40.769   9.006   9.460  1.00  0.00    -0.500 OA
ATOM     24  H   UNL     1     -41.417   8.286   9.161  1.00  0.00     0.294 HD
ENDBRANCH  10  23
BRANCH   5  25
ATOM     25  O   UNL     1     -43.260  16.001  11.737  1.00  0.00    -0.507 OA
ATOM     26  H   UNL     1     -42.767  16.752  11.270  1.00  0.00     0.293 HD
ENDBRANCH   5  25
BRANCH   7  27
ATOM     27  O   UNL     1     -43.350  11.460  13.294  1.00  0.00    -0.507 OA
ATOM     28  H   UNL     1     -43.580  11.724  14.241  1.00  0.00     0.293 HD
ENDBRANCH   7  27
TORSDOF 7
ENDMDL
MODEL 3
REMARK VINA RESULT:    -7.159      2.261      7.320
REMARK INTER + INTRA:          -9.180
REMARK INTER:                  -8.854
REMARK INTRA:                  -0.326
REMARK UNBOUND:                -0.347
REMARK SMILES Oc1cc(O)c2cc(O)c(-c3cc(O)c(O)c(O)c3)[o+]c2c1
REMARK SMILES IDX 10 1 20 2 21 3 22 4 2 5 3 6 4 7 6 8 7 9 8 10 11 11 12 12
REMARK SMILES IDX 13 13 19 14 15 15 17 16 14 17 16 19 18 21 9 23 1 25 5 27
REMARK H PARENT 14 18 16 20 18 22 9 24 1 26 5 28
REMARK Flexibility Score: inf
ROOT
ATOM      1  C   UNL     1     -38.833  11.687   8.328  1.00  0.00     0.402 A 
ATOM      2  O   UNL     1     -38.928  11.299   7.059  1.00  0.00    -0.202 OA
ATOM      3  C   UNL     1     -37.979  11.521   6.155  1.00  0.00     0.368 A 
ATOM      4  C   UNL     1     -38.173  11.077   4.844  1.00  0.00     0.162 A 
ATOM      5  C   UNL     1     -37.192  11.300   3.872  1.00  0.00     0.128 A 
ATOM      6  C   UNL     1     -36.016  11.970   4.213  1.00  0.00     0.093 A 
ATOM      7  C   UNL     1     -35.799  12.425   5.519  1.00  0.00     0.136 A 
ATOM      8  C   UNL     1     -36.788  12.199   6.510  1.00  0.00     0.125 A 
ATOM      9  C   UNL     1     -36.651  12.608   7.847  1.00  0.00     0.078 A 
ATOM     10  C   UNL     1     -37.669  12.345   8.768  1.00  0.00     0.223 A 
ENDROOT
BRANCH   1  11
ATOM     11  C   UNL     1     -39.962  11.390   9.238  1.00  0.00     0.091 A 
ATOM     12  C   UNL     1     -41.157  12.125   9.186  1.00  0.00     0.068 A 
ATOM     13  C   UNL     1     -42.221  11.814  10.042  1.00  0.00     0.162 A 
ATOM     14  C   UNL     1     -39.862  10.316  10.134  1.00  0.00     0.068 A 
ATOM     15  C   UNL     1     -42.110  10.755  10.953  1.00  0.00     0.200 A 
ATOM     16  C   UNL     1     -40.917   9.993  10.995  1.00  0.00     0.162 A 
BRANCH  13  17
ATOM     17  O   UNL     1     -43.401  12.554   9.988  1.00  0.00    -0.504 OA
ATOM     18  H   UNL     1     -44.021  12.622  10.787  1.00  0.00     0.293 HD
ENDBRANCH  13  17
BRANCH  15  19
ATOM     19  O   UNL     1     -43.199  10.491  11.788  1.00  0.00    -0.502 OA
ATOM     20  H   UNL     1     -43.913   9.806  11.588  1.00  0.00     0.293 HD
ENDBRANCH  15  19
BRANCH  16  21
ATOM     21  O   UNL     1     -40.739   8.918  11.868  1.00  0.00    -0.504 OA
ATOM     22  H   UNL     1     -41.483   8.309  12.174  1.00  0.00     0.293 HD
ENDBRANCH  16  21
ENDBRANCH   1  11
BRANCH  10  23
ATOM     23  O   UNL     1     -37.512  12.705  10.106  1.00  0.00    -0.500 OA
ATOM     24  H   UNL     1     -38.187  12.437  10.813  1.00  0.00     0.294 HD
ENDBRANCH  10  23
BRANCH   5  25
ATOM     25  O   UNL     1     -37.379  10.860   2.564  1.00  0.00    -0.507 OA
ATOM     26  H   UNL     1     -38.225  11.073   2.048  1.00  0.00     0.293 HD
ENDBRANCH   5  25
BRANCH   7  27
ATOM     27  O   UNL     1     -34.596  13.090   5.778  1.00  0.00    -0.507 OA
ATOM     28  H   UNL     1     -34.459  14.084   5.674  1.00  0.00     0.293 HD
ENDBRANCH   7  27
TORSDOF 7
ENDMDL
MODEL 4
REMARK VINA RESULT:    -7.135      1.160      1.514
REMARK INTER + INTRA:          -9.150
REMARK INTER:                  -8.892
REMARK INTRA:                  -0.258
REMARK UNBOUND:                -0.347
REMARK SMILES Oc1cc(O)c2cc(O)c(-c3cc(O)c(O)c(O)c3)[o+]c2c1
REMARK SMILES IDX 10 1 20 2 21 3 22 4 2 5 3 6 4 7 6 8 7 9 8 10 11 11 12 12
REMARK SMILES IDX 13 13 19 14 15 15 17 16 14 17 16 19 18 21 9 23 1 25 5 27
REMARK H PARENT 14 18 16 20 18 22 9 24 1 26 5 28
REMARK Flexibility Score: inf
ROOT
ATOM      1  C   UNL     1     -39.951  11.525   8.680  1.00  0.00     0.402 A 
ATOM      2  O   UNL     1     -40.417  12.706   9.077  1.00  0.00    -0.202 OA
ATOM      3  C   UNL     1     -41.323  12.848  10.039  1.00  0.00     0.368 A 
ATOM      4  C   UNL     1     -41.752  14.132  10.384  1.00  0.00     0.162 A 
ATOM      5  C   UNL     1     -42.707  14.310  11.391  1.00  0.00     0.128 A 
ATOM      6  C   UNL     1     -43.234  13.199  12.052  1.00  0.00     0.093 A 
ATOM      7  C   UNL     1     -42.820  11.902  11.725  1.00  0.00     0.136 A 
ATOM      8  C   UNL     1     -41.850  11.716  10.706  1.00  0.00     0.125 A 
ATOM      9  C   UNL     1     -41.367  10.455  10.321  1.00  0.00     0.078 A 
ATOM     10  C   UNL     1     -40.405  10.351   9.312  1.00  0.00     0.223 A 
ENDROOT
BRANCH   1  11
ATOM     11  C   UNL     1     -38.949  11.496   7.590  1.00  0.00     0.091 A 
ATOM     12  C   UNL     1     -39.234  10.902   6.351  1.00  0.00     0.068 A 
ATOM     13  C   UNL     1     -38.279  10.905   5.326  1.00  0.00     0.162 A 
ATOM     14  C   UNL     1     -37.710  12.125   7.777  1.00  0.00     0.068 A 
ATOM     15  C   UNL     1     -37.032  11.514   5.522  1.00  0.00     0.200 A 
ATOM     16  C   UNL     1     -36.746  12.135   6.761  1.00  0.00     0.162 A 
BRANCH  13  17
ATOM     17  O   UNL     1     -38.567  10.307   4.100  1.00  0.00    -0.504 OA
ATOM     18  H   UNL     1     -38.584  10.842   3.239  1.00  0.00     0.293 HD
ENDBRANCH  13  17
BRANCH  15  19
ATOM     19  O   UNL     1     -36.113  11.482   4.469  1.00  0.00    -0.502 OA
ATOM     20  H   UNL     1     -35.433  10.750   4.333  1.00  0.00     0.293 HD
ENDBRANCH  15  19
BRANCH  16  21
ATOM     21  O   UNL     1     -35.531  12.770   7.024  1.00  0.00    -0.504 OA
ATOM     22  H   UNL     1     -35.085  13.423   6.396  1.00  0.00     0.293 HD
ENDBRANCH  16  21
ENDBRANCH   1  11
BRANCH  10  23
ATOM     23  O   UNL     1     -39.888   9.104   8.962  1.00  0.00    -0.500 OA
ATOM     24  H   UNL     1     -40.344   8.241   9.240  1.00  0.00     0.294 HD
ENDBRANCH  10  23
BRANCH   5  25
ATOM     25  O   UNL     1     -43.139  15.587  11.740  1.00  0.00    -0.507 OA
ATOM     26  H   UNL     1     -43.961  15.730  12.315  1.00  0.00     0.293 HD
ENDBRANCH   5  25
BRANCH   7  27
ATOM     27  O   UNL     1     -43.398  10.843  12.432  1.00  0.00    -0.507 OA
ATOM     28  H   UNL     1     -43.269   9.868  12.207  1.00  0.00     0.293 HD
ENDBRANCH   7  27
TORSDOF 7
ENDMDL
MODEL 5
REMARK VINA RESULT:    -7.031      8.104     11.617
REMARK INTER + INTRA:          -9.021
REMARK INTER:                  -8.700
REMARK INTRA:                  -0.321
REMARK UNBOUND:                -0.347
REMARK SMILES Oc1cc(O)c2cc(O)c(-c3cc(O)c(O)c(O)c3)[o+]c2c1
REMARK SMILES IDX 10 1 20 2 21 3 22 4 2 5 3 6 4 7 6 8 7 9 8 10 11 11 12 12
REMARK SMILES IDX 13 13 19 14 15 15 17 16 14 17 16 19 18 21 9 23 1 25 5 27
REMARK H PARENT 14 18 16 20 18 22 9 24 1 26 5 28
REMARK Flexibility Score: inf
ROOT
ATOM      1  C   UNL     1     -32.336  13.860   2.163  1.00  0.00     0.402 A 
ATOM      2  O   UNL     1     -33.455  13.253   1.776  1.00  0.00    -0.202 OA
ATOM      3  C   UNL     1     -34.581  13.277   2.482  1.00  0.00     0.368 A 
ATOM      4  C   UNL     1     -35.704  12.606   1.992  1.00  0.00     0.162 A 
ATOM      5  C   UNL     1     -36.901  12.613   2.716  1.00  0.00     0.128 A 
ATOM      6  C   UNL     1     -36.973  13.293   3.933  1.00  0.00     0.093 A 
ATOM      7  C   UNL     1     -35.861  13.973   4.445  1.00  0.00     0.136 A 
ATOM      8  C   UNL     1     -34.645  13.971   3.714  1.00  0.00     0.125 A 
ATOM      9  C   UNL     1     -33.485  14.636   4.143  1.00  0.00     0.078 A 
ATOM     10  C   UNL     1     -32.324  14.594   3.365  1.00  0.00     0.223 A 
ENDROOT
BRANCH   1  11
ATOM     11  C   UNL     1     -31.142  13.751   1.294  1.00  0.00     0.091 A 
ATOM     12  C   UNL     1     -30.724  14.821   0.488  1.00  0.00     0.068 A 
ATOM     13  C   UNL     1     -29.580  14.705  -0.311  1.00  0.00     0.162 A 
ATOM     14  C   UNL     1     -30.378  12.576   1.317  1.00  0.00     0.068 A 
ATOM     15  C   UNL     1     -28.830  13.520  -0.304  1.00  0.00     0.200 A 
ATOM     16  C   UNL     1     -29.231  12.445   0.525  1.00  0.00     0.162 A 
BRANCH  13  17
ATOM     17  O   UNL     1     -29.176  15.769  -1.114  1.00  0.00    -0.504 OA
ATOM     18  H   UNL     1     -29.848  16.372  -1.575  1.00  0.00     0.293 HD
ENDBRANCH  13  17
BRANCH  15  19
ATOM     19  O   UNL     1     -27.700  13.454  -1.124  1.00  0.00    -0.502 OA
ATOM     20  H   UNL     1     -26.766  13.684  -0.820  1.00  0.00     0.293 HD
ENDBRANCH  15  19
BRANCH  16  21
ATOM     21  O   UNL     1     -28.528  11.241   0.592  1.00  0.00    -0.504 OA
ATOM     22  H   UNL     1     -27.751  11.073   1.213  1.00  0.00     0.293 HD
ENDBRANCH  16  21
ENDBRANCH   1  11
BRANCH  10  23
ATOM     23  O   UNL     1     -31.186  15.294   3.765  1.00  0.00    -0.500 OA
ATOM     24  H   UNL     1     -30.366  14.818   4.123  1.00  0.00     0.294 HD
ENDBRANCH  10  23
BRANCH   5  25
ATOM     25  O   UNL     1     -38.025  11.946   2.234  1.00  0.00    -0.507 OA
ATOM     26  H   UNL     1     -38.562  11.320   2.822  1.00  0.00     0.293 HD
ENDBRANCH   5  25
BRANCH   7  27
ATOM     27  O   UNL     1     -36.014  14.627   5.672  1.00  0.00    -0.507 OA
ATOM     28  H   UNL     1     -35.288  14.713   6.367  1.00  0.00     0.293 HD
ENDBRANCH   7  27
TORSDOF 7
ENDMDL
MODEL 6
REMARK VINA RESULT:    -6.996      1.623      2.816
REMARK INTER + INTRA:          -8.978
REMARK INTER:                  -8.681
REMARK INTRA:                  -0.297
REMARK UNBOUND:                -0.347
REMARK SMILES Oc1cc(O)c2cc(O)c(-c3cc(O)c(O)c(O)c3)[o+]c2c1
REMARK SMILES IDX 10 1 20 2 21 3 22 4 2 5 3 6 4 7 6 8 7 9 8 10 11 11 12 12
REMARK SMILES IDX 13 13 19 14 15 15 17 16 14 17 16 19 18 21 9 23 1 25 5 27
REMARK H PARENT 14 18 16 20 18 22 9 24 1 26 5 28
REMARK Flexibility Score: inf
ROOT
ATOM      1  C   UNL     1     -39.300  11.721   8.337  1.00  0.00     0.402 A 
ATOM      2  O   UNL     1     -39.959  12.823   8.688  1.00  0.00    -0.202 OA
ATOM      3  C   UNL     1     -40.900  12.843   9.627  1.00  0.00     0.368 A 
ATOM      4  C   UNL     1     -41.537  14.050   9.924  1.00  0.00     0.162 A 
ATOM      5  C   UNL     1     -42.533  14.098  10.905  1.00  0.00     0.128 A 
ATOM      6  C   UNL     1     -42.892  12.936  11.589  1.00  0.00     0.093 A 
ATOM      7  C   UNL     1     -42.268  11.714  11.309  1.00  0.00     0.136 A 
ATOM      8  C   UNL     1     -41.255  11.659  10.317  1.00  0.00     0.125 A 
ATOM      9  C   UNL     1     -40.567  10.482   9.980  1.00  0.00     0.078 A 
ATOM     10  C   UNL     1     -39.576  10.508   8.994  1.00  0.00     0.223 A 
ENDROOT
BRANCH   1  11
ATOM     11  C   UNL     1     -38.280  11.825   7.269  1.00  0.00     0.091 A 
ATOM     12  C   UNL     1     -37.041  12.443   7.499  1.00  0.00     0.068 A 
ATOM     13  C   UNL     1     -36.081  12.512   6.481  1.00  0.00     0.162 A 
ATOM     14  C   UNL     1     -38.530  11.245   6.018  1.00  0.00     0.068 A 
ATOM     15  C   UNL     1     -36.343  11.952   5.223  1.00  0.00     0.200 A 
ATOM     16  C   UNL     1     -37.580  11.306   4.991  1.00  0.00     0.162 A 
BRANCH  13  17
ATOM     17  O   UNL     1     -34.856  13.134   6.715  1.00  0.00    -0.504 OA
ATOM     18  H   UNL     1     -34.099  12.655   7.190  1.00  0.00     0.293 HD
ENDBRANCH  13  17
BRANCH  15  19
ATOM     19  O   UNL     1     -35.353  12.054   4.241  1.00  0.00    -0.502 OA
ATOM     20  H   UNL     1     -35.540  12.065   3.249  1.00  0.00     0.293 HD
ENDBRANCH  15  19
BRANCH  16  21
ATOM     21  O   UNL     1     -37.906  10.716   3.768  1.00  0.00    -0.504 OA
ATOM     22  H   UNL     1     -37.695  11.124   2.869  1.00  0.00     0.293 HD
ENDBRANCH  16  21
ENDBRANCH   1  11
BRANCH  10  23
ATOM     23  O   UNL     1     -38.858   9.350   8.693  1.00  0.00    -0.500 OA
ATOM     24  H   UNL     1     -38.130   9.000   9.307  1.00  0.00     0.294 HD
ENDBRANCH  10  23
BRANCH   5  25
ATOM     25  O   UNL     1     -43.173  15.298  11.206  1.00  0.00    -0.507 OA
ATOM     26  H   UNL     1     -42.817  16.187  10.875  1.00  0.00     0.293 HD
ENDBRANCH   5  25
BRANCH   7  27
ATOM     27  O   UNL     1     -42.687  10.595  12.036  1.00  0.00    -0.507 OA
ATOM     28  H   UNL     1     -43.519  10.062  11.834  1.00  0.00     0.293 HD
ENDBRANCH   7  27
TORSDOF 7
ENDMDL
MODEL 7
REMARK VINA RESULT:    -6.902      8.072     13.056
REMARK INTER + INTRA:          -8.863
REMARK INTER:                  -8.511
REMARK INTRA:                  -0.352
REMARK UNBOUND:                -0.347
REMARK SMILES Oc1cc(O)c2cc(O)c(-c3cc(O)c(O)c(O)c3)[o+]c2c1
REMARK SMILES IDX 10 1 20 2 21 3 22 4 2 5 3 6 4 7 6 8 7 9 8 10 11 11 12 12
REMARK SMILES IDX 13 13 19 14 15 15 17 16 14 17 16 19 18 21 9 23 1 25 5 27
REMARK H PARENT 14 18 16 20 18 22 9 24 1 26 5 28
REMARK Flexibility Score: inf
ROOT
ATOM      1  C   UNL     1     -33.070  14.013   1.785  1.00  0.00     0.402 A 
ATOM      2  O   UNL     1     -32.286  12.959   1.573  1.00  0.00    -0.202 OA
ATOM      3  C   UNL     1     -31.169  13.013   0.854  1.00  0.00     0.368 A 
ATOM      4  C   UNL     1     -30.413  11.850   0.686  1.00  0.00     0.162 A 
ATOM      5  C   UNL     1     -29.235  11.878  -0.068  1.00  0.00     0.128 A 
ATOM      6  C   UNL     1     -28.814  13.072  -0.654  1.00  0.00     0.093 A 
ATOM      7  C   UNL     1     -29.554  14.251  -0.500  1.00  0.00     0.136 A 
ATOM      8  C   UNL     1     -30.748  14.229   0.265  1.00  0.00     0.125 A 
ATOM      9  C   UNL     1     -31.547  15.364   0.484  1.00  0.00     0.078 A 
ATOM     10  C   UNL     1     -32.709  15.265   1.255  1.00  0.00     0.223 A 
ENDROOT
BRANCH   1  11
ATOM     11  C   UNL     1     -34.295  13.823   2.595  1.00  0.00     0.091 A 
ATOM     12  C   UNL     1     -35.461  13.273   2.040  1.00  0.00     0.068 A 
ATOM     13  C   UNL     1     -36.602  13.083   2.829  1.00  0.00     0.162 A 
ATOM     14  C   UNL     1     -34.276  14.146   3.959  1.00  0.00     0.068 A 
ATOM     15  C   UNL     1     -36.589  13.428   4.188  1.00  0.00     0.200 A 
ATOM     16  C   UNL     1     -35.409  13.961   4.760  1.00  0.00     0.162 A 
BRANCH  13  17
ATOM     17  O   UNL     1     -37.759  12.543   2.269  1.00  0.00    -0.504 OA
ATOM     18  H   UNL     1     -38.203  11.719   2.659  1.00  0.00     0.293 HD
ENDBRANCH  13  17
BRANCH  15  19
ATOM     19  O   UNL     1     -37.756  13.224   4.929  1.00  0.00    -0.502 OA
ATOM     20  H   UNL     1     -38.623  12.887   4.537  1.00  0.00     0.293 HD
ENDBRANCH  15  19
BRANCH  16  21
ATOM     21  O   UNL     1     -35.318  14.317   6.107  1.00  0.00    -0.504 OA
ATOM     22  H   UNL     1     -35.609  13.723   6.871  1.00  0.00     0.293 HD
ENDBRANCH  16  21
ENDBRANCH   1  11
BRANCH  10  23
ATOM     23  O   UNL     1     -33.475  16.402   1.514  1.00  0.00    -0.500 OA
ATOM     24  H   UNL     1     -33.466  16.856   2.421  1.00  0.00     0.294 HD
ENDBRANCH  10  23
BRANCH   5  25
ATOM     25  O   UNL     1     -28.476  10.723  -0.240  1.00  0.00    -0.507 OA
ATOM     26  H   UNL     1     -28.912   9.816  -0.367  1.00  0.00     0.293 HD
ENDBRANCH   5  25
BRANCH   7  27
ATOM     27  O   UNL     1     -29.066  15.405  -1.123  1.00  0.00    -0.507 OA
ATOM     28  H   UNL     1     -29.526  16.303  -1.101  1.00  0.00     0.293 HD
ENDBRANCH   7  27
TORSDOF 7
ENDMDL
MODEL 8
REMARK VINA RESULT:    -6.804      2.095      7.064
REMARK INTER + INTRA:          -8.742
REMARK INTER:                  -8.411
REMARK INTRA:                  -0.330
REMARK UNBOUND:                -0.347
REMARK SMILES Oc1cc(O)c2cc(O)c(-c3cc(O)c(O)c(O)c3)[o+]c2c1
REMARK SMILES IDX 10 1 20 2 21 3 22 4 2 5 3 6 4 7 6 8 7 9 8 10 11 11 12 12
REMARK SMILES IDX 13 13 19 14 15 15 17 16 14 17 16 19 18 21 9 23 1 25 5 27
REMARK H PARENT 14 18 16 20 18 22 9 24 1 26 5 28
REMARK Flexibility Score: inf
ROOT
ATOM      1  C   UNL     1     -39.581  11.060   7.614  1.00  0.00     0.402 A 
ATOM      2  O   UNL     1     -38.493  11.811   7.767  1.00  0.00    -0.202 OA
ATOM      3  C   UNL     1     -37.585  11.983   6.812  1.00  0.00     0.368 A 
ATOM      4  C   UNL     1     -36.473  12.789   7.069  1.00  0.00     0.162 A 
ATOM      5  C   UNL     1     -35.501  12.986   6.083  1.00  0.00     0.128 A 
ATOM      6  C   UNL     1     -35.642  12.373   4.837  1.00  0.00     0.093 A 
ATOM      7  C   UNL     1     -36.747  11.561   4.555  1.00  0.00     0.136 A 
ATOM      8  C   UNL     1     -37.737  11.360   5.550  1.00  0.00     0.125 A 
ATOM      9  C   UNL     1     -38.884  10.573   5.352  1.00  0.00     0.078 A 
ATOM     10  C   UNL     1     -39.820  10.426   6.380  1.00  0.00     0.223 A 
ENDROOT
BRANCH   1  11
ATOM     11  C   UNL     1     -40.514  10.937   8.757  1.00  0.00     0.091 A 
ATOM     12  C   UNL     1     -41.722  11.650   8.795  1.00  0.00     0.068 A 
ATOM     13  C   UNL     1     -42.601  11.503   9.876  1.00  0.00     0.162 A 
ATOM     14  C   UNL     1     -40.215  10.047   9.798  1.00  0.00     0.068 A 
ATOM     15  C   UNL     1     -42.289  10.630  10.928  1.00  0.00     0.200 A 
ATOM     16  C   UNL     1     -41.083   9.889  10.885  1.00  0.00     0.162 A 
BRANCH  13  17
ATOM     17  O   UNL     1     -43.795  12.220   9.910  1.00  0.00    -0.504 OA
ATOM     18  H   UNL     1     -44.202  12.614   9.069  1.00  0.00     0.293 HD
ENDBRANCH  13  17
BRANCH  15  19
ATOM     19  O   UNL     1     -43.197  10.525  11.985  1.00  0.00    -0.502 OA
ATOM     20  H   UNL     1     -42.964  10.702  12.951  1.00  0.00     0.293 HD
ENDBRANCH  15  19
BRANCH  16  21
ATOM     21  O   UNL     1     -40.713   8.993  11.890  1.00  0.00    -0.504 OA
ATOM     22  H   UNL     1     -40.658   7.993  11.765  1.00  0.00     0.293 HD
ENDBRANCH  16  21
ENDBRANCH   1  11
BRANCH  10  23
ATOM     23  O   UNL     1     -40.983   9.686   6.168  1.00  0.00    -0.500 OA
ATOM     24  H   UNL     1     -41.312   9.467   5.234  1.00  0.00     0.294 HD
ENDBRANCH  10  23
BRANCH   5  25
ATOM     25  O   UNL     1     -34.390  13.788   6.333  1.00  0.00    -0.507 OA
ATOM     26  H   UNL     1     -33.462  13.394   6.428  1.00  0.00     0.293 HD
ENDBRANCH   5  25
BRANCH   7  27
ATOM     27  O   UNL     1     -36.812  10.981   3.284  1.00  0.00    -0.507 OA
ATOM     28  H   UNL     1     -36.687  11.485   2.419  1.00  0.00     0.293 HD
ENDBRANCH   7  27
TORSDOF 7
ENDMDL
