MODEL 1
REMARK VINA RESULT:    -4.377      0.000      0.000
REMARK INTER + INTRA:          -4.377
REMARK INTER:                  -4.377
REMARK INTRA:                   0.000
REMARK UNBOUND:                 0.000
REMARK SMILES CC1(C)O[C@]2(C)CC[C@H]1CC2
REMARK SMILES IDX 1 1 2 2 9 3 8 4 7 5 5 6 4 7 11 8 10 9 6 10 3 11
REMARK H PARENT
REMARK Flexibility Score: inf
ROOT
ATOM      1  C   UNL     1      69.196   0.127  -3.711  1.00  0.00     0.042 C 
ATOM      2  C   UNL     1      68.496   1.180  -2.825  1.00  0.00     0.066 C 
ATOM      3  C   UNL     1      68.497   2.592  -3.529  1.00  0.00     0.021 C 
ATOM      4  C   UNL     1      67.740   3.592  -2.623  1.00  0.00     0.009 C 
ATOM      5  C   UNL     1      66.360   2.997  -2.251  1.00  0.00     0.035 C 
ATOM      6  C   UNL     1      66.157   1.639  -2.983  1.00  0.00     0.066 C 
ATOM      7  O   UNL     1      67.163   0.720  -2.555  1.00  0.00    -0.369 OA
ATOM      8  C   UNL     1      66.291   1.865  -4.516  1.00  0.00     0.035 C 
ATOM      9  C   UNL     1      67.673   2.487  -4.835  1.00  0.00     0.009 C 
ATOM     10  C   UNL     1      64.780   1.055  -2.649  1.00  0.00     0.042 C 
ATOM     11  C   UNL     1      69.264   1.238  -1.486  1.00  0.00     0.042 C 
ENDROOT
TORSDOF 0
ENDMDL
MODEL 2
REMARK VINA RESULT:    -4.214      9.544     10.913
REMARK INTER + INTRA:          -4.214
REMARK INTER:                  -4.214
REMARK INTRA:                   0.000
REMARK UNBOUND:                 0.000
REMARK SMILES CC1(C)O[C@]2(C)CC[C@H]1CC2
REMARK SMILES IDX 1 1 2 2 9 3 8 4 7 5 5 6 4 7 11 8 10 9 6 10 3 11
REMARK H PARENT
REMARK Flexibility Score: inf
ROOT
ATOM      1  C   UNL     1      62.811   1.749   5.239  1.00  0.00     0.042 C 
ATOM      2  C   UNL     1      62.778   3.021   6.114  1.00  0.00     0.066 C 
ATOM      3  C   UNL     1      63.398   2.737   7.537  1.00  0.00     0.021 C 
ATOM      4  C   UNL     1      63.387   4.055   8.348  1.00  0.00     0.009 C 
ATOM      5  C   UNL     1      64.047   5.175   7.508  1.00  0.00     0.035 C 
ATOM      6  C   UNL     1      64.584   4.584   6.172  1.00  0.00     0.066 C 
ATOM      7  O   UNL     1      63.490   4.057   5.420  1.00  0.00    -0.369 OA
ATOM      8  C   UNL     1      65.585   3.438   6.491  1.00  0.00     0.035 C 
ATOM      9  C   UNL     1      64.887   2.358   7.354  1.00  0.00     0.009 C 
ATOM     10  C   UNL     1      65.271   5.677   5.345  1.00  0.00     0.042 C 
ATOM     11  C   UNL     1      61.301   3.455   6.239  1.00  0.00     0.042 C 
ENDROOT
TORSDOF 0
ENDMDL
MODEL 3
REMARK VINA RESULT:    -4.186      1.179      2.799
REMARK INTER + INTRA:          -4.186
REMARK INTER:                  -4.186
REMARK INTRA:                   0.000
REMARK UNBOUND:                 0.000
REMARK SMILES CC1(C)O[C@]2(C)CC[C@H]1CC2
REMARK SMILES IDX 1 1 2 2 9 3 8 4 7 5 5 6 4 7 11 8 10 9 6 10 3 11
REMARK H PARENT
REMARK Flexibility Score: inf
ROOT
ATOM      1  C   UNL     1      66.074   0.082  -1.629  1.00  0.00     0.042 C 
ATOM      2  C   UNL     1      66.594   1.466  -2.074  1.00  0.00     0.066 C 
ATOM      3  C   UNL     1      68.091   1.672  -1.622  1.00  0.00     0.021 C 
ATOM      4  C   UNL     1      68.574   3.049  -2.139  1.00  0.00     0.009 C 
ATOM      5  C   UNL     1      68.279   3.156  -3.655  1.00  0.00     0.035 C 
ATOM      6  C   UNL     1      67.684   1.814  -4.171  1.00  0.00     0.066 C 
ATOM      7  O   UNL     1      66.450   1.559  -3.500  1.00  0.00    -0.369 OA
ATOM      8  C   UNL     1      68.683   0.663  -3.858  1.00  0.00     0.035 C 
ATOM      9  C   UNL     1      68.968   0.615  -2.337  1.00  0.00     0.009 C 
ATOM     10  C   UNL     1      67.420   1.894  -5.679  1.00  0.00     0.042 C 
ATOM     11  C   UNL     1      65.678   2.530  -1.429  1.00  0.00     0.042 C 
ENDROOT
TORSDOF 0
ENDMDL
MODEL 4
REMARK VINA RESULT:    -4.155      8.534     10.060
REMARK INTER + INTRA:          -4.155
REMARK INTER:                  -4.155
REMARK INTRA:                   0.000
REMARK UNBOUND:                 0.000
REMARK SMILES CC1(C)O[C@]2(C)CC[C@H]1CC2
REMARK SMILES IDX 1 1 2 2 9 3 8 4 7 5 5 6 4 7 11 8 10 9 6 10 3 11
REMARK H PARENT
REMARK Flexibility Score: inf
ROOT
ATOM      1  C   UNL     1      61.501   3.815   7.156  1.00  0.00     0.042 C 
ATOM      2  C   UNL     1      62.766   3.169   6.551  1.00  0.00     0.066 C 
ATOM      3  C   UNL     1      62.383   1.949   5.626  1.00  0.00     0.021 C 
ATOM      4  C   UNL     1      63.681   1.376   5.008  1.00  0.00     0.009 C 
ATOM      5  C   UNL     1      64.483   2.526   4.352  1.00  0.00     0.035 C 
ATOM      6  C   UNL     1      63.676   3.854   4.451  1.00  0.00     0.066 C 
ATOM      7  O   UNL     1      63.481   4.183   5.826  1.00  0.00    -0.369 OA
ATOM      8  C   UNL     1      62.292   3.656   3.770  1.00  0.00     0.035 C 
ATOM      9  C   UNL     1      61.541   2.479   4.441  1.00  0.00     0.009 C 
ATOM     10  C   UNL     1      64.444   4.995   3.775  1.00  0.00     0.042 C 
ATOM     11  C   UNL     1      63.653   2.705   7.727  1.00  0.00     0.042 C 
ENDROOT
TORSDOF 0
ENDMDL
MODEL 5
REMARK VINA RESULT:    -4.153      9.574     10.909
REMARK INTER + INTRA:          -4.153
REMARK INTER:                  -4.153
REMARK INTRA:                   0.000
REMARK UNBOUND:                 0.000
REMARK SMILES CC1(C)O[C@]2(C)CC[C@H]1CC2
REMARK SMILES IDX 1 1 2 2 9 3 8 4 7 5 5 6 4 7 11 8 10 9 6 10 3 11
REMARK H PARENT
REMARK Flexibility Score: inf
ROOT
ATOM      1  C   UNL     1      66.019   3.910   5.825  1.00  0.00     0.042 C 
ATOM      2  C   UNL     1      64.479   3.932   5.715  1.00  0.00     0.066 C 
ATOM      3  C   UNL     1      63.896   2.467   5.741  1.00  0.00     0.021 C 
ATOM      4  C   UNL     1      62.352   2.552   5.681  1.00  0.00     0.009 C 
ATOM      5  C   UNL     1      61.853   3.524   6.778  1.00  0.00     0.035 C 
ATOM      6  C   UNL     1      63.057   4.016   7.633  1.00  0.00     0.066 C 
ATOM      7  O   UNL     1      63.967   4.729   6.794  1.00  0.00    -0.369 OA
ATOM      8  C   UNL     1      63.783   2.783   8.242  1.00  0.00     0.035 C 
ATOM      9  C   UNL     1      64.237   1.829   7.110  1.00  0.00     0.009 C 
ATOM     10  C   UNL     1      62.573   4.953   8.745  1.00  0.00     0.042 C 
ATOM     11  C   UNL     1      64.123   4.637   4.387  1.00  0.00     0.042 C 
ENDROOT
TORSDOF 0
ENDMDL
MODEL 6
REMARK VINA RESULT:    -4.134      2.905      4.708
REMARK INTER + INTRA:          -4.134
REMARK INTER:                  -4.134
REMARK INTRA:                   0.000
REMARK UNBOUND:                 0.000
REMARK SMILES CC1(C)O[C@]2(C)CC[C@H]1CC2
REMARK SMILES IDX 1 1 2 2 9 3 8 4 7 5 5 6 4 7 11 8 10 9 6 10 3 11
REMARK H PARENT
REMARK Flexibility Score: inf
ROOT
ATOM      1  C   UNL     1      67.334   2.771  -0.828  1.00  0.00     0.042 C 
ATOM      2  C   UNL     1      66.281   3.500  -1.689  1.00  0.00     0.066 C 
ATOM      3  C   UNL     1      64.863   3.449  -1.000  1.00  0.00     0.021 C 
ATOM      4  C   UNL     1      63.861   4.237  -1.878  1.00  0.00     0.009 C 
ATOM      5  C   UNL     1      64.443   5.640  -2.177  1.00  0.00     0.035 C 
ATOM      6  C   UNL     1      65.791   5.823  -1.422  1.00  0.00     0.066 C 
ATOM      7  O   UNL     1      66.727   4.851  -1.889  1.00  0.00    -0.369 OA
ATOM      8  C   UNL     1      65.552   5.613   0.100  1.00  0.00     0.035 C 
ATOM      9  C   UNL     1      64.945   4.209   0.346  1.00  0.00     0.009 C 
ATOM     10  C   UNL     1      66.361   7.222  -1.683  1.00  0.00     0.042 C 
ATOM     11  C   UNL     1      66.245   2.798  -3.065  1.00  0.00     0.042 C 
ENDROOT
TORSDOF 0
ENDMDL
MODEL 7
REMARK VINA RESULT:    -4.074      8.488      9.985
REMARK INTER + INTRA:          -4.074
REMARK INTER:                  -4.074
REMARK INTRA:                   0.000
REMARK UNBOUND:                 0.000
REMARK SMILES CC1(C)O[C@]2(C)CC[C@H]1CC2
REMARK SMILES IDX 1 1 2 2 9 3 8 4 7 5 5 6 4 7 11 8 10 9 6 10 3 11
REMARK H PARENT
REMARK Flexibility Score: inf
ROOT
ATOM      1  C   UNL     1      61.457   0.686   4.547  1.00  0.00     0.042 C 
ATOM      2  C   UNL     1      62.643   1.673   4.492  1.00  0.00     0.066 C 
ATOM      3  C   UNL     1      62.129   3.156   4.339  1.00  0.00     0.021 C 
ATOM      4  C   UNL     1      63.354   4.102   4.342  1.00  0.00     0.009 C 
ATOM      5  C   UNL     1      64.235   3.791   5.576  1.00  0.00     0.035 C 
ATOM      6  C   UNL     1      63.551   2.699   6.449  1.00  0.00     0.066 C 
ATOM      7  O   UNL     1      63.424   1.499   5.685  1.00  0.00    -0.369 OA
ATOM      8  C   UNL     1      62.135   3.195   6.862  1.00  0.00     0.035 C 
ATOM      9  C   UNL     1      61.304   3.519   5.597  1.00  0.00     0.009 C 
ATOM     10  C   UNL     1      64.396   2.405   7.693  1.00  0.00     0.042 C 
ATOM     11  C   UNL     1      63.519   1.271   3.284  1.00  0.00     0.042 C 
ENDROOT
TORSDOF 0
ENDMDL
MODEL 8
REMARK VINA RESULT:    -4.067      9.303     10.702
REMARK INTER + INTRA:          -4.067
REMARK INTER:                  -4.067
REMARK INTRA:                   0.000
REMARK UNBOUND:                 0.000
REMARK SMILES CC1(C)O[C@]2(C)CC[C@H]1CC2
REMARK SMILES IDX 1 1 2 2 9 3 8 4 7 5 5 6 4 7 11 8 10 9 6 10 3 11
REMARK H PARENT
REMARK Flexibility Score: inf
ROOT
ATOM      1  C   UNL     1      62.423   3.905   4.045  1.00  0.00     0.042 C 
ATOM      2  C   UNL     1      62.723   2.999   5.259  1.00  0.00     0.066 C 
ATOM      3  C   UNL     1      64.264   2.676   5.348  1.00  0.00     0.021 C 
ATOM      4  C   UNL     1      64.513   1.812   6.608  1.00  0.00     0.009 C 
ATOM      5  C   UNL     1      63.872   2.506   7.834  1.00  0.00     0.035 C 
ATOM      6  C   UNL     1      63.275   3.879   7.410  1.00  0.00     0.066 C 
ATOM      7  O   UNL     1      62.250   3.666   6.440  1.00  0.00    -0.369 OA
ATOM      8  C   UNL     1      64.402   4.748   6.781  1.00  0.00     0.035 C 
ATOM      9  C   UNL     1      65.030   4.001   5.578  1.00  0.00     0.009 C 
ATOM     10  C   UNL     1      62.668   4.593   8.623  1.00  0.00     0.042 C 
ATOM     11  C   UNL     1      61.902   1.703   5.080  1.00  0.00     0.042 C 
ENDROOT
TORSDOF 0
ENDMDL
MODEL 9
REMARK VINA RESULT:    -4.063      7.910      9.435
REMARK INTER + INTRA:          -4.063
REMARK INTER:                  -4.063
REMARK INTRA:                   0.000
REMARK UNBOUND:                 0.000
REMARK SMILES CC1(C)O[C@]2(C)CC[C@H]1CC2
REMARK SMILES IDX 1 1 2 2 9 3 8 4 7 5 5 6 4 7 11 8 10 9 6 10 3 11
REMARK H PARENT
REMARK Flexibility Score: inf
ROOT
ATOM      1  C   UNL     1      64.077   4.598   3.222  1.00  0.00     0.042 C 
ATOM      2  C   UNL     1      62.900   3.608   3.359  1.00  0.00     0.066 C 
ATOM      3  C   UNL     1      63.428   2.132   3.538  1.00  0.00     0.021 C 
ATOM      4  C   UNL     1      62.211   1.195   3.722  1.00  0.00     0.009 C 
ATOM      5  C   UNL     1      61.303   1.754   4.845  1.00  0.00     0.035 C 
ATOM      6  C   UNL     1      61.962   3.016   5.474  1.00  0.00     0.066 C 
ATOM      7  O   UNL     1      62.095   4.025   4.473  1.00  0.00    -0.369 OA
ATOM      8  C   UNL     1      63.372   2.637   6.010  1.00  0.00     0.035 C 
ATOM      9  C   UNL     1      64.231   2.057   4.859  1.00  0.00     0.009 C 
ATOM     10  C   UNL     1      61.089   3.561   6.611  1.00  0.00     0.042 C 
ATOM     11  C   UNL     1      62.045   3.730   2.078  1.00  0.00     0.042 C 
ENDROOT
TORSDOF 0
ENDMDL
