MODEL 1
REMARK VINA RESULT:    -3.516      0.000      0.000
REMARK INTER + INTRA:          -4.238
REMARK INTER:                  -4.236
REMARK INTRA:                  -0.002
REMARK UNBOUND:                -0.002
REMARK SMILES OCC(O)CO
REMARK SMILES IDX 3 1 5 2 6 3 2 5 1 6 4 8
REMARK H PARENT 6 4 1 7 4 9
REMARK Flexibility Score: inf
ROOT
ATOM      1  C   UNL     1      17.533  88.210  32.007  1.00  0.00     0.165 C 
ENDROOT
BRANCH   1   2
ATOM      2  C   UNL     1      18.163  89.296  31.115  1.00  0.00     0.190 C 
BRANCH   2   3
ATOM      3  O   UNL     1      17.642  90.557  31.441  1.00  0.00    -0.394 OA
ATOM      4  H   UNL     1      16.788  90.650  30.942  1.00  0.00     0.210 HD
ENDBRANCH   2   3
ENDBRANCH   1   2
BRANCH   1   5
ATOM      5  C   UNL     1      17.339  86.881  31.255  1.00  0.00     0.190 C 
BRANCH   5   6
ATOM      6  O   UNL     1      16.201  86.198  31.712  1.00  0.00    -0.394 OA
ATOM      7  H   UNL     1      15.877  85.640  30.957  1.00  0.00     0.210 HD
ENDBRANCH   5   6
ENDBRANCH   1   5
BRANCH   1   8
ATOM      8  O   UNL     1      18.286  88.015  33.178  1.00  0.00    -0.388 OA
ATOM      9  H   UNL     1      18.593  88.905  33.493  1.00  0.00     0.211 HD
ENDBRANCH   1   8
TORSDOF 5
ENDMDL
MODEL 2
REMARK VINA RESULT:    -3.432      1.377      1.863
REMARK INTER + INTRA:          -4.137
REMARK INTER:                  -4.001
REMARK INTRA:                  -0.136
REMARK UNBOUND:                -0.002
REMARK SMILES OCC(O)CO
REMARK SMILES IDX 3 1 5 2 6 3 2 5 1 6 4 8
REMARK H PARENT 6 4 1 7 4 9
REMARK Flexibility Score: inf
ROOT
ATOM      1  C   UNL     1      17.791  88.542  31.951  1.00  0.00     0.165 C 
ENDROOT
BRANCH   1   2
ATOM      2  C   UNL     1      18.858  87.961  31.006  1.00  0.00     0.190 C 
BRANCH   2   3
ATOM      3  O   UNL     1      20.038  87.687  31.713  1.00  0.00    -0.394 OA
ATOM      4  H   UNL     1      20.001  88.222  32.548  1.00  0.00     0.210 HD
ENDBRANCH   2   3
ENDBRANCH   1   2
BRANCH   1   5
ATOM      5  C   UNL     1      16.769  87.481  32.397  1.00  0.00     0.190 C 
BRANCH   5   6
ATOM      6  O   UNL     1      17.154  86.196  31.984  1.00  0.00    -0.394 OA
ATOM      7  H   UNL     1      18.005  86.298  31.481  1.00  0.00     0.210 HD
ENDBRANCH   5   6
ENDBRANCH   1   5
BRANCH   1   8
ATOM      8  O   UNL     1      18.383  89.163  33.066  1.00  0.00    -0.388 OA
ATOM      9  H   UNL     1      17.761  89.868  33.385  1.00  0.00     0.211 HD
ENDBRANCH   1   8
TORSDOF 5
ENDMDL
MODEL 3
REMARK VINA RESULT:    -3.391      0.863      2.982
REMARK INTER + INTRA:          -4.088
REMARK INTER:                  -4.080
REMARK INTRA:                  -0.007
REMARK UNBOUND:                -0.002
REMARK SMILES OCC(O)CO
REMARK SMILES IDX 3 1 5 2 6 3 2 5 1 6 4 8
REMARK H PARENT 6 4 1 7 4 9
REMARK Flexibility Score: inf
ROOT
ATOM      1  C   UNL     1      18.536  88.475  31.526  1.00  0.00     0.165 C 
ENDROOT
BRANCH   1   2
ATOM      2  C   UNL     1      17.594  87.284  31.275  1.00  0.00     0.190 C 
BRANCH   2   3
ATOM      3  O   UNL     1      17.035  86.841  32.482  1.00  0.00    -0.394 OA
ATOM      4  H   UNL     1      16.076  87.100  32.465  1.00  0.00     0.210 HD
ENDBRANCH   2   3
ENDBRANCH   1   2
BRANCH   1   5
ATOM      5  C   UNL     1      18.185  89.690  30.648  1.00  0.00     0.190 C 
BRANCH   5   6
ATOM      6  O   UNL     1      17.619  90.723  31.410  1.00  0.00    -0.394 OA
ATOM      7  H   UNL     1      18.364  91.318  31.688  1.00  0.00     0.210 HD
ENDBRANCH   5   6
ENDBRANCH   1   5
BRANCH   1   8
ATOM      8  O   UNL     1      18.553  88.831  32.886  1.00  0.00    -0.388 OA
ATOM      9  H   UNL     1      17.642  89.139  33.131  1.00  0.00     0.211 HD
ENDBRANCH   1   8
TORSDOF 5
ENDMDL
MODEL 4
REMARK VINA RESULT:    -3.363      1.496      2.995
REMARK INTER + INTRA:          -4.053
REMARK INTER:                  -3.855
REMARK INTRA:                  -0.198
REMARK UNBOUND:                -0.002
REMARK SMILES OCC(O)CO
REMARK SMILES IDX 3 1 5 2 6 3 2 5 1 6 4 8
REMARK H PARENT 6 4 1 7 4 9
REMARK Flexibility Score: inf
ROOT
ATOM      1  C   UNL     1      18.107  87.441  30.930  1.00  0.00     0.165 C 
ENDROOT
BRANCH   1   2
ATOM      2  C   UNL     1      17.334  86.111  30.853  1.00  0.00     0.190 C 
BRANCH   2   3
ATOM      3  O   UNL     1      16.241  86.132  31.732  1.00  0.00    -0.394 OA
ATOM      4  H   UNL     1      16.481  85.550  32.500  1.00  0.00     0.210 HD
ENDBRANCH   2   3
ENDBRANCH   1   2
BRANCH   1   5
ATOM      5  C   UNL     1      17.612  88.336  32.080  1.00  0.00     0.190 C 
BRANCH   5   6
ATOM      6  O   UNL     1      18.199  87.968  33.301  1.00  0.00    -0.394 OA
ATOM      7  H   UNL     1      19.020  88.518  33.403  1.00  0.00     0.210 HD
ENDBRANCH   5   6
ENDBRANCH   1   5
BRANCH   1   8
ATOM      8  O   UNL     1      19.491  87.219  31.031  1.00  0.00    -0.388 OA
ATOM      9  H   UNL     1      19.906  87.495  30.172  1.00  0.00     0.211 HD
ENDBRANCH   1   8
TORSDOF 5
ENDMDL
MODEL 5
REMARK VINA RESULT:    -3.330      1.430      2.147
REMARK INTER + INTRA:          -4.014
REMARK INTER:                  -3.806
REMARK INTRA:                  -0.208
REMARK UNBOUND:                -0.002
REMARK SMILES OCC(O)CO
REMARK SMILES IDX 3 1 5 2 6 3 2 5 1 6 4 8
REMARK H PARENT 6 4 1 7 4 9
REMARK Flexibility Score: inf
ROOT
ATOM      1  C   UNL     1      18.125  87.431  30.900  1.00  0.00     0.165 C 
ENDROOT
BRANCH   1   2
ATOM      2  C   UNL     1      17.661  88.369  32.029  1.00  0.00     0.190 C 
BRANCH   2   3
ATOM      3  O   UNL     1      18.213  87.968  33.254  1.00  0.00    -0.394 OA
ATOM      4  H   UNL     1      18.416  87.000  33.172  1.00  0.00     0.210 HD
ENDBRANCH   2   3
ENDBRANCH   1   2
BRANCH   1   5
ATOM      5  C   UNL     1      17.316  86.122  30.862  1.00  0.00     0.190 C 
BRANCH   5   6
ATOM      6  O   UNL     1      16.224  86.172  31.743  1.00  0.00    -0.394 OA
ATOM      7  H   UNL     1      16.489  86.761  32.497  1.00  0.00     0.210 HD
ENDBRANCH   5   6
ENDBRANCH   1   5
BRANCH   1   8
ATOM      8  O   UNL     1      18.086  88.078  29.653  1.00  0.00    -0.388 OA
ATOM      9  H   UNL     1      17.828  89.024  29.810  1.00  0.00     0.211 HD
ENDBRANCH   1   8
TORSDOF 5
ENDMDL
MODEL 6
REMARK VINA RESULT:    -3.308      1.456      2.706
REMARK INTER + INTRA:          -3.987
REMARK INTER:                  -3.763
REMARK INTRA:                  -0.224
REMARK UNBOUND:                -0.002
REMARK SMILES OCC(O)CO
REMARK SMILES IDX 3 1 5 2 6 3 2 5 1 6 4 8
REMARK H PARENT 6 4 1 7 4 9
REMARK Flexibility Score: inf
ROOT
ATOM      1  C   UNL     1      16.998  87.085  31.438  1.00  0.00     0.165 C 
ENDROOT
BRANCH   1   2
ATOM      2  C   UNL     1      16.993  87.741  32.831  1.00  0.00     0.190 C 
BRANCH   2   3
ATOM      3  O   UNL     1      18.302  88.054  33.227  1.00  0.00    -0.394 OA
ATOM      4  H   UNL     1      18.777  87.190  33.350  1.00  0.00     0.210 HD
ENDBRANCH   2   3
ENDBRANCH   1   2
BRANCH   1   5
ATOM      5  C   UNL     1      18.370  87.194  30.749  1.00  0.00     0.190 C 
BRANCH   5   6
ATOM      6  O   UNL     1      18.642  88.514  30.359  1.00  0.00    -0.394 OA
ATOM      7  H   UNL     1      18.016  88.730  29.619  1.00  0.00     0.210 HD
ENDBRANCH   5   6
ENDBRANCH   1   5
BRANCH   1   8
ATOM      8  O   UNL     1      16.580  85.745  31.506  1.00  0.00    -0.388 OA
ATOM      9  H   UNL     1      16.464  85.511  32.464  1.00  0.00     0.211 HD
ENDBRANCH   1   8
TORSDOF 5
ENDMDL
MODEL 7
REMARK VINA RESULT:    -3.263     12.383     12.697
REMARK INTER + INTRA:          -3.933
REMARK INTER:                  -3.720
REMARK INTRA:                  -0.212
REMARK UNBOUND:                -0.002
REMARK SMILES OCC(O)CO
REMARK SMILES IDX 3 1 5 2 6 3 2 5 1 6 4 8
REMARK H PARENT 6 4 1 7 4 9
REMARK Flexibility Score: inf
ROOT
ATOM      1  C   UNL     1      16.816  88.844  19.901  1.00  0.00     0.165 C 
ENDROOT
BRANCH   1   2
ATOM      2  C   UNL     1      17.974  89.804  20.229  1.00  0.00     0.190 C 
BRANCH   2   3
ATOM      3  O   UNL     1      18.614  90.216  19.051  1.00  0.00    -0.394 OA
ATOM      4  H   UNL     1      19.408  90.745  19.328  1.00  0.00     0.210 HD
ENDBRANCH   2   3
ENDBRANCH   1   2
BRANCH   1   5
ATOM      5  C   UNL     1      15.502  89.594  19.617  1.00  0.00     0.190 C 
BRANCH   5   6
ATOM      6  O   UNL     1      15.619  90.418  18.487  1.00  0.00    -0.394 OA
ATOM      7  H   UNL     1      14.743  90.392  18.019  1.00  0.00     0.210 HD
ENDBRANCH   5   6
ENDBRANCH   1   5
BRANCH   1   8
ATOM      8  O   UNL     1      17.147  87.995  18.831  1.00  0.00    -0.388 OA
ATOM      9  H   UNL     1      18.136  87.923  18.796  1.00  0.00     0.211 HD
ENDBRANCH   1   8
TORSDOF 5
ENDMDL
MODEL 8
REMARK VINA RESULT:    -3.233      1.295      2.481
REMARK INTER + INTRA:          -3.897
REMARK INTER:                  -3.674
REMARK INTRA:                  -0.223
REMARK UNBOUND:                -0.002
REMARK SMILES OCC(O)CO
REMARK SMILES IDX 3 1 5 2 6 3 2 5 1 6 4 8
REMARK H PARENT 6 4 1 7 4 9
REMARK Flexibility Score: inf
ROOT
ATOM      1  C   UNL     1      17.358  86.773  31.553  1.00  0.00     0.165 C 
ENDROOT
BRANCH   1   2
ATOM      2  C   UNL     1      17.895  87.375  30.241  1.00  0.00     0.190 C 
BRANCH   2   3
ATOM      3  O   UNL     1      18.020  88.767  30.358  1.00  0.00    -0.394 OA
ATOM      4  H   UNL     1      18.042  88.971  31.330  1.00  0.00     0.210 HD
ENDBRANCH   2   3
ENDBRANCH   1   2
BRANCH   1   5
ATOM      5  C   UNL     1      17.116  87.847  32.628  1.00  0.00     0.190 C 
BRANCH   5   6
ATOM      6  O   UNL     1      18.314  88.219  33.257  1.00  0.00    -0.394 OA
ATOM      7  H   UNL     1      18.809  88.795  32.617  1.00  0.00     0.210 HD
ENDBRANCH   5   6
ENDBRANCH   1   5
BRANCH   1   8
ATOM      8  O   UNL     1      16.191  86.022  31.327  1.00  0.00    -0.388 OA
ATOM      9  H   UNL     1      16.291  85.156  31.802  1.00  0.00     0.211 HD
ENDBRANCH   1   8
TORSDOF 5
ENDMDL
MODEL 9
REMARK VINA RESULT:    -3.147     11.654     12.380
REMARK INTER + INTRA:          -3.793
REMARK INTER:                  -3.570
REMARK INTRA:                  -0.223
REMARK UNBOUND:                -0.002
REMARK SMILES OCC(O)CO
REMARK SMILES IDX 3 1 5 2 6 3 2 5 1 6 4 8
REMARK H PARENT 6 4 1 7 4 9
REMARK Flexibility Score: inf
ROOT
ATOM      1  C   UNL     1      17.068  89.499  19.473  1.00  0.00     0.165 C 
ENDROOT
BRANCH   1   2
ATOM      2  C   UNL     1      17.051  89.612  21.008  1.00  0.00     0.190 C 
BRANCH   2   3
ATOM      3  O   UNL     1      18.318  89.979  21.484  1.00  0.00    -0.394 OA
ATOM      4  H   UNL     1      18.219  90.151  22.457  1.00  0.00     0.210 HD
ENDBRANCH   2   3
ENDBRANCH   1   2
BRANCH   1   5
ATOM      5  C   UNL     1      18.408  88.956  18.945  1.00  0.00     0.190 C 
BRANCH   5   6
ATOM      6  O   UNL     1      19.314  89.997  18.690  1.00  0.00    -0.394 OA
ATOM      7  H   UNL     1      18.859  90.631  18.077  1.00  0.00     0.210 HD
ENDBRANCH   5   6
ENDBRANCH   1   5
BRANCH   1   8
ATOM      8  O   UNL     1      15.996  88.716  19.009  1.00  0.00    -0.388 OA
ATOM      9  H   UNL     1      15.943  88.826  18.024  1.00  0.00     0.211 HD
ENDBRANCH   1   8
TORSDOF 5
ENDMDL
