MODEL 1
REMARK VINA RESULT:    -5.060      0.000      0.000
REMARK INTER + INTRA:         -10.749
REMARK INTER:                  -9.202
REMARK INTRA:                  -1.547
REMARK UNBOUND:                -1.547
REMARK SMILES CCCCCCCCCCCCCC[C@@H](C)C(=O)[O-]
REMARK SMILES IDX 9 1 10 2 11 3 12 4 13 5 14 6 15 7 16 8 17 9 18 10 19 11 8 12
REMARK SMILES IDX 7 13 6 14 5 15 4 16 3 17 2 18 1 19
REMARK H PARENT
REMARK Flexibility Score: inf
ROOT
ATOM      1  C   UNL     1      79.360  57.392  10.350  1.00  0.00     0.000 C 
ENDROOT
BRANCH   1   2
ATOM      2  C   UNL     1      79.222  58.886  10.015  1.00  0.00     0.000 C 
BRANCH   2   3
ATOM      3  C   UNL     1      80.460  59.702  10.418  1.00  0.00     0.000 C 
BRANCH   3   4
ATOM      4  C   UNL     1      81.658  58.783  10.691  1.00  0.00     0.000 C 
BRANCH   4   5
ATOM      5  C   UNL     1      82.980  59.489  10.371  1.00  0.00     0.001 C 
BRANCH   5   6
ATOM      6  C   UNL     1      82.791  61.013  10.310  1.00  0.00     0.009 C 
BRANCH   6   7
ATOM      7  C   UNL     1      84.137  61.765  10.273  1.00  0.00     0.032 C 
ATOM      8  C   UNL     1      85.209  60.996  11.052  1.00  0.00     0.014 C 
BRANCH   7   9
ATOM      9  C   UNL     1      84.600  62.001   8.860  1.00  0.00     0.044 C 
ATOM     10  O   UNL     1      85.420  61.214   8.315  1.00  0.00    -0.550 OA
ATOM     11  O   UNL     1      84.123  63.093   8.147  1.00  0.00    -0.550 OA
ENDBRANCH   7   9
ENDBRANCH   6   7
ENDBRANCH   5   6
ENDBRANCH   4   5
ENDBRANCH   3   4
ENDBRANCH   2   3
ENDBRANCH   1   2
BRANCH   1  12
ATOM     12  C   UNL     1      78.134  56.574   9.912  1.00  0.00     0.000 C 
BRANCH  12  13
ATOM     13  C   UNL     1      77.721  56.844   8.453  1.00  0.00    -0.000 C 
BRANCH  13  14
ATOM     14  C   UNL     1      78.050  55.719   7.455  1.00  0.00    -0.000 C 
BRANCH  14  15
ATOM     15  C   UNL     1      78.067  54.325   8.104  1.00  0.00    -0.000 C 
BRANCH  15  16
ATOM     16  C   UNL     1      79.387  53.569   7.865  1.00  0.00    -0.000 C 
BRANCH  16  17
ATOM     17  C   UNL     1      80.671  54.368   8.173  1.00  0.00    -0.000 C 
BRANCH  17  18
ATOM     18  C   UNL     1      81.355  54.012   9.504  1.00  0.00    -0.003 C 
ATOM     19  C   UNL     1      82.197  55.157  10.065  1.00  0.00     0.004 C 
ENDBRANCH  17  18
ENDBRANCH  16  17
ENDBRANCH  15  16
ENDBRANCH  14  15
ENDBRANCH  13  14
ENDBRANCH  12  13
ENDBRANCH   1  12
TORSDOF 14
ENDMDL
MODEL 2
REMARK VINA RESULT:    -5.053      1.443      3.065
REMARK INTER + INTRA:         -10.737
REMARK INTER:                  -8.750
REMARK INTRA:                  -1.987
REMARK UNBOUND:                -1.547
REMARK SMILES CCCCCCCCCCCCCC[C@@H](C)C(=O)[O-]
REMARK SMILES IDX 9 1 10 2 11 3 12 4 13 5 14 6 15 7 16 8 17 9 18 10 19 11 8 12
REMARK SMILES IDX 7 13 6 14 5 15 4 16 3 17 2 18 1 19
REMARK H PARENT
REMARK Flexibility Score: inf
ROOT
ATOM      1  C   UNL     1      79.861  56.032  10.950  1.00  0.00     0.000 C 
ENDROOT
BRANCH   1   2
ATOM      2  C   UNL     1      79.189  57.413  11.014  1.00  0.00     0.000 C 
BRANCH   2   3
ATOM      3  C   UNL     1      79.792  58.413  10.016  1.00  0.00     0.000 C 
BRANCH   3   4
ATOM      4  C   UNL     1      80.246  59.693  10.728  1.00  0.00     0.000 C 
BRANCH   4   5
ATOM      5  C   UNL     1      81.673  60.076  10.319  1.00  0.00     0.001 C 
BRANCH   5   6
ATOM      6  C   UNL     1      82.652  59.882  11.486  1.00  0.00     0.009 C 
BRANCH   6   7
ATOM      7  C   UNL     1      84.023  59.354  11.014  1.00  0.00     0.032 C 
ATOM      8  C   UNL     1      83.862  58.456   9.782  1.00  0.00     0.014 C 
BRANCH   7   9
ATOM      9  C   UNL     1      84.973  60.480  10.707  1.00  0.00     0.044 C 
ATOM     10  O   UNL     1      84.896  61.572  11.332  1.00  0.00    -0.550 OA
ATOM     11  O   UNL     1      85.947  60.319   9.730  1.00  0.00    -0.550 OA
ENDBRANCH   7   9
ENDBRANCH   6   7
ENDBRANCH   5   6
ENDBRANCH   4   5
ENDBRANCH   3   4
ENDBRANCH   2   3
ENDBRANCH   1   2
BRANCH   1  12
ATOM     12  C   UNL     1      81.282  56.093  10.365  1.00  0.00     0.000 C 
BRANCH  12  13
ATOM     13  C   UNL     1      81.690  54.798   9.640  1.00  0.00    -0.000 C 
BRANCH  13  14
ATOM     14  C   UNL     1      80.620  53.690   9.615  1.00  0.00    -0.000 C 
BRANCH  14  15
ATOM     15  C   UNL     1      80.129  53.361   8.195  1.00  0.00    -0.000 C 
BRANCH  15  16
ATOM     16  C   UNL     1      79.495  54.572   7.485  1.00  0.00    -0.000 C 
BRANCH  16  17
ATOM     17  C   UNL     1      78.032  54.873   7.870  1.00  0.00    -0.000 C 
BRANCH  17  18
ATOM     18  C   UNL     1      77.652  56.363   7.868  1.00  0.00    -0.003 C 
ATOM     19  C   UNL     1      77.834  57.022   6.502  1.00  0.00     0.004 C 
ENDBRANCH  17  18
ENDBRANCH  16  17
ENDBRANCH  15  16
ENDBRANCH  14  15
ENDBRANCH  13  14
ENDBRANCH  12  13
ENDBRANCH   1  12
TORSDOF 14
ENDMDL
MODEL 3
REMARK VINA RESULT:    -4.928      4.072      8.047
REMARK INTER + INTRA:         -10.509
REMARK INTER:                  -9.396
REMARK INTRA:                  -1.113
REMARK UNBOUND:                -1.547
REMARK SMILES CCCCCCCCCCCCCC[C@@H](C)C(=O)[O-]
REMARK SMILES IDX 9 1 10 2 11 3 12 4 13 5 14 6 15 7 16 8 17 9 18 10 19 11 8 12
REMARK SMILES IDX 7 13 6 14 5 15 4 16 3 17 2 18 1 19
REMARK H PARENT
REMARK Flexibility Score: inf
ROOT
ATOM      1  C   UNL     1      80.025  57.407  10.802  1.00  0.00     0.000 C 
ENDROOT
BRANCH   1   2
ATOM      2  C   UNL     1      78.859  57.952   9.962  1.00  0.00     0.000 C 
BRANCH   2   3
ATOM      3  C   UNL     1      77.899  56.848   9.492  1.00  0.00     0.000 C 
BRANCH   3   4
ATOM      4  C   UNL     1      77.762  56.852   7.965  1.00  0.00     0.000 C 
BRANCH   4   5
ATOM      5  C   UNL     1      77.835  55.428   7.401  1.00  0.00     0.001 C 
BRANCH   5   6
ATOM      6  C   UNL     1      78.268  54.427   8.482  1.00  0.00     0.009 C 
BRANCH   6   7
ATOM      7  C   UNL     1      79.619  53.760   8.152  1.00  0.00     0.032 C 
ATOM      8  C   UNL     1      80.639  54.024   9.264  1.00  0.00     0.014 C 
BRANCH   7   9
ATOM      9  C   UNL     1      79.466  52.278   7.937  1.00  0.00     0.044 C 
ATOM     10  O   UNL     1      79.924  51.458   8.778  1.00  0.00    -0.550 OA
ATOM     11  O   UNL     1      78.815  51.805   6.805  1.00  0.00    -0.550 OA
ENDBRANCH   7   9
ENDBRANCH   6   7
ENDBRANCH   5   6
ENDBRANCH   4   5
ENDBRANCH   3   4
ENDBRANCH   2   3
ENDBRANCH   1   2
BRANCH   1  12
ATOM     12  C   UNL     1      81.372  58.047  10.426  1.00  0.00     0.000 C 
BRANCH  12  13
ATOM     13  C   UNL     1      81.458  59.536  10.811  1.00  0.00    -0.000 C 
BRANCH  13  14
ATOM     14  C   UNL     1      82.648  59.917  11.712  1.00  0.00    -0.000 C 
BRANCH  14  15
ATOM     15  C   UNL     1      83.996  59.408  11.175  1.00  0.00    -0.000 C 
BRANCH  15  16
ATOM     16  C   UNL     1      85.203  60.033  11.898  1.00  0.00    -0.000 C 
BRANCH  16  17
ATOM     17  C   UNL     1      85.198  59.893  13.434  1.00  0.00    -0.000 C 
BRANCH  17  18
ATOM     18  C   UNL     1      85.241  61.221  14.209  1.00  0.00    -0.003 C 
ATOM     19  C   UNL     1      85.062  61.038  15.715  1.00  0.00     0.004 C 
ENDBRANCH  17  18
ENDBRANCH  16  17
ENDBRANCH  15  16
ENDBRANCH  14  15
ENDBRANCH  13  14
ENDBRANCH  12  13
ENDBRANCH   1  12
TORSDOF 14
ENDMDL
MODEL 4
REMARK VINA RESULT:    -4.848      3.335      6.176
REMARK INTER + INTRA:         -10.364
REMARK INTER:                  -8.508
REMARK INTRA:                  -1.856
REMARK UNBOUND:                -1.547
REMARK SMILES CCCCCCCCCCCCCC[C@@H](C)C(=O)[O-]
REMARK SMILES IDX 9 1 10 2 11 3 12 4 13 5 14 6 15 7 16 8 17 9 18 10 19 11 8 12
REMARK SMILES IDX 7 13 6 14 5 15 4 16 3 17 2 18 1 19
REMARK H PARENT
REMARK Flexibility Score: inf
ROOT
ATOM      1  C   UNL     1      83.613  60.023  10.563  1.00  0.00     0.000 C 
ENDROOT
BRANCH   1   2
ATOM      2  C   UNL     1      84.390  59.190   9.531  1.00  0.00     0.000 C 
BRANCH   2   3
ATOM      3  C   UNL     1      84.216  57.677   9.737  1.00  0.00     0.000 C 
BRANCH   3   4
ATOM      4  C   UNL     1      84.650  56.900   8.488  1.00  0.00     0.000 C 
BRANCH   4   5
ATOM      5  C   UNL     1      83.985  55.520   8.438  1.00  0.00     0.001 C 
BRANCH   5   6
ATOM      6  C   UNL     1      83.036  55.321   9.630  1.00  0.00     0.009 C 
BRANCH   6   7
ATOM      7  C   UNL     1      81.633  54.857   9.187  1.00  0.00     0.032 C 
ATOM      8  C   UNL     1      81.684  54.244   7.783  1.00  0.00     0.014 C 
BRANCH   7   9
ATOM      9  C   UNL     1      81.046  53.867  10.157  1.00  0.00     0.044 C 
ATOM     10  O   UNL     1      80.782  54.210  11.341  1.00  0.00    -0.550 OA
ATOM     11  O   UNL     1      80.788  52.565   9.749  1.00  0.00    -0.550 OA
ENDBRANCH   7   9
ENDBRANCH   6   7
ENDBRANCH   5   6
ENDBRANCH   4   5
ENDBRANCH   3   4
ENDBRANCH   2   3
ENDBRANCH   1   2
BRANCH   1  12
ATOM     12  C   UNL     1      82.273  59.377  10.954  1.00  0.00     0.000 C 
BRANCH  12  13
ATOM     13  C   UNL     1      81.055  60.117  10.370  1.00  0.00    -0.000 C 
BRANCH  13  14
ATOM     14  C   UNL     1      79.771  59.276  10.243  1.00  0.00    -0.000 C 
BRANCH  14  15
ATOM     15  C   UNL     1      80.025  57.766  10.387  1.00  0.00    -0.000 C 
BRANCH  15  16
ATOM     16  C   UNL     1      78.807  57.004  10.939  1.00  0.00    -0.000 C 
BRANCH  16  17
ATOM     17  C   UNL     1      78.019  56.176   9.903  1.00  0.00    -0.000 C 
BRANCH  17  18
ATOM     18  C   UNL     1      78.058  56.724   8.467  1.00  0.00    -0.003 C 
ATOM     19  C   UNL     1      78.052  55.621   7.409  1.00  0.00     0.004 C 
ENDBRANCH  17  18
ENDBRANCH  16  17
ENDBRANCH  15  16
ENDBRANCH  14  15
ENDBRANCH  13  14
ENDBRANCH  12  13
ENDBRANCH   1  12
TORSDOF 14
ENDMDL
MODEL 5
REMARK VINA RESULT:    -4.832      1.705      2.725
REMARK INTER + INTRA:         -10.333
REMARK INTER:                  -8.898
REMARK INTRA:                  -1.435
REMARK UNBOUND:                -1.547
REMARK SMILES CCCCCCCCCCCCCC[C@@H](C)C(=O)[O-]
REMARK SMILES IDX 9 1 10 2 11 3 12 4 13 5 14 6 15 7 16 8 17 9 18 10 19 11 8 12
REMARK SMILES IDX 7 13 6 14 5 15 4 16 3 17 2 18 1 19
REMARK H PARENT
REMARK Flexibility Score: inf
ROOT
ATOM      1  C   UNL     1      77.703  56.950   9.191  1.00  0.00     0.000 C 
ENDROOT
BRANCH   1   2
ATOM      2  C   UNL     1      78.446  56.471  10.448  1.00  0.00     0.000 C 
BRANCH   2   3
ATOM      3  C   UNL     1      79.585  57.416  10.861  1.00  0.00     0.000 C 
BRANCH   3   4
ATOM      4  C   UNL     1      79.524  58.728  10.069  1.00  0.00     0.000 C 
BRANCH   4   5
ATOM      5  C   UNL     1      80.610  59.705  10.535  1.00  0.00     0.001 C 
BRANCH   5   6
ATOM      6  C   UNL     1      81.963  58.995  10.687  1.00  0.00     0.009 C 
BRANCH   6   7
ATOM      7  C   UNL     1      83.151  59.967  10.537  1.00  0.00     0.032 C 
ATOM      8  C   UNL     1      82.661  61.363  10.135  1.00  0.00     0.014 C 
BRANCH   7   9
ATOM      9  C   UNL     1      83.958  60.054  11.805  1.00  0.00     0.044 C 
ATOM     10  O   UNL     1      83.386  60.136  12.925  1.00  0.00    -0.550 OA
ATOM     11  O   UNL     1      85.346  60.041  11.746  1.00  0.00    -0.550 OA
ENDBRANCH   7   9
ENDBRANCH   6   7
ENDBRANCH   5   6
ENDBRANCH   4   5
ENDBRANCH   3   4
ENDBRANCH   2   3
ENDBRANCH   1   2
BRANCH   1  12
ATOM     12  C   UNL     1      78.225  56.282   7.907  1.00  0.00     0.000 C 
BRANCH  12  13
ATOM     13  C   UNL     1      77.753  54.825   7.753  1.00  0.00    -0.000 C 
BRANCH  13  14
ATOM     14  C   UNL     1      78.863  53.760   7.828  1.00  0.00    -0.000 C 
BRANCH  14  15
ATOM     15  C   UNL     1      80.150  54.279   8.491  1.00  0.00    -0.000 C 
BRANCH  15  16
ATOM     16  C   UNL     1      81.364  54.250   7.545  1.00  0.00    -0.000 C 
BRANCH  16  17
ATOM     17  C   UNL     1      82.715  54.619   8.192  1.00  0.00    -0.000 C 
BRANCH  17  18
ATOM     18  C   UNL     1      82.612  55.432   9.494  1.00  0.00    -0.003 C 
ATOM     19  C   UNL     1      83.967  55.660  10.162  1.00  0.00     0.004 C 
ENDBRANCH  17  18
ENDBRANCH  16  17
ENDBRANCH  15  16
ENDBRANCH  14  15
ENDBRANCH  13  14
ENDBRANCH  12  13
ENDBRANCH   1  12
TORSDOF 14
ENDMDL
MODEL 6
REMARK VINA RESULT:    -4.803      3.996      7.894
REMARK INTER + INTRA:         -10.282
REMARK INTER:                  -8.985
REMARK INTRA:                  -1.297
REMARK UNBOUND:                -1.547
REMARK SMILES CCCCCCCCCCCCCC[C@@H](C)C(=O)[O-]
REMARK SMILES IDX 9 1 10 2 11 3 12 4 13 5 14 6 15 7 16 8 17 9 18 10 19 11 8 12
REMARK SMILES IDX 7 13 6 14 5 15 4 16 3 17 2 18 1 19
REMARK H PARENT
REMARK Flexibility Score: inf
ROOT
ATOM      1  C   UNL     1      80.056  57.884  10.708  1.00  0.00     0.000 C 
ENDROOT
BRANCH   1   2
ATOM      2  C   UNL     1      78.809  57.075  10.316  1.00  0.00     0.000 C 
BRANCH   2   3
ATOM      3  C   UNL     1      78.261  57.461   8.933  1.00  0.00     0.000 C 
BRANCH   3   4
ATOM      4  C   UNL     1      77.760  56.225   8.177  1.00  0.00     0.000 C 
BRANCH   4   5
ATOM      5  C   UNL     1      78.273  54.935   8.826  1.00  0.00     0.001 C 
BRANCH   5   6
ATOM      6  C   UNL     1      78.964  54.034   7.791  1.00  0.00     0.009 C 
BRANCH   6   7
ATOM      7  C   UNL     1      80.201  53.320   8.374  1.00  0.00     0.032 C 
ATOM      8  C   UNL     1      80.643  53.984   9.682  1.00  0.00     0.014 C 
BRANCH   7   9
ATOM      9  C   UNL     1      79.936  51.856   8.606  1.00  0.00     0.044 C 
ATOM     10  O   UNL     1      78.974  51.280   8.032  1.00  0.00    -0.550 OA
ATOM     11  O   UNL     1      80.758  51.129   9.458  1.00  0.00    -0.550 OA
ENDBRANCH   7   9
ENDBRANCH   6   7
ENDBRANCH   5   6
ENDBRANCH   4   5
ENDBRANCH   3   4
ENDBRANCH   2   3
ENDBRANCH   1   2
BRANCH   1  12
ATOM     12  C   UNL     1      79.960  59.359  10.283  1.00  0.00     0.000 C 
BRANCH  12  13
ATOM     13  C   UNL     1      81.311  60.095  10.358  1.00  0.00    -0.000 C 
BRANCH  13  14
ATOM     14  C   UNL     1      82.169  59.774  11.595  1.00  0.00    -0.000 C 
BRANCH  14  15
ATOM     15  C   UNL     1      83.674  59.981  11.353  1.00  0.00    -0.000 C 
BRANCH  15  16
ATOM     16  C   UNL     1      84.075  59.788   9.880  1.00  0.00    -0.000 C 
BRANCH  16  17
ATOM     17  C   UNL     1      85.020  60.864   9.305  1.00  0.00    -0.000 C 
BRANCH  17  18
ATOM     18  C   UNL     1      84.365  62.230   9.039  1.00  0.00    -0.003 C 
ATOM     19  C   UNL     1      84.899  63.333   9.951  1.00  0.00     0.004 C 
ENDBRANCH  17  18
ENDBRANCH  16  17
ENDBRANCH  15  16
ENDBRANCH  14  15
ENDBRANCH  13  14
ENDBRANCH  12  13
ENDBRANCH   1  12
TORSDOF 14
ENDMDL
MODEL 7
REMARK VINA RESULT:    -4.774      3.364      7.745
REMARK INTER + INTRA:         -10.229
REMARK INTER:                  -8.877
REMARK INTRA:                  -1.353
REMARK UNBOUND:                -1.547
REMARK SMILES CCCCCCCCCCCCCC[C@@H](C)C(=O)[O-]
REMARK SMILES IDX 9 1 10 2 11 3 12 4 13 5 14 6 15 7 16 8 17 9 18 10 19 11 8 12
REMARK SMILES IDX 7 13 6 14 5 15 4 16 3 17 2 18 1 19
REMARK H PARENT
REMARK Flexibility Score: inf
ROOT
ATOM      1  C   UNL     1      82.299  59.721  11.497  1.00  0.00     0.000 C 
ENDROOT
BRANCH   1   2
ATOM      2  C   UNL     1      81.449  60.367  10.391  1.00  0.00     0.000 C 
BRANCH   2   3
ATOM      3  C   UNL     1      80.183  59.559  10.068  1.00  0.00     0.000 C 
BRANCH   3   4
ATOM      4  C   UNL     1      80.355  58.087  10.463  1.00  0.00     0.000 C 
BRANCH   4   5
ATOM      5  C   UNL     1      78.997  57.418  10.705  1.00  0.00     0.001 C 
BRANCH   5   6
ATOM      6  C   UNL     1      79.081  55.901  10.481  1.00  0.00     0.009 C 
BRANCH   6   7
ATOM      7  C   UNL     1      78.253  55.445   9.262  1.00  0.00     0.032 C 
ATOM      8  C   UNL     1      77.802  56.652   8.433  1.00  0.00     0.014 C 
BRANCH   7   9
ATOM      9  C   UNL     1      79.026  54.487   8.396  1.00  0.00     0.044 C 
ATOM     10  O   UNL     1      80.253  54.285   8.600  1.00  0.00    -0.550 OA
ATOM     11  O   UNL     1      78.386  53.816   7.362  1.00  0.00    -0.550 OA
ENDBRANCH   7   9
ENDBRANCH   6   7
ENDBRANCH   5   6
ENDBRANCH   4   5
ENDBRANCH   3   4
ENDBRANCH   2   3
ENDBRANCH   1   2
BRANCH   1  12
ATOM     12  C   UNL     1      83.799  60.024  11.342  1.00  0.00     0.000 C 
BRANCH  12  13
ATOM     13  C   UNL     1      84.613  58.803  10.876  1.00  0.00    -0.000 C 
BRANCH  13  14
ATOM     14  C   UNL     1      85.754  59.110   9.887  1.00  0.00    -0.000 C 
BRANCH  14  15
ATOM     15  C   UNL     1      85.274  59.847   8.626  1.00  0.00    -0.000 C 
BRANCH  15  16
ATOM     16  C   UNL     1      86.182  61.029   8.241  1.00  0.00    -0.000 C 
BRANCH  16  17
ATOM     17  C   UNL     1      85.850  62.369   8.929  1.00  0.00    -0.000 C 
BRANCH  17  18
ATOM     18  C   UNL     1      84.569  63.058   8.428  1.00  0.00    -0.003 C 
ATOM     19  C   UNL     1      83.508  63.204   9.517  1.00  0.00     0.004 C 
ENDBRANCH  17  18
ENDBRANCH  16  17
ENDBRANCH  15  16
ENDBRANCH  14  15
ENDBRANCH  13  14
ENDBRANCH  12  13
ENDBRANCH   1  12
TORSDOF 14
ENDMDL
MODEL 8
REMARK VINA RESULT:    -4.757      2.166      2.644
REMARK INTER + INTRA:         -10.197
REMARK INTER:                  -8.826
REMARK INTRA:                  -1.371
REMARK UNBOUND:                -1.547
REMARK SMILES CCCCCCCCCCCCCC[C@@H](C)C(=O)[O-]
REMARK SMILES IDX 9 1 10 2 11 3 12 4 13 5 14 6 15 7 16 8 17 9 18 10 19 11 8 12
REMARK SMILES IDX 7 13 6 14 5 15 4 16 3 17 2 18 1 19
REMARK H PARENT
REMARK Flexibility Score: inf
ROOT
ATOM      1  C   UNL     1      79.860  57.549  10.402  1.00  0.00     0.000 C 
ENDROOT
BRANCH   1   2
ATOM      2  C   UNL     1      79.582  59.060  10.358  1.00  0.00     0.000 C 
BRANCH   2   3
ATOM      3  C   UNL     1      80.868  59.901  10.391  1.00  0.00     0.000 C 
BRANCH   3   4
ATOM      4  C   UNL     1      82.060  59.064  10.870  1.00  0.00     0.000 C 
BRANCH   4   5
ATOM      5  C   UNL     1      83.330  59.413  10.086  1.00  0.00     0.001 C 
BRANCH   5   6
ATOM      6  C   UNL     1      84.337  58.254  10.123  1.00  0.00     0.009 C 
BRANCH   6   7
ATOM      7  C   UNL     1      85.543  58.499   9.192  1.00  0.00     0.032 C 
ATOM      8  C   UNL     1      86.031  59.947   9.310  1.00  0.00     0.014 C 
BRANCH   7   9
ATOM      9  C   UNL     1      86.673  57.551   9.489  1.00  0.00     0.044 C 
ATOM     10  O   UNL     1      87.687  57.942  10.128  1.00  0.00    -0.550 OA
ATOM     11  O   UNL     1      86.603  56.232   9.060  1.00  0.00    -0.550 OA
ENDBRANCH   7   9
ENDBRANCH   6   7
ENDBRANCH   5   6
ENDBRANCH   4   5
ENDBRANCH   3   4
ENDBRANCH   2   3
ENDBRANCH   1   2
BRANCH   1  12
ATOM     12  C   UNL     1      78.572  56.714  10.489  1.00  0.00     0.000 C 
BRANCH  12  13
ATOM     13  C   UNL     1      77.664  56.880   9.257  1.00  0.00    -0.000 C 
BRANCH  13  14
ATOM     14  C   UNL     1      78.119  56.124   7.995  1.00  0.00    -0.000 C 
BRANCH  14  15
ATOM     15  C   UNL     1      77.974  54.598   8.123  1.00  0.00    -0.000 C 
BRANCH  15  16
ATOM     16  C   UNL     1      79.275  53.843   7.797  1.00  0.00    -0.000 C 
BRANCH  16  17
ATOM     17  C   UNL     1      80.552  54.415   8.448  1.00  0.00    -0.000 C 
BRANCH  17  18
ATOM     18  C   UNL     1      81.212  53.503   9.497  1.00  0.00    -0.003 C 
ATOM     19  C   UNL     1      81.146  54.078  10.911  1.00  0.00     0.004 C 
ENDBRANCH  17  18
ENDBRANCH  16  17
ENDBRANCH  15  16
ENDBRANCH  14  15
ENDBRANCH  13  14
ENDBRANCH  12  13
ENDBRANCH   1  12
TORSDOF 14
ENDMDL
MODEL 9
REMARK VINA RESULT:    -4.708      3.477      7.069
REMARK INTER + INTRA:         -10.109
REMARK INTER:                  -8.684
REMARK INTRA:                  -1.425
REMARK UNBOUND:                -1.547
REMARK SMILES CCCCCCCCCCCCCC[C@@H](C)C(=O)[O-]
REMARK SMILES IDX 9 1 10 2 11 3 12 4 13 5 14 6 15 7 16 8 17 9 18 10 19 11 8 12
REMARK SMILES IDX 7 13 6 14 5 15 4 16 3 17 2 18 1 19
REMARK H PARENT
REMARK Flexibility Score: inf
ROOT
ATOM      1  C   UNL     1      78.933  57.031  10.500  1.00  0.00     0.000 C 
ENDROOT
BRANCH   1   2
ATOM      2  C   UNL     1      77.717  56.839   9.580  1.00  0.00     0.000 C 
BRANCH   2   3
ATOM      3  C   UNL     1      78.113  56.541   8.126  1.00  0.00     0.000 C 
BRANCH   3   4
ATOM      4  C   UNL     1      77.725  55.110   7.733  1.00  0.00     0.000 C 
BRANCH   4   5
ATOM      5  C   UNL     1      78.779  54.102   8.208  1.00  0.00     0.001 C 
BRANCH   5   6
ATOM      6  C   UNL     1      80.181  54.501   7.725  1.00  0.00     0.009 C 
BRANCH   6   7
ATOM      7  C   UNL     1      81.285  54.050   8.704  1.00  0.00     0.032 C 
ATOM      8  C   UNL     1      80.739  53.969  10.134  1.00  0.00     0.014 C 
BRANCH   7   9
ATOM      9  C   UNL     1      81.871  52.724   8.303  1.00  0.00     0.044 C 
ATOM     10  O   UNL     1      81.975  51.789   9.142  1.00  0.00    -0.550 OA
ATOM     11  O   UNL     1      82.302  52.521   6.998  1.00  0.00    -0.550 OA
ENDBRANCH   7   9
ENDBRANCH   6   7
ENDBRANCH   5   6
ENDBRANCH   4   5
ENDBRANCH   3   4
ENDBRANCH   2   3
ENDBRANCH   1   2
BRANCH   1  12
ATOM     12  C   UNL     1      79.579  58.419  10.342  1.00  0.00     0.000 C 
BRANCH  12  13
ATOM     13  C   UNL     1      81.086  58.419  10.655  1.00  0.00    -0.000 C 
BRANCH  13  14
ATOM     14  C   UNL     1      81.640  59.736  11.231  1.00  0.00    -0.000 C 
BRANCH  14  15
ATOM     15  C   UNL     1      82.795  60.318  10.397  1.00  0.00    -0.000 C 
BRANCH  15  16
ATOM     16  C   UNL     1      83.745  59.236   9.854  1.00  0.00    -0.000 C 
BRANCH  16  17
ATOM     17  C   UNL     1      84.753  58.668  10.875  1.00  0.00    -0.000 C 
BRANCH  17  18
ATOM     18  C   UNL     1      85.652  59.715  11.554  1.00  0.00    -0.003 C 
ATOM     19  C   UNL     1      85.516  59.719  13.075  1.00  0.00     0.004 C 
ENDBRANCH  17  18
ENDBRANCH  16  17
ENDBRANCH  15  16
ENDBRANCH  14  15
ENDBRANCH  13  14
ENDBRANCH  12  13
ENDBRANCH   1  12
TORSDOF 14
ENDMDL
