MODEL 1
REMARK VINA RESULT:    -3.896      0.000      0.000
REMARK INTER + INTRA:          -9.668
REMARK INTER:                  -7.313
REMARK INTRA:                  -2.354
REMARK UNBOUND:                -2.354
REMARK SMILES O=C([O-])CCCCCCCCCCCCCCC(=O)[O-]
REMARK SMILES IDX 10 1 9 2 8 3 7 4 6 5 5 6 4 7 2 8 1 9 3 10 11 11 12 12 13 13
REMARK SMILES IDX 14 14 15 15 16 16 17 17 18 18 19 19 20 20
REMARK H PARENT
REMARK Flexibility Score: inf
ROOT
ATOM      1  C   UNL     1     -22.953   8.271  20.646  1.00  0.00     0.000 C 
ENDROOT
BRANCH   1   2
ATOM      2  C   UNL     1     -22.929   8.730  19.180  1.00  0.00     0.000 C 
BRANCH   2   3
ATOM      3  C   UNL     1     -21.840   8.027  18.355  1.00  0.00     0.000 C 
BRANCH   3   4
ATOM      4  C   UNL     1     -22.436   6.882  17.521  1.00  0.00     0.000 C 
BRANCH   4   5
ATOM      5  C   UNL     1     -21.375   6.139  16.694  1.00  0.00     0.000 C 
BRANCH   5   6
ATOM      6  C   UNL     1     -20.324   7.086  16.089  1.00  0.00     0.006 C 
BRANCH   6   7
ATOM      7  C   UNL     1     -18.905   6.510  16.182  1.00  0.00     0.053 C 
BRANCH   7   8
ATOM      8  C   UNL     1     -18.489   6.292  17.604  1.00  0.00     0.041 C 
ATOM      9  O   UNL     1     -18.217   5.133  18.014  1.00  0.00    -0.550 OA
ATOM     10  O   UNL     1     -18.370   7.373  18.468  1.00  0.00    -0.550 OA
ENDBRANCH   7   8
ENDBRANCH   6   7
ENDBRANCH   5   6
ENDBRANCH   4   5
ENDBRANCH   3   4
ENDBRANCH   2   3
ENDBRANCH   1   2
BRANCH   1  11
ATOM     11  C   UNL     1     -23.954   7.130  20.893  1.00  0.00     0.000 C 
BRANCH  11  12
ATOM     12  C   UNL     1     -23.265   5.763  21.041  1.00  0.00     0.000 C 
BRANCH  12  13
ATOM     13  C   UNL     1     -21.854   5.872  21.647  1.00  0.00     0.000 C 
BRANCH  13  14
ATOM     14  C   UNL     1     -20.764   5.334  20.706  1.00  0.00     0.000 C 
BRANCH  14  15
ATOM     15  C   UNL     1     -21.249   4.147  19.860  1.00  0.00     0.000 C 
BRANCH  15  16
ATOM     16  C   UNL     1     -20.729   2.821  20.429  1.00  0.00     0.006 C 
BRANCH  16  17
ATOM     17  C   UNL     1     -21.869   1.814  20.608  1.00  0.00     0.053 C 
BRANCH  17  18
ATOM     18  C   UNL     1     -22.765   2.230  21.730  1.00  0.00     0.041 C 
ATOM     19  O   UNL     1     -22.277   2.551  22.845  1.00  0.00    -0.550 OA
ATOM     20  O   UNL     1     -24.138   2.312  21.531  1.00  0.00    -0.550 OA
ENDBRANCH  17  18
ENDBRANCH  16  17
ENDBRANCH  15  16
ENDBRANCH  14  15
ENDBRANCH  13  14
ENDBRANCH  12  13
ENDBRANCH  11  12
ENDBRANCH   1  11
TORSDOF 15
ENDMDL
MODEL 2
REMARK VINA RESULT:    -3.796      1.409      2.153
REMARK INTER + INTRA:          -9.478
REMARK INTER:                  -7.552
REMARK INTRA:                  -1.926
REMARK UNBOUND:                -2.354
REMARK SMILES O=C([O-])CCCCCCCCCCCCCCC(=O)[O-]
REMARK SMILES IDX 10 1 9 2 8 3 7 4 6 5 5 6 4 7 2 8 1 9 3 10 11 11 12 12 13 13
REMARK SMILES IDX 14 14 15 15 16 16 17 17 18 18 19 19 20 20
REMARK H PARENT
REMARK Flexibility Score: inf
ROOT
ATOM      1  C   UNL     1     -22.564   8.796  19.220  1.00  0.00     0.000 C 
ENDROOT
BRANCH   1   2
ATOM      2  C   UNL     1     -21.628   7.928  18.363  1.00  0.00     0.000 C 
BRANCH   2   3
ATOM      3  C   UNL     1     -22.369   6.797  17.634  1.00  0.00     0.000 C 
BRANCH   3   4
ATOM      4  C   UNL     1     -21.451   6.111  16.610  1.00  0.00     0.000 C 
BRANCH   4   5
ATOM      5  C   UNL     1     -20.454   7.084  15.963  1.00  0.00     0.000 C 
BRANCH   5   6
ATOM      6  C   UNL     1     -19.012   6.548  15.973  1.00  0.00     0.006 C 
BRANCH   6   7
ATOM      7  C   UNL     1     -18.623   5.958  17.335  1.00  0.00     0.053 C 
BRANCH   7   8
ATOM      8  C   UNL     1     -17.638   6.830  18.053  1.00  0.00     0.041 C 
ATOM      9  O   UNL     1     -18.040   7.795  18.755  1.00  0.00    -0.550 OA
ATOM     10  O   UNL     1     -16.279   6.555  17.974  1.00  0.00    -0.550 OA
ENDBRANCH   7   8
ENDBRANCH   6   7
ENDBRANCH   5   6
ENDBRANCH   4   5
ENDBRANCH   3   4
ENDBRANCH   2   3
ENDBRANCH   1   2
BRANCH   1  11
ATOM     11  C   UNL     1     -22.748   8.238  20.642  1.00  0.00     0.000 C 
BRANCH  11  12
ATOM     12  C   UNL     1     -24.117   7.568  20.840  1.00  0.00     0.000 C 
BRANCH  12  13
ATOM     13  C   UNL     1     -24.005   6.154  21.438  1.00  0.00     0.000 C 
BRANCH  13  14
ATOM     14  C   UNL     1     -22.584   5.578  21.329  1.00  0.00     0.000 C 
BRANCH  14  15
ATOM     15  C   UNL     1     -22.497   4.407  20.338  1.00  0.00     0.000 C 
BRANCH  15  16
ATOM     16  C   UNL     1     -21.049   4.179  19.887  1.00  0.00     0.006 C 
BRANCH  16  17
ATOM     17  C   UNL     1     -20.305   3.267  20.867  1.00  0.00     0.053 C 
BRANCH  17  18
ATOM     18  C   UNL     1     -20.263   1.865  20.349  1.00  0.00     0.041 C 
ATOM     19  O   UNL     1     -19.202   1.405  19.851  1.00  0.00    -0.550 OA
ATOM     20  O   UNL     1     -21.381   1.047  20.462  1.00  0.00    -0.550 OA
ENDBRANCH  17  18
ENDBRANCH  16  17
ENDBRANCH  15  16
ENDBRANCH  14  15
ENDBRANCH  13  14
ENDBRANCH  12  13
ENDBRANCH  11  12
ENDBRANCH   1  11
TORSDOF 15
ENDMDL
MODEL 3
REMARK VINA RESULT:    -3.720      1.541      5.015
REMARK INTER + INTRA:          -9.336
REMARK INTER:                  -7.180
REMARK INTRA:                  -2.156
REMARK UNBOUND:                -2.354
REMARK SMILES O=C([O-])CCCCCCCCCCCCCCC(=O)[O-]
REMARK SMILES IDX 10 1 9 2 8 3 7 4 6 5 5 6 4 7 2 8 1 9 3 10 11 11 12 12 13 13
REMARK SMILES IDX 14 14 15 15 16 16 17 17 18 18 19 19 20 20
REMARK H PARENT
REMARK Flexibility Score: inf
ROOT
ATOM      1  C   UNL     1     -21.643   8.221  18.078  1.00  0.00     0.000 C 
ENDROOT
BRANCH   1   2
ATOM      2  C   UNL     1     -22.406   9.015  19.150  1.00  0.00     0.000 C 
BRANCH   2   3
ATOM      3  C   UNL     1     -22.436   8.301  20.509  1.00  0.00     0.000 C 
BRANCH   3   4
ATOM      4  C   UNL     1     -23.875   7.938  20.907  1.00  0.00     0.000 C 
BRANCH   4   5
ATOM      5  C   UNL     1     -24.040   6.448  21.240  1.00  0.00     0.000 C 
BRANCH   5   6
ATOM      6  C   UNL     1     -22.695   5.700  21.291  1.00  0.00     0.006 C 
BRANCH   6   7
ATOM      7  C   UNL     1     -22.756   4.350  20.565  1.00  0.00     0.053 C 
BRANCH   7   8
ATOM      8  C   UNL     1     -22.807   3.205  21.530  1.00  0.00     0.041 C 
ATOM      9  O   UNL     1     -22.210   3.282  22.636  1.00  0.00    -0.550 OA
ATOM     10  O   UNL     1     -23.540   2.066  21.221  1.00  0.00    -0.550 OA
ENDBRANCH   7   8
ENDBRANCH   6   7
ENDBRANCH   5   6
ENDBRANCH   4   5
ENDBRANCH   3   4
ENDBRANCH   2   3
ENDBRANCH   1   2
BRANCH   1  11
ATOM     11  C   UNL     1     -22.359   6.918  17.686  1.00  0.00     0.000 C 
BRANCH  11  12
ATOM     12  C   UNL     1     -21.576   6.105  16.642  1.00  0.00     0.000 C 
BRANCH  12  13
ATOM     13  C   UNL     1     -20.504   6.942  15.920  1.00  0.00     0.000 C 
BRANCH  13  14
ATOM     14  C   UNL     1     -19.112   6.291  15.975  1.00  0.00     0.000 C 
BRANCH  14  15
ATOM     15  C   UNL     1     -18.364   6.608  17.279  1.00  0.00     0.000 C 
BRANCH  15  16
ATOM     16  C   UNL     1     -18.265   5.364  18.169  1.00  0.00     0.006 C 
BRANCH  16  17
ATOM     17  C   UNL     1     -19.229   5.458  19.356  1.00  0.00     0.053 C 
BRANCH  17  18
ATOM     18  C   UNL     1     -19.147   4.225  20.198  1.00  0.00     0.041 C 
ATOM     19  O   UNL     1     -18.986   3.099  19.659  1.00  0.00    -0.550 OA
ATOM     20  O   UNL     1     -19.198   4.325  21.583  1.00  0.00    -0.550 OA
ENDBRANCH  17  18
ENDBRANCH  16  17
ENDBRANCH  15  16
ENDBRANCH  14  15
ENDBRANCH  13  14
ENDBRANCH  12  13
ENDBRANCH  11  12
ENDBRANCH   1  11
TORSDOF 15
ENDMDL
MODEL 4
REMARK VINA RESULT:    -3.699      1.928      5.238
REMARK INTER + INTRA:          -9.298
REMARK INTER:                  -7.244
REMARK INTRA:                  -2.054
REMARK UNBOUND:                -2.354
REMARK SMILES O=C([O-])CCCCCCCCCCCCCCC(=O)[O-]
REMARK SMILES IDX 10 1 9 2 8 3 7 4 6 5 5 6 4 7 2 8 1 9 3 10 11 11 12 12 13 13
REMARK SMILES IDX 14 14 15 15 16 16 17 17 18 18 19 19 20 20
REMARK H PARENT
REMARK Flexibility Score: inf
ROOT
ATOM      1  C   UNL     1     -24.180   6.815  21.117  1.00  0.00     0.000 C 
ENDROOT
BRANCH   1   2
ATOM      2  C   UNL     1     -22.973   5.977  21.567  1.00  0.00     0.000 C 
BRANCH   2   3
ATOM      3  C   UNL     1     -23.110   4.492  21.196  1.00  0.00     0.000 C 
BRANCH   3   4
ATOM      4  C   UNL     1     -22.360   4.182  19.891  1.00  0.00     0.000 C 
BRANCH   4   5
ATOM      5  C   UNL     1     -20.845   4.410  20.010  1.00  0.00     0.000 C 
BRANCH   5   6
ATOM      6  C   UNL     1     -20.174   3.431  20.989  1.00  0.00     0.006 C 
BRANCH   6   7
ATOM      7  C   UNL     1     -20.372   1.968  20.571  1.00  0.00     0.053 C 
BRANCH   7   8
ATOM      8  C   UNL     1     -19.073   1.316  20.208  1.00  0.00     0.041 C 
ATOM      9  O   UNL     1     -19.057   0.139  19.760  1.00  0.00    -0.550 OA
ATOM     10  O   UNL     1     -17.882   2.022  20.332  1.00  0.00    -0.550 OA
ENDBRANCH   7   8
ENDBRANCH   6   7
ENDBRANCH   5   6
ENDBRANCH   4   5
ENDBRANCH   3   4
ENDBRANCH   2   3
ENDBRANCH   1   2
BRANCH   1  11
ATOM     11  C   UNL     1     -23.779   7.986  20.204  1.00  0.00     0.000 C 
BRANCH  11  12
ATOM     12  C   UNL     1     -22.255   8.113  20.043  1.00  0.00     0.000 C 
BRANCH  12  13
ATOM     13  C   UNL     1     -21.818   8.185  18.569  1.00  0.00     0.000 C 
BRANCH  13  14
ATOM     14  C   UNL     1     -22.496   7.115  17.699  1.00  0.00     0.000 C 
BRANCH  14  15
ATOM     15  C   UNL     1     -21.485   6.262  16.917  1.00  0.00     0.000 C 
BRANCH  15  16
ATOM     16  C   UNL     1     -20.468   7.149  16.189  1.00  0.00     0.006 C 
BRANCH  16  17
ATOM     17  C   UNL     1     -19.093   6.476  16.132  1.00  0.00     0.053 C 
BRANCH  17  18
ATOM     18  C   UNL     1     -18.516   6.344  17.505  1.00  0.00     0.041 C 
ATOM     19  O   UNL     1     -18.090   5.231  17.909  1.00  0.00    -0.550 OA
ATOM     20  O   UNL     1     -18.404   7.462  18.323  1.00  0.00    -0.550 OA
ENDBRANCH  17  18
ENDBRANCH  16  17
ENDBRANCH  15  16
ENDBRANCH  14  15
ENDBRANCH  13  14
ENDBRANCH  12  13
ENDBRANCH  11  12
ENDBRANCH   1  11
TORSDOF 15
ENDMDL
MODEL 5
REMARK VINA RESULT:    -3.682      1.458      6.225
REMARK INTER + INTRA:          -9.265
REMARK INTER:                  -7.233
REMARK INTRA:                  -2.031
REMARK UNBOUND:                -2.354
REMARK SMILES O=C([O-])CCCCCCCCCCCCCCC(=O)[O-]
REMARK SMILES IDX 10 1 9 2 8 3 7 4 6 5 5 6 4 7 2 8 1 9 3 10 11 11 12 12 13 13
REMARK SMILES IDX 14 14 15 15 16 16 17 17 18 18 19 19 20 20
REMARK H PARENT
REMARK Flexibility Score: inf
ROOT
ATOM      1  C   UNL     1     -23.101   6.571  21.091  1.00  0.00     0.000 C 
ENDROOT
BRANCH   1   2
ATOM      2  C   UNL     1     -21.580   6.406  21.228  1.00  0.00     0.000 C 
BRANCH   2   3
ATOM      3  C   UNL     1     -21.065   5.103  20.596  1.00  0.00     0.000 C 
BRANCH   3   4
ATOM      4  C   UNL     1     -22.229   4.255  20.063  1.00  0.00     0.000 C 
BRANCH   4   5
ATOM      5  C   UNL     1     -22.341   2.893  20.766  1.00  0.00     0.000 C 
BRANCH   5   6
ATOM      6  C   UNL     1     -23.589   2.787  21.659  1.00  0.00     0.006 C 
BRANCH   6   7
ATOM      7  C   UNL     1     -23.360   3.397  23.049  1.00  0.00     0.053 C 
BRANCH   7   8
ATOM      8  C   UNL     1     -24.647   3.831  23.681  1.00  0.00     0.041 C 
ATOM      9  O   UNL     1     -25.134   4.961  23.415  1.00  0.00    -0.550 OA
ATOM     10  O   UNL     1     -25.325   2.973  24.538  1.00  0.00    -0.550 OA
ENDBRANCH   7   8
ENDBRANCH   6   7
ENDBRANCH   5   6
ENDBRANCH   4   5
ENDBRANCH   3   4
ENDBRANCH   2   3
ENDBRANCH   1   2
BRANCH   1  11
ATOM     11  C   UNL     1     -23.488   7.679  20.096  1.00  0.00     0.000 C 
BRANCH  11  12
ATOM     12  C   UNL     1     -22.275   8.499  19.626  1.00  0.00     0.000 C 
BRANCH  12  13
ATOM     13  C   UNL     1     -21.956   8.285  18.135  1.00  0.00     0.000 C 
BRANCH  13  14
ATOM     14  C   UNL     1     -22.495   6.947  17.602  1.00  0.00     0.000 C 
BRANCH  14  15
ATOM     15  C   UNL     1     -21.434   6.150  16.829  1.00  0.00     0.000 C 
BRANCH  15  16
ATOM     16  C   UNL     1     -20.398   7.087  16.196  1.00  0.00     0.006 C 
BRANCH  16  17
ATOM     17  C   UNL     1     -18.994   6.479  16.262  1.00  0.00     0.053 C 
BRANCH  17  18
ATOM     18  C   UNL     1     -18.546   6.346  17.682  1.00  0.00     0.041 C 
ATOM     19  O   UNL     1     -18.570   7.343  18.451  1.00  0.00    -0.550 OA
ATOM     20  O   UNL     1     -18.148   5.108  18.173  1.00  0.00    -0.550 OA
ENDBRANCH  17  18
ENDBRANCH  16  17
ENDBRANCH  15  16
ENDBRANCH  14  15
ENDBRANCH  13  14
ENDBRANCH  12  13
ENDBRANCH  11  12
ENDBRANCH   1  11
TORSDOF 15
ENDMDL
MODEL 6
REMARK VINA RESULT:    -3.619      1.902      6.244
REMARK INTER + INTRA:          -9.147
REMARK INTER:                  -6.765
REMARK INTRA:                  -2.382
REMARK UNBOUND:                -2.354
REMARK SMILES O=C([O-])CCCCCCCCCCCCCCC(=O)[O-]
REMARK SMILES IDX 10 1 9 2 8 3 7 4 6 5 5 6 4 7 2 8 1 9 3 10 11 11 12 12 13 13
REMARK SMILES IDX 14 14 15 15 16 16 17 17 18 18 19 19 20 20
REMARK H PARENT
REMARK Flexibility Score: inf
ROOT
ATOM      1  C   UNL     1     -19.287   6.227  19.945  1.00  0.00     0.000 C 
ENDROOT
BRANCH   1   2
ATOM      2  C   UNL     1     -19.436   4.701  19.835  1.00  0.00     0.000 C 
BRANCH   2   3
ATOM      3  C   UNL     1     -20.898   4.239  19.925  1.00  0.00     0.000 C 
BRANCH   3   4
ATOM      4  C   UNL     1     -21.637   4.976  21.053  1.00  0.00     0.000 C 
BRANCH   4   5
ATOM      5  C   UNL     1     -23.165   4.903  20.905  1.00  0.00     0.000 C 
BRANCH   5   6
ATOM      6  C   UNL     1     -23.879   4.668  22.248  1.00  0.00     0.006 C 
BRANCH   6   7
ATOM      7  C   UNL     1     -23.416   3.375  22.931  1.00  0.00     0.053 C 
BRANCH   7   8
ATOM      8  C   UNL     1     -23.754   2.166  22.113  1.00  0.00     0.041 C 
ATOM      9  O   UNL     1     -24.956   1.838  21.933  1.00  0.00    -0.550 OA
ATOM     10  O   UNL     1     -22.741   1.422  21.520  1.00  0.00    -0.550 OA
ENDBRANCH   7   8
ENDBRANCH   6   7
ENDBRANCH   5   6
ENDBRANCH   4   5
ENDBRANCH   3   4
ENDBRANCH   2   3
ENDBRANCH   1   2
BRANCH   1  11
ATOM     11  C   UNL     1     -18.553   6.838  18.739  1.00  0.00     0.000 C 
BRANCH  11  12
ATOM     12  C   UNL     1     -18.471   5.870  17.547  1.00  0.00     0.000 C 
BRANCH  12  13
ATOM     13  C   UNL     1     -18.868   6.533  16.216  1.00  0.00     0.000 C 
BRANCH  13  14
ATOM     14  C   UNL     1     -20.272   7.157  16.263  1.00  0.00     0.000 C 
BRANCH  14  15
ATOM     15  C   UNL     1     -21.365   6.127  16.589  1.00  0.00     0.000 C 
BRANCH  15  16
ATOM     16  C   UNL     1     -22.323   6.665  17.659  1.00  0.00     0.006 C 
BRANCH  16  17
ATOM     17  C   UNL     1     -21.932   8.085  18.082  1.00  0.00     0.053 C 
BRANCH  17  18
ATOM     18  C   UNL     1     -22.413   8.368  19.470  1.00  0.00     0.041 C 
ATOM     19  O   UNL     1     -21.635   8.880  20.317  1.00  0.00    -0.550 OA
ATOM     20  O   UNL     1     -23.735   8.112  19.814  1.00  0.00    -0.550 OA
ENDBRANCH  17  18
ENDBRANCH  16  17
ENDBRANCH  15  16
ENDBRANCH  14  15
ENDBRANCH  13  14
ENDBRANCH  12  13
ENDBRANCH  11  12
ENDBRANCH   1  11
TORSDOF 15
ENDMDL
MODEL 7
REMARK VINA RESULT:    -3.567      0.962      6.095
REMARK INTER + INTRA:          -9.049
REMARK INTER:                  -6.993
REMARK INTRA:                  -2.056
REMARK UNBOUND:                -2.354
REMARK SMILES O=C([O-])CCCCCCCCCCCCCCC(=O)[O-]
REMARK SMILES IDX 10 1 9 2 8 3 7 4 6 5 5 6 4 7 2 8 1 9 3 10 11 11 12 12 13 13
REMARK SMILES IDX 14 14 15 15 16 16 17 17 18 18 19 19 20 20
REMARK H PARENT
REMARK Flexibility Score: inf
ROOT
ATOM      1  C   UNL     1     -22.598   6.291  21.259  1.00  0.00     0.000 C 
ENDROOT
BRANCH   1   2
ATOM      2  C   UNL     1     -21.063   6.343  21.285  1.00  0.00     0.000 C 
BRANCH   2   3
ATOM      3  C   UNL     1     -20.416   5.162  20.545  1.00  0.00     0.000 C 
BRANCH   3   4
ATOM      4  C   UNL     1     -21.479   4.146  20.099  1.00  0.00     0.000 C 
BRANCH   4   5
ATOM      5  C   UNL     1     -21.015   2.691  20.270  1.00  0.00     0.000 C 
BRANCH   5   6
ATOM      6  C   UNL     1     -22.051   1.822  21.005  1.00  0.00     0.006 C 
BRANCH   6   7
ATOM      7  C   UNL     1     -23.298   2.622  21.406  1.00  0.00     0.053 C 
BRANCH   7   8
ATOM      8  C   UNL     1     -24.347   1.742  22.013  1.00  0.00     0.041 C 
ATOM      9  O   UNL     1     -24.393   0.517  21.723  1.00  0.00    -0.550 OA
ATOM     10  O   UNL     1     -25.255   2.268  22.923  1.00  0.00    -0.550 OA
ENDBRANCH   7   8
ENDBRANCH   6   7
ENDBRANCH   5   6
ENDBRANCH   4   5
ENDBRANCH   3   4
ENDBRANCH   2   3
ENDBRANCH   1   2
BRANCH   1  11
ATOM     11  C   UNL     1     -23.213   7.417  20.410  1.00  0.00     0.000 C 
BRANCH  11  12
ATOM     12  C   UNL     1     -22.152   8.369  19.834  1.00  0.00     0.000 C 
BRANCH  12  13
ATOM     13  C   UNL     1     -22.061   8.299  18.299  1.00  0.00     0.000 C 
BRANCH  13  14
ATOM     14  C   UNL     1     -22.568   6.960  17.738  1.00  0.00     0.000 C 
BRANCH  14  15
ATOM     15  C   UNL     1     -21.476   6.186  16.984  1.00  0.00     0.000 C 
BRANCH  15  16
ATOM     16  C   UNL     1     -20.524   7.146  16.260  1.00  0.00     0.006 C 
BRANCH  16  17
ATOM     17  C   UNL     1     -19.103   6.576  16.209  1.00  0.00     0.053 C 
BRANCH  17  18
ATOM     18  C   UNL     1     -18.528   6.478  17.585  1.00  0.00     0.041 C 
ATOM     19  O   UNL     1     -17.945   5.425  17.955  1.00  0.00    -0.550 OA
ATOM     20  O   UNL     1     -18.590   7.568  18.445  1.00  0.00    -0.550 OA
ENDBRANCH  17  18
ENDBRANCH  16  17
ENDBRANCH  15  16
ENDBRANCH  14  15
ENDBRANCH  13  14
ENDBRANCH  12  13
ENDBRANCH  11  12
ENDBRANCH   1  11
TORSDOF 15
ENDMDL
MODEL 8
REMARK VINA RESULT:    -3.567      1.815      3.254
REMARK INTER + INTRA:          -9.049
REMARK INTER:                  -6.697
REMARK INTRA:                  -2.352
REMARK UNBOUND:                -2.354
REMARK SMILES O=C([O-])CCCCCCCCCCCCCCC(=O)[O-]
REMARK SMILES IDX 10 1 9 2 8 3 7 4 6 5 5 6 4 7 2 8 1 9 3 10 11 11 12 12 13 13
REMARK SMILES IDX 14 14 15 15 16 16 17 17 18 18 19 19 20 20
REMARK H PARENT
REMARK Flexibility Score: inf
ROOT
ATOM      1  C   UNL     1     -22.556   7.201  17.709  1.00  0.00     0.000 C 
ENDROOT
BRANCH   1   2
ATOM      2  C   UNL     1     -21.481   6.339  17.028  1.00  0.00     0.000 C 
BRANCH   2   3
ATOM      3  C   UNL     1     -20.529   7.162  16.148  1.00  0.00     0.000 C 
BRANCH   3   4
ATOM      4  C   UNL     1     -19.072   6.718  16.352  1.00  0.00     0.000 C 
BRANCH   4   5
ATOM      5  C   UNL     1     -18.809   6.185  17.769  1.00  0.00     0.000 C 
BRANCH   5   6
ATOM      6  C   UNL     1     -18.374   7.292  18.747  1.00  0.00     0.006 C 
BRANCH   6   7
ATOM      7  C   UNL     1     -18.822   7.000  20.186  1.00  0.00     0.053 C 
BRANCH   7   8
ATOM      8  C   UNL     1     -17.728   7.277  21.171  1.00  0.00     0.041 C 
ATOM      9  O   UNL     1     -18.000   7.449  22.389  1.00  0.00    -0.550 OA
ATOM     10  O   UNL     1     -16.405   7.313  20.750  1.00  0.00    -0.550 OA
ENDBRANCH   7   8
ENDBRANCH   6   7
ENDBRANCH   5   6
ENDBRANCH   4   5
ENDBRANCH   3   4
ENDBRANCH   2   3
ENDBRANCH   1   2
BRANCH   1  11
ATOM     11  C   UNL     1     -21.956   8.376  18.500  1.00  0.00     0.000 C 
BRANCH  11  12
ATOM     12  C   UNL     1     -22.238   8.278  20.008  1.00  0.00     0.000 C 
BRANCH  12  13
ATOM     13  C   UNL     1     -23.718   7.993  20.318  1.00  0.00     0.000 C 
BRANCH  13  14
ATOM     14  C   UNL     1     -23.916   6.688  21.105  1.00  0.00     0.000 C 
BRANCH  14  15
ATOM     15  C   UNL     1     -22.616   5.881  21.247  1.00  0.00     0.000 C 
BRANCH  15  16
ATOM     16  C   UNL     1     -22.676   4.595  20.414  1.00  0.00     0.006 C 
BRANCH  16  17
ATOM     17  C   UNL     1     -21.272   4.139  20.005  1.00  0.00     0.053 C 
BRANCH  17  18
ATOM     18  C   UNL     1     -20.901   2.880  20.721  1.00  0.00     0.041 C 
ATOM     19  O   UNL     1     -20.175   2.020  20.157  1.00  0.00    -0.550 OA
ATOM     20  O   UNL     1     -21.315   2.678  22.032  1.00  0.00    -0.550 OA
ENDBRANCH  17  18
ENDBRANCH  16  17
ENDBRANCH  15  16
ENDBRANCH  14  15
ENDBRANCH  13  14
ENDBRANCH  12  13
ENDBRANCH  11  12
ENDBRANCH   1  11
TORSDOF 15
ENDMDL
MODEL 9
REMARK VINA RESULT:    -3.496      1.326      2.789
REMARK INTER + INTRA:          -8.917
REMARK INTER:                  -6.918
REMARK INTRA:                  -1.999
REMARK UNBOUND:                -2.354
REMARK SMILES O=C([O-])CCCCCCCCCCCCCCC(=O)[O-]
REMARK SMILES IDX 10 1 9 2 8 3 7 4 6 5 5 6 4 7 2 8 1 9 3 10 11 11 12 12 13 13
REMARK SMILES IDX 14 14 15 15 16 16 17 17 18 18 19 19 20 20
REMARK H PARENT
REMARK Flexibility Score: inf
ROOT
ATOM      1  C   UNL     1     -22.303   7.656  17.759  1.00  0.00     0.000 C 
ENDROOT
BRANCH   1   2
ATOM      2  C   UNL     1     -21.762   6.246  17.475  1.00  0.00     0.000 C 
BRANCH   2   3
ATOM      3  C   UNL     1     -21.223   6.093  16.045  1.00  0.00     0.000 C 
BRANCH   3   4
ATOM      4  C   UNL     1     -19.891   6.840  15.878  1.00  0.00     0.000 C 
BRANCH   4   5
ATOM      5  C   UNL     1     -18.748   6.199  16.680  1.00  0.00     0.000 C 
BRANCH   5   6
ATOM      6  C   UNL     1     -18.152   7.154  17.729  1.00  0.00     0.006 C 
BRANCH   6   7
ATOM      7  C   UNL     1     -17.412   6.401  18.843  1.00  0.00     0.053 C 
BRANCH   7   8
ATOM      8  C   UNL     1     -18.329   5.484  19.593  1.00  0.00     0.041 C 
ATOM      9  O   UNL     1     -18.235   4.236  19.449  1.00  0.00    -0.550 OA
ATOM     10  O   UNL     1     -19.266   6.006  20.476  1.00  0.00    -0.550 OA
ENDBRANCH   7   8
ENDBRANCH   6   7
ENDBRANCH   5   6
ENDBRANCH   4   5
ENDBRANCH   3   4
ENDBRANCH   2   3
ENDBRANCH   1   2
BRANCH   1  11
ATOM     11  C   UNL     1     -21.516   8.379  18.866  1.00  0.00     0.000 C 
BRANCH  11  12
ATOM     12  C   UNL     1     -22.102   8.129  20.266  1.00  0.00     0.000 C 
BRANCH  12  13
ATOM     13  C   UNL     1     -23.629   7.937  20.244  1.00  0.00     0.000 C 
BRANCH  13  14
ATOM     14  C   UNL     1     -24.090   6.770  21.133  1.00  0.00     0.000 C 
BRANCH  14  15
ATOM     15  C   UNL     1     -22.986   5.726  21.355  1.00  0.00     0.000 C 
BRANCH  15  16
ATOM     16  C   UNL     1     -23.106   4.578  20.346  1.00  0.00     0.006 C 
BRANCH  16  17
ATOM     17  C   UNL     1     -21.795   3.791  20.251  1.00  0.00     0.053 C 
BRANCH  17  18
ATOM     18  C   UNL     1     -21.999   2.378  20.695  1.00  0.00     0.041 C 
ATOM     19  O   UNL     1     -23.104   2.018  21.178  1.00  0.00    -0.550 OA
ATOM     20  O   UNL     1     -20.982   1.444  20.532  1.00  0.00    -0.550 OA
ENDBRANCH  17  18
ENDBRANCH  16  17
ENDBRANCH  15  16
ENDBRANCH  14  15
ENDBRANCH  13  14
ENDBRANCH  12  13
ENDBRANCH  11  12
ENDBRANCH   1  11
TORSDOF 15
ENDMDL
