MODEL 1
REMARK VINA RESULT:    -5.022      0.000      0.000
REMARK INTER + INTRA:         -14.470
REMARK INTER:                 -10.894
REMARK INTRA:                  -3.577
REMARK UNBOUND:                -3.577
REMARK SMILES CCCCCCCCCCCCCCCCCCCCCC(=O)[O-]
REMARK SMILES IDX 12 1 11 2 10 3 9 4 8 5 7 6 6 7 5 8 4 9 3 10 2 11 1 12 13 13
REMARK SMILES IDX 14 14 15 15 16 16 17 17 18 18 19 19 20 20 21 21 22 22 23 23
REMARK SMILES IDX 24 24
REMARK H PARENT
REMARK Flexibility Score: inf
ROOT
ATOM      1  C   UNL     1      14.490 -30.494  23.109  1.00  0.00     0.000 C 
ENDROOT
BRANCH   1   2
ATOM      2  C   UNL     1      14.049 -31.924  23.464  1.00  0.00     0.000 C 
BRANCH   2   3
ATOM      3  C   UNL     1      15.222 -32.921  23.454  1.00  0.00     0.000 C 
BRANCH   3   4
ATOM      4  C   UNL     1      15.073 -33.997  22.366  1.00  0.00    -0.000 C 
BRANCH   4   5
ATOM      5  C   UNL     1      14.681 -33.404  21.001  1.00  0.00    -0.000 C 
BRANCH   5   6
ATOM      6  C   UNL     1      14.982 -34.354  19.826  1.00  0.00    -0.000 C 
BRANCH   6   7
ATOM      7  C   UNL     1      16.463 -34.441  19.418  1.00  0.00    -0.000 C 
BRANCH   7   8
ATOM      8  C   UNL     1      16.947 -35.885  19.216  1.00  0.00    -0.000 C 
BRANCH   8   9
ATOM      9  C   UNL     1      17.386 -36.510  20.550  1.00  0.00    -0.000 C 
BRANCH   9  10
ATOM     10  C   UNL     1      18.282 -35.560  21.373  1.00  0.00    -0.000 C 
BRANCH  10  11
ATOM     11  C   UNL     1      18.131 -35.737  22.892  1.00  0.00    -0.003 C 
ATOM     12  C   UNL     1      18.928 -34.710  23.695  1.00  0.00     0.004 C 
ENDBRANCH  10  11
ENDBRANCH   9  10
ENDBRANCH   8   9
ENDBRANCH   7   8
ENDBRANCH   6   7
ENDBRANCH   5   6
ENDBRANCH   4   5
ENDBRANCH   3   4
ENDBRANCH   2   3
ENDBRANCH   1   2
BRANCH   1  13
ATOM     13  C   UNL     1      16.018 -30.362  22.985  1.00  0.00     0.000 C 
BRANCH  13  14
ATOM     14  C   UNL     1      16.464 -29.863  21.597  1.00  0.00     0.000 C 
BRANCH  14  15
ATOM     15  C   UNL     1      17.224 -30.894  20.743  1.00  0.00     0.000 C 
BRANCH  15  16
ATOM     16  C   UNL     1      18.284 -31.670  21.544  1.00  0.00     0.000 C 
BRANCH  16  17
ATOM     17  C   UNL     1      19.550 -31.964  20.721  1.00  0.00     0.000 C 
BRANCH  17  18
ATOM     18  C   UNL     1      20.806 -31.295  21.310  1.00  0.00     0.000 C 
BRANCH  18  19
ATOM     19  C   UNL     1      20.541 -29.856  21.781  1.00  0.00     0.000 C 
BRANCH  19  20
ATOM     20  C   UNL     1      20.633 -28.832  20.637  1.00  0.00     0.006 C 
BRANCH  20  21
ATOM     21  C   UNL     1      19.520 -27.778  20.713  1.00  0.00     0.053 C 
BRANCH  21  22
ATOM     22  C   UNL     1      20.061 -26.415  21.022  1.00  0.00     0.041 C 
ATOM     23  O   UNL     1      19.974 -25.491  20.171  1.00  0.00    -0.550 OA
ATOM     24  O   UNL     1      20.688 -26.175  22.238  1.00  0.00    -0.550 OA
ENDBRANCH  21  22
ENDBRANCH  20  21
ENDBRANCH  19  20
ENDBRANCH  18  19
ENDBRANCH  17  18
ENDBRANCH  16  17
ENDBRANCH  15  16
ENDBRANCH  14  15
ENDBRANCH  13  14
ENDBRANCH   1  13
TORSDOF 20
ENDMDL
MODEL 2
REMARK VINA RESULT:    -4.856      2.168      3.336
REMARK INTER + INTRA:         -14.110
REMARK INTER:                 -10.630
REMARK INTRA:                  -3.480
REMARK UNBOUND:                -3.577
REMARK SMILES CCCCCCCCCCCCCCCCCCCCCC(=O)[O-]
REMARK SMILES IDX 12 1 11 2 10 3 9 4 8 5 7 6 6 7 5 8 4 9 3 10 2 11 1 12 13 13
REMARK SMILES IDX 14 14 15 15 16 16 17 17 18 18 19 19 20 20 21 21 22 22 23 23
REMARK SMILES IDX 24 24
REMARK H PARENT
REMARK Flexibility Score: inf
ROOT
ATOM      1  C   UNL     1      14.858 -32.593  23.487  1.00  0.00     0.000 C 
ENDROOT
BRANCH   1   2
ATOM      2  C   UNL     1      14.980 -33.741  22.470  1.00  0.00     0.000 C 
BRANCH   2   3
ATOM      3  C   UNL     1      14.648 -33.294  21.035  1.00  0.00     0.000 C 
BRANCH   3   4
ATOM      4  C   UNL     1      14.928 -34.390  19.995  1.00  0.00    -0.000 C 
BRANCH   4   5
ATOM      5  C   UNL     1      16.055 -34.005  19.020  1.00  0.00    -0.000 C 
BRANCH   5   6
ATOM      6  C   UNL     1      17.213 -35.020  19.010  1.00  0.00    -0.000 C 
BRANCH   6   7
ATOM      7  C   UNL     1      16.848 -36.434  19.499  1.00  0.00    -0.000 C 
BRANCH   7   8
ATOM      8  C   UNL     1      17.696 -36.893  20.694  1.00  0.00    -0.000 C 
BRANCH   8   9
ATOM      9  C   UNL     1      17.790 -35.789  21.760  1.00  0.00    -0.000 C 
BRANCH   9  10
ATOM     10  C   UNL     1      18.498 -36.275  23.042  1.00  0.00    -0.000 C 
BRANCH  10  11
ATOM     11  C   UNL     1      18.273 -35.357  24.254  1.00  0.00    -0.003 C 
ATOM     12  C   UNL     1      16.943 -35.617  24.961  1.00  0.00     0.004 C 
ENDBRANCH  10  11
ENDBRANCH   9  10
ENDBRANCH   8   9
ENDBRANCH   7   8
ENDBRANCH   6   7
ENDBRANCH   5   6
ENDBRANCH   4   5
ENDBRANCH   3   4
ENDBRANCH   2   3
ENDBRANCH   1   2
BRANCH   1  13
ATOM     13  C   UNL     1      13.596 -31.741  23.267  1.00  0.00     0.000 C 
BRANCH  13  14
ATOM     14  C   UNL     1      13.910 -30.248  23.058  1.00  0.00     0.000 C 
BRANCH  14  15
ATOM     15  C   UNL     1      14.395 -29.871  21.646  1.00  0.00     0.000 C 
BRANCH  15  16
ATOM     16  C   UNL     1      15.689 -29.040  21.660  1.00  0.00     0.000 C 
BRANCH  16  17
ATOM     17  C   UNL     1      16.928 -29.880  22.015  1.00  0.00     0.000 C 
BRANCH  17  18
ATOM     18  C   UNL     1      17.375 -30.791  20.858  1.00  0.00     0.000 C 
BRANCH  18  19
ATOM     19  C   UNL     1      18.052 -32.080  21.351  1.00  0.00     0.000 C 
BRANCH  19  20
ATOM     20  C   UNL     1      19.375 -32.371  20.620  1.00  0.00     0.006 C 
BRANCH  20  21
ATOM     21  C   UNL     1      20.397 -31.241  20.803  1.00  0.00     0.053 C 
BRANCH  21  22
ATOM     22  C   UNL     1      21.286 -31.479  21.986  1.00  0.00     0.041 C 
ATOM     23  O   UNL     1      21.098 -30.844  23.057  1.00  0.00    -0.550 OA
ATOM     24  O   UNL     1      22.340 -32.378  21.895  1.00  0.00    -0.550 OA
ENDBRANCH  21  22
ENDBRANCH  20  21
ENDBRANCH  19  20
ENDBRANCH  18  19
ENDBRANCH  17  18
ENDBRANCH  16  17
ENDBRANCH  15  16
ENDBRANCH  14  15
ENDBRANCH  13  14
ENDBRANCH   1  13
TORSDOF 20
ENDMDL
MODEL 3
REMARK VINA RESULT:    -4.836      3.102      6.111
REMARK INTER + INTRA:         -14.068
REMARK INTER:                 -10.602
REMARK INTRA:                  -3.466
REMARK UNBOUND:                -3.577
REMARK SMILES CCCCCCCCCCCCCCCCCCCCCC(=O)[O-]
REMARK SMILES IDX 12 1 11 2 10 3 9 4 8 5 7 6 6 7 5 8 4 9 3 10 2 11 1 12 13 13
REMARK SMILES IDX 14 14 15 15 16 16 17 17 18 18 19 19 20 20 21 21 22 22 23 23
REMARK SMILES IDX 24 24
REMARK H PARENT
REMARK Flexibility Score: inf
ROOT
ATOM      1  C   UNL     1      17.836 -36.849  20.881  1.00  0.00     0.000 C 
ENDROOT
BRANCH   1   2
ATOM      2  C   UNL     1      18.354 -35.654  21.699  1.00  0.00     0.000 C 
BRANCH   2   3
ATOM      3  C   UNL     1      17.276 -35.063  22.625  1.00  0.00     0.000 C 
BRANCH   3   4
ATOM      4  C   UNL     1      17.831 -34.677  24.006  1.00  0.00    -0.000 C 
BRANCH   4   5
ATOM      5  C   UNL     1      17.032 -33.539  24.665  1.00  0.00    -0.000 C 
BRANCH   5   6
ATOM      6  C   UNL     1      16.360 -32.606  23.640  1.00  0.00    -0.000 C 
BRANCH   6   7
ATOM      7  C   UNL     1      16.949 -31.186  23.564  1.00  0.00    -0.000 C 
BRANCH   7   8
ATOM      8  C   UNL     1      16.997 -30.632  22.132  1.00  0.00    -0.000 C 
BRANCH   8   9
ATOM      9  C   UNL     1      17.874 -31.513  21.229  1.00  0.00    -0.000 C 
BRANCH   9  10
ATOM     10  C   UNL     1      19.380 -31.294  21.484  1.00  0.00    -0.000 C 
BRANCH  10  11
ATOM     11  C   UNL     1      20.222 -32.571  21.329  1.00  0.00    -0.003 C 
ATOM     12  C   UNL     1      21.573 -32.486  22.037  1.00  0.00     0.004 C 
ENDBRANCH  10  11
ENDBRANCH   9  10
ENDBRANCH   8   9
ENDBRANCH   7   8
ENDBRANCH   6   7
ENDBRANCH   5   6
ENDBRANCH   4   5
ENDBRANCH   3   4
ENDBRANCH   2   3
ENDBRANCH   1   2
BRANCH   1  13
ATOM     13  C   UNL     1      16.856 -36.426  19.773  1.00  0.00     0.000 C 
BRANCH  13  14
ATOM     14  C   UNL     1      17.317 -35.167  19.014  1.00  0.00     0.000 C 
BRANCH  14  15
ATOM     15  C   UNL     1      16.333 -33.983  19.047  1.00  0.00     0.000 C 
BRANCH  15  16
ATOM     16  C   UNL     1      15.026 -34.312  19.790  1.00  0.00     0.000 C 
BRANCH  16  17
ATOM     17  C   UNL     1      14.604 -33.202  20.766  1.00  0.00     0.000 C 
BRANCH  17  18
ATOM     18  C   UNL     1      13.504 -32.293  20.188  1.00  0.00     0.000 C 
BRANCH  18  19
ATOM     19  C   UNL     1      13.451 -30.920  20.876  1.00  0.00     0.000 C 
BRANCH  19  20
ATOM     20  C   UNL     1      13.149 -31.024  22.381  1.00  0.00     0.006 C 
BRANCH  20  21
ATOM     21  C   UNL     1      13.527 -29.742  23.137  1.00  0.00     0.053 C 
BRANCH  21  22
ATOM     22  C   UNL     1      12.325 -28.905  23.453  1.00  0.00     0.041 C 
ATOM     23  O   UNL     1      11.288 -28.993  22.744  1.00  0.00    -0.550 OA
ATOM     24  O   UNL     1      12.360 -28.009  24.512  1.00  0.00    -0.550 OA
ENDBRANCH  21  22
ENDBRANCH  20  21
ENDBRANCH  19  20
ENDBRANCH  18  19
ENDBRANCH  17  18
ENDBRANCH  16  17
ENDBRANCH  15  16
ENDBRANCH  14  15
ENDBRANCH  13  14
ENDBRANCH   1  13
TORSDOF 20
ENDMDL
MODEL 4
REMARK VINA RESULT:    -4.796      3.158      4.511
REMARK INTER + INTRA:         -13.980
REMARK INTER:                 -10.288
REMARK INTRA:                  -3.692
REMARK UNBOUND:                -3.577
REMARK SMILES CCCCCCCCCCCCCCCCCCCCCC(=O)[O-]
REMARK SMILES IDX 12 1 11 2 10 3 9 4 8 5 7 6 6 7 5 8 4 9 3 10 2 11 1 12 13 13
REMARK SMILES IDX 14 14 15 15 16 16 17 17 18 18 19 19 20 20 21 21 22 22 23 23
REMARK SMILES IDX 24 24
REMARK H PARENT
REMARK Flexibility Score: inf
ROOT
ATOM      1  C   UNL     1      14.369 -33.058  21.721  1.00  0.00     0.000 C 
ENDROOT
BRANCH   1   2
ATOM      2  C   UNL     1      14.509 -33.158  20.192  1.00  0.00     0.000 C 
BRANCH   2   3
ATOM      3  C   UNL     1      15.338 -34.380  19.756  1.00  0.00     0.000 C 
BRANCH   3   4
ATOM      4  C   UNL     1      16.675 -33.985  19.109  1.00  0.00    -0.000 C 
BRANCH   4   5
ATOM      5  C   UNL     1      17.647 -35.173  18.994  1.00  0.00    -0.000 C 
BRANCH   5   6
ATOM      6  C   UNL     1      16.989 -36.522  19.336  1.00  0.00    -0.000 C 
BRANCH   6   7
ATOM      7  C   UNL     1      17.716 -37.350  20.412  1.00  0.00    -0.000 C 
BRANCH   7   8
ATOM      8  C   UNL     1      17.954 -36.567  21.712  1.00  0.00    -0.000 C 
BRANCH   8   9
ATOM      9  C   UNL     1      19.276 -36.986  22.373  1.00  0.00    -0.000 C 
BRANCH   9  10
ATOM     10  C   UNL     1      19.100 -37.321  23.870  1.00  0.00    -0.000 C 
BRANCH  10  11
ATOM     11  C   UNL     1      18.280 -36.273  24.641  1.00  0.00    -0.003 C 
ATOM     12  C   UNL     1      17.346 -36.891  25.679  1.00  0.00     0.004 C 
ENDBRANCH  10  11
ENDBRANCH   9  10
ENDBRANCH   8   9
ENDBRANCH   7   8
ENDBRANCH   6   7
ENDBRANCH   5   6
ENDBRANCH   4   5
ENDBRANCH   3   4
ENDBRANCH   2   3
ENDBRANCH   1   2
BRANCH   1  13
ATOM     13  C   UNL     1      15.381 -33.948  22.465  1.00  0.00     0.000 C 
BRANCH  13  14
ATOM     14  C   UNL     1      15.911 -33.299  23.758  1.00  0.00     0.000 C 
BRANCH  14  15
ATOM     15  C   UNL     1      17.415 -32.969  23.758  1.00  0.00     0.000 C 
BRANCH  15  16
ATOM     16  C   UNL     1      18.021 -32.939  22.344  1.00  0.00     0.000 C 
BRANCH  16  17
ATOM     17  C   UNL     1      18.423 -31.522  21.903  1.00  0.00     0.000 C 
BRANCH  17  18
ATOM     18  C   UNL     1      17.364 -30.860  21.002  1.00  0.00     0.000 C 
BRANCH  18  19
ATOM     19  C   UNL     1      16.795 -29.569  21.613  1.00  0.00     0.000 C 
BRANCH  19  20
ATOM     20  C   UNL     1      15.724 -29.843  22.683  1.00  0.00     0.006 C 
BRANCH  20  21
ATOM     21  C   UNL     1      14.420 -29.083  22.403  1.00  0.00     0.053 C 
BRANCH  21  22
ATOM     22  C   UNL     1      13.280 -29.611  23.219  1.00  0.00     0.041 C 
ATOM     23  O   UNL     1      13.426 -30.653  23.912  1.00  0.00    -0.550 OA
ATOM     24  O   UNL     1      12.048 -28.971  23.191  1.00  0.00    -0.550 OA
ENDBRANCH  21  22
ENDBRANCH  20  21
ENDBRANCH  19  20
ENDBRANCH  18  19
ENDBRANCH  17  18
ENDBRANCH  16  17
ENDBRANCH  15  16
ENDBRANCH  14  15
ENDBRANCH  13  14
ENDBRANCH   1  13
TORSDOF 20
ENDMDL
MODEL 5
REMARK VINA RESULT:    -4.794      2.864      5.060
REMARK INTER + INTRA:         -13.977
REMARK INTER:                 -10.570
REMARK INTRA:                  -3.407
REMARK UNBOUND:                -3.577
REMARK SMILES CCCCCCCCCCCCCCCCCCCCCC(=O)[O-]
REMARK SMILES IDX 12 1 11 2 10 3 9 4 8 5 7 6 6 7 5 8 4 9 3 10 2 11 1 12 13 13
REMARK SMILES IDX 14 14 15 15 16 16 17 17 18 18 19 19 20 20 21 21 22 22 23 23
REMARK SMILES IDX 24 24
REMARK H PARENT
REMARK Flexibility Score: inf
ROOT
ATOM      1  C   UNL     1      17.534 -31.753  20.485  1.00  0.00     0.000 C 
ENDROOT
BRANCH   1   2
ATOM      2  C   UNL     1      18.692 -32.764  20.458  1.00  0.00     0.000 C 
BRANCH   2   3
ATOM      3  C   UNL     1      18.552 -33.789  19.318  1.00  0.00     0.000 C 
BRANCH   3   4
ATOM      4  C   UNL     1      17.092 -33.990  18.881  1.00  0.00    -0.000 C 
BRANCH   4   5
ATOM      5  C   UNL     1      16.522 -35.346  19.333  1.00  0.00    -0.000 C 
BRANCH   5   6
ATOM      6  C   UNL     1      17.522 -36.504  19.161  1.00  0.00    -0.000 C 
BRANCH   6   7
ATOM      7  C   UNL     1      17.685 -37.416  20.390  1.00  0.00    -0.000 C 
BRANCH   7   8
ATOM      8  C   UNL     1      18.326 -36.699  21.588  1.00  0.00    -0.000 C 
BRANCH   8   9
ATOM      9  C   UNL     1      18.885 -37.710  22.602  1.00  0.00    -0.000 C 
BRANCH   9  10
ATOM     10  C   UNL     1      19.240 -37.048  23.950  1.00  0.00    -0.000 C 
BRANCH  10  11
ATOM     11  C   UNL     1      18.022 -36.821  24.862  1.00  0.00    -0.003 C 
ATOM     12  C   UNL     1      18.139 -37.541  26.205  1.00  0.00     0.004 C 
ENDBRANCH  10  11
ENDBRANCH   9  10
ENDBRANCH   8   9
ENDBRANCH   7   8
ENDBRANCH   6   7
ENDBRANCH   5   6
ENDBRANCH   4   5
ENDBRANCH   3   4
ENDBRANCH   2   3
ENDBRANCH   1   2
BRANCH   1  13
ATOM     13  C   UNL     1      17.652 -30.751  21.648  1.00  0.00     0.000 C 
BRANCH  13  14
ATOM     14  C   UNL     1      18.172 -31.399  22.945  1.00  0.00     0.000 C 
BRANCH  14  15
ATOM     15  C   UNL     1      17.087 -31.994  23.861  1.00  0.00     0.000 C 
BRANCH  15  16
ATOM     16  C   UNL     1      17.090 -33.533  23.871  1.00  0.00     0.000 C 
BRANCH  16  17
ATOM     17  C   UNL     1      16.184 -34.133  22.783  1.00  0.00     0.000 C 
BRANCH  17  18
ATOM     18  C   UNL     1      14.792 -33.477  22.745  1.00  0.00     0.000 C 
BRANCH  18  19
ATOM     19  C   UNL     1      14.413 -32.979  21.341  1.00  0.00     0.000 C 
BRANCH  19  20
ATOM     20  C   UNL     1      13.853 -31.546  21.352  1.00  0.00     0.006 C 
BRANCH  20  21
ATOM     21  C   UNL     1      13.169 -31.203  22.682  1.00  0.00     0.053 C 
BRANCH  21  22
ATOM     22  C   UNL     1      13.438 -29.789  23.100  1.00  0.00     0.041 C 
ATOM     23  O   UNL     1      14.509 -29.220  22.758  1.00  0.00    -0.550 OA
ATOM     24  O   UNL     1      12.522 -29.111  23.893  1.00  0.00    -0.550 OA
ENDBRANCH  21  22
ENDBRANCH  20  21
ENDBRANCH  19  20
ENDBRANCH  18  19
ENDBRANCH  17  18
ENDBRANCH  16  17
ENDBRANCH  15  16
ENDBRANCH  14  15
ENDBRANCH  13  14
ENDBRANCH   1  13
TORSDOF 20
ENDMDL
MODEL 6
REMARK VINA RESULT:    -4.765      3.234      5.857
REMARK INTER + INTRA:         -13.913
REMARK INTER:                 -10.780
REMARK INTRA:                  -3.133
REMARK UNBOUND:                -3.577
REMARK SMILES CCCCCCCCCCCCCCCCCCCCCC(=O)[O-]
REMARK SMILES IDX 12 1 11 2 10 3 9 4 8 5 7 6 6 7 5 8 4 9 3 10 2 11 1 12 13 13
REMARK SMILES IDX 14 14 15 15 16 16 17 17 18 18 19 19 20 20 21 21 22 22 23 23
REMARK SMILES IDX 24 24
REMARK H PARENT
REMARK Flexibility Score: inf
ROOT
ATOM      1  C   UNL     1      16.598 -34.381  19.208  1.00  0.00     0.000 C 
ENDROOT
BRANCH   1   2
ATOM      2  C   UNL     1      16.301 -35.831  19.626  1.00  0.00     0.000 C 
BRANCH   2   3
ATOM      3  C   UNL     1      17.524 -36.751  19.467  1.00  0.00     0.000 C 
BRANCH   3   4
ATOM      4  C   UNL     1      17.932 -37.424  20.788  1.00  0.00    -0.000 C 
BRANCH   4   5
ATOM      5  C   UNL     1      18.012 -36.427  21.957  1.00  0.00    -0.000 C 
BRANCH   5   6
ATOM      6  C   UNL     1      19.460 -36.123  22.388  1.00  0.00    -0.000 C 
BRANCH   6   7
ATOM      7  C   UNL     1      19.866 -36.686  23.762  1.00  0.00    -0.000 C 
BRANCH   7   8
ATOM      8  C   UNL     1      18.676 -37.247  24.555  1.00  0.00    -0.000 C 
BRANCH   8   9
ATOM      9  C   UNL     1      18.215 -36.254  25.634  1.00  0.00    -0.000 C 
BRANCH   9  10
ATOM     10  C   UNL     1      16.752 -36.493  26.061  1.00  0.00    -0.000 C 
BRANCH  10  11
ATOM     11  C   UNL     1      16.522 -37.861  26.724  1.00  0.00    -0.003 C 
ATOM     12  C   UNL     1      16.095 -37.751  28.187  1.00  0.00     0.004 C 
ENDBRANCH  10  11
ENDBRANCH   9  10
ENDBRANCH   8   9
ENDBRANCH   7   8
ENDBRANCH   6   7
ENDBRANCH   5   6
ENDBRANCH   4   5
ENDBRANCH   3   4
ENDBRANCH   2   3
ENDBRANCH   1   2
BRANCH   1  13
ATOM     13  C   UNL     1      18.102 -34.120  19.008  1.00  0.00     0.000 C 
BRANCH  13  14
ATOM     14  C   UNL     1      18.713 -33.257  20.127  1.00  0.00     0.000 C 
BRANCH  14  15
ATOM     15  C   UNL     1      17.701 -32.458  20.968  1.00  0.00     0.000 C 
BRANCH  15  16
ATOM     16  C   UNL     1      18.131 -32.305  22.437  1.00  0.00     0.000 C 
BRANCH  16  17
ATOM     17  C   UNL     1      16.979 -32.566  23.422  1.00  0.00     0.000 C 
BRANCH  17  18
ATOM     18  C   UNL     1      16.136 -33.795  23.033  1.00  0.00     0.000 C 
BRANCH  18  19
ATOM     19  C   UNL     1      14.651 -33.453  22.836  1.00  0.00     0.000 C 
BRANCH  19  20
ATOM     20  C   UNL     1      14.237 -32.166  23.571  1.00  0.00     0.006 C 
BRANCH  20  21
ATOM     21  C   UNL     1      13.243 -31.328  22.756  1.00  0.00     0.053 C 
BRANCH  21  22
ATOM     22  C   UNL     1      13.745 -31.057  21.370  1.00  0.00     0.041 C 
ATOM     23  O   UNL     1      13.125 -31.512  20.372  1.00  0.00    -0.550 OA
ATOM     24  O   UNL     1      14.912 -30.329  21.183  1.00  0.00    -0.550 OA
ENDBRANCH  21  22
ENDBRANCH  20  21
ENDBRANCH  19  20
ENDBRANCH  18  19
ENDBRANCH  17  18
ENDBRANCH  16  17
ENDBRANCH  15  16
ENDBRANCH  14  15
ENDBRANCH  13  14
ENDBRANCH   1  13
TORSDOF 20
ENDMDL
MODEL 7
REMARK VINA RESULT:    -4.763      2.075      5.825
REMARK INTER + INTRA:         -13.909
REMARK INTER:                 -11.117
REMARK INTRA:                  -2.792
REMARK UNBOUND:                -3.577
REMARK SMILES CCCCCCCCCCCCCCCCCCCCCC(=O)[O-]
REMARK SMILES IDX 12 1 11 2 10 3 9 4 8 5 7 6 6 7 5 8 4 9 3 10 2 11 1 12 13 13
REMARK SMILES IDX 14 14 15 15 16 16 17 17 18 18 19 19 20 20 21 21 22 22 23 23
REMARK SMILES IDX 24 24
REMARK H PARENT
REMARK Flexibility Score: inf
ROOT
ATOM      1  C   UNL     1      17.529 -35.250  18.969  1.00  0.00     0.000 C 
ENDROOT
BRANCH   1   2
ATOM      2  C   UNL     1      16.537 -34.081  19.089  1.00  0.00     0.000 C 
BRANCH   2   3
ATOM      3  C   UNL     1      15.277 -34.457  19.889  1.00  0.00     0.000 C 
BRANCH   3   4
ATOM      4  C   UNL     1      14.581 -33.233  20.503  1.00  0.00    -0.000 C 
BRANCH   4   5
ATOM      5  C   UNL     1      14.693 -33.198  22.038  1.00  0.00    -0.000 C 
BRANCH   5   6
ATOM      6  C   UNL     1      15.093 -31.813  22.579  1.00  0.00    -0.000 C 
BRANCH   6   7
ATOM      7  C   UNL     1      13.956 -31.017  23.244  1.00  0.00    -0.000 C 
BRANCH   7   8
ATOM      8  C   UNL     1      12.825 -30.656  22.268  1.00  0.00    -0.000 C 
BRANCH   8   9
ATOM      9  C   UNL     1      12.021 -29.450  22.778  1.00  0.00    -0.000 C 
BRANCH   9  10
ATOM     10  C   UNL     1      12.682 -28.784  24.003  1.00  0.00    -0.000 C 
BRANCH  10  11
ATOM     11  C   UNL     1      12.218 -27.337  24.240  1.00  0.00    -0.003 C 
ATOM     12  C   UNL     1      13.365 -26.392  24.594  1.00  0.00     0.004 C 
ENDBRANCH  10  11
ENDBRANCH   9  10
ENDBRANCH   8   9
ENDBRANCH   7   8
ENDBRANCH   6   7
ENDBRANCH   5   6
ENDBRANCH   4   5
ENDBRANCH   3   4
ENDBRANCH   2   3
ENDBRANCH   1   2
BRANCH   1  13
ATOM     13  C   UNL     1      16.917 -36.591  19.413  1.00  0.00     0.000 C 
BRANCH  13  14
ATOM     14  C   UNL     1      17.620 -37.191  20.645  1.00  0.00     0.000 C 
BRANCH  14  15
ATOM     15  C   UNL     1      18.503 -36.211  21.439  1.00  0.00     0.000 C 
BRANCH  15  16
ATOM     16  C   UNL     1      17.716 -35.416  22.495  1.00  0.00     0.000 C 
BRANCH  16  17
ATOM     17  C   UNL     1      18.210 -33.967  22.636  1.00  0.00     0.000 C 
BRANCH  17  18
ATOM     18  C   UNL     1      19.538 -33.722  21.896  1.00  0.00     0.000 C 
BRANCH  18  19
ATOM     19  C   UNL     1      19.395 -32.710  20.748  1.00  0.00     0.000 C 
BRANCH  19  20
ATOM     20  C   UNL     1      18.539 -31.492  21.136  1.00  0.00     0.006 C 
BRANCH  20  21
ATOM     21  C   UNL     1      19.344 -30.186  21.108  1.00  0.00     0.053 C 
BRANCH  21  22
ATOM     22  C   UNL     1      18.454 -28.980  21.110  1.00  0.00     0.041 C 
ATOM     23  O   UNL     1      18.950 -27.827  20.997  1.00  0.00    -0.550 OA
ATOM     24  O   UNL     1      17.083 -29.128  21.267  1.00  0.00    -0.550 OA
ENDBRANCH  21  22
ENDBRANCH  20  21
ENDBRANCH  19  20
ENDBRANCH  18  19
ENDBRANCH  17  18
ENDBRANCH  16  17
ENDBRANCH  15  16
ENDBRANCH  14  15
ENDBRANCH  13  14
ENDBRANCH   1  13
TORSDOF 20
ENDMDL
MODEL 8
REMARK VINA RESULT:    -4.697      3.415      6.225
REMARK INTER + INTRA:         -13.766
REMARK INTER:                 -10.517
REMARK INTRA:                  -3.248
REMARK UNBOUND:                -3.577
REMARK SMILES CCCCCCCCCCCCCCCCCCCCCC(=O)[O-]
REMARK SMILES IDX 12 1 11 2 10 3 9 4 8 5 7 6 6 7 5 8 4 9 3 10 2 11 1 12 13 13
REMARK SMILES IDX 14 14 15 15 16 16 17 17 18 18 19 19 20 20 21 21 22 22 23 23
REMARK SMILES IDX 24 24
REMARK H PARENT
REMARK Flexibility Score: inf
ROOT
ATOM      1  C   UNL     1      19.246 -35.191  21.671  1.00  0.00     0.000 C 
ENDROOT
BRANCH   1   2
ATOM      2  C   UNL     1      19.040 -33.727  21.247  1.00  0.00     0.000 C 
BRANCH   2   3
ATOM      3  C   UNL     1      19.398 -32.734  22.367  1.00  0.00     0.000 C 
BRANCH   3   4
ATOM      4  C   UNL     1      18.156 -32.167  23.073  1.00  0.00    -0.000 C 
BRANCH   4   5
ATOM      5  C   UNL     1      18.337 -32.070  24.598  1.00  0.00    -0.000 C 
BRANCH   5   6
ATOM      6  C   UNL     1      18.416 -33.447  25.282  1.00  0.00    -0.000 C 
BRANCH   6   7
ATOM      7  C   UNL     1      17.081 -34.209  25.376  1.00  0.00    -0.000 C 
BRANCH   7   8
ATOM      8  C   UNL     1      17.168 -35.641  24.829  1.00  0.00    -0.000 C 
BRANCH   8   9
ATOM      9  C   UNL     1      18.180 -36.476  25.630  1.00  0.00    -0.000 C 
BRANCH   9  10
ATOM     10  C   UNL     1      17.576 -37.808  26.125  1.00  0.00    -0.000 C 
BRANCH  10  11
ATOM     11  C   UNL     1      16.296 -37.629  26.957  1.00  0.00    -0.003 C 
ATOM     12  C   UNL     1      16.574 -37.423  28.446  1.00  0.00     0.004 C 
ENDBRANCH  10  11
ENDBRANCH   9  10
ENDBRANCH   8   9
ENDBRANCH   7   8
ENDBRANCH   6   7
ENDBRANCH   5   6
ENDBRANCH   4   5
ENDBRANCH   3   4
ENDBRANCH   2   3
ENDBRANCH   1   2
BRANCH   1  13
ATOM     13  C   UNL     1      18.079 -36.099  21.244  1.00  0.00     0.000 C 
BRANCH  13  14
ATOM     14  C   UNL     1      17.580 -35.801  19.818  1.00  0.00     0.000 C 
BRANCH  14  15
ATOM     15  C   UNL     1      16.072 -35.513  19.697  1.00  0.00     0.000 C 
BRANCH  15  16
ATOM     16  C   UNL     1      15.750 -34.009  19.667  1.00  0.00     0.000 C 
BRANCH  16  17
ATOM     17  C   UNL     1      14.746 -33.597  20.756  1.00  0.00     0.000 C 
BRANCH  17  18
ATOM     18  C   UNL     1      15.225 -33.967  22.172  1.00  0.00     0.000 C 
BRANCH  18  19
ATOM     19  C   UNL     1      14.414 -33.262  23.271  1.00  0.00     0.000 C 
BRANCH  19  20
ATOM     20  C   UNL     1      14.736 -31.761  23.375  1.00  0.00     0.006 C 
BRANCH  20  21
ATOM     21  C   UNL     1      13.468 -30.897  23.388  1.00  0.00     0.053 C 
BRANCH  21  22
ATOM     22  C   UNL     1      13.008 -30.559  22.003  1.00  0.00     0.041 C 
ATOM     23  O   UNL     1      11.782 -30.592  21.717  1.00  0.00    -0.550 OA
ATOM     24  O   UNL     1      13.935 -30.238  21.021  1.00  0.00    -0.550 OA
ENDBRANCH  21  22
ENDBRANCH  20  21
ENDBRANCH  19  20
ENDBRANCH  18  19
ENDBRANCH  17  18
ENDBRANCH  16  17
ENDBRANCH  15  16
ENDBRANCH  14  15
ENDBRANCH  13  14
ENDBRANCH   1  13
TORSDOF 20
ENDMDL
