MODEL 1
REMARK VINA RESULT:     8.199      0.000      0.000
REMARK INTER + INTRA:          12.276
REMARK INTER:                  12.513
REMARK INTRA:                  -0.236
REMARK UNBOUND:                -0.236
REMARK SMILES O=C([O-])CCCCCCCCC(=O)[O-]
REMARK SMILES IDX 7 1 6 2 5 3 4 4 2 5 1 6 3 7 8 8 9 9 10 10 11 11 12 12 13 13
REMARK SMILES IDX 14 14
REMARK H PARENT
REMARK Flexibility Score: inf
ROOT
ATOM      1  C   UNL     1     -10.437  -1.046 -18.278  1.00  0.00     0.000 C 
ENDROOT
BRANCH   1   2
ATOM      2  C   UNL     1      -9.418  -1.004 -17.133  1.00  0.00     0.000 C 
BRANCH   2   3
ATOM      3  C   UNL     1      -8.015  -1.369 -17.631  1.00  0.00     0.006 C 
BRANCH   3   4
ATOM      4  C   UNL     1      -6.937  -0.682 -16.788  1.00  0.00     0.053 C 
BRANCH   4   5
ATOM      5  C   UNL     1      -7.113  -1.014 -15.341  1.00  0.00     0.041 C 
ATOM      6  O   UNL     1      -6.875  -2.178 -14.923  1.00  0.00    -0.550 OA
ATOM      7  O   UNL     1      -7.588  -0.051 -14.459  1.00  0.00    -0.550 OA
ENDBRANCH   4   5
ENDBRANCH   3   4
ENDBRANCH   2   3
ENDBRANCH   1   2
BRANCH   1   8
ATOM      8  C   UNL     1     -11.725  -1.756 -17.843  1.00  0.00     0.000 C 
BRANCH   8   9
ATOM      9  C   UNL     1     -12.809  -0.740 -17.456  1.00  0.00     0.000 C 
BRANCH   9  10
ATOM     10  C   UNL     1     -12.542   0.664 -18.029  1.00  0.00     0.006 C 
BRANCH  10  11
ATOM     11  C   UNL     1     -11.938   1.655 -17.022  1.00  0.00     0.053 C 
BRANCH  11  12
ATOM     12  C   UNL     1     -12.171   3.078 -17.423  1.00  0.00     0.041 C 
ATOM     13  O   UNL     1     -12.869   3.344 -18.437  1.00  0.00    -0.550 OA
ATOM     14  O   UNL     1     -11.645   4.113 -16.658  1.00  0.00    -0.550 OA
ENDBRANCH  11  12
ENDBRANCH  10  11
ENDBRANCH   9  10
ENDBRANCH   8   9
ENDBRANCH   1   8
TORSDOF 9
ENDMDL
MODEL 2
REMARK VINA RESULT:     8.252      0.492      5.790
REMARK INTER + INTRA:          12.357
REMARK INTER:                  12.847
REMARK INTRA:                  -0.490
REMARK UNBOUND:                -0.236
REMARK SMILES O=C([O-])CCCCCCCCC(=O)[O-]
REMARK SMILES IDX 7 1 6 2 5 3 4 4 2 5 1 6 3 7 8 8 9 9 10 10 11 11 12 12 13 13
REMARK SMILES IDX 14 14
REMARK H PARENT
REMARK Flexibility Score: inf
ROOT
ATOM      1  C   UNL     1     -11.727  -0.937 -18.456  1.00  0.00     0.000 C 
ENDROOT
BRANCH   1   2
ATOM      2  C   UNL     1     -12.503  -0.684 -17.158  1.00  0.00     0.000 C 
BRANCH   2   3
ATOM      3  C   UNL     1     -12.921   0.786 -17.044  1.00  0.00     0.006 C 
BRANCH   3   4
ATOM      4  C   UNL     1     -11.794   1.715 -17.502  1.00  0.00     0.053 C 
BRANCH   4   5
ATOM      5  C   UNL     1     -12.256   3.138 -17.507  1.00  0.00     0.041 C 
ATOM      6  O   UNL     1     -13.156   3.510 -18.305  1.00  0.00    -0.550 OA
ATOM      7  O   UNL     1     -11.657   4.067 -16.664  1.00  0.00    -0.550 OA
ENDBRANCH   4   5
ENDBRANCH   3   4
ENDBRANCH   2   3
ENDBRANCH   1   2
BRANCH   1   8
ATOM      8  C   UNL     1     -10.473  -1.779 -18.193  1.00  0.00     0.000 C 
BRANCH   8   9
ATOM      9  C   UNL     1      -9.468  -1.011 -17.322  1.00  0.00     0.000 C 
BRANCH   9  10
ATOM     10  C   UNL     1      -8.004  -1.346 -17.663  1.00  0.00     0.006 C 
BRANCH  10  11
ATOM     11  C   UNL     1      -6.969  -0.633 -16.779  1.00  0.00     0.053 C 
BRANCH  11  12
ATOM     12  C   UNL     1      -7.161  -0.943 -15.327  1.00  0.00     0.041 C 
ATOM     13  O   UNL     1      -6.875  -2.086 -14.880  1.00  0.00    -0.550 OA
ATOM     14  O   UNL     1      -7.624   0.039 -14.460  1.00  0.00    -0.550 OA
ENDBRANCH  11  12
ENDBRANCH  10  11
ENDBRANCH   9  10
ENDBRANCH   8   9
ENDBRANCH   1   8
TORSDOF 9
ENDMDL
MODEL 3
REMARK VINA RESULT:     9.526      1.774      2.505
REMARK INTER + INTRA:          14.301
REMARK INTER:                  14.486
REMARK INTRA:                  -0.184
REMARK UNBOUND:                -0.236
REMARK SMILES O=C([O-])CCCCCCCCC(=O)[O-]
REMARK SMILES IDX 7 1 6 2 5 3 4 4 2 5 1 6 3 7 8 8 9 9 10 10 11 11 12 12 13 13
REMARK SMILES IDX 14 14
REMARK H PARENT
REMARK Flexibility Score: inf
ROOT
ATOM      1  C   UNL     1     -12.263  -0.654 -18.133  1.00  0.00     0.000 C 
ENDROOT
BRANCH   1   2
ATOM      2  C   UNL     1     -10.877  -1.271 -18.356  1.00  0.00     0.000 C 
BRANCH   2   3
ATOM      3  C   UNL     1      -9.853  -0.695 -17.372  1.00  0.00     0.006 C 
BRANCH   3   4
ATOM      4  C   UNL     1      -8.665  -1.646 -17.195  1.00  0.00     0.053 C 
BRANCH   4   5
ATOM      5  C   UNL     1      -7.495  -0.920 -16.610  1.00  0.00     0.041 C 
ATOM      6  O   UNL     1      -6.875  -0.062 -17.292  1.00  0.00    -0.550 OA
ATOM      7  O   UNL     1      -7.056  -1.228 -15.328  1.00  0.00    -0.550 OA
ENDBRANCH   4   5
ENDBRANCH   3   4
ENDBRANCH   2   3
ENDBRANCH   1   2
BRANCH   1   8
ATOM      8  C   UNL     1     -12.266   0.263 -16.904  1.00  0.00     0.000 C 
BRANCH   8   9
ATOM      9  C   UNL     1     -12.078   1.731 -17.313  1.00  0.00     0.000 C 
BRANCH   9  10
ATOM     10  C   UNL     1     -13.141   2.212 -18.317  1.00  0.00     0.006 C 
BRANCH  10  11
ATOM     11  C   UNL     1     -13.197   3.737 -18.499  1.00  0.00     0.053 C 
BRANCH  11  12
ATOM     12  C   UNL     1     -14.599   4.232 -18.675  1.00  0.00     0.041 C 
ATOM     13  O   UNL     1     -15.560   3.611 -18.149  1.00  0.00    -0.550 OA
ATOM     14  O   UNL     1     -14.841   5.397 -19.392  1.00  0.00    -0.550 OA
ENDBRANCH  11  12
ENDBRANCH  10  11
ENDBRANCH   9  10
ENDBRANCH   8   9
ENDBRANCH   1   8
TORSDOF 9
ENDMDL
MODEL 4
REMARK VINA RESULT:     9.846      1.585      6.532
REMARK INTER + INTRA:          14.791
REMARK INTER:                  15.028
REMARK INTRA:                  -0.237
REMARK UNBOUND:                -0.236
REMARK SMILES O=C([O-])CCCCCCCCC(=O)[O-]
REMARK SMILES IDX 7 1 6 2 5 3 4 4 2 5 1 6 3 7 8 8 9 9 10 10 11 11 12 12 13 13
REMARK SMILES IDX 14 14
REMARK H PARENT
REMARK Flexibility Score: inf
ROOT
ATOM      1  C   UNL     1     -12.539   0.197 -17.038  1.00  0.00     0.000 C 
ENDROOT
BRANCH   1   2
ATOM      2  C   UNL     1     -12.615   1.208 -18.188  1.00  0.00     0.000 C 
BRANCH   2   3
ATOM      3  C   UNL     1     -12.555   2.647 -17.662  1.00  0.00     0.006 C 
BRANCH   3   4
ATOM      4  C   UNL     1     -12.951   3.647 -18.752  1.00  0.00     0.053 C 
BRANCH   4   5
ATOM      5  C   UNL     1     -14.380   4.057 -18.594  1.00  0.00     0.041 C 
ATOM      6  O   UNL     1     -15.212   3.270 -18.070  1.00  0.00    -0.550 OA
ATOM      7  O   UNL     1     -14.807   5.291 -19.071  1.00  0.00    -0.550 OA
ENDBRANCH   4   5
ENDBRANCH   3   4
ENDBRANCH   2   3
ENDBRANCH   1   2
BRANCH   1   8
ATOM      8  C   UNL     1     -12.253  -1.215 -17.563  1.00  0.00     0.000 C 
BRANCH   8   9
ATOM      9  C   UNL     1     -10.917  -1.260 -18.319  1.00  0.00     0.000 C 
BRANCH   9  10
ATOM     10  C   UNL     1      -9.756  -0.646 -17.516  1.00  0.00     0.006 C 
BRANCH  10  11
ATOM     11  C   UNL     1      -8.605  -1.621 -17.222  1.00  0.00     0.053 C 
BRANCH  11  12
ATOM     12  C   UNL     1      -7.491  -0.965 -16.466  1.00  0.00     0.041 C 
ATOM     13  O   UNL     1      -6.875   0.012 -16.968  1.00  0.00    -0.550 OA
ATOM     14  O   UNL     1      -7.156  -1.411 -15.193  1.00  0.00    -0.550 OA
ENDBRANCH  11  12
ENDBRANCH  10  11
ENDBRANCH   9  10
ENDBRANCH   8   9
ENDBRANCH   1   8
TORSDOF 9
ENDMDL
