MODEL 1
REMARK VINA RESULT:    -4.549      0.000      0.000
REMARK INTER + INTRA:          -5.676
REMARK INTER:                  -5.612
REMARK INTRA:                  -0.064
REMARK UNBOUND:                -0.064
REMARK SMILES CCCCCC(=O)[O-]
REMARK SMILES IDX 4 1 5 2 6 3 7 4 8 5 3 6 2 7 1 8
REMARK H PARENT
REMARK Flexibility Score: inf
ROOT
ATOM      1  C   UNL     1      77.820  21.138  31.016  1.00  0.00     0.006 C 
ENDROOT
BRANCH   1   2
ATOM      2  C   UNL     1      77.984  20.477  29.641  1.00  0.00     0.053 C 
BRANCH   2   3
ATOM      3  C   UNL     1      77.662  21.424  28.525  1.00  0.00     0.041 C 
ATOM      4  O   UNL     1      77.751  22.668  28.706  1.00  0.00    -0.550 OA
ATOM      5  O   UNL     1      77.238  20.936  27.297  1.00  0.00    -0.550 OA
ENDBRANCH   2   3
ENDBRANCH   1   2
BRANCH   1   6
ATOM      6  C   UNL     1      76.622  20.569  31.795  1.00  0.00     0.000 C 
BRANCH   6   7
ATOM      7  C   UNL     1      76.729  20.820  33.307  1.00  0.00    -0.003 C 
ATOM      8  C   UNL     1      75.625  20.123  34.103  1.00  0.00     0.004 C 
ENDBRANCH   6   7
ENDBRANCH   1   6
TORSDOF 4
ENDMDL
MODEL 2
REMARK VINA RESULT:    -4.085      3.273      4.873
REMARK INTER + INTRA:          -5.104
REMARK INTER:                  -5.047
REMARK INTRA:                  -0.057
REMARK UNBOUND:                -0.064
REMARK SMILES CCCCCC(=O)[O-]
REMARK SMILES IDX 4 1 5 2 6 3 7 4 8 5 3 6 2 7 1 8
REMARK H PARENT
REMARK Flexibility Score: inf
ROOT
ATOM      1  C   UNL     1      76.814  20.771  31.373  1.00  0.00     0.006 C 
ENDROOT
BRANCH   1   2
ATOM      2  C   UNL     1      76.975  20.839  32.898  1.00  0.00     0.053 C 
BRANCH   2   3
ATOM      3  C   UNL     1      75.789  20.265  33.610  1.00  0.00     0.041 C 
ATOM      4  O   UNL     1      75.444  20.719  34.733  1.00  0.00    -0.550 OA
ATOM      5  O   UNL     1      75.082  19.210  33.047  1.00  0.00    -0.550 OA
ENDBRANCH   2   3
ENDBRANCH   1   2
BRANCH   1   6
ATOM      6  C   UNL     1      78.095  21.194  30.634  1.00  0.00     0.000 C 
BRANCH   6   7
ATOM      7  C   UNL     1      77.806  21.789  29.247  1.00  0.00    -0.003 C 
ATOM      8  C   UNL     1      77.324  20.742  28.242  1.00  0.00     0.004 C 
ENDBRANCH   6   7
ENDBRANCH   1   6
TORSDOF 4
ENDMDL
MODEL 3
REMARK VINA RESULT:    -3.836      2.896      4.824
REMARK INTER + INTRA:          -4.796
REMARK INTER:                  -4.735
REMARK INTRA:                  -0.061
REMARK UNBOUND:                -0.064
REMARK SMILES CCCCCC(=O)[O-]
REMARK SMILES IDX 4 1 5 2 6 3 7 4 8 5 3 6 2 7 1 8
REMARK H PARENT
REMARK Flexibility Score: inf
ROOT
ATOM      1  C   UNL     1      76.657  21.176  30.181  1.00  0.00     0.006 C 
ENDROOT
BRANCH   1   2
ATOM      2  C   UNL     1      77.346  20.968  31.536  1.00  0.00     0.053 C 
BRANCH   2   3
ATOM      3  C   UNL     1      76.402  20.421  32.563  1.00  0.00     0.041 C 
ATOM      4  O   UNL     1      76.370  20.917  33.720  1.00  0.00    -0.550 OA
ATOM      5  O   UNL     1      75.578  19.347  32.251  1.00  0.00    -0.550 OA
ENDBRANCH   2   3
ENDBRANCH   1   2
BRANCH   1   6
ATOM      6  C   UNL     1      77.489  20.617  29.013  1.00  0.00     0.000 C 
BRANCH   6   7
ATOM      7  C   UNL     1      77.682  21.641  27.884  1.00  0.00    -0.003 C 
ATOM      8  C   UNL     1      77.339  21.074  26.506  1.00  0.00     0.004 C 
ENDBRANCH   6   7
ENDBRANCH   1   6
TORSDOF 4
ENDMDL
MODEL 4
REMARK VINA RESULT:    -3.698     12.559     14.283
REMARK INTER + INTRA:          -4.626
REMARK INTER:                  -4.502
REMARK INTRA:                  -0.124
REMARK UNBOUND:                -0.064
REMARK SMILES CCCCCC(=O)[O-]
REMARK SMILES IDX 4 1 5 2 6 3 7 4 8 5 3 6 2 7 1 8
REMARK H PARENT
REMARK Flexibility Score: inf
ROOT
ATOM      1  C   UNL     1      65.296  17.131  35.227  1.00  0.00     0.006 C 
ENDROOT
BRANCH   1   2
ATOM      2  C   UNL     1      64.144  17.202  36.238  1.00  0.00     0.053 C 
BRANCH   2   3
ATOM      3  C   UNL     1      64.437  16.406  37.474  1.00  0.00     0.041 C 
ATOM      4  O   UNL     1      65.033  15.300  37.388  1.00  0.00    -0.550 OA
ATOM      5  O   UNL     1      64.028  16.873  38.716  1.00  0.00    -0.550 OA
ENDBRANCH   2   3
ENDBRANCH   1   2
BRANCH   1   6
ATOM      6  C   UNL     1      66.439  18.099  35.580  1.00  0.00     0.000 C 
BRANCH   6   7
ATOM      7  C   UNL     1      67.327  18.428  34.370  1.00  0.00    -0.003 C 
ATOM      8  C   UNL     1      66.888  17.702  33.098  1.00  0.00     0.004 C 
ENDBRANCH   6   7
ENDBRANCH   1   6
TORSDOF 4
ENDMDL
MODEL 5
REMARK VINA RESULT:    -3.685     14.599     15.843
REMARK INTER + INTRA:          -4.611
REMARK INTER:                  -4.362
REMARK INTRA:                  -0.249
REMARK UNBOUND:                -0.064
REMARK SMILES CCCCCC(=O)[O-]
REMARK SMILES IDX 4 1 5 2 6 3 7 4 8 5 3 6 2 7 1 8
REMARK H PARENT
REMARK Flexibility Score: inf
ROOT
ATOM      1  C   UNL     1      62.688  18.471  38.263  1.00  0.00     0.006 C 
ENDROOT
BRANCH   1   2
ATOM      2  C   UNL     1      63.845  18.842  37.327  1.00  0.00     0.053 C 
BRANCH   2   3
ATOM      3  C   UNL     1      64.660  17.644  36.946  1.00  0.00     0.041 C 
ATOM      4  O   UNL     1      65.587  17.243  37.698  1.00  0.00    -0.550 OA
ATOM      5  O   UNL     1      64.413  16.986  35.747  1.00  0.00    -0.550 OA
ENDBRANCH   2   3
ENDBRANCH   1   2
BRANCH   1   6
ATOM      6  C   UNL     1      62.852  19.089  39.663  1.00  0.00     0.000 C 
BRANCH   6   7
ATOM      7  C   UNL     1      63.566  18.146  40.643  1.00  0.00    -0.003 C 
ATOM      8  C   UNL     1      63.209  16.677  40.418  1.00  0.00     0.004 C 
ENDBRANCH   6   7
ENDBRANCH   1   6
TORSDOF 4
ENDMDL
MODEL 6
REMARK VINA RESULT:    -3.636     12.794     13.257
REMARK INTER + INTRA:          -4.550
REMARK INTER:                  -4.462
REMARK INTRA:                  -0.088
REMARK UNBOUND:                -0.064
REMARK SMILES CCCCCC(=O)[O-]
REMARK SMILES IDX 4 1 5 2 6 3 7 4 8 5 3 6 2 7 1 8
REMARK H PARENT
REMARK Flexibility Score: inf
ROOT
ATOM      1  C   UNL     1      71.037  10.234  32.574  1.00  0.00     0.006 C 
ENDROOT
BRANCH   1   2
ATOM      2  C   UNL     1      72.161   9.494  33.313  1.00  0.00     0.053 C 
BRANCH   2   3
ATOM      3  C   UNL     1      73.035   8.725  32.370  1.00  0.00     0.041 C 
ATOM      4  O   UNL     1      74.002   8.049  32.811  1.00  0.00    -0.550 OA
ATOM      5  O   UNL     1      72.799   8.776  31.002  1.00  0.00    -0.550 OA
ENDBRANCH   2   3
ENDBRANCH   1   2
BRANCH   1   6
ATOM      6  C   UNL     1      69.690  10.126  33.308  1.00  0.00     0.000 C 
BRANCH   6   7
ATOM      7  C   UNL     1      68.560  10.867  32.577  1.00  0.00    -0.003 C 
ATOM      8  C   UNL     1      69.061  11.688  31.389  1.00  0.00     0.004 C 
ENDBRANCH   6   7
ENDBRANCH   1   6
TORSDOF 4
ENDMDL
MODEL 7
REMARK VINA RESULT:    -3.560     16.551     17.348
REMARK INTER + INTRA:          -4.456
REMARK INTER:                  -4.188
REMARK INTRA:                  -0.267
REMARK UNBOUND:                -0.064
REMARK SMILES CCCCCC(=O)[O-]
REMARK SMILES IDX 4 1 5 2 6 3 7 4 8 5 3 6 2 7 1 8
REMARK H PARENT
REMARK Flexibility Score: inf
ROOT
ATOM      1  C   UNL     1      62.437  16.790  40.407  1.00  0.00     0.006 C 
ENDROOT
BRANCH   1   2
ATOM      2  C   UNL     1      63.127  15.590  39.743  1.00  0.00     0.053 C 
BRANCH   2   3
ATOM      3  C   UNL     1      63.346  15.814  38.278  1.00  0.00     0.041 C 
ATOM      4  O   UNL     1      62.399  16.212  37.550  1.00  0.00    -0.550 OA
ATOM      5  O   UNL     1      64.589  15.558  37.712  1.00  0.00    -0.550 OA
ENDBRANCH   2   3
ENDBRANCH   1   2
BRANCH   1   6
ATOM      6  C   UNL     1      63.354  18.023  40.475  1.00  0.00     0.000 C 
BRANCH   6   7
ATOM      7  C   UNL     1      62.762  19.238  39.746  1.00  0.00    -0.003 C 
ATOM      8  C   UNL     1      61.270  19.082  39.450  1.00  0.00     0.004 C 
ENDBRANCH   6   7
ENDBRANCH   1   6
TORSDOF 4
ENDMDL
MODEL 8
REMARK VINA RESULT:    -3.556     13.365     14.597
REMARK INTER + INTRA:          -4.451
REMARK INTER:                  -4.404
REMARK INTRA:                  -0.047
REMARK UNBOUND:                -0.064
REMARK SMILES CCCCCC(=O)[O-]
REMARK SMILES IDX 4 1 5 2 6 3 7 4 8 5 3 6 2 7 1 8
REMARK H PARENT
REMARK Flexibility Score: inf
ROOT
ATOM      1  C   UNL     1      69.222   9.171  33.262  1.00  0.00     0.006 C 
ENDROOT
BRANCH   1   2
ATOM      2  C   UNL     1      68.824  10.644  33.099  1.00  0.00     0.053 C 
BRANCH   2   3
ATOM      3  C   UNL     1      69.627  11.323  32.031  1.00  0.00     0.041 C 
ATOM      4  O   UNL     1      69.051  11.830  31.032  1.00  0.00    -0.550 OA
ATOM      5  O   UNL     1      71.012  11.373  32.126  1.00  0.00    -0.550 OA
ENDBRANCH   2   3
ENDBRANCH   1   2
BRANCH   1   6
ATOM      6  C   UNL     1      68.001   8.234  33.242  1.00  0.00     0.000 C 
BRANCH   6   7
ATOM      7  C   UNL     1      68.398   6.750  33.253  1.00  0.00    -0.003 C 
ATOM      8  C   UNL     1      67.721   5.965  34.377  1.00  0.00     0.004 C 
ENDBRANCH   6   7
ENDBRANCH   1   6
TORSDOF 4
ENDMDL
MODEL 9
REMARK VINA RESULT:    -3.485     14.760     16.062
REMARK INTER + INTRA:          -4.364
REMARK INTER:                  -4.136
REMARK INTRA:                  -0.228
REMARK UNBOUND:                -0.064
REMARK SMILES CCCCCC(=O)[O-]
REMARK SMILES IDX 4 1 5 2 6 3 7 4 8 5 3 6 2 7 1 8
REMARK H PARENT
REMARK Flexibility Score: inf
ROOT
ATOM      1  C   UNL     1      62.715  16.614  38.554  1.00  0.00     0.006 C 
ENDROOT
BRANCH   1   2
ATOM      2  C   UNL     1      63.632  15.863  37.579  1.00  0.00     0.053 C 
BRANCH   2   3
ATOM      3  C   UNL     1      64.562  16.793  36.861  1.00  0.00     0.041 C 
ATOM      4  O   UNL     1      65.445  17.424  37.501  1.00  0.00    -0.550 OA
ATOM      5  O   UNL     1      64.437  16.983  35.491  1.00  0.00    -0.550 OA
ENDBRANCH   2   3
ENDBRANCH   1   2
BRANCH   1   6
ATOM      6  C   UNL     1      63.110  16.379  40.022  1.00  0.00     0.000 C 
BRANCH   6   7
ATOM      7  C   UNL     1      63.476  17.682  40.750  1.00  0.00    -0.003 C 
ATOM      8  C   UNL     1      63.051  18.931  39.978  1.00  0.00     0.004 C 
ENDBRANCH   6   7
ENDBRANCH   1   6
TORSDOF 4
ENDMDL
