MODEL 1
REMARK VINA RESULT:    -4.575      0.000      0.000
REMARK INTER + INTRA:          -6.531
REMARK INTER:                  -6.179
REMARK INTRA:                  -0.351
REMARK UNBOUND:                -0.351
REMARK SMILES CCCCCCCC(=O)[O-]
REMARK SMILES IDX 5 1 6 2 7 3 8 4 9 5 10 6 4 7 3 8 2 9 1 10
REMARK H PARENT
REMARK Flexibility Score: inf
ROOT
ATOM      1  C   UNL     1       8.304  22.933  -9.029  1.00  0.00     0.000 C 
ENDROOT
BRANCH   1   2
ATOM      2  C   UNL     1       7.572  24.155  -8.455  1.00  0.00     0.006 C 
BRANCH   2   3
ATOM      3  C   UNL     1       6.446  23.757  -7.490  1.00  0.00     0.053 C 
BRANCH   3   4
ATOM      4  C   UNL     1       6.787  24.090  -6.070  1.00  0.00     0.041 C 
ATOM      5  O   UNL     1       6.583  25.249  -5.624  1.00  0.00    -0.550 OA
ATOM      6  O   UNL     1       7.299  23.109  -5.229  1.00  0.00    -0.550 OA
ENDBRANCH   3   4
ENDBRANCH   2   3
ENDBRANCH   1   2
BRANCH   1   7
ATOM      7  C   UNL     1       9.547  22.596  -8.196  1.00  0.00     0.000 C 
BRANCH   7   8
ATOM      8  C   UNL     1      10.745  22.277  -9.097  1.00  0.00    -0.000 C 
BRANCH   8   9
ATOM      9  C   UNL     1      10.918  23.347 -10.181  1.00  0.00    -0.003 C 
ATOM     10  C   UNL     1      11.762  24.513  -9.675  1.00  0.00     0.004 C 
ENDBRANCH   8   9
ENDBRANCH   7   8
ENDBRANCH   1   7
TORSDOF 6
ENDMDL
MODEL 2
REMARK VINA RESULT:    -4.497      3.250      5.076
REMARK INTER + INTRA:          -6.426
REMARK INTER:                  -6.116
REMARK INTRA:                  -0.310
REMARK UNBOUND:                -0.351
REMARK SMILES CCCCCCCC(=O)[O-]
REMARK SMILES IDX 5 1 6 2 7 3 8 4 9 5 10 6 4 7 3 8 2 9 1 10
REMARK H PARENT
REMARK Flexibility Score: inf
ROOT
ATOM      1  C   UNL     1       8.705  22.522  -9.594  1.00  0.00     0.000 C 
ENDROOT
BRANCH   1   2
ATOM      2  C   UNL     1      10.192  22.778  -9.877  1.00  0.00     0.006 C 
BRANCH   2   3
ATOM      3  C   UNL     1      10.960  23.202  -8.617  1.00  0.00     0.053 C 
BRANCH   3   4
ATOM      4  C   UNL     1      12.033  24.198  -8.928  1.00  0.00     0.041 C 
ATOM      5  O   UNL     1      12.963  24.405  -8.105  1.00  0.00    -0.550 OA
ATOM      6  O   UNL     1      12.025  24.875 -10.142  1.00  0.00    -0.550 OA
ENDBRANCH   3   4
ENDBRANCH   2   3
ENDBRANCH   1   2
BRANCH   1   7
ATOM      7  C   UNL     1       8.268  23.206  -8.292  1.00  0.00     0.000 C 
BRANCH   7   8
ATOM      8  C   UNL     1       7.041  24.096  -8.523  1.00  0.00    -0.000 C 
BRANCH   8   9
ATOM      9  C   UNL     1       6.184  23.563  -9.676  1.00  0.00    -0.003 C 
ATOM     10  C   UNL     1       4.972  22.797  -9.154  1.00  0.00     0.004 C 
ENDBRANCH   8   9
ENDBRANCH   7   8
ENDBRANCH   1   7
TORSDOF 6
ENDMDL
MODEL 3
REMARK VINA RESULT:    -4.494      2.987      4.885
REMARK INTER + INTRA:          -6.422
REMARK INTER:                  -6.074
REMARK INTRA:                  -0.348
REMARK UNBOUND:                -0.351
REMARK SMILES CCCCCCCC(=O)[O-]
REMARK SMILES IDX 5 1 6 2 7 3 8 4 9 5 10 6 4 7 3 8 2 9 1 10
REMARK H PARENT
REMARK Flexibility Score: inf
ROOT
ATOM      1  C   UNL     1       8.143  22.495  -9.784  1.00  0.00     0.000 C 
ENDROOT
BRANCH   1   2
ATOM      2  C   UNL     1       9.458  22.834  -9.067  1.00  0.00     0.006 C 
BRANCH   2   3
ATOM      3  C   UNL     1      10.620  23.039 -10.050  1.00  0.00     0.053 C 
BRANCH   3   4
ATOM      4  C   UNL     1      11.634  24.004  -9.520  1.00  0.00     0.041 C 
ATOM      5  O   UNL     1      12.034  24.960 -10.235  1.00  0.00    -0.550 OA
ATOM      6  O   UNL     1      12.114  23.867  -8.223  1.00  0.00    -0.550 OA
ENDBRANCH   3   4
ENDBRANCH   2   3
ENDBRANCH   1   2
BRANCH   1   7
ATOM      7  C   UNL     1       6.963  23.239  -9.147  1.00  0.00     0.000 C 
BRANCH   7   8
ATOM      8  C   UNL     1       7.450  24.399  -8.271  1.00  0.00    -0.000 C 
BRANCH   8   9
ATOM      9  C   UNL     1       6.733  24.402  -6.916  1.00  0.00    -0.003 C 
ATOM     10  C   UNL     1       7.264  23.295  -6.009  1.00  0.00     0.004 C 
ENDBRANCH   8   9
ENDBRANCH   7   8
ENDBRANCH   1   7
TORSDOF 6
ENDMDL
MODEL 4
REMARK VINA RESULT:    -4.477      1.404      2.119
REMARK INTER + INTRA:          -6.399
REMARK INTER:                  -6.055
REMARK INTRA:                  -0.344
REMARK UNBOUND:                -0.351
REMARK SMILES CCCCCCCC(=O)[O-]
REMARK SMILES IDX 5 1 6 2 7 3 8 4 9 5 10 6 4 7 3 8 2 9 1 10
REMARK H PARENT
REMARK Flexibility Score: inf
ROOT
ATOM      1  C   UNL     1       9.211  22.195  -8.688  1.00  0.00     0.000 C 
ENDROOT
BRANCH   1   2
ATOM      2  C   UNL     1       8.308  22.586  -9.866  1.00  0.00     0.006 C 
BRANCH   2   3
ATOM      3  C   UNL     1       6.878  22.917  -9.417  1.00  0.00     0.053 C 
BRANCH   3   4
ATOM      4  C   UNL     1       6.863  23.897  -8.284  1.00  0.00     0.041 C 
ATOM      5  O   UNL     1       6.421  23.554  -7.156  1.00  0.00    -0.550 OA
ATOM      6  O   UNL     1       7.368  25.178  -8.465  1.00  0.00    -0.550 OA
ENDBRANCH   3   4
ENDBRANCH   2   3
ENDBRANCH   1   2
BRANCH   1   7
ATOM      7  C   UNL     1      10.691  22.264  -9.084  1.00  0.00     0.000 C 
BRANCH   7   8
ATOM      8  C   UNL     1      10.916  23.286 -10.204  1.00  0.00    -0.000 C 
BRANCH   8   9
ATOM      9  C   UNL     1      11.703  24.498  -9.692  1.00  0.00    -0.003 C 
ATOM     10  C   UNL     1      12.505  24.146  -8.442  1.00  0.00     0.004 C 
ENDBRANCH   8   9
ENDBRANCH   7   8
ENDBRANCH   1   7
TORSDOF 6
ENDMDL
MODEL 5
REMARK VINA RESULT:    -4.469      1.208      2.149
REMARK INTER + INTRA:          -6.388
REMARK INTER:                  -5.938
REMARK INTRA:                  -0.450
REMARK UNBOUND:                -0.351
REMARK SMILES CCCCCCCC(=O)[O-]
REMARK SMILES IDX 5 1 6 2 7 3 8 4 9 5 10 6 4 7 3 8 2 9 1 10
REMARK H PARENT
REMARK Flexibility Score: inf
ROOT
ATOM      1  C   UNL     1       7.276  22.923  -9.478  1.00  0.00     0.000 C 
ENDROOT
BRANCH   1   2
ATOM      2  C   UNL     1       7.273  23.975  -8.359  1.00  0.00     0.006 C 
BRANCH   2   3
ATOM      3  C   UNL     1       6.249  23.654  -7.262  1.00  0.00     0.053 C 
BRANCH   3   4
ATOM      4  C   UNL     1       6.756  24.022  -5.902  1.00  0.00     0.041 C 
ATOM      5  O   UNL     1       7.300  23.152  -5.172  1.00  0.00    -0.550 OA
ATOM      6  O   UNL     1       6.659  25.334  -5.454  1.00  0.00    -0.550 OA
ENDBRANCH   3   4
ENDBRANCH   2   3
ENDBRANCH   1   2
BRANCH   1   7
ATOM      7  C   UNL     1       8.704  22.470  -9.803  1.00  0.00     0.000 C 
BRANCH   7   8
ATOM      8  C   UNL     1       9.688  22.929  -8.721  1.00  0.00    -0.000 C 
BRANCH   8   9
ATOM      9  C   UNL     1      10.436  21.735  -8.116  1.00  0.00    -0.003 C 
ATOM     10  C   UNL     1       9.870  21.366  -6.747  1.00  0.00     0.004 C 
ENDBRANCH   8   9
ENDBRANCH   7   8
ENDBRANCH   1   7
TORSDOF 6
ENDMDL
MODEL 6
REMARK VINA RESULT:    -4.444      2.062      4.340
REMARK INTER + INTRA:          -6.354
REMARK INTER:                  -5.870
REMARK INTRA:                  -0.485
REMARK UNBOUND:                -0.351
REMARK SMILES CCCCCCCC(=O)[O-]
REMARK SMILES IDX 5 1 6 2 7 3 8 4 9 5 10 6 4 7 3 8 2 9 1 10
REMARK H PARENT
REMARK Flexibility Score: inf
ROOT
ATOM      1  C   UNL     1       8.239  22.478  -9.628  1.00  0.00     0.000 C 
ENDROOT
BRANCH   1   2
ATOM      2  C   UNL     1       9.434  23.153  -8.940  1.00  0.00     0.006 C 
BRANCH   2   3
ATOM      3  C   UNL     1      10.505  22.142  -8.510  1.00  0.00     0.053 C 
BRANCH   3   4
ATOM      4  C   UNL     1      10.055  21.316  -7.344  1.00  0.00     0.041 C 
ATOM      5  O   UNL     1       9.503  21.865  -6.355  1.00  0.00    -0.550 OA
ATOM      6  O   UNL     1      10.213  19.936  -7.365  1.00  0.00    -0.550 OA
ENDBRANCH   3   4
ENDBRANCH   2   3
ENDBRANCH   1   2
BRANCH   1   7
ATOM      7  C   UNL     1       6.941  23.250  -9.360  1.00  0.00     0.000 C 
BRANCH   7   8
ATOM      8  C   UNL     1       7.083  24.158  -8.134  1.00  0.00    -0.000 C 
BRANCH   8   9
ATOM      9  C   UNL     1       6.262  23.622  -6.955  1.00  0.00    -0.003 C 
ATOM     10  C   UNL     1       6.857  24.068  -5.622  1.00  0.00     0.004 C 
ENDBRANCH   8   9
ENDBRANCH   7   8
ENDBRANCH   1   7
TORSDOF 6
ENDMDL
MODEL 7
REMARK VINA RESULT:    -4.303      2.494      4.781
REMARK INTER + INTRA:          -6.164
REMARK INTER:                  -5.864
REMARK INTRA:                  -0.300
REMARK UNBOUND:                -0.351
REMARK SMILES CCCCCCCC(=O)[O-]
REMARK SMILES IDX 5 1 6 2 7 3 8 4 9 5 10 6 4 7 3 8 2 9 1 10
REMARK H PARENT
REMARK Flexibility Score: inf
ROOT
ATOM      1  C   UNL     1       8.007  22.323  -9.709  1.00  0.00     0.000 C 
ENDROOT
BRANCH   1   2
ATOM      2  C   UNL     1       9.524  22.564  -9.711  1.00  0.00     0.006 C 
BRANCH   2   3
ATOM      3  C   UNL     1      10.060  22.903  -8.314  1.00  0.00     0.053 C 
BRANCH   3   4
ATOM      4  C   UNL     1      10.236  21.677  -7.472  1.00  0.00     0.041 C 
ATOM      5  O   UNL     1      11.021  20.764  -7.839  1.00  0.00    -0.550 OA
ATOM      6  O   UNL     1       9.560  21.559  -6.264  1.00  0.00    -0.550 OA
ENDBRANCH   3   4
ENDBRANCH   2   3
ENDBRANCH   1   2
BRANCH   1   7
ATOM      7  C   UNL     1       7.276  23.428  -8.936  1.00  0.00     0.000 C 
BRANCH   7   8
ATOM      8  C   UNL     1       5.947  23.786  -9.611  1.00  0.00    -0.000 C 
BRANCH   8   9
ATOM      9  C   UNL     1       5.055  22.547  -9.758  1.00  0.00    -0.003 C 
ATOM     10  C   UNL     1       4.019  22.478  -8.639  1.00  0.00     0.004 C 
ENDBRANCH   8   9
ENDBRANCH   7   8
ENDBRANCH   1   7
TORSDOF 6
ENDMDL
MODEL 8
REMARK VINA RESULT:    -4.273      2.791      4.858
REMARK INTER + INTRA:          -6.124
REMARK INTER:                  -5.667
REMARK INTRA:                  -0.457
REMARK UNBOUND:                -0.351
REMARK SMILES CCCCCCCC(=O)[O-]
REMARK SMILES IDX 5 1 6 2 7 3 8 4 9 5 10 6 4 7 3 8 2 9 1 10
REMARK H PARENT
REMARK Flexibility Score: inf
ROOT
ATOM      1  C   UNL     1       7.023  23.261  -8.896  1.00  0.00     0.000 C 
ENDROOT
BRANCH   1   2
ATOM      2  C   UNL     1       8.318  22.669  -9.472  1.00  0.00     0.006 C 
BRANCH   2   3
ATOM      3  C   UNL     1       9.454  22.641  -8.440  1.00  0.00     0.053 C 
BRANCH   3   4
ATOM      4  C   UNL     1      10.774  22.988  -9.056  1.00  0.00     0.041 C 
ATOM      5  O   UNL     1      11.806  23.066  -8.339  1.00  0.00    -0.550 OA
ATOM      6  O   UNL     1      10.871  23.191 -10.427  1.00  0.00    -0.550 OA
ENDBRANCH   3   4
ENDBRANCH   2   3
ENDBRANCH   1   2
BRANCH   1   7
ATOM      7  C   UNL     1       7.264  24.669  -8.338  1.00  0.00     0.000 C 
BRANCH   7   8
ATOM      8  C   UNL     1       6.881  24.747  -6.856  1.00  0.00    -0.000 C 
BRANCH   8   9
ATOM      9  C   UNL     1       6.348  23.400  -6.354  1.00  0.00    -0.003 C 
ATOM     10  C   UNL     1       7.235  22.833  -5.249  1.00  0.00     0.004 C 
ENDBRANCH   8   9
ENDBRANCH   7   8
ENDBRANCH   1   7
TORSDOF 6
ENDMDL
MODEL 9
REMARK VINA RESULT:    -4.221      3.591      5.054
REMARK INTER + INTRA:          -6.053
REMARK INTER:                  -5.807
REMARK INTRA:                  -0.246
REMARK UNBOUND:                -0.351
REMARK SMILES CCCCCCCC(=O)[O-]
REMARK SMILES IDX 5 1 6 2 7 3 8 4 9 5 10 6 4 7 3 8 2 9 1 10
REMARK H PARENT
REMARK Flexibility Score: inf
ROOT
ATOM      1  C   UNL     1       8.544  22.920  -8.173  1.00  0.00     0.000 C 
ENDROOT
BRANCH   1   2
ATOM      2  C   UNL     1       9.780  22.281  -7.525  1.00  0.00     0.006 C 
BRANCH   2   3
ATOM      3  C   UNL     1      10.781  21.763  -8.567  1.00  0.00     0.053 C 
BRANCH   3   4
ATOM      4  C   UNL     1      11.806  20.860  -7.954  1.00  0.00     0.041 C 
ATOM      5  O   UNL     1      12.869  21.338  -7.479  1.00  0.00    -0.550 OA
ATOM      6  O   UNL     1      11.571  19.492  -7.875  1.00  0.00    -0.550 OA
ENDBRANCH   3   4
ENDBRANCH   2   3
ENDBRANCH   1   2
BRANCH   1   7
ATOM      7  C   UNL     1       8.499  22.627  -9.678  1.00  0.00     0.000 C 
BRANCH   7   8
ATOM      8  C   UNL     1       7.060  22.384 -10.149  1.00  0.00    -0.000 C 
BRANCH   8   9
ATOM      9  C   UNL     1       6.094  23.383  -9.503  1.00  0.00    -0.003 C 
ATOM     10  C   UNL     1       5.201  24.043 -10.551  1.00  0.00     0.004 C 
ENDBRANCH   8   9
ENDBRANCH   7   8
ENDBRANCH   1   7
TORSDOF 6
ENDMDL
