MODEL 1
REMARK VINA RESULT:    -3.992      0.000      0.000
REMARK INTER + INTRA:          -6.077
REMARK INTER:                  -5.626
REMARK INTRA:                  -0.451
REMARK UNBOUND:                -0.451
REMARK SMILES CCCCCCCCC(=O)[O-]
REMARK SMILES IDX 6 1 7 2 8 3 9 4 10 5 11 6 5 7 4 8 3 9 2 10 1 11
REMARK H PARENT
REMARK Flexibility Score: inf
ROOT
ATOM      1  C   UNL     1     -11.125  -3.753  -4.389  1.00  0.00     0.000 C 
ENDROOT
BRANCH   1   2
ATOM      2  C   UNL     1     -10.984  -4.390  -2.995  1.00  0.00     0.006 C 
BRANCH   2   3
ATOM      3  C   UNL     1     -10.397  -3.413  -1.968  1.00  0.00     0.053 C 
BRANCH   3   4
ATOM      4  C   UNL     1      -8.913  -3.563  -1.837  1.00  0.00     0.041 C 
ATOM      5  O   UNL     1      -8.407  -4.699  -1.638  1.00  0.00    -0.550 OA
ATOM      6  O   UNL     1      -8.086  -2.454  -1.965  1.00  0.00    -0.550 OA
ENDBRANCH   3   4
ENDBRANCH   2   3
ENDBRANCH   1   2
BRANCH   1   7
ATOM      7  C   UNL     1     -10.611  -4.663  -5.519  1.00  0.00     0.000 C 
BRANCH   7   8
ATOM      8  C   UNL     1     -10.851  -6.169  -5.304  1.00  0.00    -0.000 C 
BRANCH   8   9
ATOM      9  C   UNL     1      -9.607  -7.022  -5.592  1.00  0.00    -0.000 C 
BRANCH   9  10
ATOM     10  C   UNL     1      -8.327  -6.188  -5.457  1.00  0.00    -0.003 C 
ATOM     11  C   UNL     1      -7.121  -7.074  -5.159  1.00  0.00     0.004 C 
ENDBRANCH   9  10
ENDBRANCH   8   9
ENDBRANCH   7   8
ENDBRANCH   1   7
TORSDOF 7
ENDMDL
MODEL 2
REMARK VINA RESULT:    -3.856      0.732      1.229
REMARK INTER + INTRA:          -5.886
REMARK INTER:                  -5.556
REMARK INTRA:                  -0.330
REMARK UNBOUND:                -0.451
REMARK SMILES CCCCCCCCC(=O)[O-]
REMARK SMILES IDX 6 1 7 2 8 3 9 4 10 5 11 6 5 7 4 8 3 9 2 10 1 11
REMARK H PARENT
REMARK Flexibility Score: inf
ROOT
ATOM      1  C   UNL     1     -10.684  -4.714  -4.318  1.00  0.00     0.000 C 
ENDROOT
BRANCH   1   2
ATOM      2  C   UNL     1     -10.765  -3.333  -3.644  1.00  0.00     0.006 C 
BRANCH   2   3
ATOM      3  C   UNL     1     -10.416  -3.394  -2.151  1.00  0.00     0.053 C 
BRANCH   3   4
ATOM      4  C   UNL     1      -8.941  -3.539  -1.928  1.00  0.00     0.041 C 
ATOM      5  O   UNL     1      -8.180  -2.545  -2.059  1.00  0.00    -0.550 OA
ATOM      6  O   UNL     1      -8.412  -4.766  -1.546  1.00  0.00    -0.550 OA
ENDBRANCH   3   4
ENDBRANCH   2   3
ENDBRANCH   1   2
BRANCH   1   7
ATOM      7  C   UNL     1     -10.876  -4.649  -5.844  1.00  0.00     0.000 C 
BRANCH   7   8
ATOM      8  C   UNL     1     -10.304  -5.846  -6.625  1.00  0.00    -0.000 C 
BRANCH   8   9
ATOM      9  C   UNL     1      -9.408  -6.750  -5.765  1.00  0.00    -0.000 C 
BRANCH   9  10
ATOM     10  C   UNL     1      -7.935  -6.602  -6.165  1.00  0.00    -0.003 C 
ATOM     11  C   UNL     1      -7.020  -7.317  -5.174  1.00  0.00     0.004 C 
ENDBRANCH   9  10
ENDBRANCH   8   9
ENDBRANCH   7   8
ENDBRANCH   1   7
TORSDOF 7
ENDMDL
MODEL 3
REMARK VINA RESULT:    -3.852      2.579      4.756
REMARK INTER + INTRA:          -5.880
REMARK INTER:                  -5.494
REMARK INTRA:                  -0.386
REMARK UNBOUND:                -0.451
REMARK SMILES CCCCCCCCC(=O)[O-]
REMARK SMILES IDX 6 1 7 2 8 3 9 4 10 5 11 6 5 7 4 8 3 9 2 10 1 11
REMARK H PARENT
REMARK Flexibility Score: inf
ROOT
ATOM      1  C   UNL     1     -11.080  -5.266  -5.733  1.00  0.00     0.000 C 
ENDROOT
BRANCH   1   2
ATOM      2  C   UNL     1      -9.834  -5.749  -6.496  1.00  0.00     0.006 C 
BRANCH   2   3
ATOM      3  C   UNL     1      -9.001  -6.741  -5.676  1.00  0.00     0.053 C 
BRANCH   3   4
ATOM      4  C   UNL     1      -7.571  -6.773  -6.122  1.00  0.00     0.041 C 
ATOM      5  O   UNL     1      -7.202  -6.091  -7.114  1.00  0.00    -0.550 OA
ATOM      6  O   UNL     1      -6.640  -7.535  -5.425  1.00  0.00    -0.550 OA
ENDBRANCH   3   4
ENDBRANCH   2   3
ENDBRANCH   1   2
BRANCH   1   7
ATOM      7  C   UNL     1     -11.083  -5.699  -4.256  1.00  0.00     0.000 C 
BRANCH   7   8
ATOM      8  C   UNL     1     -11.125  -4.545  -3.237  1.00  0.00    -0.000 C 
BRANCH   8   9
ATOM      9  C   UNL     1      -9.728  -4.082  -2.797  1.00  0.00    -0.000 C 
BRANCH   9  10
ATOM     10  C   UNL     1      -9.802  -3.278  -1.493  1.00  0.00    -0.003 C 
ATOM     11  C   UNL     1     -10.929  -3.784  -0.597  1.00  0.00     0.004 C 
ENDBRANCH   9  10
ENDBRANCH   8   9
ENDBRANCH   7   8
ENDBRANCH   1   7
TORSDOF 7
ENDMDL
MODEL 4
REMARK VINA RESULT:    -3.718      1.325      1.830
REMARK INTER + INTRA:          -5.691
REMARK INTER:                  -5.294
REMARK INTRA:                  -0.397
REMARK UNBOUND:                -0.451
REMARK SMILES CCCCCCCCC(=O)[O-]
REMARK SMILES IDX 6 1 7 2 8 3 9 4 10 5 11 6 5 7 4 8 3 9 2 10 1 11
REMARK H PARENT
REMARK Flexibility Score: inf
ROOT
ATOM      1  C   UNL     1     -10.734  -4.249  -4.810  1.00  0.00     0.000 C 
ENDROOT
BRANCH   1   2
ATOM      2  C   UNL     1     -10.816  -4.771  -3.365  1.00  0.00     0.006 C 
BRANCH   2   3
ATOM      3  C   UNL     1     -10.511  -3.675  -2.335  1.00  0.00     0.053 C 
BRANCH   3   4
ATOM      4  C   UNL     1      -9.059  -3.640  -1.970  1.00  0.00     0.041 C 
ATOM      5  O   UNL     1      -8.423  -2.554  -2.007  1.00  0.00    -0.550 OA
ATOM      6  O   UNL     1      -8.415  -4.801  -1.559  1.00  0.00    -0.550 OA
ENDBRANCH   3   4
ENDBRANCH   2   3
ENDBRANCH   1   2
BRANCH   1   7
ATOM      7  C   UNL     1     -10.191  -5.299  -5.797  1.00  0.00     0.000 C 
BRANCH   7   8
ATOM      8  C   UNL     1      -9.019  -6.145  -5.269  1.00  0.00    -0.000 C 
BRANCH   8   9
ATOM      9  C   UNL     1      -8.124  -6.697  -6.389  1.00  0.00    -0.000 C 
BRANCH   9  10
ATOM     10  C   UNL     1      -8.450  -6.029  -7.730  1.00  0.00    -0.003 C 
ATOM     11  C   UNL     1      -7.186  -5.503  -8.405  1.00  0.00     0.004 C 
ENDBRANCH   9  10
ENDBRANCH   8   9
ENDBRANCH   7   8
ENDBRANCH   1   7
TORSDOF 7
ENDMDL
MODEL 5
REMARK VINA RESULT:    -3.490      3.328      5.206
REMARK INTER + INTRA:          -5.370
REMARK INTER:                  -5.061
REMARK INTRA:                  -0.309
REMARK UNBOUND:                -0.451
REMARK SMILES CCCCCCCCC(=O)[O-]
REMARK SMILES IDX 6 1 7 2 8 3 9 4 10 5 11 6 5 7 4 8 3 9 2 10 1 11
REMARK H PARENT
REMARK Flexibility Score: inf
ROOT
ATOM      1  C   UNL     1      -9.795  -5.629  -5.480  1.00  0.00     0.000 C 
ENDROOT
BRANCH   1   2
ATOM      2  C   UNL     1     -10.291  -5.867  -6.917  1.00  0.00     0.006 C 
BRANCH   2   3
ATOM      3  C   UNL     1      -9.444  -5.119  -7.954  1.00  0.00     0.053 C 
BRANCH   3   4
ATOM      4  C   UNL     1      -8.129  -5.796  -8.195  1.00  0.00     0.041 C 
ATOM      5  O   UNL     1      -8.054  -7.053  -8.187  1.00  0.00    -0.550 OA
ATOM      6  O   UNL     1      -6.994  -5.039  -8.458  1.00  0.00    -0.550 OA
ENDBRANCH   3   4
ENDBRANCH   2   3
ENDBRANCH   1   2
BRANCH   1   7
ATOM      7  C   UNL     1     -10.910  -5.770  -4.429  1.00  0.00     0.000 C 
BRANCH   7   8
ATOM      8  C   UNL     1     -10.995  -4.620  -3.408  1.00  0.00    -0.000 C 
BRANCH   8   9
ATOM      9  C   UNL     1      -9.627  -3.999  -3.090  1.00  0.00    -0.000 C 
BRANCH   9  10
ATOM     10  C   UNL     1      -9.457  -3.790  -1.580  1.00  0.00    -0.003 C 
ATOM     11  C   UNL     1     -10.810  -3.695  -0.881  1.00  0.00     0.004 C 
ENDBRANCH   9  10
ENDBRANCH   8   9
ENDBRANCH   7   8
ENDBRANCH   1   7
TORSDOF 7
ENDMDL
MODEL 6
REMARK VINA RESULT:    -3.179     16.826     17.828
REMARK INTER + INTRA:          -4.932
REMARK INTER:                  -4.743
REMARK INTRA:                  -0.189
REMARK UNBOUND:                -0.451
REMARK SMILES CCCCCCCCC(=O)[O-]
REMARK SMILES IDX 6 1 7 2 8 3 9 4 10 5 11 6 5 7 4 8 3 9 2 10 1 11
REMARK H PARENT
REMARK Flexibility Score: inf
ROOT
ATOM      1  C   UNL     1      -6.966   6.863   7.851  1.00  0.00     0.000 C 
ENDROOT
BRANCH   1   2
ATOM      2  C   UNL     1      -5.771   7.797   8.111  1.00  0.00     0.006 C 
BRANCH   2   3
ATOM      3  C   UNL     1      -4.428   7.109   7.834  1.00  0.00     0.053 C 
BRANCH   3   4
ATOM      4  C   UNL     1      -3.405   7.438   8.878  1.00  0.00     0.041 C 
ATOM      5  O   UNL     1      -3.444   8.545   9.475  1.00  0.00    -0.550 OA
ATOM      6  O   UNL     1      -2.427   6.509   9.212  1.00  0.00    -0.550 OA
ENDBRANCH   3   4
ENDBRANCH   2   3
ENDBRANCH   1   2
BRANCH   1   7
ATOM      7  C   UNL     1      -8.306   7.460   8.320  1.00  0.00     0.000 C 
BRANCH   7   8
ATOM      8  C   UNL     1      -9.540   7.000   7.522  1.00  0.00    -0.000 C 
BRANCH   8   9
ATOM      9  C   UNL     1     -10.739   7.946   7.674  1.00  0.00    -0.000 C 
BRANCH   9  10
ATOM     10  C   UNL     1     -10.634   9.125   6.699  1.00  0.00    -0.003 C 
ATOM     11  C   UNL     1     -11.124   8.735   5.308  1.00  0.00     0.004 C 
ENDBRANCH   9  10
ENDBRANCH   8   9
ENDBRANCH   7   8
ENDBRANCH   1   7
TORSDOF 7
ENDMDL
MODEL 7
REMARK VINA RESULT:    -3.073      2.590      3.882
REMARK INTER + INTRA:          -4.782
REMARK INTER:                  -4.225
REMARK INTRA:                  -0.556
REMARK UNBOUND:                -0.451
REMARK SMILES CCCCCCCCC(=O)[O-]
REMARK SMILES IDX 6 1 7 2 8 3 9 4 10 5 11 6 5 7 4 8 3 9 2 10 1 11
REMARK H PARENT
REMARK Flexibility Score: inf
ROOT
ATOM      1  C   UNL     1      -9.266  -6.586  -6.767  1.00  0.00     0.000 C 
ENDROOT
BRANCH   1   2
ATOM      2  C   UNL     1      -9.569  -6.391  -5.271  1.00  0.00     0.006 C 
BRANCH   2   3
ATOM      3  C   UNL     1     -10.434  -5.151  -5.011  1.00  0.00     0.053 C 
BRANCH   3   4
ATOM      4  C   UNL     1      -9.896  -4.320  -3.887  1.00  0.00     0.041 C 
ATOM      5  O   UNL     1      -9.129  -4.834  -3.030  1.00  0.00    -0.550 OA
ATOM      6  O   UNL     1     -10.218  -2.971  -3.802  1.00  0.00    -0.550 OA
ENDBRANCH   3   4
ENDBRANCH   2   3
ENDBRANCH   1   2
BRANCH   1   7
ATOM      7  C   UNL     1      -7.879  -6.055  -7.172  1.00  0.00     0.000 C 
BRANCH   7   8
ATOM      8  C   UNL     1      -7.776  -5.534  -8.617  1.00  0.00    -0.000 C 
BRANCH   8   9
ATOM      9  C   UNL     1      -9.123  -5.539  -9.354  1.00  0.00    -0.000 C 
BRANCH   9  10
ATOM     10  C   UNL     1      -9.626  -4.110  -9.587  1.00  0.00    -0.003 C 
ATOM     11  C   UNL     1     -10.754  -3.759  -8.620  1.00  0.00     0.004 C 
ENDBRANCH   9  10
ENDBRANCH   8   9
ENDBRANCH   7   8
ENDBRANCH   1   7
TORSDOF 7
ENDMDL
MODEL 8
REMARK VINA RESULT:    -2.921     16.725     18.042
REMARK INTER + INTRA:          -4.568
REMARK INTER:                  -3.985
REMARK INTRA:                  -0.582
REMARK UNBOUND:                -0.451
REMARK SMILES CCCCCCCCC(=O)[O-]
REMARK SMILES IDX 6 1 7 2 8 3 9 4 10 5 11 6 5 7 4 8 3 9 2 10 1 11
REMARK H PARENT
REMARK Flexibility Score: inf
ROOT
ATOM      1  C   UNL     1      -7.974   9.838   8.600  1.00  0.00     0.000 C 
ENDROOT
BRANCH   1   2
ATOM      2  C   UNL     1      -9.414   9.935   8.065  1.00  0.00     0.006 C 
BRANCH   2   3
ATOM      3  C   UNL     1     -10.202   8.636   8.283  1.00  0.00     0.053 C 
BRANCH   3   4
ATOM      4  C   UNL     1     -10.356   7.857   7.013  1.00  0.00     0.041 C 
ATOM      5  O   UNL     1     -11.043   8.321   6.065  1.00  0.00    -0.550 OA
ATOM      6  O   UNL     1      -9.718   6.632   6.865  1.00  0.00    -0.550 OA
ENDBRANCH   3   4
ENDBRANCH   2   3
ENDBRANCH   1   2
BRANCH   1   7
ATOM      7  C   UNL     1      -7.766   8.642   9.547  1.00  0.00     0.000 C 
BRANCH   7   8
ATOM      8  C   UNL     1      -6.433   7.893   9.367  1.00  0.00    -0.000 C 
BRANCH   8   9
ATOM      9  C   UNL     1      -6.260   7.304   7.959  1.00  0.00    -0.000 C 
BRANCH   9  10
ATOM     10  C   UNL     1      -4.827   7.504   7.453  1.00  0.00    -0.003 C 
ATOM     11  C   UNL     1      -4.541   8.976   7.171  1.00  0.00     0.004 C 
ENDBRANCH   9  10
ENDBRANCH   8   9
ENDBRANCH   7   8
ENDBRANCH   1   7
TORSDOF 7
ENDMDL
MODEL 9
REMARK VINA RESULT:    -2.857     16.812     17.861
REMARK INTER + INTRA:          -4.477
REMARK INTER:                  -4.025
REMARK INTRA:                  -0.452
REMARK UNBOUND:                -0.451
REMARK SMILES CCCCCCCCC(=O)[O-]
REMARK SMILES IDX 6 1 7 2 8 3 9 4 10 5 11 6 5 7 4 8 3 9 2 10 1 11
REMARK H PARENT
REMARK Flexibility Score: inf
ROOT
ATOM      1  C   UNL     1      -8.380   7.147   8.117  1.00  0.00     0.000 C 
ENDROOT
BRANCH   1   2
ATOM      2  C   UNL     1      -9.909   6.986   8.169  1.00  0.00     0.006 C 
BRANCH   2   3
ATOM      3  C   UNL     1     -10.641   8.308   7.899  1.00  0.00     0.053 C 
BRANCH   3   4
ATOM      4  C   UNL     1     -10.837   8.548   6.434  1.00  0.00     0.041 C 
ATOM      5  O   UNL     1     -11.122   9.701   6.014  1.00  0.00    -0.550 OA
ATOM      6  O   UNL     1     -10.678   7.506   5.529  1.00  0.00    -0.550 OA
ENDBRANCH   3   4
ENDBRANCH   2   3
ENDBRANCH   1   2
BRANCH   1   7
ATOM      7  C   UNL     1      -7.730   7.157   9.512  1.00  0.00     0.000 C 
BRANCH   7   8
ATOM      8  C   UNL     1      -6.529   8.109   9.666  1.00  0.00    -0.000 C 
BRANCH   8   9
ATOM      9  C   UNL     1      -6.348   9.046   8.463  1.00  0.00    -0.000 C 
BRANCH   9  10
ATOM     10  C   UNL     1      -4.914   8.976   7.924  1.00  0.00    -0.003 C 
ATOM     11  C   UNL     1      -4.694   7.705   7.108  1.00  0.00     0.004 C 
ENDBRANCH   9  10
ENDBRANCH   8   9
ENDBRANCH   7   8
ENDBRANCH   1   7
TORSDOF 7
ENDMDL
