MODEL 1
REMARK VINA RESULT:    -5.035      0.000      0.000
REMARK INTER + INTRA:          -6.179
REMARK INTER:                  -6.066
REMARK INTRA:                  -0.113
REMARK UNBOUND:                -0.113
REMARK SMILES COC(=O)c1cc(O)c(O)c(O)c1
REMARK SMILES IDX 5 1 13 2 11 3 9 4 7 5 6 6 3 7 4 8 2 9 1 10 12 11 8 13 10 15
REMARK H PARENT 12 12 8 14 10 16
REMARK Flexibility Score: inf
ROOT
ATOM      1  C   UNL     1      12.125   2.043  14.782  1.00  0.00     0.067 A 
ATOM      2  C   UNL     1      13.516   1.866  14.703  1.00  0.00     0.066 A 
ATOM      3  C   UNL     1      14.281   2.611  13.800  1.00  0.00     0.162 A 
ATOM      4  C   UNL     1      13.659   3.550  12.959  1.00  0.00     0.200 A 
ATOM      5  C   UNL     1      12.268   3.734  13.031  1.00  0.00     0.162 A 
ATOM      6  C   UNL     1      11.509   2.983  13.939  1.00  0.00     0.066 A 
ENDROOT
BRANCH   1   7
ATOM      7  C   UNL     1      11.325   1.249  15.741  1.00  0.00     0.338 C 
ATOM      8  O   UNL     1      11.322   1.553  16.966  1.00  0.00    -0.246 OA
BRANCH   7   9
ATOM      9  O   UNL     1      10.571   0.161  15.289  1.00  0.00    -0.465 OA
ATOM     10  C   UNL     1      11.070  -1.171  15.287  1.00  0.00     0.282 C 
ENDBRANCH   7   9
ENDBRANCH   1   7
BRANCH   3  11
ATOM     11  O   UNL     1      15.660   2.405  13.752  1.00  0.00    -0.504 OA
ATOM     12  H   UNL     1      16.142   2.184  12.890  1.00  0.00     0.293 HD
ENDBRANCH   3  11
BRANCH   5  13
ATOM     13  O   UNL     1      11.644   4.663  12.200  1.00  0.00    -0.504 OA
ATOM     14  H   UNL     1      10.635   4.708  12.113  1.00  0.00     0.293 HD
ENDBRANCH   5  13
BRANCH   4  15
ATOM     15  O   UNL     1      14.430   4.288  12.061  1.00  0.00    -0.502 OA
ATOM     16  H   UNL     1      14.103   4.517  11.129  1.00  0.00     0.293 HD
ENDBRANCH   4  15
TORSDOF 5
ENDMDL
MODEL 2
REMARK VINA RESULT:    -5.020      1.812      2.506
REMARK INTER + INTRA:          -6.161
REMARK INTER:                  -6.048
REMARK INTRA:                  -0.113
REMARK UNBOUND:                -0.113
REMARK SMILES COC(=O)c1cc(O)c(O)c(O)c1
REMARK SMILES IDX 5 1 13 2 11 3 9 4 7 5 6 6 3 7 4 8 2 9 1 10 12 11 8 13 10 15
REMARK H PARENT 12 12 8 14 10 16
REMARK Flexibility Score: inf
ROOT
ATOM      1  C   UNL     1      12.012   1.078  14.510  1.00  0.00     0.067 A 
ATOM      2  C   UNL     1      12.356   1.473  15.813  1.00  0.00     0.066 A 
ATOM      3  C   UNL     1      12.770   2.783  16.077  1.00  0.00     0.162 A 
ATOM      4  C   UNL     1      12.846   3.720  15.032  1.00  0.00     0.200 A 
ATOM      5  C   UNL     1      12.505   3.334  13.725  1.00  0.00     0.162 A 
ATOM      6  C   UNL     1      12.090   2.019  13.470  1.00  0.00     0.066 A 
ENDROOT
BRANCH   1   7
ATOM      7  C   UNL     1      11.575  -0.310  14.243  1.00  0.00     0.338 C 
ATOM      8  O   UNL     1      11.636  -0.779  13.073  1.00  0.00    -0.246 OA
BRANCH   7   9
ATOM      9  O   UNL     1      11.093  -1.104  15.290  1.00  0.00    -0.465 OA
ATOM     10  C   UNL     1      11.798  -2.237  15.782  1.00  0.00     0.282 C 
ENDBRANCH   7   9
ENDBRANCH   1   7
BRANCH   3  11
ATOM     11  O   UNL     1      13.102   3.136  17.385  1.00  0.00    -0.504 OA
ATOM     12  H   UNL     1      14.005   3.526  17.626  1.00  0.00     0.293 HD
ENDBRANCH   3  11
BRANCH   5  13
ATOM     13  O   UNL     1      12.579   4.257  12.684  1.00  0.00    -0.504 OA
ATOM     14  H   UNL     1      13.454   4.696  12.421  1.00  0.00     0.293 HD
ENDBRANCH   5  13
BRANCH   4  15
ATOM     15  O   UNL     1      13.261   5.024  15.304  1.00  0.00    -0.502 OA
ATOM     16  H   UNL     1      13.895   5.242  16.064  1.00  0.00     0.293 HD
ENDBRANCH   4  15
TORSDOF 5
ENDMDL
MODEL 3
REMARK VINA RESULT:    -5.018      1.822      2.989
REMARK INTER + INTRA:          -6.158
REMARK INTER:                  -6.048
REMARK INTRA:                  -0.110
REMARK UNBOUND:                -0.113
REMARK SMILES COC(=O)c1cc(O)c(O)c(O)c1
REMARK SMILES IDX 5 1 13 2 11 3 9 4 7 5 6 6 3 7 4 8 2 9 1 10 12 11 8 13 10 15
REMARK H PARENT 12 12 8 14 10 16
REMARK Flexibility Score: inf
ROOT
ATOM      1  C   UNL     1      12.041   1.085  14.508  1.00  0.00     0.067 A 
ATOM      2  C   UNL     1      12.161   2.025  13.471  1.00  0.00     0.066 A 
ATOM      3  C   UNL     1      12.581   3.333  13.736  1.00  0.00     0.162 A 
ATOM      4  C   UNL     1      12.888   3.718  15.052  1.00  0.00     0.200 A 
ATOM      5  C   UNL     1      12.770   2.785  16.096  1.00  0.00     0.162 A 
ATOM      6  C   UNL     1      12.349   1.477  15.821  1.00  0.00     0.066 A 
ENDROOT
BRANCH   1   7
ATOM      7  C   UNL     1      11.596  -0.296  14.215  1.00  0.00     0.338 C 
ATOM      8  O   UNL     1      11.714  -0.765  13.049  1.00  0.00    -0.246 OA
BRANCH   7   9
ATOM      9  O   UNL     1      11.044  -1.081  15.233  1.00  0.00    -0.465 OA
ATOM     10  C   UNL     1      11.724  -2.197  15.796  1.00  0.00     0.282 C 
ENDBRANCH   7   9
ENDBRANCH   1   7
BRANCH   3  11
ATOM     11  O   UNL     1      12.687   4.236  12.678  1.00  0.00    -0.504 OA
ATOM     12  H   UNL     1      12.491   5.223  12.791  1.00  0.00     0.293 HD
ENDBRANCH   3  11
BRANCH   5  13
ATOM     13  O   UNL     1      13.073   3.161  17.404  1.00  0.00    -0.504 OA
ATOM     14  H   UNL     1      12.401   3.647  17.988  1.00  0.00     0.293 HD
ENDBRANCH   5  13
BRANCH   4  15
ATOM     15  O   UNL     1      13.305   5.025  15.309  1.00  0.00    -0.502 OA
ATOM     16  H   UNL     1      14.282   5.293  15.294  1.00  0.00     0.293 HD
ENDBRANCH   4  15
TORSDOF 5
ENDMDL
MODEL 4
REMARK VINA RESULT:    -4.923      0.302      2.353
REMARK INTER + INTRA:          -6.044
REMARK INTER:                  -5.942
REMARK INTRA:                  -0.102
REMARK UNBOUND:                -0.113
REMARK SMILES COC(=O)c1cc(O)c(O)c(O)c1
REMARK SMILES IDX 5 1 13 2 11 3 9 4 7 5 6 6 3 7 4 8 2 9 1 10 12 11 8 13 10 15
REMARK H PARENT 12 12 8 14 10 16
REMARK Flexibility Score: inf
ROOT
ATOM      1  C   UNL     1      12.018   1.847  14.719  1.00  0.00     0.067 A 
ATOM      2  C   UNL     1      11.428   2.833  13.911  1.00  0.00     0.066 A 
ATOM      3  C   UNL     1      12.210   3.625  13.063  1.00  0.00     0.162 A 
ATOM      4  C   UNL     1      13.602   3.439  13.015  1.00  0.00     0.200 A 
ATOM      5  C   UNL     1      14.202   2.456  13.820  1.00  0.00     0.162 A 
ATOM      6  C   UNL     1      13.411   1.666  14.666  1.00  0.00     0.066 A 
ENDROOT
BRANCH   1   7
ATOM      7  C   UNL     1      11.181   1.015  15.611  1.00  0.00     0.338 C 
ATOM      8  O   UNL     1      11.069   1.311  16.833  1.00  0.00    -0.246 OA
BRANCH   7   9
ATOM      9  O   UNL     1      10.513  -0.103  15.098  1.00  0.00    -0.465 OA
ATOM     10  C   UNL     1      11.197  -1.214  14.533  1.00  0.00     0.282 C 
ENDBRANCH   7   9
ENDBRANCH   1   7
BRANCH   3  11
ATOM     11  O   UNL     1      11.585   4.592  12.276  1.00  0.00    -0.504 OA
ATOM     12  H   UNL     1      11.352   5.510  12.634  1.00  0.00     0.293 HD
ENDBRANCH   3  11
BRANCH   5  13
ATOM     13  O   UNL     1      15.582   2.267  13.778  1.00  0.00    -0.504 OA
ATOM     14  H   UNL     1      16.156   2.337  14.611  1.00  0.00     0.293 HD
ENDBRANCH   5  13
BRANCH   4  15
ATOM     15  O   UNL     1      14.375   4.234  12.168  1.00  0.00    -0.502 OA
ATOM     16  H   UNL     1      15.137   4.807  12.511  1.00  0.00     0.293 HD
ENDBRANCH   4  15
TORSDOF 5
ENDMDL
MODEL 5
REMARK VINA RESULT:    -4.905      3.118      5.016
REMARK INTER + INTRA:          -6.022
REMARK INTER:                  -5.904
REMARK INTRA:                  -0.118
REMARK UNBOUND:                -0.113
REMARK SMILES COC(=O)c1cc(O)c(O)c(O)c1
REMARK SMILES IDX 5 1 13 2 11 3 9 4 7 5 6 6 3 7 4 8 2 9 1 10 12 11 8 13 10 15
REMARK H PARENT 12 12 8 14 10 16
REMARK Flexibility Score: inf
ROOT
ATOM      1  C   UNL     1      11.644  -0.247  14.555  1.00  0.00     0.067 A 
ATOM      2  C   UNL     1      11.729  -1.370  15.395  1.00  0.00     0.066 A 
ATOM      3  C   UNL     1      12.188  -2.597  14.905  1.00  0.00     0.162 A 
ATOM      4  C   UNL     1      12.569  -2.716  13.557  1.00  0.00     0.200 A 
ATOM      5  C   UNL     1      12.487  -1.600  12.709  1.00  0.00     0.162 A 
ATOM      6  C   UNL     1      12.027  -0.373  13.209  1.00  0.00     0.066 A 
ENDROOT
BRANCH   1   7
ATOM      7  C   UNL     1      11.158   1.046  15.085  1.00  0.00     0.338 C 
ATOM      8  O   UNL     1      10.611   1.881  14.313  1.00  0.00    -0.246 OA
BRANCH   7   9
ATOM      9  O   UNL     1      11.305   1.342  16.444  1.00  0.00    -0.465 OA
ATOM     10  C   UNL     1      12.379   2.128  16.947  1.00  0.00     0.282 C 
ENDBRANCH   7   9
ENDBRANCH   1   7
BRANCH   3  11
ATOM     11  O   UNL     1      12.257  -3.687  15.772  1.00  0.00    -0.504 OA
ATOM     12  H   UNL     1      11.521  -3.896  16.435  1.00  0.00     0.293 HD
ENDBRANCH   3  11
BRANCH   5  13
ATOM     13  O   UNL     1      12.864  -1.711  11.371  1.00  0.00    -0.504 OA
ATOM     14  H   UNL     1      13.791  -1.450  11.055  1.00  0.00     0.293 HD
ENDBRANCH   5  13
BRANCH   4  15
ATOM     15  O   UNL     1      13.024  -3.944  13.076  1.00  0.00    -0.502 OA
ATOM     16  H   UNL     1      12.797  -4.278  12.147  1.00  0.00     0.293 HD
ENDBRANCH   4  15
TORSDOF 5
ENDMDL
MODEL 6
REMARK VINA RESULT:    -4.900      3.183      5.289
REMARK INTER + INTRA:          -6.017
REMARK INTER:                  -5.905
REMARK INTRA:                  -0.112
REMARK UNBOUND:                -0.113
REMARK SMILES COC(=O)c1cc(O)c(O)c(O)c1
REMARK SMILES IDX 5 1 13 2 11 3 9 4 7 5 6 6 3 7 4 8 2 9 1 10 12 11 8 13 10 15
REMARK H PARENT 12 12 8 14 10 16
REMARK Flexibility Score: inf
ROOT
ATOM      1  C   UNL     1      11.672  -0.362  14.640  1.00  0.00     0.067 A 
ATOM      2  C   UNL     1      12.057  -0.476  13.294  1.00  0.00     0.066 A 
ATOM      3  C   UNL     1      12.508  -1.696  12.780  1.00  0.00     0.162 A 
ATOM      4  C   UNL     1      12.579  -2.825  13.613  1.00  0.00     0.200 A 
ATOM      5  C   UNL     1      12.197  -2.722  14.961  1.00  0.00     0.162 A 
ATOM      6  C   UNL     1      11.746  -1.495  15.468  1.00  0.00     0.066 A 
ENDROOT
BRANCH   1   7
ATOM      7  C   UNL     1      11.196   0.934  15.173  1.00  0.00     0.338 C 
ATOM      8  O   UNL     1      10.580   1.740  14.421  1.00  0.00    -0.246 OA
BRANCH   7   9
ATOM      9  O   UNL     1      11.428   1.265  16.512  1.00  0.00    -0.465 OA
ATOM     10  C   UNL     1      12.414   2.211  16.909  1.00  0.00     0.282 C 
ENDBRANCH   7   9
ENDBRANCH   1   7
BRANCH   3  11
ATOM     11  O   UNL     1      12.881  -1.767  11.438  1.00  0.00    -0.504 OA
ATOM     12  H   UNL     1      13.479  -1.073  11.007  1.00  0.00     0.293 HD
ENDBRANCH   3  11
BRANCH   5  13
ATOM     13  O   UNL     1      12.266  -3.838  15.793  1.00  0.00    -0.504 OA
ATOM     14  H   UNL     1      12.824  -4.649  15.552  1.00  0.00     0.293 HD
ENDBRANCH   5  13
BRANCH   4  15
ATOM     15  O   UNL     1      13.031  -4.039  13.093  1.00  0.00    -0.502 OA
ATOM     16  H   UNL     1      12.733  -4.383  12.188  1.00  0.00     0.293 HD
ENDBRANCH   4  15
TORSDOF 5
ENDMDL
MODEL 7
REMARK VINA RESULT:    -4.845      2.363      5.101
REMARK INTER + INTRA:          -5.950
REMARK INTER:                  -5.863
REMARK INTRA:                  -0.087
REMARK UNBOUND:                -0.113
REMARK SMILES COC(=O)c1cc(O)c(O)c(O)c1
REMARK SMILES IDX 5 1 13 2 11 3 9 4 7 5 6 6 3 7 4 8 2 9 1 10 12 11 8 13 10 15
REMARK H PARENT 12 12 8 14 10 16
REMARK Flexibility Score: inf
ROOT
ATOM      1  C   UNL     1      12.221   0.610  14.220  1.00  0.00     0.067 A 
ATOM      2  C   UNL     1      12.338  -0.105  15.424  1.00  0.00     0.066 A 
ATOM      3  C   UNL     1      12.026  -1.468  15.480  1.00  0.00     0.162 A 
ATOM      4  C   UNL     1      11.590  -2.136  14.323  1.00  0.00     0.200 A 
ATOM      5  C   UNL     1      11.470  -1.430  13.114  1.00  0.00     0.162 A 
ATOM      6  C   UNL     1      11.785  -0.065  13.067  1.00  0.00     0.066 A 
ENDROOT
BRANCH   1   7
ATOM      7  C   UNL     1      12.555   2.050  14.173  1.00  0.00     0.338 C 
ATOM      8  O   UNL     1      12.196   2.814  15.111  1.00  0.00    -0.246 OA
BRANCH   7   9
ATOM      9  O   UNL     1      13.270   2.566  13.087  1.00  0.00    -0.465 OA
ATOM     10  C   UNL     1      13.857   3.862  13.099  1.00  0.00     0.282 C 
ENDBRANCH   7   9
ENDBRANCH   1   7
BRANCH   3  11
ATOM     11  O   UNL     1      12.155  -2.141  16.694  1.00  0.00    -0.504 OA
ATOM     12  H   UNL     1      11.502  -2.008  17.456  1.00  0.00     0.293 HD
ENDBRANCH   3  11
BRANCH   5  13
ATOM     13  O   UNL     1      11.038  -2.086  11.963  1.00  0.00    -0.504 OA
ATOM     14  H   UNL     1      10.413  -2.883  12.007  1.00  0.00     0.293 HD
ENDBRANCH   5  13
BRANCH   4  15
ATOM     15  O   UNL     1      11.280  -3.495  14.387  1.00  0.00    -0.502 OA
ATOM     16  H   UNL     1      10.325  -3.829  14.453  1.00  0.00     0.293 HD
ENDBRANCH   4  15
TORSDOF 5
ENDMDL
MODEL 8
REMARK VINA RESULT:    -4.809      2.370      5.392
REMARK INTER + INTRA:          -5.906
REMARK INTER:                  -5.819
REMARK INTRA:                  -0.088
REMARK UNBOUND:                -0.113
REMARK SMILES COC(=O)c1cc(O)c(O)c(O)c1
REMARK SMILES IDX 5 1 13 2 11 3 9 4 7 5 6 6 3 7 4 8 2 9 1 10 12 11 8 13 10 15
REMARK H PARENT 12 12 8 14 10 16
REMARK Flexibility Score: inf
ROOT
ATOM      1  C   UNL     1      12.193   0.559  14.233  1.00  0.00     0.067 A 
ATOM      2  C   UNL     1      11.753  -0.113  13.081  1.00  0.00     0.066 A 
ATOM      3  C   UNL     1      11.433  -1.474  13.124  1.00  0.00     0.162 A 
ATOM      4  C   UNL     1      11.551  -2.185  14.330  1.00  0.00     0.200 A 
ATOM      5  C   UNL     1      11.991  -1.523  15.489  1.00  0.00     0.162 A 
ATOM      6  C   UNL     1      12.309  -0.158  15.436  1.00  0.00     0.066 A 
ENDROOT
BRANCH   1   7
ATOM      7  C   UNL     1      12.528   1.999  14.176  1.00  0.00     0.338 C 
ATOM      8  O   UNL     1      12.128   2.779  15.083  1.00  0.00    -0.246 OA
BRANCH   7   9
ATOM      9  O   UNL     1      13.291   2.495  13.113  1.00  0.00    -0.465 OA
ATOM     10  C   UNL     1      13.596   3.877  12.967  1.00  0.00     0.282 C 
ENDBRANCH   7   9
ENDBRANCH   1   7
BRANCH   3  11
ATOM     11  O   UNL     1      10.999  -2.103  11.957  1.00  0.00    -0.504 OA
ATOM     12  H   UNL     1      10.599  -3.033  11.963  1.00  0.00     0.293 HD
ENDBRANCH   3  11
BRANCH   5  13
ATOM     13  O   UNL     1      12.111  -2.222  16.689  1.00  0.00    -0.504 OA
ATOM     14  H   UNL     1      11.901  -1.788  17.581  1.00  0.00     0.293 HD
ENDBRANCH   5  13
BRANCH   4  15
ATOM     15  O   UNL     1      11.231  -3.542  14.365  1.00  0.00    -0.502 OA
ATOM     16  H   UNL     1      10.467  -3.903  14.924  1.00  0.00     0.293 HD
ENDBRANCH   4  15
TORSDOF 5
ENDMDL
MODEL 9
REMARK VINA RESULT:    -4.739      2.056      4.797
REMARK INTER + INTRA:          -5.822
REMARK INTER:                  -5.694
REMARK INTRA:                  -0.128
REMARK UNBOUND:                -0.113
REMARK SMILES COC(=O)c1cc(O)c(O)c(O)c1
REMARK SMILES IDX 5 1 13 2 11 3 9 4 7 5 6 6 3 7 4 8 2 9 1 10 12 11 8 13 10 15
REMARK H PARENT 12 12 8 14 10 16
REMARK Flexibility Score: inf
ROOT
ATOM      1  C   UNL     1      12.527   1.854  14.170  1.00  0.00     0.067 A 
ATOM      2  C   UNL     1      11.422   1.323  14.855  1.00  0.00     0.066 A 
ATOM      3  C   UNL     1      11.233  -0.060  14.943  1.00  0.00     0.162 A 
ATOM      4  C   UNL     1      12.154  -0.935  14.342  1.00  0.00     0.200 A 
ATOM      5  C   UNL     1      13.263  -0.413  13.654  1.00  0.00     0.162 A 
ATOM      6  C   UNL     1      13.445   0.975  13.571  1.00  0.00     0.066 A 
ENDROOT
BRANCH   1   7
ATOM      7  C   UNL     1      12.718   3.319  14.083  1.00  0.00     0.338 C 
ATOM      8  O   UNL     1      12.962   3.988  15.125  1.00  0.00    -0.246 OA
BRANCH   7   9
ATOM      9  O   UNL     1      12.627   3.963  12.844  1.00  0.00    -0.465 OA
ATOM     10  C   UNL     1      11.382   4.274  12.230  1.00  0.00     0.282 C 
ENDBRANCH   7   9
ENDBRANCH   1   7
BRANCH   3  11
ATOM     11  O   UNL     1      10.123  -0.547  15.633  1.00  0.00    -0.504 OA
ATOM     12  H   UNL     1      10.203  -1.255  16.353  1.00  0.00     0.293 HD
ENDBRANCH   3  11
BRANCH   5  13
ATOM     13  O   UNL     1      14.181  -1.275  13.056  1.00  0.00    -0.504 OA
ATOM     14  H   UNL     1      13.884  -2.103  12.553  1.00  0.00     0.293 HD
ENDBRANCH   5  13
BRANCH   4  15
ATOM     15  O   UNL     1      11.958  -2.313  14.434  1.00  0.00    -0.502 OA
ATOM     16  H   UNL     1      11.301  -2.806  13.840  1.00  0.00     0.293 HD
ENDBRANCH   4  15
TORSDOF 5
ENDMDL
