MODEL 1
REMARK VINA RESULT:    -4.941      0.000      0.000
REMARK INTER + INTRA:          -4.941
REMARK INTER:                  -4.941
REMARK INTRA:                   0.000
REMARK UNBOUND:                 0.000
REMARK SMILES O=c1ccc2ccccc2o1
REMARK SMILES IDX 7 1 8 2 9 3 10 4 5 5 6 6 4 7 3 8 2 9 1 10 11 11
REMARK H PARENT
REMARK Flexibility Score: inf
ROOT
ATOM      1  C   UNL     1      12.008  36.437  49.819  1.00  0.00     0.001 A 
ATOM      2  C   UNL     1      12.361  36.247  48.479  1.00  0.00     0.004 A 
ATOM      3  C   UNL     1      13.650  36.563  48.038  1.00  0.00     0.048 A 
ATOM      4  C   UNL     1      14.593  37.071  48.938  1.00  0.00     0.138 A 
ATOM      5  C   UNL     1      14.238  37.263  50.293  1.00  0.00     0.018 A 
ATOM      6  C   UNL     1      12.943  36.944  50.728  1.00  0.00     0.012 A 
ATOM      7  C   UNL     1      15.200  37.773  51.169  1.00  0.00     0.019 A 
ATOM      8  C   UNL     1      16.473  38.075  50.685  1.00  0.00     0.094 A 
ATOM      9  C   UNL     1      16.754  37.859  49.332  1.00  0.00     0.336 A 
ATOM     10  O   UNL     1      17.898  38.125  48.878  1.00  0.00    -0.246 OA
ATOM     11  O   UNL     1      15.820  37.372  48.519  1.00  0.00    -0.423 OA
ENDROOT
TORSDOF 0
ENDMDL
MODEL 2
REMARK VINA RESULT:    -4.751      1.653      3.853
REMARK INTER + INTRA:          -4.751
REMARK INTER:                  -4.751
REMARK INTRA:                   0.000
REMARK UNBOUND:                 0.000
REMARK SMILES O=c1ccc2ccccc2o1
REMARK SMILES IDX 7 1 8 2 9 3 10 4 5 5 6 6 4 7 3 8 2 9 1 10 11 11
REMARK H PARENT
REMARK Flexibility Score: inf
ROOT
ATOM      1  C   UNL     1      16.254  38.124  50.687  1.00  0.00     0.001 A 
ATOM      2  C   UNL     1      16.624  37.998  49.344  1.00  0.00     0.004 A 
ATOM      3  C   UNL     1      15.715  37.498  48.406  1.00  0.00     0.048 A 
ATOM      4  C   UNL     1      14.430  37.121  48.809  1.00  0.00     0.138 A 
ATOM      5  C   UNL     1      14.053  37.248  50.166  1.00  0.00     0.018 A 
ATOM      6  C   UNL     1      14.970  37.750  51.101  1.00  0.00     0.012 A 
ATOM      7  C   UNL     1      12.763  36.863  50.538  1.00  0.00     0.019 A 
ATOM      8  C   UNL     1      11.890  36.369  49.569  1.00  0.00     0.094 A 
ATOM      9  C   UNL     1      12.331  36.271  48.245  1.00  0.00     0.336 A 
ATOM     10  O   UNL     1      11.557  35.827  47.357  1.00  0.00    -0.246 OA
ATOM     11  O   UNL     1      13.565  36.645  47.917  1.00  0.00    -0.423 OA
ENDROOT
TORSDOF 0
ENDMDL
MODEL 3
REMARK VINA RESULT:    -4.624      1.999      4.379
REMARK INTER + INTRA:          -4.624
REMARK INTER:                  -4.624
REMARK INTRA:                   0.000
REMARK UNBOUND:                 0.000
REMARK SMILES O=c1ccc2ccccc2o1
REMARK SMILES IDX 7 1 8 2 9 3 10 4 5 5 6 6 4 7 3 8 2 9 1 10 11 11
REMARK H PARENT
REMARK Flexibility Score: inf
ROOT
ATOM      1  C   UNL     1      16.779  38.022  49.610  1.00  0.00     0.001 A 
ATOM      2  C   UNL     1      16.236  38.125  50.894  1.00  0.00     0.004 A 
ATOM      3  C   UNL     1      14.914  37.734  51.134  1.00  0.00     0.048 A 
ATOM      4  C   UNL     1      14.130  37.238  50.088  1.00  0.00     0.138 A 
ATOM      5  C   UNL     1      14.678  37.133  48.788  1.00  0.00     0.018 A 
ATOM      6  C   UNL     1      16.003  37.527  48.555  1.00  0.00     0.012 A 
ATOM      7  C   UNL     1      13.870  36.634  47.763  1.00  0.00     0.019 A 
ATOM      8  C   UNL     1      12.558  36.257  48.048  1.00  0.00     0.094 A 
ATOM      9  C   UNL     1      12.083  36.389  49.357  1.00  0.00     0.336 A 
ATOM     10  O   UNL     1      10.901  36.053  49.633  1.00  0.00    -0.246 OA
ATOM     11  O   UNL     1      12.873  36.866  50.316  1.00  0.00    -0.423 OA
ENDROOT
TORSDOF 0
ENDMDL
MODEL 4
REMARK VINA RESULT:    -4.544      1.339      3.473
REMARK INTER + INTRA:          -4.544
REMARK INTER:                  -4.544
REMARK INTRA:                   0.000
REMARK UNBOUND:                 0.000
REMARK SMILES O=c1ccc2ccccc2o1
REMARK SMILES IDX 7 1 8 2 9 3 10 4 5 5 6 6 4 7 3 8 2 9 1 10 11 11
REMARK H PARENT
REMARK Flexibility Score: inf
ROOT
ATOM      1  C   UNL     1      15.290  37.594  51.465  1.00  0.00     0.001 A 
ATOM      2  C   UNL     1      16.400  38.117  50.794  1.00  0.00     0.004 A 
ATOM      3  C   UNL     1      16.441  38.120  49.396  1.00  0.00     0.048 A 
ATOM      4  C   UNL     1      15.369  37.599  48.663  1.00  0.00     0.138 A 
ATOM      5  C   UNL     1      14.246  37.070  49.340  1.00  0.00     0.018 A 
ATOM      6  C   UNL     1      14.212  37.070  50.742  1.00  0.00     0.012 A 
ATOM      7  C   UNL     1      13.192  36.556  48.581  1.00  0.00     0.019 A 
ATOM      8  C   UNL     1      13.276  36.579  47.189  1.00  0.00     0.094 A 
ATOM      9  C   UNL     1      14.418  37.118  46.587  1.00  0.00     0.336 A 
ATOM     10  O   UNL     1      14.511  37.148  45.332  1.00  0.00    -0.246 OA
ATOM     11  O   UNL     1      15.408  37.602  47.332  1.00  0.00    -0.423 OA
ENDROOT
TORSDOF 0
ENDMDL
MODEL 5
REMARK VINA RESULT:    -4.535      1.489      2.383
REMARK INTER + INTRA:          -4.535
REMARK INTER:                  -4.535
REMARK INTRA:                   0.000
REMARK UNBOUND:                 0.000
REMARK SMILES O=c1ccc2ccccc2o1
REMARK SMILES IDX 7 1 8 2 9 3 10 4 5 5 6 6 4 7 3 8 2 9 1 10 11 11
REMARK H PARENT
REMARK Flexibility Score: inf
ROOT
ATOM      1  C   UNL     1      11.478  35.958  48.130  1.00  0.00     0.001 A 
ATOM      2  C   UNL     1      11.085  36.149  49.459  1.00  0.00     0.004 A 
ATOM      3  C   UNL     1      11.997  36.634  50.401  1.00  0.00     0.048 A 
ATOM      4  C   UNL     1      13.309  36.931  50.017  1.00  0.00     0.138 A 
ATOM      5  C   UNL     1      13.708  36.740  48.674  1.00  0.00     0.018 A 
ATOM      6  C   UNL     1      12.788  36.253  47.734  1.00  0.00     0.012 A 
ATOM      7  C   UNL     1      15.025  37.045  48.320  1.00  0.00     0.019 A 
ATOM      8  C   UNL     1      15.901  37.527  49.293  1.00  0.00     0.094 A 
ATOM      9  C   UNL     1      15.436  37.691  50.603  1.00  0.00     0.336 A 
ATOM     10  O   UNL     1      16.213  38.125  51.494  1.00  0.00    -0.246 OA
ATOM     11  O   UNL     1      14.178  37.394  50.914  1.00  0.00    -0.423 OA
ENDROOT
TORSDOF 0
ENDMDL
MODEL 6
REMARK VINA RESULT:    -4.245      1.677      2.623
REMARK INTER + INTRA:          -4.245
REMARK INTER:                  -4.245
REMARK INTRA:                   0.000
REMARK UNBOUND:                 0.000
REMARK SMILES O=c1ccc2ccccc2o1
REMARK SMILES IDX 7 1 8 2 9 3 10 4 5 5 6 6 4 7 3 8 2 9 1 10 11 11
REMARK H PARENT
REMARK Flexibility Score: inf
ROOT
ATOM      1  C   UNL     1      13.495  36.785  46.266  1.00  0.00     0.001 A 
ATOM      2  C   UNL     1      12.571  36.358  47.225  1.00  0.00     0.004 A 
ATOM      3  C   UNL     1      12.881  36.438  48.587  1.00  0.00     0.048 A 
ATOM      4  C   UNL     1      14.118  36.947  48.995  1.00  0.00     0.138 A 
ATOM      5  C   UNL     1      15.053  37.380  48.027  1.00  0.00     0.018 A 
ATOM      6  C   UNL     1      14.736  37.296  46.663  1.00  0.00     0.012 A 
ATOM      7  C   UNL     1      16.282  37.883  48.464  1.00  0.00     0.019 A 
ATOM      8  C   UNL     1      16.548  37.944  49.832  1.00  0.00     0.094 A 
ATOM      9  C   UNL     1      15.575  37.498  50.733  1.00  0.00     0.336 A 
ATOM     10  O   UNL     1      15.798  37.546  51.971  1.00  0.00    -0.246 OA
ATOM     11  O   UNL     1      14.413  37.024  50.291  1.00  0.00    -0.423 OA
ENDROOT
TORSDOF 0
ENDMDL
MODEL 7
REMARK VINA RESULT:    -4.127      2.175      3.933
REMARK INTER + INTRA:          -4.127
REMARK INTER:                  -4.127
REMARK INTRA:                   0.000
REMARK UNBOUND:                 0.000
REMARK SMILES O=c1ccc2ccccc2o1
REMARK SMILES IDX 7 1 8 2 9 3 10 4 5 5 6 6 4 7 3 8 2 9 1 10 11 11
REMARK H PARENT
REMARK Flexibility Score: inf
ROOT
ATOM      1  C   UNL     1      16.593  37.360  48.344  1.00  0.00     0.001 A 
ATOM      2  C   UNL     1      15.981  36.970  47.148  1.00  0.00     0.004 A 
ATOM      3  C   UNL     1      14.623  36.636  47.128  1.00  0.00     0.048 A 
ATOM      4  C   UNL     1      13.871  36.689  48.307  1.00  0.00     0.138 A 
ATOM      5  C   UNL     1      14.489  37.083  49.516  1.00  0.00     0.018 A 
ATOM      6  C   UNL     1      15.851  37.417  49.529  1.00  0.00     0.012 A 
ATOM      7  C   UNL     1      13.712  37.126  50.677  1.00  0.00     0.019 A 
ATOM      8  C   UNL     1      12.362  36.783  50.611  1.00  0.00     0.094 A 
ATOM      9  C   UNL     1      11.818  36.403  49.379  1.00  0.00     0.336 A 
ATOM     10  O   UNL     1      10.601  36.091  49.300  1.00  0.00    -0.246 OA
ATOM     11  O   UNL     1      12.579  36.370  48.288  1.00  0.00    -0.423 OA
ENDROOT
TORSDOF 0
ENDMDL
MODEL 8
REMARK VINA RESULT:    -4.032      1.590      2.878
REMARK INTER + INTRA:          -4.032
REMARK INTER:                  -4.032
REMARK INTRA:                   0.000
REMARK UNBOUND:                 0.000
REMARK SMILES O=c1ccc2ccccc2o1
REMARK SMILES IDX 7 1 8 2 9 3 10 4 5 5 6 6 4 7 3 8 2 9 1 10 11 11
REMARK H PARENT
REMARK Flexibility Score: inf
ROOT
ATOM      1  C   UNL     1      13.157  36.335  45.984  1.00  0.00     0.001 A 
ATOM      2  C   UNL     1      14.470  36.806  45.875  1.00  0.00     0.004 A 
ATOM      3  C   UNL     1      15.173  37.201  47.018  1.00  0.00     0.048 A 
ATOM      4  C   UNL     1      14.564  37.126  48.275  1.00  0.00     0.138 A 
ATOM      5  C   UNL     1      13.238  36.650  48.387  1.00  0.00     0.018 A 
ATOM      6  C   UNL     1      12.539  36.255  47.237  1.00  0.00     0.012 A 
ATOM      7  C   UNL     1      12.656  36.587  49.656  1.00  0.00     0.019 A 
ATOM      8  C   UNL     1      13.395  36.992  50.768  1.00  0.00     0.094 A 
ATOM      9  C   UNL     1      14.703  37.453  50.582  1.00  0.00     0.336 A 
ATOM     10  O   UNL     1      15.385  37.822  51.574  1.00  0.00    -0.246 OA
ATOM     11  O   UNL     1      15.234  37.503  49.363  1.00  0.00    -0.423 OA
ENDROOT
TORSDOF 0
ENDMDL
MODEL 9
REMARK VINA RESULT:    -3.828      2.349      4.139
REMARK INTER + INTRA:          -3.828
REMARK INTER:                  -3.828
REMARK INTRA:                   0.000
REMARK UNBOUND:                 0.000
REMARK SMILES O=c1ccc2ccccc2o1
REMARK SMILES IDX 7 1 8 2 9 3 10 4 5 5 6 6 4 7 3 8 2 9 1 10 11 11
REMARK H PARENT
REMARK Flexibility Score: inf
ROOT
ATOM      1  C   UNL     1      15.031  37.387  50.366  1.00  0.00     0.001 A 
ATOM      2  C   UNL     1      13.718  37.013  50.671  1.00  0.00     0.004 A 
ATOM      3  C   UNL     1      12.825  36.680  49.647  1.00  0.00     0.048 A 
ATOM      4  C   UNL     1      13.242  36.720  48.313  1.00  0.00     0.138 A 
ATOM      5  C   UNL     1      14.569  37.097  48.003  1.00  0.00     0.018 A 
ATOM      6  C   UNL     1      15.459  37.430  49.035  1.00  0.00     0.012 A 
ATOM      7  C   UNL     1      14.957  37.129  46.661  1.00  0.00     0.019 A 
ATOM      8  C   UNL     1      14.032  36.789  45.674  1.00  0.00     0.094 A 
ATOM      9  C   UNL     1      12.736  36.425  46.054  1.00  0.00     0.336 A 
ATOM     10  O   UNL     1      11.889  36.115  45.176  1.00  0.00    -0.246 OA
ATOM     11  O   UNL     1      12.392  36.403  47.339  1.00  0.00    -0.423 OA
ENDROOT
TORSDOF 0
ENDMDL
