MODEL 1
REMARK VINA RESULT:    -5.149      0.000      0.000
REMARK INTER + INTRA:          -5.996
REMARK INTER:                  -5.901
REMARK INTRA:                  -0.094
REMARK UNBOUND:                -0.094
REMARK SMILES COc1cc(C(=O)[O-])ccc1O
REMARK SMILES IDX 5 1 9 2 4 3 10 4 3 5 11 6 6 7 7 8 8 9 2 10 1 11 12 12
REMARK H PARENT 12 13
REMARK Flexibility Score: inf
ROOT
ATOM      1  C   UNL     1     -10.708  -6.645  -5.974  1.00  0.00     0.001 A 
ATOM      2  C   UNL     1     -11.833  -6.136  -5.305  1.00  0.00     0.014 A 
ATOM      3  C   UNL     1     -10.257  -6.000  -7.141  1.00  0.00     0.060 A 
ATOM      4  C   UNL     1     -12.495  -5.008  -5.793  1.00  0.00     0.051 A 
ATOM      5  C   UNL     1     -10.924  -4.861  -7.636  1.00  0.00     0.161 A 
ATOM      6  C   UNL     1     -12.044  -4.369  -6.954  1.00  0.00     0.157 A 
ENDROOT
BRANCH   1   7
ATOM      7  C   UNL     1     -10.009  -7.841  -5.454  1.00  0.00     0.072 C 
ATOM      8  O   UNL     1      -8.905  -7.731  -4.858  1.00  0.00    -0.545 OA
ATOM      9  O   UNL     1     -10.564  -9.106  -5.616  1.00  0.00    -0.545 OA
ENDBRANCH   1   7
BRANCH   5  10
ATOM     10  O   UNL     1     -10.503  -4.193  -8.797  1.00  0.00    -0.493 OA
ATOM     11  C   UNL     1     -10.821  -4.600 -10.124  1.00  0.00     0.278 C 
ENDBRANCH   5  10
BRANCH   6  12
ATOM     12  O   UNL     1     -12.707  -3.243  -7.438  1.00  0.00    -0.504 OA
ATOM     13  H   UNL     1     -13.660  -3.293  -7.778  1.00  0.00     0.293 HD
ENDBRANCH   6  12
TORSDOF 3
ENDMDL
MODEL 2
REMARK VINA RESULT:    -4.985      1.830      4.240
REMARK INTER + INTRA:          -5.808
REMARK INTER:                  -5.712
REMARK INTRA:                  -0.096
REMARK UNBOUND:                -0.094
REMARK SMILES COc1cc(C(=O)[O-])ccc1O
REMARK SMILES IDX 5 1 9 2 4 3 10 4 3 5 11 6 6 7 7 8 8 9 2 10 1 11 12 12
REMARK H PARENT 12 13
REMARK Flexibility Score: inf
ROOT
ATOM      1  C   UNL     1     -11.125  -4.885  -8.896  1.00  0.00     0.001 A 
ATOM      2  C   UNL     1     -11.906  -3.871  -8.318  1.00  0.00     0.014 A 
ATOM      3  C   UNL     1     -10.325  -5.691  -8.064  1.00  0.00     0.060 A 
ATOM      4  C   UNL     1     -11.886  -3.665  -6.937  1.00  0.00     0.051 A 
ATOM      5  C   UNL     1     -10.303  -5.485  -6.670  1.00  0.00     0.161 A 
ATOM      6  C   UNL     1     -11.089  -4.468  -6.112  1.00  0.00     0.157 A 
ENDROOT
BRANCH   1   7
ATOM      7  C   UNL     1     -11.148  -5.100 -10.360  1.00  0.00     0.072 C 
ATOM      8  O   UNL     1     -10.453  -4.380 -11.125  1.00  0.00    -0.545 OA
ATOM      9  O   UNL     1     -11.939  -6.101 -10.913  1.00  0.00    -0.545 OA
ENDBRANCH   1   7
BRANCH   5  10
ATOM     10  O   UNL     1      -9.517  -6.269  -5.810  1.00  0.00    -0.493 OA
ATOM     11  C   UNL     1      -9.808  -7.617  -5.454  1.00  0.00     0.278 C 
ENDBRANCH   5  10
BRANCH   6  12
ATOM     12  O   UNL     1     -11.072  -4.261  -4.734  1.00  0.00    -0.504 OA
ATOM     13  H   UNL     1     -11.777  -3.697  -4.274  1.00  0.00     0.293 HD
ENDBRANCH   6  12
TORSDOF 3
ENDMDL
MODEL 3
REMARK VINA RESULT:    -4.796      2.098      3.153
REMARK INTER + INTRA:          -5.591
REMARK INTER:                  -5.572
REMARK INTRA:                  -0.020
REMARK UNBOUND:                -0.094
REMARK SMILES COc1cc(C(=O)[O-])ccc1O
REMARK SMILES IDX 5 1 9 2 4 3 10 4 3 5 11 6 6 7 7 8 8 9 2 10 1 11 12 12
REMARK H PARENT 12 13
REMARK Flexibility Score: inf
ROOT
ATOM      1  C   UNL     1     -12.277  -6.112  -5.454  1.00  0.00     0.001 A 
ATOM      2  C   UNL     1     -11.612  -7.298  -5.804  1.00  0.00     0.014 A 
ATOM      3  C   UNL     1     -12.029  -4.943  -6.198  1.00  0.00     0.060 A 
ATOM      4  C   UNL     1     -10.715  -7.316  -6.875  1.00  0.00     0.051 A 
ATOM      5  C   UNL     1     -11.125  -4.958  -7.280  1.00  0.00     0.161 A 
ATOM      6  C   UNL     1     -10.471  -6.152  -7.613  1.00  0.00     0.157 A 
ENDROOT
BRANCH   1   7
ATOM      7  C   UNL     1     -13.226  -6.097  -4.318  1.00  0.00     0.072 C 
ATOM      8  O   UNL     1     -14.058  -7.030  -4.165  1.00  0.00    -0.545 OA
ATOM      9  O   UNL     1     -13.211  -5.051  -3.402  1.00  0.00    -0.545 OA
ENDBRANCH   1   7
BRANCH   5  10
ATOM     10  O   UNL     1     -10.853  -3.812  -8.044  1.00  0.00    -0.493 OA
ATOM     11  C   UNL     1     -11.455  -3.518  -9.300  1.00  0.00     0.278 C 
ENDBRANCH   5  10
BRANCH   6  12
ATOM     12  O   UNL     1      -9.576  -6.172  -8.681  1.00  0.00    -0.504 OA
ATOM     13  H   UNL     1      -9.634  -6.876  -9.408  1.00  0.00     0.293 HD
ENDBRANCH   6  12
TORSDOF 3
ENDMDL
MODEL 4
REMARK VINA RESULT:    -4.596      1.622      4.746
REMARK INTER + INTRA:          -5.362
REMARK INTER:                  -5.278
REMARK INTRA:                  -0.084
REMARK UNBOUND:                -0.094
REMARK SMILES COc1cc(C(=O)[O-])ccc1O
REMARK SMILES IDX 5 1 9 2 4 3 10 4 3 5 11 6 6 7 7 8 8 9 2 10 1 11 12 12
REMARK H PARENT 12 13
REMARK Flexibility Score: inf
ROOT
ATOM      1  C   UNL     1     -11.059  -4.725  -8.411  1.00  0.00     0.001 A 
ATOM      2  C   UNL     1     -10.003  -5.651  -8.413  1.00  0.00     0.014 A 
ATOM      3  C   UNL     1     -11.688  -4.408  -7.193  1.00  0.00     0.060 A 
ATOM      4  C   UNL     1      -9.585  -6.248  -7.223  1.00  0.00     0.051 A 
ATOM      5  C   UNL     1     -11.268  -5.009  -5.989  1.00  0.00     0.161 A 
ATOM      6  C   UNL     1     -10.212  -5.930  -6.012  1.00  0.00     0.157 A 
ENDROOT
BRANCH   1   7
ATOM      7  C   UNL     1     -11.500  -4.095  -9.676  1.00  0.00     0.072 C 
ATOM      8  O   UNL     1     -11.881  -2.895  -9.696  1.00  0.00    -0.545 OA
ATOM      9  O   UNL     1     -11.499  -4.822 -10.862  1.00  0.00    -0.545 OA
ENDBRANCH   1   7
BRANCH   5  10
ATOM     10  O   UNL     1     -11.871  -4.716  -4.756  1.00  0.00    -0.493 OA
ATOM     11  C   UNL     1     -13.013  -5.389  -4.235  1.00  0.00     0.278 C 
ENDBRANCH   5  10
BRANCH   6  12
ATOM     12  O   UNL     1      -9.792  -6.527  -4.825  1.00  0.00    -0.504 OA
ATOM     13  H   UNL     1      -9.094  -7.261  -4.818  1.00  0.00     0.293 HD
ENDBRANCH   6  12
TORSDOF 3
ENDMDL
MODEL 5
REMARK VINA RESULT:    -4.499      1.350      2.945
REMARK INTER + INTRA:          -5.251
REMARK INTER:                  -5.175
REMARK INTRA:                  -0.076
REMARK UNBOUND:                -0.094
REMARK SMILES COc1cc(C(=O)[O-])ccc1O
REMARK SMILES IDX 5 1 9 2 4 3 10 4 3 5 11 6 6 7 7 8 8 9 2 10 1 11 12 12
REMARK H PARENT 12 13
REMARK Flexibility Score: inf
ROOT
ATOM      1  C   UNL     1     -10.211  -7.036  -5.813  1.00  0.00     0.001 A 
ATOM      2  C   UNL     1      -9.747  -6.281  -6.902  1.00  0.00     0.014 A 
ATOM      3  C   UNL     1     -11.311  -6.563  -5.072  1.00  0.00     0.060 A 
ATOM      4  C   UNL     1     -10.367  -5.077  -7.243  1.00  0.00     0.051 A 
ATOM      5  C   UNL     1     -11.939  -5.349  -5.414  1.00  0.00     0.161 A 
ATOM      6  C   UNL     1     -11.461  -4.610  -6.504  1.00  0.00     0.157 A 
ENDROOT
BRANCH   1   7
ATOM      7  C   UNL     1      -9.550  -8.310  -5.454  1.00  0.00     0.072 C 
ATOM      8  O   UNL     1      -8.341  -8.329  -5.101  1.00  0.00    -0.545 OA
ATOM      9  O   UNL     1     -10.257  -9.507  -5.501  1.00  0.00    -0.545 OA
ENDBRANCH   1   7
BRANCH   5  10
ATOM     10  O   UNL     1     -13.038  -4.847  -4.698  1.00  0.00    -0.493 OA
ATOM     11  C   UNL     1     -13.613  -5.474  -3.557  1.00  0.00     0.278 C 
ENDBRANCH   5  10
BRANCH   6  12
ATOM     12  O   UNL     1     -12.079  -3.409  -6.847  1.00  0.00    -0.504 OA
ATOM     13  H   UNL     1     -12.205  -3.134  -7.815  1.00  0.00     0.293 HD
ENDBRANCH   6  12
TORSDOF 3
ENDMDL
MODEL 6
REMARK VINA RESULT:    -4.397      6.289      7.680
REMARK INTER + INTRA:          -5.133
REMARK INTER:                  -5.039
REMARK INTRA:                  -0.094
REMARK UNBOUND:                -0.094
REMARK SMILES COc1cc(C(=O)[O-])ccc1O
REMARK SMILES IDX 5 1 9 2 4 3 10 4 3 5 11 6 6 7 7 8 8 9 2 10 1 11 12 12
REMARK H PARENT 12 13
REMARK Flexibility Score: inf
ROOT
ATOM      1  C   UNL     1      -8.401 -11.477  -5.981  1.00  0.00     0.001 A 
ATOM      2  C   UNL     1      -7.799 -10.405  -5.303  1.00  0.00     0.014 A 
ATOM      3  C   UNL     1      -7.651 -12.191  -6.934  1.00  0.00     0.060 A 
ATOM      4  C   UNL     1      -6.475 -10.053  -5.572  1.00  0.00     0.051 A 
ATOM      5  C   UNL     1      -6.314 -11.838  -7.207  1.00  0.00     0.161 A 
ATOM      6  C   UNL     1      -5.731 -10.765  -6.520  1.00  0.00     0.157 A 
ENDROOT
BRANCH   1   7
ATOM      7  C   UNL     1      -9.805 -11.847  -5.694  1.00  0.00     0.072 C 
ATOM      8  O   UNL     1     -10.093 -12.526  -4.673  1.00  0.00    -0.545 OA
ATOM      9  O   UNL     1     -10.827 -11.448  -6.548  1.00  0.00    -0.545 OA
ENDBRANCH   1   7
BRANCH   5  10
ATOM     10  O   UNL     1      -5.535 -12.528  -8.150  1.00  0.00    -0.493 OA
ATOM     11  C   UNL     1      -4.861 -13.757  -7.898  1.00  0.00     0.278 C 
ENDBRANCH   5  10
BRANCH   6  12
ATOM     12  O   UNL     1      -4.410 -10.412  -6.786  1.00  0.00    -0.504 OA
ATOM     13  H   UNL     1      -3.745 -11.083  -7.153  1.00  0.00     0.293 HD
ENDBRANCH   6  12
TORSDOF 3
ENDMDL
MODEL 7
REMARK VINA RESULT:    -4.374      5.580      7.325
REMARK INTER + INTRA:          -5.108
REMARK INTER:                  -5.006
REMARK INTRA:                  -0.102
REMARK UNBOUND:                -0.094
REMARK SMILES COc1cc(C(=O)[O-])ccc1O
REMARK SMILES IDX 5 1 9 2 4 3 10 4 3 5 11 6 6 7 7 8 8 9 2 10 1 11 12 12
REMARK H PARENT 12 13
REMARK Flexibility Score: inf
ROOT
ATOM      1  C   UNL     1      -6.788 -11.849  -7.071  1.00  0.00     0.001 A 
ATOM      2  C   UNL     1      -5.987 -10.826  -6.537  1.00  0.00     0.014 A 
ATOM      3  C   UNL     1      -8.108 -11.997  -6.606  1.00  0.00     0.060 A 
ATOM      4  C   UNL     1      -6.495  -9.970  -5.558  1.00  0.00     0.051 A 
ATOM      5  C   UNL     1      -8.624 -11.134  -5.618  1.00  0.00     0.161 A 
ATOM      6  C   UNL     1      -7.809 -10.119  -5.098  1.00  0.00     0.157 A 
ENDROOT
BRANCH   1   7
ATOM      7  C   UNL     1      -6.246 -12.755  -8.108  1.00  0.00     0.072 C 
ATOM      8  O   UNL     1      -7.018 -13.455  -8.816  1.00  0.00    -0.545 OA
ATOM      9  O   UNL     1      -4.874 -12.847  -8.315  1.00  0.00    -0.545 OA
ENDBRANCH   1   7
BRANCH   5  10
ATOM     10  O   UNL     1      -9.935 -11.252  -5.131  1.00  0.00    -0.493 OA
ATOM     11  C   UNL     1     -11.091 -10.745  -5.792  1.00  0.00     0.278 C 
ENDBRANCH   5  10
BRANCH   6  12
ATOM     12  O   UNL     1      -8.313  -9.263  -4.121  1.00  0.00    -0.504 OA
ATOM     13  H   UNL     1      -9.310  -9.140  -3.986  1.00  0.00     0.293 HD
ENDBRANCH   6  12
TORSDOF 3
ENDMDL
MODEL 8
REMARK VINA RESULT:    -4.277      2.373      5.386
REMARK INTER + INTRA:          -4.997
REMARK INTER:                  -4.936
REMARK INTRA:                  -0.060
REMARK UNBOUND:                -0.094
REMARK SMILES COc1cc(C(=O)[O-])ccc1O
REMARK SMILES IDX 5 1 9 2 4 3 10 4 3 5 11 6 6 7 7 8 8 9 2 10 1 11 12 12
REMARK H PARENT 12 13
REMARK Flexibility Score: inf
ROOT
ATOM      1  C   UNL     1     -10.319  -7.341  -5.666  1.00  0.00     0.001 A 
ATOM      2  C   UNL     1     -11.380  -8.242  -5.855  1.00  0.00     0.014 A 
ATOM      3  C   UNL     1      -9.066  -7.836  -5.260  1.00  0.00     0.060 A 
ATOM      4  C   UNL     1     -11.192  -9.609  -5.642  1.00  0.00     0.051 A 
ATOM      5  C   UNL     1      -8.873  -9.216  -5.044  1.00  0.00     0.161 A 
ATOM      6  C   UNL     1      -9.944 -10.098  -5.238  1.00  0.00     0.157 A 
ENDROOT
BRANCH   1   7
ATOM      7  C   UNL     1     -10.523  -5.893  -5.892  1.00  0.00     0.072 C 
ATOM      8  O   UNL     1     -10.129  -5.349  -6.958  1.00  0.00    -0.545 OA
ATOM      9  O   UNL     1     -11.153  -5.112  -4.930  1.00  0.00    -0.545 OA
ENDBRANCH   1   7
BRANCH   5  10
ATOM     10  O   UNL     1      -7.638  -9.744  -4.639  1.00  0.00    -0.493 OA
ATOM     11  C   UNL     1      -6.628 -10.211  -5.528  1.00  0.00     0.278 C 
ENDBRANCH   5  10
BRANCH   6  12
ATOM     12  O   UNL     1      -9.759 -11.463  -5.026  1.00  0.00    -0.504 OA
ATOM     13  H   UNL     1      -8.840 -11.854  -4.856  1.00  0.00     0.293 HD
ENDBRANCH   6  12
TORSDOF 3
ENDMDL
MODEL 9
REMARK VINA RESULT:    -4.220     10.035     12.658
REMARK INTER + INTRA:          -4.930
REMARK INTER:                  -4.852
REMARK INTRA:                  -0.078
REMARK UNBOUND:                -0.094
REMARK SMILES COc1cc(C(=O)[O-])ccc1O
REMARK SMILES IDX 5 1 9 2 4 3 10 4 3 5 11 6 6 7 7 8 8 9 2 10 1 11 12 12
REMARK H PARENT 12 13
REMARK Flexibility Score: inf
ROOT
ATOM      1  C   UNL     1      -2.420 -12.448  -5.142  1.00  0.00     0.001 A 
ATOM      2  C   UNL     1      -2.459 -12.509  -3.739  1.00  0.00     0.014 A 
ATOM      3  C   UNL     1      -1.256 -12.867  -5.813  1.00  0.00     0.060 A 
ATOM      4  C   UNL     1      -1.357 -12.979  -3.022  1.00  0.00     0.051 A 
ATOM      5  C   UNL     1      -0.142 -13.341  -5.091  1.00  0.00     0.161 A 
ATOM      6  C   UNL     1      -0.201 -13.395  -3.692  1.00  0.00     0.157 A 
ENDROOT
BRANCH   1   7
ATOM      7  C   UNL     1      -3.590 -11.949  -5.899  1.00  0.00     0.072 C 
ATOM      8  O   UNL     1      -4.119 -10.844  -5.607  1.00  0.00    -0.545 OA
ATOM      9  O   UNL     1      -4.122 -12.695  -6.945  1.00  0.00    -0.545 OA
ENDBRANCH   1   7
BRANCH   5  10
ATOM     10  O   UNL     1       1.036 -13.768  -5.726  1.00  0.00    -0.493 OA
ATOM     11  C   UNL     1       1.387 -13.455  -7.070  1.00  0.00     0.278 C 
ENDBRANCH   5  10
BRANCH   6  12
ATOM     12  O   UNL     1       0.898 -13.864  -2.973  1.00  0.00    -0.504 OA
ATOM     13  H   UNL     1       1.714 -13.285  -2.815  1.00  0.00     0.293 HD
ENDBRANCH   6  12
TORSDOF 3
ENDMDL
