MODEL 1
REMARK VINA RESULT:    36.298      0.000      0.000
REMARK INTER + INTRA:          49.620
REMARK INTER:                  51.152
REMARK INTRA:                  -1.532
REMARK UNBOUND:                -1.532
REMARK SMILES O=C(C=Cc1ccc(O)cc1)CC(=O)C=Cc1ccc(O)cc1
REMARK SMILES IDX 12 1 2 2 1 3 3 4 4 5 5 6 6 7 7 8 8 9 11 10 10 11 9 12 13 14
REMARK SMILES IDX 14 15 15 16 16 17 17 18 18 19 23 20 19 21 22 22 20 23 21 24
REMARK H PARENT 9 13 21 25
REMARK Flexibility Score: inf
ROOT
ATOM      1  C   UNL     1      -8.786  -8.873  23.626  1.00  0.00     0.160 C 
ENDROOT
BRANCH   1   2
ATOM      2  C   UNL     1      -8.688  -7.408  23.983  1.00  0.00     0.163 C 
ATOM      3  O   UNL     1      -9.125  -7.013  25.099  1.00  0.00    -0.294 OA
BRANCH   2   4
ATOM      4  C   UNL     1      -8.041  -6.416  23.098  1.00  0.00     0.048 C 
ATOM      5  C   UNL     1      -8.312  -6.311  21.789  1.00  0.00     0.012 C 
BRANCH   5   6
ATOM      6  C   UNL     1      -7.653  -5.331  20.892  1.00  0.00    -0.025 A 
ATOM      7  C   UNL     1      -7.735  -5.417  19.487  1.00  0.00     0.012 A 
ATOM      8  C   UNL     1      -7.085  -4.476  18.682  1.00  0.00     0.047 A 
ATOM      9  C   UNL     1      -6.339  -3.444  19.265  1.00  0.00     0.115 A 
ATOM     10  C   UNL     1      -6.888  -4.301  21.464  1.00  0.00     0.012 A 
ATOM     11  C   UNL     1      -6.241  -3.361  20.656  1.00  0.00     0.047 A 
BRANCH   9  12
ATOM     12  O   UNL     1      -5.689  -2.501  18.471  1.00  0.00    -0.508 OA
ATOM     13  H   UNL     1      -4.980  -1.887  18.853  1.00  0.00     0.293 HD
ENDBRANCH   9  12
ENDBRANCH   5   6
ENDBRANCH   2   4
ENDBRANCH   1   2
BRANCH   1  14
ATOM     14  C   UNL     1      -7.437  -9.539  23.470  1.00  0.00     0.163 C 
ATOM     15  O   UNL     1      -6.910 -10.114  24.462  1.00  0.00    -0.294 OA
BRANCH  14  16
ATOM     16  C   UNL     1      -6.730  -9.607  22.174  1.00  0.00     0.048 C 
ATOM     17  C   UNL     1      -5.589  -8.948  21.918  1.00  0.00     0.012 C 
BRANCH  17  18
ATOM     18  C   UNL     1      -4.873  -9.013  20.621  1.00  0.00    -0.025 A 
ATOM     19  C   UNL     1      -5.349  -8.376  19.456  1.00  0.00     0.012 A 
ATOM     20  C   UNL     1      -3.652  -9.707  20.562  1.00  0.00     0.012 A 
ATOM     21  C   UNL     1      -4.629  -8.458  18.260  1.00  0.00     0.047 A 
ATOM     22  C   UNL     1      -2.936  -9.788  19.363  1.00  0.00     0.047 A 
ATOM     23  C   UNL     1      -3.423  -9.167  18.210  1.00  0.00     0.115 A 
BRANCH  23  24
ATOM     24  O   UNL     1      -2.699  -9.256  17.022  1.00  0.00    -0.508 OA
ATOM     25  H   UNL     1      -2.156  -8.475  16.674  1.00  0.00     0.293 HD
ENDBRANCH  23  24
ENDBRANCH  17  18
ENDBRANCH  14  16
ENDBRANCH   1  14
TORSDOF 8
ENDMDL
MODEL 2
REMARK VINA RESULT:    36.744      1.548      2.103
REMARK INTER + INTRA:          50.248
REMARK INTER:                  51.010
REMARK INTRA:                  -0.762
REMARK UNBOUND:                -1.532
REMARK SMILES O=C(C=Cc1ccc(O)cc1)CC(=O)C=Cc1ccc(O)cc1
REMARK SMILES IDX 12 1 2 2 1 3 3 4 4 5 5 6 6 7 7 8 8 9 11 10 10 11 9 12 13 14
REMARK SMILES IDX 14 15 15 16 16 17 17 18 18 19 23 20 19 21 22 22 20 23 21 24
REMARK H PARENT 9 13 21 25
REMARK Flexibility Score: inf
ROOT
ATOM      1  C   UNL     1      -8.727  -8.458  22.731  1.00  0.00     0.160 C 
ENDROOT
BRANCH   1   2
ATOM      2  C   UNL     1      -8.756  -7.588  21.495  1.00  0.00     0.163 C 
ATOM      3  O   UNL     1      -9.124  -8.086  20.396  1.00  0.00    -0.294 OA
BRANCH   2   4
ATOM      4  C   UNL     1      -8.426  -6.148  21.530  1.00  0.00     0.048 C 
ATOM      5  C   UNL     1      -7.393  -5.614  20.861  1.00  0.00     0.012 C 
BRANCH   5   6
ATOM      6  C   UNL     1      -7.045  -4.173  20.907  1.00  0.00    -0.025 A 
ATOM      7  C   UNL     1      -6.858  -3.402  19.741  1.00  0.00     0.012 A 
ATOM      8  C   UNL     1      -6.517  -2.049  19.835  1.00  0.00     0.047 A 
ATOM      9  C   UNL     1      -6.350  -1.449  21.089  1.00  0.00     0.115 A 
ATOM     10  C   UNL     1      -6.858  -3.563  22.159  1.00  0.00     0.012 A 
ATOM     11  C   UNL     1      -6.519  -2.209  22.248  1.00  0.00     0.047 A 
BRANCH   9  12
ATOM     12  O   UNL     1      -6.013  -0.101  21.193  1.00  0.00    -0.508 OA
ATOM     13  H   UNL     1      -5.705   0.301  22.070  1.00  0.00     0.293 HD
ENDBRANCH   9  12
ENDBRANCH   5   6
ENDBRANCH   2   4
ENDBRANCH   1   2
BRANCH   1  14
ATOM     14  C   UNL     1      -7.488  -9.319  22.824  1.00  0.00     0.163 C 
ATOM     15  O   UNL     1      -7.226  -9.917  23.904  1.00  0.00    -0.294 OA
BRANCH  14  16
ATOM     16  C   UNL     1      -6.593  -9.550  21.670  1.00  0.00     0.048 C 
ATOM     17  C   UNL     1      -5.628  -8.694  21.299  1.00  0.00     0.012 C 
BRANCH  17  18
ATOM     18  C   UNL     1      -4.725  -8.920  20.144  1.00  0.00    -0.025 A 
ATOM     19  C   UNL     1      -3.536  -9.672  20.243  1.00  0.00     0.012 A 
ATOM     20  C   UNL     1      -5.091  -8.394  18.893  1.00  0.00     0.012 A 
ATOM     21  C   UNL     1      -2.725  -9.866  19.121  1.00  0.00     0.047 A 
ATOM     22  C   UNL     1      -4.276  -8.588  17.773  1.00  0.00     0.047 A 
ATOM     23  C   UNL     1      -3.092  -9.321  17.884  1.00  0.00     0.115 A 
BRANCH  23  24
ATOM     24  O   UNL     1      -2.290  -9.507  16.759  1.00  0.00    -0.508 OA
ATOM     25  H   UNL     1      -1.286  -9.372  16.797  1.00  0.00     0.293 HD
ENDBRANCH  23  24
ENDBRANCH  17  18
ENDBRANCH  14  16
ENDBRANCH   1  14
TORSDOF 8
ENDMDL
MODEL 3
REMARK VINA RESULT:    37.083      1.568      2.298
REMARK INTER + INTRA:          50.726
REMARK INTER:                  51.578
REMARK INTRA:                  -0.853
REMARK UNBOUND:                -1.532
REMARK SMILES O=C(C=Cc1ccc(O)cc1)CC(=O)C=Cc1ccc(O)cc1
REMARK SMILES IDX 12 1 2 2 1 3 3 4 4 5 5 6 6 7 7 8 8 9 11 10 10 11 9 12 13 14
REMARK SMILES IDX 14 15 15 16 16 17 17 18 18 19 23 20 19 21 22 22 20 23 21 24
REMARK H PARENT 9 13 21 25
REMARK Flexibility Score: inf
ROOT
ATOM      1  C   UNL     1      -8.552  -8.525  22.751  1.00  0.00     0.160 C 
ENDROOT
BRANCH   1   2
ATOM      2  C   UNL     1      -8.675  -7.601  21.561  1.00  0.00     0.163 C 
ATOM      3  O   UNL     1      -9.125  -8.052  20.472  1.00  0.00    -0.294 OA
BRANCH   2   4
ATOM      4  C   UNL     1      -8.344  -6.162  21.635  1.00  0.00     0.048 C 
ATOM      5  C   UNL     1      -7.372  -5.593  20.907  1.00  0.00     0.012 C 
BRANCH   5   6
ATOM      6  C   UNL     1      -7.023  -4.154  20.990  1.00  0.00    -0.025 A 
ATOM      7  C   UNL     1      -6.841  -3.490  22.221  1.00  0.00     0.012 A 
ATOM      8  C   UNL     1      -6.525  -2.128  22.250  1.00  0.00     0.047 A 
ATOM      9  C   UNL     1      -6.394  -1.409  21.056  1.00  0.00     0.115 A 
ATOM     10  C   UNL     1      -6.905  -3.418  19.800  1.00  0.00     0.012 A 
ATOM     11  C   UNL     1      -6.587  -2.056  19.833  1.00  0.00     0.047 A 
BRANCH   9  12
ATOM     12  O   UNL     1      -6.077  -0.052  21.074  1.00  0.00    -0.508 OA
ATOM     13  H   UNL     1      -6.630   0.613  21.602  1.00  0.00     0.293 HD
ENDBRANCH   9  12
ENDBRANCH   5   6
ENDBRANCH   2   4
ENDBRANCH   1   2
BRANCH   1  14
ATOM     14  C   UNL     1      -7.328  -9.412  22.692  1.00  0.00     0.163 C 
ATOM     15  O   UNL     1      -7.016 -10.109  23.697  1.00  0.00    -0.294 OA
BRANCH  14  16
ATOM     16  C   UNL     1      -6.509  -9.554  21.470  1.00  0.00     0.048 C 
ATOM     17  C   UNL     1      -5.282  -9.026  21.336  1.00  0.00     0.012 C 
BRANCH  17  18
ATOM     18  C   UNL     1      -4.453  -9.166  20.114  1.00  0.00    -0.025 A 
ATOM     19  C   UNL     1      -3.213  -9.838  20.108  1.00  0.00     0.012 A 
ATOM     20  C   UNL     1      -4.943  -8.639  18.906  1.00  0.00     0.012 A 
ATOM     21  C   UNL     1      -2.476  -9.952  18.926  1.00  0.00     0.047 A 
ATOM     22  C   UNL     1      -4.201  -8.754  17.726  1.00  0.00     0.047 A 
ATOM     23  C   UNL     1      -2.967  -9.408  17.733  1.00  0.00     0.115 A 
BRANCH  23  24
ATOM     24  O   UNL     1      -2.238  -9.515  16.550  1.00  0.00    -0.508 OA
ATOM     25  H   UNL     1      -2.106 -10.408  16.089  1.00  0.00     0.293 HD
ENDBRANCH  23  24
ENDBRANCH  17  18
ENDBRANCH  14  16
ENDBRANCH   1  14
TORSDOF 8
ENDMDL
MODEL 4
REMARK VINA RESULT:    37.176      1.640      6.102
REMARK INTER + INTRA:          50.856
REMARK INTER:                  51.655
REMARK INTRA:                  -0.799
REMARK UNBOUND:                -1.532
REMARK SMILES O=C(C=Cc1ccc(O)cc1)CC(=O)C=Cc1ccc(O)cc1
REMARK SMILES IDX 12 1 2 2 1 3 3 4 4 5 5 6 6 7 7 8 8 9 11 10 10 11 9 12 13 14
REMARK SMILES IDX 14 15 15 16 16 17 17 18 18 19 23 20 19 21 22 22 20 23 21 24
REMARK H PARENT 9 13 21 25
REMARK Flexibility Score: inf
ROOT
ATOM      1  C   UNL     1      -8.752  -8.306  22.646  1.00  0.00     0.160 C 
ENDROOT
BRANCH   1   2
ATOM      2  C   UNL     1      -7.591  -9.273  22.652  1.00  0.00     0.163 C 
ATOM      3  O   UNL     1      -7.372  -9.972  23.679  1.00  0.00    -0.294 OA
BRANCH   2   4
ATOM      4  C   UNL     1      -6.725  -9.483  21.472  1.00  0.00     0.048 C 
ATOM      5  C   UNL     1      -5.544  -8.868  21.308  1.00  0.00     0.012 C 
BRANCH   5   6
ATOM      6  C   UNL     1      -4.680  -9.059  20.117  1.00  0.00    -0.025 A 
ATOM      7  C   UNL     1      -3.437  -9.722  20.184  1.00  0.00     0.012 A 
ATOM      8  C   UNL     1      -2.650  -9.866  19.036  1.00  0.00     0.047 A 
ATOM      9  C   UNL     1      -3.088  -9.346  17.811  1.00  0.00     0.115 A 
ATOM     10  C   UNL     1      -5.100  -8.528  18.887  1.00  0.00     0.012 A 
ATOM     11  C   UNL     1      -4.311  -8.676  17.741  1.00  0.00     0.047 A 
BRANCH   9  12
ATOM     12  O   UNL     1      -2.313  -9.487  16.662  1.00  0.00    -0.508 OA
ATOM     13  H   UNL     1      -1.750  -8.723  16.307  1.00  0.00     0.293 HD
ENDBRANCH   9  12
ENDBRANCH   5   6
ENDBRANCH   2   4
ENDBRANCH   1   2
BRANCH   1  14
ATOM     14  C   UNL     1      -8.753  -7.384  21.448  1.00  0.00     0.163 C 
ATOM     15  O   UNL     1      -9.125  -7.824  20.325  1.00  0.00    -0.294 OA
BRANCH  14  16
ATOM     16  C   UNL     1      -8.398  -5.953  21.547  1.00  0.00     0.048 C 
ATOM     17  C   UNL     1      -7.386  -5.393  20.867  1.00  0.00     0.012 C 
BRANCH  17  18
ATOM     18  C   UNL     1      -7.025  -3.956  20.960  1.00  0.00    -0.025 A 
ATOM     19  C   UNL     1      -6.779  -3.158  19.824  1.00  0.00     0.012 A 
ATOM     20  C   UNL     1      -6.962  -3.361  22.232  1.00  0.00     0.012 A 
ATOM     21  C   UNL     1      -6.454  -1.806  19.965  1.00  0.00     0.047 A 
ATOM     22  C   UNL     1      -6.634  -2.008  22.369  1.00  0.00     0.047 A 
ATOM     23  C   UNL     1      -6.378  -1.229  21.239  1.00  0.00     0.115 A 
BRANCH  23  24
ATOM     24  O   UNL     1      -6.052   0.118  21.391  1.00  0.00    -0.508 OA
ATOM     25  H   UNL     1      -5.428   0.588  20.745  1.00  0.00     0.293 HD
ENDBRANCH  23  24
ENDBRANCH  17  18
ENDBRANCH  14  16
ENDBRANCH   1  14
TORSDOF 8
ENDMDL
MODEL 5
REMARK VINA RESULT:    37.480      2.497      6.844
REMARK INTER + INTRA:          51.285
REMARK INTER:                  49.758
REMARK INTRA:                   1.527
REMARK UNBOUND:                -1.532
REMARK SMILES O=C(C=Cc1ccc(O)cc1)CC(=O)C=Cc1ccc(O)cc1
REMARK SMILES IDX 12 1 2 2 1 3 3 4 4 5 5 6 6 7 7 8 8 9 11 10 10 11 9 12 13 14
REMARK SMILES IDX 14 15 15 16 16 17 17 18 18 19 23 20 19 21 22 22 20 23 21 24
REMARK H PARENT 9 13 21 25
REMARK Flexibility Score: inf
ROOT
ATOM      1  C   UNL     1      -8.568  -7.608  19.701  1.00  0.00     0.160 C 
ENDROOT
BRANCH   1   2
ATOM      2  C   UNL     1      -7.855  -6.722  18.707  1.00  0.00     0.163 C 
ATOM      3  O   UNL     1      -8.239  -5.531  18.553  1.00  0.00    -0.294 OA
BRANCH   2   4
ATOM      4  C   UNL     1      -6.674  -7.176  17.941  1.00  0.00     0.048 C 
ATOM      5  C   UNL     1      -5.824  -8.112  18.388  1.00  0.00     0.012 C 
BRANCH   5   6
ATOM      6  C   UNL     1      -4.627  -8.558  17.633  1.00  0.00    -0.025 A 
ATOM      7  C   UNL     1      -3.391  -7.884  17.709  1.00  0.00     0.012 A 
ATOM      8  C   UNL     1      -2.293  -8.335  16.968  1.00  0.00     0.047 A 
ATOM      9  C   UNL     1      -2.415  -9.455  16.138  1.00  0.00     0.115 A 
ATOM     10  C   UNL     1      -4.741  -9.671  16.784  1.00  0.00     0.012 A 
ATOM     11  C   UNL     1      -3.641 -10.119  16.046  1.00  0.00     0.047 A 
BRANCH   9  12
ATOM     12  O   UNL     1      -1.327  -9.913  15.397  1.00  0.00    -0.508 OA
ATOM     13  H   UNL     1      -1.299  -9.824  14.389  1.00  0.00     0.293 HD
ENDBRANCH   9  12
ENDBRANCH   5   6
ENDBRANCH   2   4
ENDBRANCH   1   2
BRANCH   1  14
ATOM     14  C   UNL     1      -8.602  -7.029  21.098  1.00  0.00     0.163 C 
ATOM     15  O   UNL     1      -8.865  -7.781  22.076  1.00  0.00    -0.294 OA
BRANCH  14  16
ATOM     16  C   UNL     1      -8.269  -5.617  21.380  1.00  0.00     0.048 C 
ATOM     17  C   UNL     1      -7.275  -4.955  20.769  1.00  0.00     0.012 C 
BRANCH  17  18
ATOM     18  C   UNL     1      -6.936  -3.538  21.045  1.00  0.00    -0.025 A 
ATOM     19  C   UNL     1      -6.644  -2.612  20.022  1.00  0.00     0.012 A 
ATOM     20  C   UNL     1      -6.942  -3.093  22.379  1.00  0.00     0.012 A 
ATOM     21  C   UNL     1      -6.343  -1.283  20.335  1.00  0.00     0.047 A 
ATOM     22  C   UNL     1      -6.637  -1.764  22.688  1.00  0.00     0.047 A 
ATOM     23  C   UNL     1      -6.335  -0.857  21.669  1.00  0.00     0.115 A 
BRANCH  23  24
ATOM     24  O   UNL     1      -6.033   0.465  21.992  1.00  0.00    -0.508 OA
ATOM     25  H   UNL     1      -6.374   1.238  21.431  1.00  0.00     0.293 HD
ENDBRANCH  23  24
ENDBRANCH  17  18
ENDBRANCH  14  16
ENDBRANCH   1  14
TORSDOF 8
ENDMDL
MODEL 6
REMARK VINA RESULT:    38.061      2.476      3.554
REMARK INTER + INTRA:          52.103
REMARK INTER:                  52.249
REMARK INTRA:                  -0.145
REMARK UNBOUND:                -1.532
REMARK SMILES O=C(C=Cc1ccc(O)cc1)CC(=O)C=Cc1ccc(O)cc1
REMARK SMILES IDX 12 1 2 2 1 3 3 4 4 5 5 6 6 7 7 8 8 9 11 10 10 11 9 12 13 14
REMARK SMILES IDX 14 15 15 16 16 17 17 18 18 19 23 20 19 21 22 22 20 23 21 24
REMARK H PARENT 9 13 21 25
REMARK Flexibility Score: inf
ROOT
ATOM      1  C   UNL     1      -8.979  -7.620  20.020  1.00  0.00     0.160 C 
ENDROOT
BRANCH   1   2
ATOM      2  C   UNL     1      -8.692  -6.968  21.352  1.00  0.00     0.163 C 
ATOM      3  O   UNL     1      -8.645  -7.681  22.392  1.00  0.00    -0.294 OA
BRANCH   2   4
ATOM      4  C   UNL     1      -8.401  -5.525  21.485  1.00  0.00     0.048 C 
ATOM      5  C   UNL     1      -7.209  -4.985  21.191  1.00  0.00     0.012 C 
BRANCH   5   6
ATOM      6  C   UNL     1      -6.905  -3.540  21.341  1.00  0.00    -0.025 A 
ATOM      7  C   UNL     1      -6.906  -2.893  22.593  1.00  0.00     0.012 A 
ATOM      8  C   UNL     1      -6.626  -1.526  22.683  1.00  0.00     0.047 A 
ATOM      9  C   UNL     1      -6.351  -0.785  21.527  1.00  0.00     0.115 A 
ATOM     10  C   UNL     1      -6.643  -2.783  20.187  1.00  0.00     0.012 A 
ATOM     11  C   UNL     1      -6.362  -1.416  20.281  1.00  0.00     0.047 A 
BRANCH   9  12
ATOM     12  O   UNL     1      -6.069   0.577  21.605  1.00  0.00    -0.508 OA
ATOM     13  H   UNL     1      -6.760   1.243  21.929  1.00  0.00     0.293 HD
ENDBRANCH   9  12
ENDBRANCH   5   6
ENDBRANCH   2   4
ENDBRANCH   1   2
BRANCH   1  14
ATOM     14  C   UNL     1      -8.320  -6.912  18.857  1.00  0.00     0.163 C 
ATOM     15  O   UNL     1      -8.703  -5.753  18.537  1.00  0.00    -0.294 OA
BRANCH  14  16
ATOM     16  C   UNL     1      -7.185  -7.497  18.112  1.00  0.00     0.048 C 
ATOM     17  C   UNL     1      -5.977  -7.713  18.654  1.00  0.00     0.012 C 
BRANCH  17  18
ATOM     18  C   UNL     1      -4.834  -8.301  17.913  1.00  0.00    -0.025 A 
ATOM     19  C   UNL     1      -4.846  -9.622  17.419  1.00  0.00     0.012 A 
ATOM     20  C   UNL     1      -3.709  -7.495  17.663  1.00  0.00     0.012 A 
ATOM     21  C   UNL     1      -3.747 -10.124  16.716  1.00  0.00     0.047 A 
ATOM     22  C   UNL     1      -2.611  -8.002  16.962  1.00  0.00     0.047 A 
ATOM     23  C   UNL     1      -2.626  -9.317  16.489  1.00  0.00     0.115 A 
BRANCH  23  24
ATOM     24  O   UNL     1      -1.524  -9.809  15.791  1.00  0.00    -0.508 OA
ATOM     25  H   UNL     1      -0.763  -9.203  15.508  1.00  0.00     0.293 HD
ENDBRANCH  23  24
ENDBRANCH  17  18
ENDBRANCH  14  16
ENDBRANCH   1  14
TORSDOF 8
ENDMDL
MODEL 7
REMARK VINA RESULT:    38.541      2.570      5.243
REMARK INTER + INTRA:          52.780
REMARK INTER:                  52.103
REMARK INTRA:                   0.676
REMARK UNBOUND:                -1.532
REMARK SMILES O=C(C=Cc1ccc(O)cc1)CC(=O)C=Cc1ccc(O)cc1
REMARK SMILES IDX 12 1 2 2 1 3 3 4 4 5 5 6 6 7 7 8 8 9 11 10 10 11 9 12 13 14
REMARK SMILES IDX 14 15 15 16 16 17 17 18 18 19 23 20 19 21 22 22 20 23 21 24
REMARK H PARENT 9 13 21 25
REMARK Flexibility Score: inf
ROOT
ATOM      1  C   UNL     1      -9.122  -7.754  23.756  1.00  0.00     0.160 C 
ENDROOT
BRANCH   1   2
ATOM      2  C   UNL     1      -8.586  -8.682  22.690  1.00  0.00     0.163 C 
ATOM      3  O   UNL     1      -8.649  -9.929  22.866  1.00  0.00    -0.294 OA
BRANCH   2   4
ATOM      4  C   UNL     1      -8.038  -8.187  21.409  1.00  0.00     0.048 C 
ATOM      5  C   UNL     1      -8.142  -6.911  21.009  1.00  0.00     0.012 C 
BRANCH   5   6
ATOM      6  C   UNL     1      -7.612  -6.413  19.716  1.00  0.00    -0.025 A 
ATOM      7  C   UNL     1      -7.830  -5.094  19.267  1.00  0.00     0.012 A 
ATOM      8  C   UNL     1      -7.322  -4.674  18.034  1.00  0.00     0.047 A 
ATOM      9  C   UNL     1      -6.598  -5.563  17.229  1.00  0.00     0.115 A 
ATOM     10  C   UNL     1      -6.900  -7.300  18.892  1.00  0.00     0.012 A 
ATOM     11  C   UNL     1      -6.392  -6.875  17.660  1.00  0.00     0.047 A 
BRANCH   9  12
ATOM     12  O   UNL     1      -6.086  -5.153  16.000  1.00  0.00    -0.508 OA
ATOM     13  H   UNL     1      -6.695  -4.866  15.243  1.00  0.00     0.293 HD
ENDBRANCH   9  12
ENDBRANCH   5   6
ENDBRANCH   2   4
ENDBRANCH   1   2
BRANCH   1  14
ATOM     14  C   UNL     1      -8.115  -6.720  24.206  1.00  0.00     0.163 C 
ATOM     15  O   UNL     1      -7.298  -7.006  25.124  1.00  0.00    -0.294 OA
BRANCH  14  16
ATOM     16  C   UNL     1      -7.998  -5.393  23.564  1.00  0.00     0.048 C 
ATOM     17  C   UNL     1      -6.854  -4.920  23.047  1.00  0.00     0.012 C 
BRANCH  17  18
ATOM     18  C   UNL     1      -6.729  -3.592  22.399  1.00  0.00    -0.025 A 
ATOM     19  C   UNL     1      -6.482  -3.439  21.019  1.00  0.00     0.012 A 
ATOM     20  C   UNL     1      -6.901  -2.441  23.188  1.00  0.00     0.012 A 
ATOM     21  C   UNL     1      -6.385  -2.163  20.455  1.00  0.00     0.047 A 
ATOM     22  C   UNL     1      -6.801  -1.167  22.620  1.00  0.00     0.047 A 
ATOM     23  C   UNL     1      -6.541  -1.024  21.255  1.00  0.00     0.115 A 
BRANCH  23  24
ATOM     24  O   UNL     1      -6.444   0.252  20.702  1.00  0.00    -0.508 OA
ATOM     25  H   UNL     1      -5.780   0.460  19.966  1.00  0.00     0.293 HD
ENDBRANCH  23  24
ENDBRANCH  17  18
ENDBRANCH  14  16
ENDBRANCH   1  14
TORSDOF 8
ENDMDL
