MODEL 1
REMARK VINA RESULT:    11.748      0.000      0.000
REMARK INTER + INTRA:          13.687
REMARK INTER:                  13.809
REMARK INTRA:                  -0.122
REMARK UNBOUND:                -0.122
REMARK SMILES CCCC[C@@H]1OC(=O)C2=C1CCC=C2
REMARK SMILES IDX 3 1 2 2 1 3 4 4 5 5 10 6 6 7 9 8 11 9 7 10 14 11 12 12 8 13
REMARK SMILES IDX 13 14
REMARK H PARENT
REMARK Flexibility Score: inf
ROOT
ATOM      1  C   UNL     1      14.992  52.028  59.064  1.00  0.00     0.004 C 
ENDROOT
BRANCH   1   2
ATOM      2  C   UNL     1      15.069  53.380  58.348  1.00  0.00    -0.003 C 
ATOM      3  C   UNL     1      14.977  54.536  59.341  1.00  0.00     0.004 C 
ENDBRANCH   1   2
BRANCH   1   4
ATOM      4  C   UNL     1      16.318  51.705  59.774  1.00  0.00     0.050 C 
BRANCH   4   5
ATOM      5  C   UNL     1      16.174  51.563  61.299  1.00  0.00     0.204 C 
ATOM      6  C   UNL     1      15.943  52.882  61.999  1.00  0.00    -0.015 C 
ATOM      7  O   UNL     1      15.007  50.806  61.638  1.00  0.00    -0.454 OA
ATOM      8  C   UNL     1      14.782  52.878  62.631  1.00  0.00     0.062 C 
ATOM      9  C   UNL     1      16.783  54.128  61.902  1.00  0.00     0.040 C 
ATOM     10  C   UNL     1      14.176  51.587  62.424  1.00  0.00     0.338 C 
ATOM     11  C   UNL     1      14.260  54.052  63.342  1.00  0.00     0.011 C 
ATOM     12  C   UNL     1      16.517  55.069  63.101  1.00  0.00     0.032 C 
ATOM     13  O   UNL     1      13.062  51.211  62.872  1.00  0.00    -0.246 OA
ATOM     14  C   UNL     1      15.055  55.118  63.498  1.00  0.00    -0.026 C 
ENDBRANCH   4   5
ENDBRANCH   1   4
TORSDOF 3
ENDMDL
MODEL 2
REMARK VINA RESULT:    11.899      2.098      3.224
REMARK INTER + INTRA:          13.865
REMARK INTER:                  13.423
REMARK INTRA:                   0.441
REMARK UNBOUND:                -0.122
REMARK SMILES CCCC[C@@H]1OC(=O)C2=C1CCC=C2
REMARK SMILES IDX 3 1 2 2 1 3 4 4 5 5 10 6 6 7 9 8 11 9 7 10 14 11 12 12 8 13
REMARK SMILES IDX 13 14
REMARK H PARENT
REMARK Flexibility Score: inf
ROOT
ATOM      1  C   UNL     1      15.406  50.387  61.668  1.00  0.00     0.004 C 
ENDROOT
BRANCH   1   2
ATOM      2  C   UNL     1      13.916  50.442  62.021  1.00  0.00    -0.003 C 
ATOM      3  C   UNL     1      13.622  51.567  63.009  1.00  0.00     0.004 C 
ENDBRANCH   1   2
BRANCH   1   4
ATOM      4  C   UNL     1      15.669  51.023  60.293  1.00  0.00     0.050 C 
BRANCH   4   5
ATOM      5  C   UNL     1      16.447  52.348  60.372  1.00  0.00     0.204 C 
ATOM      6  C   UNL     1      15.865  53.319  61.373  1.00  0.00    -0.015 C 
ATOM      7  O   UNL     1      17.776  52.137  60.858  1.00  0.00    -0.454 OA
ATOM      8  C   UNL     1      16.746  53.599  62.317  1.00  0.00     0.062 C 
ATOM      9  C   UNL     1      14.445  53.811  61.449  1.00  0.00     0.040 C 
ATOM     10  C   UNL     1      17.954  52.874  62.017  1.00  0.00     0.338 C 
ATOM     11  C   UNL     1      16.435  54.462  63.463  1.00  0.00     0.011 C 
ATOM     12  C   UNL     1      14.357  55.122  62.267  1.00  0.00     0.032 C 
ATOM     13  O   UNL     1      19.015  52.888  62.694  1.00  0.00    -0.246 OA
ATOM     14  C   UNL     1      15.271  55.124  63.476  1.00  0.00    -0.026 C 
ENDBRANCH   4   5
ENDBRANCH   1   4
TORSDOF 3
ENDMDL
MODEL 3
REMARK VINA RESULT:    12.758      2.038      4.587
REMARK INTER + INTRA:          14.874
REMARK INTER:                  11.534
REMARK INTRA:                   3.340
REMARK UNBOUND:                -0.122
REMARK SMILES CCCC[C@@H]1OC(=O)C2=C1CCC=C2
REMARK SMILES IDX 3 1 2 2 1 3 4 4 5 5 10 6 6 7 9 8 11 9 7 10 14 11 12 12 8 13
REMARK SMILES IDX 13 14
REMARK H PARENT
REMARK Flexibility Score: inf
ROOT
ATOM      1  C   UNL     1      14.754  55.117  64.073  1.00  0.00     0.004 C 
ENDROOT
BRANCH   1   2
ATOM      2  C   UNL     1      16.285  55.122  64.129  1.00  0.00    -0.003 C 
ATOM      3  C   UNL     1      16.890  54.988  62.735  1.00  0.00     0.004 C 
ENDBRANCH   1   2
BRANCH   1   4
ATOM      4  C   UNL     1      14.254  54.486  62.763  1.00  0.00     0.050 C 
BRANCH   4   5
ATOM      5  C   UNL     1      15.361  54.311  61.708  1.00  0.00     0.204 C 
ATOM      6  C   UNL     1      15.417  52.914  61.135  1.00  0.00    -0.015 C 
ATOM      7  O   UNL     1      15.111  55.125  60.559  1.00  0.00    -0.454 OA
ATOM      8  C   UNL     1      15.201  52.936  59.831  1.00  0.00     0.062 C 
ATOM      9  C   UNL     1      15.530  51.618  61.893  1.00  0.00     0.040 C 
ATOM     10  C   UNL     1      15.009  54.310  59.443  1.00  0.00     0.338 C 
ATOM     11  C   UNL     1      15.128  51.716  59.017  1.00  0.00     0.011 C 
ATOM     12  C   UNL     1      16.041  50.482  60.974  1.00  0.00     0.032 C 
ATOM     13  O   UNL     1      14.776  54.726  58.278  1.00  0.00    -0.246 OA
ATOM     14  C   UNL     1      15.452  50.545  59.579  1.00  0.00    -0.026 C 
ENDBRANCH   4   5
ENDBRANCH   1   4
TORSDOF 3
ENDMDL
MODEL 4
REMARK VINA RESULT:    13.033      1.497      3.943
REMARK INTER + INTRA:          15.197
REMARK INTER:                  14.109
REMARK INTRA:                   1.088
REMARK UNBOUND:                -0.122
REMARK SMILES CCCC[C@@H]1OC(=O)C2=C1CCC=C2
REMARK SMILES IDX 3 1 2 2 1 3 4 4 5 5 10 6 6 7 9 8 11 9 7 10 14 11 12 12 8 13
REMARK SMILES IDX 13 14
REMARK H PARENT
REMARK Flexibility Score: inf
ROOT
ATOM      1  C   UNL     1      16.665  54.587  62.821  1.00  0.00     0.004 C 
ENDROOT
BRANCH   1   2
ATOM      2  C   UNL     1      16.231  55.123  64.189  1.00  0.00    -0.003 C 
ATOM      3  C   UNL     1      14.711  55.125  64.324  1.00  0.00     0.004 C 
ENDBRANCH   1   2
BRANCH   1   4
ATOM      4  C   UNL     1      15.749  55.117  61.706  1.00  0.00     0.050 C 
BRANCH   4   5
ATOM      5  C   UNL     1      14.662  54.116  61.281  1.00  0.00     0.204 C 
ATOM      6  C   UNL     1      15.217  52.764  60.898  1.00  0.00    -0.015 C 
ATOM      7  O   UNL     1      13.787  53.812  62.371  1.00  0.00    -0.454 OA
ATOM      8  C   UNL     1      14.736  51.821  61.690  1.00  0.00     0.062 C 
ATOM      9  C   UNL     1      16.293  52.470  59.887  1.00  0.00     0.040 C 
ATOM     10  C   UNL     1      13.834  52.451  62.620  1.00  0.00     0.338 C 
ATOM     11  C   UNL     1      15.153  50.416  61.598  1.00  0.00     0.011 C 
ATOM     12  C   UNL     1      16.239  50.991  59.435  1.00  0.00     0.032 C 
ATOM     13  O   UNL     1      13.185  51.872  63.532  1.00  0.00    -0.246 OA
ATOM     14  C   UNL     1      15.927  50.039  60.573  1.00  0.00    -0.026 C 
ENDBRANCH   4   5
ENDBRANCH   1   4
TORSDOF 3
ENDMDL
MODEL 5
REMARK VINA RESULT:    13.239      2.004      3.183
REMARK INTER + INTRA:          15.440
REMARK INTER:                  15.471
REMARK INTRA:                  -0.032
REMARK UNBOUND:                -0.122
REMARK SMILES CCCC[C@@H]1OC(=O)C2=C1CCC=C2
REMARK SMILES IDX 3 1 2 2 1 3 4 4 5 5 10 6 6 7 9 8 11 9 7 10 14 11 12 12 8 13
REMARK SMILES IDX 13 14
REMARK H PARENT
REMARK Flexibility Score: inf
ROOT
ATOM      1  C   UNL     1      16.904  51.011  61.354  1.00  0.00     0.004 C 
ENDROOT
BRANCH   1   2
ATOM      2  C   UNL     1      17.957  52.032  60.913  1.00  0.00    -0.003 C 
ATOM      3  C   UNL     1      18.531  52.786  62.110  1.00  0.00     0.004 C 
ENDBRANCH   1   2
BRANCH   1   4
ATOM      4  C   UNL     1      15.886  50.751  60.231  1.00  0.00     0.050 C 
BRANCH   4   5
ATOM      5  C   UNL     1      14.774  51.811  60.157  1.00  0.00     0.204 C 
ATOM      6  C   UNL     1      14.772  52.752  61.339  1.00  0.00    -0.015 C 
ATOM      7  O   UNL     1      14.972  52.688  59.043  1.00  0.00    -0.454 OA
ATOM      8  C   UNL     1      14.969  53.998  60.944  1.00  0.00     0.062 C 
ATOM      9  C   UNL     1      14.727  52.386  62.799  1.00  0.00     0.040 C 
ATOM     10  C   UNL     1      15.094  53.987  59.509  1.00  0.00     0.338 C 
ATOM     11  C   UNL     1      15.085  55.120  61.884  1.00  0.00     0.011 C 
ATOM     12  C   UNL     1      14.255  53.584  63.656  1.00  0.00     0.032 C 
ATOM     13  O   UNL     1      15.292  54.989  58.774  1.00  0.00    -0.246 OA
ATOM     14  C   UNL     1      14.821  54.908  63.179  1.00  0.00    -0.026 C 
ENDBRANCH   4   5
ENDBRANCH   1   4
TORSDOF 3
ENDMDL
MODEL 6
REMARK VINA RESULT:    13.675      1.558      3.915
REMARK INTER + INTRA:          15.952
REMARK INTER:                  16.182
REMARK INTRA:                  -0.230
REMARK UNBOUND:                -0.122
REMARK SMILES CCCC[C@@H]1OC(=O)C2=C1CCC=C2
REMARK SMILES IDX 3 1 2 2 1 3 4 4 5 5 10 6 6 7 9 8 11 9 7 10 14 11 12 12 8 13
REMARK SMILES IDX 13 14
REMARK H PARENT
REMARK Flexibility Score: inf
ROOT
ATOM      1  C   UNL     1      16.147  55.122  63.396  1.00  0.00     0.004 C 
ENDROOT
BRANCH   1   2
ATOM      2  C   UNL     1      16.998  53.918  63.812  1.00  0.00    -0.003 C 
ATOM      3  C   UNL     1      18.012  53.557  62.731  1.00  0.00     0.004 C 
ENDBRANCH   1   2
BRANCH   1   4
ATOM      4  C   UNL     1      15.902  55.125  61.878  1.00  0.00     0.050 C 
BRANCH   4   5
ATOM      5  C   UNL     1      14.751  54.200  61.444  1.00  0.00     0.204 C 
ATOM      6  C   UNL     1      15.222  52.832  61.008  1.00  0.00    -0.015 C 
ATOM      7  O   UNL     1      13.881  53.910  62.543  1.00  0.00    -0.454 OA
ATOM      8  C   UNL     1      14.703  51.893  61.779  1.00  0.00     0.062 C 
ATOM      9  C   UNL     1      16.260  52.512  59.966  1.00  0.00     0.040 C 
ATOM     10  C   UNL     1      13.856  52.541  62.747  1.00  0.00     0.338 C 
ATOM     11  C   UNL     1      15.038  50.470  61.633  1.00  0.00     0.011 C 
ATOM     12  C   UNL     1      16.113  51.054  59.468  1.00  0.00     0.032 C 
ATOM     13  O   UNL     1      13.193  51.970  63.653  1.00  0.00    -0.246 OA
ATOM     14  C   UNL     1      15.769  50.084  60.581  1.00  0.00    -0.026 C 
ENDBRANCH   4   5
ENDBRANCH   1   4
TORSDOF 3
ENDMDL
MODEL 7
REMARK VINA RESULT:    13.928      1.935      4.065
REMARK INTER + INTRA:          16.249
REMARK INTER:                  15.242
REMARK INTRA:                   1.006
REMARK UNBOUND:                -0.122
REMARK SMILES CCCC[C@@H]1OC(=O)C2=C1CCC=C2
REMARK SMILES IDX 3 1 2 2 1 3 4 4 5 5 10 6 6 7 9 8 11 9 7 10 14 11 12 12 8 13
REMARK SMILES IDX 13 14
REMARK H PARENT
REMARK Flexibility Score: inf
ROOT
ATOM      1  C   UNL     1      14.399  54.233  62.922  1.00  0.00     0.004 C 
ENDROOT
BRANCH   1   2
ATOM      2  C   UNL     1      14.763  55.050  64.166  1.00  0.00    -0.003 C 
ATOM      3  C   UNL     1      16.275  55.125  64.355  1.00  0.00     0.004 C 
ENDBRANCH   1   2
BRANCH   1   4
ATOM      4  C   UNL     1      14.363  55.125  61.669  1.00  0.00     0.050 C 
BRANCH   4   5
ATOM      5  C   UNL     1      15.332  54.667  60.566  1.00  0.00     0.204 C 
ATOM      6  C   UNL     1      16.302  53.606  61.031  1.00  0.00    -0.015 C 
ATOM      7  O   UNL     1      14.630  54.022  59.499  1.00  0.00    -0.454 OA
ATOM      8  C   UNL     1      16.148  52.495  60.331  1.00  0.00     0.062 C 
ATOM      9  C   UNL     1      17.224  53.667  62.220  1.00  0.00     0.040 C 
ATOM     10  C   UNL     1      15.109  52.730  59.362  1.00  0.00     0.338 C 
ATOM     11  C   UNL     1      16.908  51.270  60.608  1.00  0.00     0.011 C 
ATOM     12  C   UNL     1      18.371  52.638  62.084  1.00  0.00     0.032 C 
ATOM     13  O   UNL     1      14.681  51.900  58.517  1.00  0.00    -0.246 OA
ATOM     14  C   UNL     1      17.911  51.319  61.494  1.00  0.00    -0.026 C 
ENDBRANCH   4   5
ENDBRANCH   1   4
TORSDOF 3
ENDMDL
