MODEL 1
REMARK VINA RESULT:    -3.486      0.000      0.000
REMARK INTER + INTRA:          -6.530
REMARK INTER:                  -5.320
REMARK INTRA:                  -1.210
REMARK UNBOUND:                -1.210
REMARK SMILES CCCCCCCCCC=CC(=O)[O-]
REMARK SMILES IDX 7 1 8 2 9 3 10 4 11 5 12 6 13 7 14 8 6 9 5 10 4 11 3 12 2 13
REMARK SMILES IDX 1 14
REMARK H PARENT
REMARK Flexibility Score: inf
ROOT
ATOM      1  C   UNL     1      -8.978  27.485 -21.419  1.00  0.00     0.000 C 
ENDROOT
BRANCH   1   2
ATOM      2  C   UNL     1      -9.200  26.277 -22.343  1.00  0.00     0.004 C 
BRANCH   2   3
ATOM      3  C   UNL     1      -8.478  25.013 -21.850  1.00  0.00     0.027 C 
BRANCH   3   4
ATOM      4  C   UNL     1      -8.724  24.784 -20.387  1.00  0.00    -0.025 C 
ATOM      5  C   UNL     1      -8.067  23.837 -19.708  1.00  0.00     0.020 C 
BRANCH   5   6
ATOM      6  C   UNL     1      -8.307  23.594 -18.278  1.00  0.00     0.064 C 
ATOM      7  O   UNL     1      -8.028  22.470 -17.784  1.00  0.00    -0.545 OA
ATOM      8  O   UNL     1      -8.837  24.585 -17.461  1.00  0.00    -0.545 OA
ENDBRANCH   5   6
ENDBRANCH   3   4
ENDBRANCH   2   3
ENDBRANCH   1   2
BRANCH   1   9
ATOM      9  C   UNL     1      -7.937  28.471 -21.976  1.00  0.00     0.000 C 
BRANCH   9  10
ATOM     10  C   UNL     1      -7.377  28.032 -23.338  1.00  0.00     0.000 C 
BRANCH  10  11
ATOM     11  C   UNL     1      -5.842  27.964 -23.355  1.00  0.00    -0.000 C 
BRANCH  11  12
ATOM     12  C   UNL     1      -5.312  27.224 -22.122  1.00  0.00    -0.000 C 
BRANCH  12  13
ATOM     13  C   UNL     1      -4.968  25.768 -22.457  1.00  0.00    -0.003 C 
ATOM     14  C   UNL     1      -4.742  24.949 -21.189  1.00  0.00     0.004 C 
ENDBRANCH  12  13
ENDBRANCH  11  12
ENDBRANCH  10  11
ENDBRANCH   9  10
ENDBRANCH   1   9
TORSDOF 9
ENDMDL
MODEL 2
REMARK VINA RESULT:    -3.381      1.385      2.418
REMARK INTER + INTRA:          -6.369
REMARK INTER:                  -5.535
REMARK INTRA:                  -0.834
REMARK UNBOUND:                -1.210
REMARK SMILES CCCCCCCCCC=CC(=O)[O-]
REMARK SMILES IDX 7 1 8 2 9 3 10 4 11 5 12 6 13 7 14 8 6 9 5 10 4 11 3 12 2 13
REMARK SMILES IDX 1 14
REMARK H PARENT
REMARK Flexibility Score: inf
ROOT
ATOM      1  C   UNL     1      -9.054  26.161 -22.792  1.00  0.00     0.000 C 
ENDROOT
BRANCH   1   2
ATOM      2  C   UNL     1      -8.878  24.731 -22.258  1.00  0.00     0.004 C 
BRANCH   2   3
ATOM      3  C   UNL     1      -7.424  24.416 -21.874  1.00  0.00     0.027 C 
BRANCH   3   4
ATOM      4  C   UNL     1      -7.309  24.076 -20.416  1.00  0.00    -0.025 C 
ATOM      5  C   UNL     1      -8.393  23.858 -19.663  1.00  0.00     0.020 C 
BRANCH   5   6
ATOM      6  C   UNL     1      -8.297  23.536 -18.231  1.00  0.00     0.064 C 
ATOM      7  O   UNL     1      -8.563  24.421 -17.377  1.00  0.00    -0.545 OA
ATOM      8  O   UNL     1      -7.915  22.269 -17.805  1.00  0.00    -0.545 OA
ENDBRANCH   5   6
ENDBRANCH   3   4
ENDBRANCH   2   3
ENDBRANCH   1   2
BRANCH   1   9
ATOM      9  C   UNL     1      -9.408  27.166 -21.683  1.00  0.00     0.000 C 
BRANCH   9  10
ATOM     10  C   UNL     1      -8.369  28.291 -21.551  1.00  0.00     0.000 C 
BRANCH  10  11
ATOM     11  C   UNL     1      -7.138  28.072 -22.444  1.00  0.00    -0.000 C 
BRANCH  11  12
ATOM     12  C   UNL     1      -7.019  29.180 -23.496  1.00  0.00    -0.000 C 
BRANCH  12  13
ATOM     13  C   UNL     1      -5.850  30.119 -23.177  1.00  0.00    -0.003 C 
ATOM     14  C   UNL     1      -4.863  29.464 -22.216  1.00  0.00     0.004 C 
ENDBRANCH  12  13
ENDBRANCH  11  12
ENDBRANCH  10  11
ENDBRANCH   9  10
ENDBRANCH   1   9
TORSDOF 9
ENDMDL
MODEL 3
REMARK VINA RESULT:    -3.361      1.271      3.033
REMARK INTER + INTRA:          -6.340
REMARK INTER:                  -5.125
REMARK INTRA:                  -1.215
REMARK UNBOUND:                -1.210
REMARK SMILES CCCCCCCCCC=CC(=O)[O-]
REMARK SMILES IDX 7 1 8 2 9 3 10 4 11 5 12 6 13 7 14 8 6 9 5 10 4 11 3 12 2 13
REMARK SMILES IDX 1 14
REMARK H PARENT
REMARK Flexibility Score: inf
ROOT
ATOM      1  C   UNL     1      -7.757  24.123 -23.626  1.00  0.00     0.000 C 
ENDROOT
BRANCH   1   2
ATOM      2  C   UNL     1      -6.973  23.348 -22.555  1.00  0.00     0.004 C 
BRANCH   2   3
ATOM      3  C   UNL     1      -6.286  24.272 -21.538  1.00  0.00     0.027 C 
BRANCH   3   4
ATOM      4  C   UNL     1      -6.630  23.878 -20.130  1.00  0.00    -0.025 C 
ATOM      5  C   UNL     1      -7.883  23.957 -19.670  1.00  0.00     0.020 C 
BRANCH   5   6
ATOM      6  C   UNL     1      -8.232  23.586 -18.289  1.00  0.00     0.064 C 
ATOM      7  O   UNL     1      -7.958  22.432 -17.869  1.00  0.00    -0.545 OA
ATOM      8  O   UNL     1      -8.861  24.490 -17.442  1.00  0.00    -0.545 OA
ENDBRANCH   5   6
ENDBRANCH   3   4
ENDBRANCH   2   3
ENDBRANCH   1   2
BRANCH   1   9
ATOM      9  C   UNL     1      -9.117  24.625 -23.114  1.00  0.00     0.000 C 
BRANCH   9  10
ATOM     10  C   UNL     1      -9.206  26.159 -23.075  1.00  0.00     0.000 C 
BRANCH  10  11
ATOM     11  C   UNL     1      -9.264  26.714 -21.643  1.00  0.00    -0.000 C 
BRANCH  11  12
ATOM     12  C   UNL     1      -8.456  28.011 -21.524  1.00  0.00    -0.000 C 
BRANCH  12  13
ATOM     13  C   UNL     1      -7.167  27.936 -22.351  1.00  0.00    -0.003 C 
ATOM     14  C   UNL     1      -6.729  29.322 -22.815  1.00  0.00     0.004 C 
ENDBRANCH  12  13
ENDBRANCH  11  12
ENDBRANCH  10  11
ENDBRANCH   9  10
ENDBRANCH   1   9
TORSDOF 9
ENDMDL
MODEL 4
REMARK VINA RESULT:    -3.319      5.336      7.418
REMARK INTER + INTRA:          -6.276
REMARK INTER:                  -5.298
REMARK INTRA:                  -0.978
REMARK UNBOUND:                -1.210
REMARK SMILES CCCCCCCCCC=CC(=O)[O-]
REMARK SMILES IDX 7 1 8 2 9 3 10 4 11 5 12 6 13 7 14 8 6 9 5 10 4 11 3 12 2 13
REMARK SMILES IDX 1 14
REMARK H PARENT
REMARK Flexibility Score: inf
ROOT
ATOM      1  C   UNL     1      -7.083  28.191 -22.361  1.00  0.00     0.000 C 
ENDROOT
BRANCH   1   2
ATOM      2  C   UNL     1      -6.717  29.317 -23.341  1.00  0.00     0.004 C 
BRANCH   2   3
ATOM      3  C   UNL     1      -6.633  28.832 -24.797  1.00  0.00     0.027 C 
BRANCH   3   4
ATOM      4  C   UNL     1      -7.070  29.906 -25.751  1.00  0.00    -0.025 C 
ATOM      5  C   UNL     1      -7.791  29.620 -26.841  1.00  0.00     0.020 C 
BRANCH   5   6
ATOM      6  C   UNL     1      -8.216  30.660 -27.791  1.00  0.00     0.064 C 
ATOM      7  O   UNL     1      -8.175  30.425 -29.026  1.00  0.00    -0.545 OA
ATOM      8  O   UNL     1      -8.661  31.898 -27.345  1.00  0.00    -0.545 OA
ENDBRANCH   5   6
ENDBRANCH   3   4
ENDBRANCH   2   3
ENDBRANCH   1   2
BRANCH   1   9
ATOM      9  C   UNL     1      -8.456  28.404 -21.703  1.00  0.00     0.000 C 
BRANCH   9  10
ATOM     10  C   UNL     1      -9.069  27.097 -21.176  1.00  0.00     0.000 C 
BRANCH  10  11
ATOM     11  C   UNL     1      -8.528  25.853 -21.899  1.00  0.00    -0.000 C 
BRANCH  11  12
ATOM     12  C   UNL     1      -9.377  25.522 -23.131  1.00  0.00    -0.000 C 
BRANCH  12  13
ATOM     13  C   UNL     1      -8.501  25.375 -24.381  1.00  0.00    -0.003 C 
ATOM     14  C   UNL     1      -9.099  26.131 -25.565  1.00  0.00     0.004 C 
ENDBRANCH  12  13
ENDBRANCH  11  12
ENDBRANCH  10  11
ENDBRANCH   9  10
ENDBRANCH   1   9
TORSDOF 9
ENDMDL
MODEL 5
REMARK VINA RESULT:    -3.240      1.023      3.158
REMARK INTER + INTRA:          -6.155
REMARK INTER:                  -5.001
REMARK INTRA:                  -1.153
REMARK UNBOUND:                -1.210
REMARK SMILES CCCCCCCCCC=CC(=O)[O-]
REMARK SMILES IDX 7 1 8 2 9 3 10 4 11 5 12 6 13 7 14 8 6 9 5 10 4 11 3 12 2 13
REMARK SMILES IDX 1 14
REMARK H PARENT
REMARK Flexibility Score: inf
ROOT
ATOM      1  C   UNL     1      -4.389  25.934 -22.513  1.00  0.00     0.000 C 
ENDROOT
BRANCH   1   2
ATOM      2  C   UNL     1      -5.061  25.410 -21.234  1.00  0.00     0.004 C 
BRANCH   2   3
ATOM      3  C   UNL     1      -5.961  24.192 -21.494  1.00  0.00     0.027 C 
BRANCH   3   4
ATOM      4  C   UNL     1      -7.029  24.073 -20.445  1.00  0.00    -0.025 C 
ATOM      5  C   UNL     1      -6.914  23.214 -19.426  1.00  0.00     0.020 C 
BRANCH   5   6
ATOM      6  C   UNL     1      -7.957  23.079 -18.398  1.00  0.00     0.064 C 
ATOM      7  O   UNL     1      -8.352  24.099 -17.777  1.00  0.00    -0.545 OA
ATOM      8  O   UNL     1      -8.513  21.840 -18.100  1.00  0.00    -0.545 OA
ENDBRANCH   5   6
ENDBRANCH   3   4
ENDBRANCH   2   3
ENDBRANCH   1   2
BRANCH   1   9
ATOM      9  C   UNL     1      -5.292  26.898 -23.302  1.00  0.00     0.000 C 
BRANCH   9  10
ATOM     10  C   UNL     1      -5.813  28.058 -22.439  1.00  0.00     0.000 C 
BRANCH  10  11
ATOM     11  C   UNL     1      -7.340  28.215 -22.514  1.00  0.00    -0.000 C 
BRANCH  11  12
ATOM     12  C   UNL     1      -8.001  26.921 -23.004  1.00  0.00    -0.000 C 
BRANCH  12  13
ATOM     13  C   UNL     1      -9.280  26.622 -22.213  1.00  0.00    -0.003 C 
ATOM     14  C   UNL     1      -9.333  27.435 -20.922  1.00  0.00     0.004 C 
ENDBRANCH  12  13
ENDBRANCH  11  12
ENDBRANCH  10  11
ENDBRANCH   9  10
ENDBRANCH   1   9
TORSDOF 9
ENDMDL
MODEL 6
REMARK VINA RESULT:    -3.236      4.972      6.842
REMARK INTER + INTRA:          -6.149
REMARK INTER:                  -5.125
REMARK INTRA:                  -1.024
REMARK UNBOUND:                -1.210
REMARK SMILES CCCCCCCCCC=CC(=O)[O-]
REMARK SMILES IDX 7 1 8 2 9 3 10 4 11 5 12 6 13 7 14 8 6 9 5 10 4 11 3 12 2 13
REMARK SMILES IDX 1 14
REMARK H PARENT
REMARK Flexibility Score: inf
ROOT
ATOM      1  C   UNL     1      -8.328  28.339 -21.505  1.00  0.00     0.000 C 
ENDROOT
BRANCH   1   2
ATOM      2  C   UNL     1      -7.199  28.234 -22.542  1.00  0.00     0.004 C 
BRANCH   2   3
ATOM      3  C   UNL     1      -6.177  29.376 -22.423  1.00  0.00     0.027 C 
BRANCH   3   4
ATOM      4  C   UNL     1      -6.262  30.303 -23.602  1.00  0.00    -0.025 C 
ATOM      5  C   UNL     1      -7.161  30.116 -24.574  1.00  0.00     0.020 C 
BRANCH   5   6
ATOM      6  C   UNL     1      -7.248  31.009 -25.740  1.00  0.00     0.064 C 
ATOM      7  O   UNL     1      -7.954  32.048 -25.674  1.00  0.00    -0.545 OA
ATOM      8  O   UNL     1      -6.560  30.723 -26.913  1.00  0.00    -0.545 OA
ENDBRANCH   5   6
ENDBRANCH   3   4
ENDBRANCH   2   3
ENDBRANCH   1   2
BRANCH   1   9
ATOM      9  C   UNL     1      -9.384  27.233 -21.668  1.00  0.00     0.000 C 
BRANCH   9  10
ATOM     10  C   UNL     1      -8.759  25.838 -21.827  1.00  0.00     0.000 C 
BRANCH  10  11
ATOM     11  C   UNL     1      -9.340  25.059 -23.018  1.00  0.00    -0.000 C 
BRANCH  11  12
ATOM     12  C   UNL     1      -8.428  25.172 -24.245  1.00  0.00    -0.000 C 
BRANCH  12  13
ATOM     13  C   UNL     1      -8.986  26.180 -25.256  1.00  0.00    -0.003 C 
ATOM     14  C   UNL     1      -7.862  26.873 -26.022  1.00  0.00     0.004 C 
ENDBRANCH  12  13
ENDBRANCH  11  12
ENDBRANCH  10  11
ENDBRANCH   9  10
ENDBRANCH   1   9
TORSDOF 9
ENDMDL
MODEL 7
REMARK VINA RESULT:    -3.185      1.653      2.367
REMARK INTER + INTRA:          -6.071
REMARK INTER:                  -5.052
REMARK INTRA:                  -1.020
REMARK UNBOUND:                -1.210
REMARK SMILES CCCCCCCCCC=CC(=O)[O-]
REMARK SMILES IDX 7 1 8 2 9 3 10 4 11 5 12 6 13 7 14 8 6 9 5 10 4 11 3 12 2 13
REMARK SMILES IDX 1 14
REMARK H PARENT
REMARK Flexibility Score: inf
ROOT
ATOM      1  C   UNL     1      -9.102  26.127 -22.596  1.00  0.00     0.000 C 
ENDROOT
BRANCH   1   2
ATOM      2  C   UNL     1      -8.889  24.695 -22.080  1.00  0.00     0.004 C 
BRANCH   2   3
ATOM      3  C   UNL     1      -8.484  24.653 -20.598  1.00  0.00     0.027 C 
BRANCH   3   4
ATOM      4  C   UNL     1      -7.680  23.422 -20.291  1.00  0.00    -0.025 C 
ATOM      5  C   UNL     1      -6.462  23.503 -19.744  1.00  0.00     0.020 C 
BRANCH   5   6
ATOM      6  C   UNL     1      -5.658  22.307 -19.448  1.00  0.00     0.064 C 
ATOM      7  O   UNL     1      -4.515  22.186 -19.961  1.00  0.00    -0.545 OA
ATOM      8  O   UNL     1      -6.141  21.308 -18.612  1.00  0.00    -0.545 OA
ENDBRANCH   5   6
ENDBRANCH   3   4
ENDBRANCH   2   3
ENDBRANCH   1   2
BRANCH   1   9
ATOM      9  C   UNL     1      -9.160  27.161 -21.459  1.00  0.00     0.000 C 
BRANCH   9  10
ATOM     10  C   UNL     1      -8.293  28.399 -21.742  1.00  0.00     0.000 C 
BRANCH  10  11
ATOM     11  C   UNL     1      -7.197  28.130 -22.784  1.00  0.00    -0.000 C 
BRANCH  11  12
ATOM     12  C   UNL     1      -5.863  28.751 -22.352  1.00  0.00    -0.000 C 
BRANCH  12  13
ATOM     13  C   UNL     1      -4.794  27.672 -22.143  1.00  0.00    -0.003 C 
ATOM     14  C   UNL     1      -5.421  26.283 -22.072  1.00  0.00     0.004 C 
ENDBRANCH  12  13
ENDBRANCH  11  12
ENDBRANCH  10  11
ENDBRANCH   9  10
ENDBRANCH   1   9
TORSDOF 9
ENDMDL
MODEL 8
REMARK VINA RESULT:    -3.164      2.071      4.094
REMARK INTER + INTRA:          -6.039
REMARK INTER:                  -5.080
REMARK INTRA:                  -0.959
REMARK UNBOUND:                -1.210
REMARK SMILES CCCCCCCCCC=CC(=O)[O-]
REMARK SMILES IDX 7 1 8 2 9 3 10 4 11 5 12 6 13 7 14 8 6 9 5 10 4 11 3 12 2 13
REMARK SMILES IDX 1 14
REMARK H PARENT
REMARK Flexibility Score: inf
ROOT
ATOM      1  C   UNL     1      -5.864  28.013 -22.484  1.00  0.00     0.000 C 
ENDROOT
BRANCH   1   2
ATOM      2  C   UNL     1      -5.376  26.556 -22.493  1.00  0.00     0.004 C 
BRANCH   2   3
ATOM      3  C   UNL     1      -4.416  26.245 -21.335  1.00  0.00     0.027 C 
BRANCH   3   4
ATOM      4  C   UNL     1      -4.547  24.817 -20.891  1.00  0.00    -0.025 C 
ATOM      5  C   UNL     1      -3.624  24.241 -20.112  1.00  0.00     0.020 C 
BRANCH   5   6
ATOM      6  C   UNL     1      -3.733  22.839 -19.679  1.00  0.00     0.064 C 
ATOM      7  O   UNL     1      -4.870  22.312 -19.565  1.00  0.00    -0.545 OA
ATOM      8  O   UNL     1      -2.600  22.087 -19.394  1.00  0.00    -0.545 OA
ENDBRANCH   5   6
ENDBRANCH   3   4
ENDBRANCH   2   3
ENDBRANCH   1   2
BRANCH   1   9
ATOM      9  C   UNL     1      -7.356  28.139 -22.839  1.00  0.00     0.000 C 
BRANCH   9  10
ATOM     10  C   UNL     1      -8.239  28.374 -21.603  1.00  0.00     0.000 C 
BRANCH  10  11
ATOM     11  C   UNL     1      -9.250  27.240 -21.372  1.00  0.00    -0.000 C 
BRANCH  11  12
ATOM     12  C   UNL     1      -9.175  26.200 -22.495  1.00  0.00    -0.000 C 
BRANCH  12  13
ATOM     13  C   UNL     1      -8.568  24.886 -21.990  1.00  0.00    -0.003 C 
ATOM     14  C   UNL     1      -8.676  24.777 -20.472  1.00  0.00     0.004 C 
ENDBRANCH  12  13
ENDBRANCH  11  12
ENDBRANCH  10  11
ENDBRANCH   9  10
ENDBRANCH   1   9
TORSDOF 9
ENDMDL
MODEL 9
REMARK VINA RESULT:    -3.163      5.117      7.216
REMARK INTER + INTRA:          -6.038
REMARK INTER:                  -4.833
REMARK INTRA:                  -1.205
REMARK UNBOUND:                -1.210
REMARK SMILES CCCCCCCCCC=CC(=O)[O-]
REMARK SMILES IDX 7 1 8 2 9 3 10 4 11 5 12 6 13 7 14 8 6 9 5 10 4 11 3 12 2 13
REMARK SMILES IDX 1 14
REMARK H PARENT
REMARK Flexibility Score: inf
ROOT
ATOM      1  C   UNL     1      -8.613  26.572 -25.690  1.00  0.00     0.000 C 
ENDROOT
BRANCH   1   2
ATOM      2  C   UNL     1      -7.213  26.415 -26.305  1.00  0.00     0.004 C 
BRANCH   2   3
ATOM      3  C   UNL     1      -6.423  27.733 -26.325  1.00  0.00     0.027 C 
BRANCH   3   4
ATOM      4  C   UNL     1      -7.338  28.915 -26.179  1.00  0.00    -0.025 C 
ATOM      5  C   UNL     1      -7.054  30.092 -26.747  1.00  0.00     0.020 C 
BRANCH   5   6
ATOM      6  C   UNL     1      -7.934  31.262 -26.602  1.00  0.00     0.064 C 
ATOM      7  O   UNL     1      -7.938  31.906 -25.521  1.00  0.00    -0.545 OA
ATOM      8  O   UNL     1      -8.764  31.667 -27.641  1.00  0.00    -0.545 OA
ENDBRANCH   5   6
ENDBRANCH   3   4
ENDBRANCH   2   3
ENDBRANCH   1   2
BRANCH   1   9
ATOM      9  C   UNL     1      -9.220  25.227 -25.255  1.00  0.00     0.000 C 
BRANCH   9  10
ATOM     10  C   UNL     1      -9.133  25.003 -23.737  1.00  0.00     0.000 C 
BRANCH  10  11
ATOM     11  C   UNL     1      -9.126  26.318 -22.942  1.00  0.00    -0.000 C 
BRANCH  11  12
ATOM     12  C   UNL     1      -7.909  26.392 -22.013  1.00  0.00    -0.000 C 
BRANCH  12  13
ATOM     13  C   UNL     1      -6.846  27.345 -22.571  1.00  0.00    -0.003 C 
ATOM     14  C   UNL     1      -7.277  28.801 -22.417  1.00  0.00     0.004 C 
ENDBRANCH  12  13
ENDBRANCH  11  12
ENDBRANCH  10  11
ENDBRANCH   9  10
ENDBRANCH   1   9
TORSDOF 9
ENDMDL
