MODEL 1
REMARK VINA RESULT:    -3.981      0.000      0.000
REMARK INTER + INTRA:          -5.885
REMARK INTER:                  -5.610
REMARK INTRA:                  -0.275
REMARK UNBOUND:                -0.275
REMARK SMILES CCCCCCCCC(=O)[O-]
REMARK SMILES IDX 6 1 7 2 8 3 9 4 10 5 11 6 5 7 4 8 3 9 2 10 1 11
REMARK H PARENT
REMARK Flexibility Score: inf
ROOT
ATOM      1  C   UNL     1     -16.785  -0.054  -1.350  1.00  0.00     0.000 C 
ENDROOT
BRANCH   1   2
ATOM      2  C   UNL     1     -16.174   0.394  -0.005  1.00  0.00     0.006 C 
BRANCH   2   3
ATOM      3  C   UNL     1     -16.789  -0.350   1.187  1.00  0.00     0.053 C 
BRANCH   3   4
ATOM      4  C   UNL     1     -15.793  -0.482   2.294  1.00  0.00     0.041 C 
ATOM      5  O   UNL     1     -16.182  -0.657   3.479  1.00  0.00    -0.550 OA
ATOM      6  O   UNL     1     -14.436  -0.364   2.026  1.00  0.00    -0.550 OA
ENDBRANCH   3   4
ENDBRANCH   2   3
ENDBRANCH   1   2
BRANCH   1   7
ATOM      7  C   UNL     1     -17.118  -1.555  -1.407  1.00  0.00     0.000 C 
BRANCH   7   8
ATOM      8  C   UNL     1     -16.505  -2.254  -2.631  1.00  0.00    -0.000 C 
BRANCH   8   9
ATOM      9  C   UNL     1     -16.327  -3.770  -2.429  1.00  0.00    -0.000 C 
BRANCH   9  10
ATOM     10  C   UNL     1     -14.930  -4.315  -2.777  1.00  0.00    -0.003 C 
ATOM     11  C   UNL     1     -14.017  -4.449  -1.558  1.00  0.00     0.004 C 
ENDBRANCH   9  10
ENDBRANCH   8   9
ENDBRANCH   7   8
ENDBRANCH   1   7
TORSDOF 7
ENDMDL
MODEL 2
REMARK VINA RESULT:    -3.873      1.376      2.101
REMARK INTER + INTRA:          -5.733
REMARK INTER:                  -5.396
REMARK INTRA:                  -0.337
REMARK UNBOUND:                -0.275
REMARK SMILES CCCCCCCCC(=O)[O-]
REMARK SMILES IDX 6 1 7 2 8 3 9 4 10 5 11 6 5 7 4 8 3 9 2 10 1 11
REMARK H PARENT
REMARK Flexibility Score: inf
ROOT
ATOM      1  C   UNL     1     -16.806  -1.429  -2.903  1.00  0.00     0.000 C 
ENDROOT
BRANCH   1   2
ATOM      2  C   UNL     1     -16.799  -0.262  -1.892  1.00  0.00     0.006 C 
BRANCH   2   3
ATOM      3  C   UNL     1     -16.688  -0.753  -0.443  1.00  0.00     0.053 C 
BRANCH   3   4
ATOM      4  C   UNL     1     -15.852   0.186   0.367  1.00  0.00     0.041 C 
ATOM      5  O   UNL     1     -15.285  -0.216   1.417  1.00  0.00    -0.550 OA
ATOM      6  O   UNL     1     -15.739   1.518  -0.010  1.00  0.00    -0.550 OA
ENDBRANCH   3   4
ENDBRANCH   2   3
ENDBRANCH   1   2
BRANCH   1   7
ATOM      7  C   UNL     1     -16.711  -2.816  -2.245  1.00  0.00     0.000 C 
BRANCH   7   8
ATOM      8  C   UNL     1     -15.634  -3.706  -2.887  1.00  0.00    -0.000 C 
BRANCH   8   9
ATOM      9  C   UNL     1     -14.631  -4.266  -1.862  1.00  0.00    -0.000 C 
BRANCH   9  10
ATOM     10  C   UNL     1     -13.348  -4.868  -2.465  1.00  0.00    -0.003 C 
ATOM     11  C   UNL     1     -13.261  -4.695  -3.982  1.00  0.00     0.004 C 
ENDBRANCH   9  10
ENDBRANCH   8   9
ENDBRANCH   7   8
ENDBRANCH   1   7
TORSDOF 7
ENDMDL
MODEL 3
REMARK VINA RESULT:    -3.774      1.938      3.084
REMARK INTER + INTRA:          -5.594
REMARK INTER:                  -5.388
REMARK INTRA:                  -0.206
REMARK UNBOUND:                -0.275
REMARK SMILES CCCCCCCCC(=O)[O-]
REMARK SMILES IDX 6 1 7 2 8 3 9 4 10 5 11 6 5 7 4 8 3 9 2 10 1 11
REMARK H PARENT
REMARK Flexibility Score: inf
ROOT
ATOM      1  C   UNL     1     -16.400  -2.303  -2.922  1.00  0.00     0.000 C 
ENDROOT
BRANCH   1   2
ATOM      2  C   UNL     1     -17.125  -1.563  -1.778  1.00  0.00     0.006 C 
BRANCH   2   3
ATOM      3  C   UNL     1     -17.069  -0.039  -1.947  1.00  0.00     0.053 C 
BRANCH   3   4
ATOM      4  C   UNL     1     -16.460   0.601  -0.740  1.00  0.00     0.041 C 
ATOM      5  O   UNL     1     -16.013  -0.112   0.197  1.00  0.00    -0.550 OA
ATOM      6  O   UNL     1     -16.431   1.985  -0.628  1.00  0.00    -0.550 OA
ENDBRANCH   3   4
ENDBRANCH   2   3
ENDBRANCH   1   2
BRANCH   1   7
ATOM      7  C   UNL     1     -16.117  -3.784  -2.618  1.00  0.00     0.000 C 
BRANCH   7   8
ATOM      8  C   UNL     1     -14.768  -4.000  -1.913  1.00  0.00    -0.000 C 
BRANCH   8   9
ATOM      9  C   UNL     1     -13.695  -4.597  -2.842  1.00  0.00    -0.000 C 
BRANCH   9  10
ATOM     10  C   UNL     1     -13.718  -4.070  -4.289  1.00  0.00    -0.003 C 
ATOM     11  C   UNL     1     -12.602  -4.652  -5.157  1.00  0.00     0.004 C 
ENDBRANCH   9  10
ENDBRANCH   8   9
ENDBRANCH   7   8
ENDBRANCH   1   7
TORSDOF 7
ENDMDL
MODEL 4
REMARK VINA RESULT:    -3.498     15.741     18.363
REMARK INTER + INTRA:          -5.204
REMARK INTER:                  -4.627
REMARK INTRA:                  -0.578
REMARK UNBOUND:                -0.275
REMARK SMILES CCCCCCCCC(=O)[O-]
REMARK SMILES IDX 6 1 7 2 8 3 9 4 10 5 11 6 5 7 4 8 3 9 2 10 1 11
REMARK H PARENT
REMARK Flexibility Score: inf
ROOT
ATOM      1  C   UNL     1     -12.770  13.549   8.866  1.00  0.00     0.000 C 
ENDROOT
BRANCH   1   2
ATOM      2  C   UNL     1     -12.727  12.563  10.053  1.00  0.00     0.006 C 
BRANCH   2   3
ATOM      3  C   UNL     1     -12.194  11.185   9.642  1.00  0.00     0.053 C 
BRANCH   3   4
ATOM      4  C   UNL     1     -13.325  10.245   9.368  1.00  0.00     0.041 C 
ATOM      5  O   UNL     1     -13.441   9.183  10.035  1.00  0.00    -0.550 OA
ATOM      6  O   UNL     1     -14.223  10.517   8.345  1.00  0.00    -0.550 OA
ENDBRANCH   3   4
ENDBRANCH   2   3
ENDBRANCH   1   2
BRANCH   1   7
ATOM      7  C   UNL     1     -12.353  14.983   9.239  1.00  0.00     0.000 C 
BRANCH   7   8
ATOM      8  C   UNL     1     -11.097  15.026  10.125  1.00  0.00    -0.000 C 
BRANCH   8   9
ATOM      9  C   UNL     1      -9.793  15.125   9.312  1.00  0.00    -0.000 C 
BRANCH   9  10
ATOM     10  C   UNL     1      -8.606  14.328   9.883  1.00  0.00    -0.003 C 
ATOM     11  C   UNL     1      -8.808  12.815   9.810  1.00  0.00     0.004 C 
ENDBRANCH   9  10
ENDBRANCH   8   9
ENDBRANCH   7   8
ENDBRANCH   1   7
TORSDOF 7
ENDMDL
MODEL 5
REMARK VINA RESULT:    -3.483      4.598      6.932
REMARK INTER + INTRA:          -5.184
REMARK INTER:                  -4.695
REMARK INTRA:                  -0.489
REMARK UNBOUND:                -0.275
REMARK SMILES CCCCCCCCC(=O)[O-]
REMARK SMILES IDX 6 1 7 2 8 3 9 4 10 5 11 6 5 7 4 8 3 9 2 10 1 11
REMARK H PARENT
REMARK Flexibility Score: inf
ROOT
ATOM      1  C   UNL     1     -13.157  -4.030  -4.191  1.00  0.00     0.000 C 
ENDROOT
BRANCH   1   2
ATOM      2  C   UNL     1     -13.337  -4.637  -5.599  1.00  0.00     0.006 C 
BRANCH   2   3
ATOM      3  C   UNL     1     -14.814  -4.724  -6.006  1.00  0.00     0.053 C 
BRANCH   3   4
ATOM      4  C   UNL     1     -15.250  -3.459  -6.674  1.00  0.00     0.041 C 
ATOM      5  O   UNL     1     -15.149  -2.358  -6.072  1.00  0.00    -0.550 OA
ATOM      6  O   UNL     1     -15.814  -3.502  -7.942  1.00  0.00    -0.550 OA
ENDBRANCH   3   4
ENDBRANCH   2   3
ENDBRANCH   1   2
BRANCH   1   7
ATOM      7  C   UNL     1     -13.212  -5.069  -3.059  1.00  0.00     0.000 C 
BRANCH   7   8
ATOM      8  C   UNL     1     -14.167  -4.663  -1.925  1.00  0.00    -0.000 C 
BRANCH   8   9
ATOM      9  C   UNL     1     -15.625  -5.083  -2.189  1.00  0.00    -0.000 C 
BRANCH   9  10
ATOM     10  C   UNL     1     -16.504  -4.006  -2.850  1.00  0.00    -0.003 C 
ATOM     11  C   UNL     1     -16.422  -2.650  -2.148  1.00  0.00     0.004 C 
ENDBRANCH   9  10
ENDBRANCH   8   9
ENDBRANCH   7   8
ENDBRANCH   1   7
TORSDOF 7
ENDMDL
MODEL 6
REMARK VINA RESULT:    -3.346     17.240     18.795
REMARK INTER + INTRA:          -4.990
REMARK INTER:                  -4.606
REMARK INTRA:                  -0.384
REMARK UNBOUND:                -0.275
REMARK SMILES CCCCCCCCC(=O)[O-]
REMARK SMILES IDX 6 1 7 2 8 3 9 4 10 5 11 6 5 7 4 8 3 9 2 10 1 11
REMARK H PARENT
REMARK Flexibility Score: inf
ROOT
ATOM      1  C   UNL     1     -11.026  12.461   9.966  1.00  0.00     0.000 C 
ENDROOT
BRANCH   1   2
ATOM      2  C   UNL     1      -9.903  13.508  10.122  1.00  0.00     0.006 C 
BRANCH   2   3
ATOM      3  C   UNL     1      -8.552  12.988   9.615  1.00  0.00     0.053 C 
BRANCH   3   4
ATOM      4  C   UNL     1      -8.263  13.522   8.248  1.00  0.00     0.041 C 
ATOM      5  O   UNL     1      -8.470  14.736   7.986  1.00  0.00    -0.550 OA
ATOM      6  O   UNL     1      -7.811  12.669   7.250  1.00  0.00    -0.550 OA
ENDBRANCH   3   4
ENDBRANCH   2   3
ENDBRANCH   1   2
BRANCH   1   7
ATOM      7  C   UNL     1     -12.438  13.071   9.927  1.00  0.00     0.000 C 
BRANCH   7   8
ATOM      8  C   UNL     1     -12.443  14.528   9.438  1.00  0.00    -0.000 C 
BRANCH   8   9
ATOM      9  C   UNL     1     -13.139  14.701   8.075  1.00  0.00    -0.000 C 
BRANCH   9  10
ATOM     10  C   UNL     1     -13.952  13.483   7.599  1.00  0.00    -0.003 C 
ATOM     11  C   UNL     1     -14.822  13.784   6.379  1.00  0.00     0.004 C 
ENDBRANCH   9  10
ENDBRANCH   8   9
ENDBRANCH   7   8
ENDBRANCH   1   7
TORSDOF 7
ENDMDL
MODEL 7
REMARK VINA RESULT:    -3.283      3.723      5.495
REMARK INTER + INTRA:          -4.901
REMARK INTER:                  -4.259
REMARK INTRA:                  -0.642
REMARK UNBOUND:                -0.275
REMARK SMILES CCCCCCCCC(=O)[O-]
REMARK SMILES IDX 6 1 7 2 8 3 9 4 10 5 11 6 5 7 4 8 3 9 2 10 1 11
REMARK H PARENT
REMARK Flexibility Score: inf
ROOT
ATOM      1  C   UNL     1     -14.347  -4.237  -2.651  1.00  0.00     0.000 C 
ENDROOT
BRANCH   1   2
ATOM      2  C   UNL     1     -15.707  -4.932  -2.428  1.00  0.00     0.006 C 
BRANCH   2   3
ATOM      3  C   UNL     1     -16.840  -4.251  -3.207  1.00  0.00     0.053 C 
BRANCH   3   4
ATOM      4  C   UNL     1     -16.730  -2.763  -3.100  1.00  0.00     0.041 C 
ATOM      5  O   UNL     1     -16.520  -2.067  -4.128  1.00  0.00    -0.550 OA
ATOM      6  O   UNL     1     -16.812  -2.148  -1.857  1.00  0.00    -0.550 OA
ENDBRANCH   3   4
ENDBRANCH   2   3
ENDBRANCH   1   2
BRANCH   1   7
ATOM      7  C   UNL     1     -13.310  -5.125  -3.361  1.00  0.00     0.000 C 
BRANCH   7   8
ATOM      8  C   UNL     1     -12.836  -4.533  -4.698  1.00  0.00    -0.000 C 
BRANCH   8   9
ATOM      9  C   UNL     1     -13.715  -4.961  -5.888  1.00  0.00    -0.000 C 
BRANCH   9  10
ATOM     10  C   UNL     1     -14.750  -3.916  -6.343  1.00  0.00    -0.003 C 
ATOM     11  C   UNL     1     -16.063  -4.539  -6.816  1.00  0.00     0.004 C 
ENDBRANCH   9  10
ENDBRANCH   8   9
ENDBRANCH   7   8
ENDBRANCH   1   7
TORSDOF 7
ENDMDL
MODEL 8
REMARK VINA RESULT:    -3.147      3.938      6.389
REMARK INTER + INTRA:          -4.710
REMARK INTER:                  -4.321
REMARK INTRA:                  -0.390
REMARK UNBOUND:                -0.275
REMARK SMILES CCCCCCCCC(=O)[O-]
REMARK SMILES IDX 6 1 7 2 8 3 9 4 10 5 11 6 5 7 4 8 3 9 2 10 1 11
REMARK H PARENT
REMARK Flexibility Score: inf
ROOT
ATOM      1  C   UNL     1     -15.146  -2.404  -4.728  1.00  0.00     0.000 C 
ENDROOT
BRANCH   1   2
ATOM      2  C   UNL     1     -14.891  -3.348  -5.923  1.00  0.00     0.006 C 
BRANCH   2   3
ATOM      3  C   UNL     1     -14.510  -4.764  -5.470  1.00  0.00     0.053 C 
BRANCH   3   4
ATOM      4  C   UNL     1     -13.156  -4.765  -4.834  1.00  0.00     0.041 C 
ATOM      5  O   UNL     1     -12.121  -4.714  -5.550  1.00  0.00    -0.550 OA
ATOM      6  O   UNL     1     -13.036  -4.871  -3.455  1.00  0.00    -0.550 OA
ENDBRANCH   3   4
ENDBRANCH   2   3
ENDBRANCH   1   2
BRANCH   1   7
ATOM      7  C   UNL     1     -16.509  -2.623  -4.048  1.00  0.00     0.000 C 
BRANCH   7   8
ATOM      8  C   UNL     1     -16.383  -2.924  -2.546  1.00  0.00    -0.000 C 
BRANCH   8   9
ATOM      9  C   UNL     1     -17.031  -1.843  -1.662  1.00  0.00    -0.000 C 
BRANCH   9  10
ATOM     10  C   UNL     1     -17.006  -0.419  -2.247  1.00  0.00    -0.003 C 
ATOM     11  C   UNL     1     -16.688   0.653  -1.204  1.00  0.00     0.004 C 
ENDBRANCH   9  10
ENDBRANCH   8   9
ENDBRANCH   7   8
ENDBRANCH   1   7
TORSDOF 7
ENDMDL
