MODEL 1
REMARK VINA RESULT:    -5.866      0.000      0.000
REMARK INTER + INTRA:          -7.602
REMARK INTER:                  -7.238
REMARK INTRA:                  -0.364
REMARK UNBOUND:                -0.364
REMARK SMILES O=c1c(O)c(-c2cc(O)c(O)c(O)c2)oc2cc(O)cc(O)c12
REMARK SMILES IDX 5 1 3 2 2 3 1 4 23 5 21 6 20 7 18 8 17 9 16 10 15 11 6 12
REMARK SMILES IDX 7 13 8 14 14 15 10 16 12 17 9 18 11 20 13 22 4 24 22 26
REMARK SMILES IDX 19 28
REMARK H PARENT 9 19 11 21 13 23 4 25 22 27 19 29
REMARK Flexibility Score: inf
ROOT
ATOM      1  C   UNL     1      55.369 -41.265 -26.070  1.00  0.00     0.180 A 
ATOM      2  C   UNL     1      55.969 -42.535 -26.139  1.00  0.00     0.208 A 
ATOM      3  C   UNL     1      56.557 -42.946 -27.346  1.00  0.00     0.238 A 
ATOM      4  O   UNL     1      57.044 -44.104 -27.417  1.00  0.00    -0.285 OA
ATOM      5  C   UNL     1      56.551 -42.077 -28.464  1.00  0.00     0.111 A 
ATOM      6  C   UNL     1      57.152 -42.374 -29.724  1.00  0.00     0.134 A 
ATOM      7  C   UNL     1      56.973 -41.496 -30.799  1.00  0.00     0.093 A 
ATOM      8  C   UNL     1      56.269 -40.299 -30.642  1.00  0.00     0.123 A 
ATOM      9  C   UNL     1      55.729 -39.973 -29.400  1.00  0.00     0.094 A 
ATOM     10  C   UNL     1      55.861 -40.846 -28.318  1.00  0.00     0.146 A 
ATOM     11  O   UNL     1      55.321 -40.501 -27.155  1.00  0.00    -0.452 OA
ENDROOT
BRANCH   1  12
ATOM     12  C   UNL     1      54.751 -40.752 -24.826  1.00  0.00     0.029 A 
ATOM     13  C   UNL     1      53.386 -40.971 -24.591  1.00  0.00     0.062 A 
ATOM     14  C   UNL     1      52.765 -40.483 -23.436  1.00  0.00     0.162 A 
ATOM     15  C   UNL     1      55.490 -40.001 -23.900  1.00  0.00     0.062 A 
ATOM     16  C   UNL     1      53.522 -39.744 -22.496  1.00  0.00     0.200 A 
ATOM     17  C   UNL     1      54.882 -39.504 -22.740  1.00  0.00     0.162 A 
BRANCH  14  18
ATOM     18  O   UNL     1      51.406 -40.751 -23.266  1.00  0.00    -0.504 OA
ATOM     19  H   UNL     1      50.671 -40.316 -23.804  1.00  0.00     0.293 HD
ENDBRANCH  14  18
BRANCH  16  20
ATOM     20  O   UNL     1      52.966 -39.234 -21.320  1.00  0.00    -0.502 OA
ATOM     21  H   UNL     1      53.503 -38.975 -20.506  1.00  0.00     0.293 HD
ENDBRANCH  16  20
BRANCH  17  22
ATOM     22  O   UNL     1      55.625 -38.764 -21.822  1.00  0.00    -0.504 OA
ATOM     23  H   UNL     1      56.547 -38.409 -22.047  1.00  0.00     0.293 HD
ENDBRANCH  17  22
ENDBRANCH   1  12
BRANCH   2  24
ATOM     24  O   UNL     1      55.944 -43.385 -25.030  1.00  0.00    -0.502 OA
ATOM     25  H   UNL     1      55.920 -44.394 -25.118  1.00  0.00     0.293 HD
ENDBRANCH   2  24
BRANCH   6  26
ATOM     26  O   UNL     1      57.953 -43.496 -29.962  1.00  0.00    -0.507 OA
ATOM     27  H   UNL     1      58.135 -44.224 -29.289  1.00  0.00     0.293 HD
ENDBRANCH   6  26
BRANCH   8  28
ATOM     28  O   UNL     1      56.108 -39.423 -31.713  1.00  0.00    -0.508 OA
ATOM     29  H   UNL     1      56.810 -38.727 -31.939  1.00  0.00     0.293 HD
ENDBRANCH   8  28
TORSDOF 7
ENDMDL
MODEL 2
REMARK VINA RESULT:    -5.739     13.228     14.999
REMARK INTER + INTRA:          -7.445
REMARK INTER:                  -7.766
REMARK INTRA:                   0.321
REMARK UNBOUND:                -0.364
REMARK SMILES O=c1c(O)c(-c2cc(O)c(O)c(O)c2)oc2cc(O)cc(O)c12
REMARK SMILES IDX 5 1 3 2 2 3 1 4 23 5 21 6 20 7 18 8 17 9 16 10 15 11 6 12
REMARK SMILES IDX 7 13 8 14 14 15 10 16 12 17 9 18 11 20 13 22 4 24 22 26
REMARK SMILES IDX 19 28
REMARK H PARENT 9 19 11 21 13 23 4 25 22 27 19 29
REMARK Flexibility Score: inf
ROOT
ATOM      1  C   UNL     1      48.202 -29.140 -30.773  1.00  0.00     0.180 A 
ATOM      2  C   UNL     1      48.543 -28.443 -31.945  1.00  0.00     0.208 A 
ATOM      3  C   UNL     1      49.899 -28.292 -32.278  1.00  0.00     0.238 A 
ATOM      4  O   UNL     1      50.199 -27.621 -33.299  1.00  0.00    -0.285 OA
ATOM      5  C   UNL     1      50.895 -28.854 -31.444  1.00  0.00     0.111 A 
ATOM      6  C   UNL     1      52.297 -28.797 -31.706  1.00  0.00     0.134 A 
ATOM      7  C   UNL     1      53.199 -29.272 -30.746  1.00  0.00     0.093 A 
ATOM      8  C   UNL     1      52.748 -29.863 -29.563  1.00  0.00     0.123 A 
ATOM      9  C   UNL     1      51.380 -29.976 -29.326  1.00  0.00     0.094 A 
ATOM     10  C   UNL     1      50.456 -29.479 -30.248  1.00  0.00     0.146 A 
ATOM     11  O   UNL     1      49.162 -29.597 -29.977  1.00  0.00    -0.452 OA
ENDROOT
BRANCH   1  12
ATOM     12  C   UNL     1      46.795 -29.361 -30.369  1.00  0.00     0.029 A 
ATOM     13  C   UNL     1      46.469 -30.475 -29.582  1.00  0.00     0.062 A 
ATOM     14  C   UNL     1      45.147 -30.726 -29.199  1.00  0.00     0.162 A 
ATOM     15  C   UNL     1      45.768 -28.511 -30.805  1.00  0.00     0.062 A 
ATOM     16  C   UNL     1      44.118 -29.851 -29.625  1.00  0.00     0.200 A 
ATOM     17  C   UNL     1      44.439 -28.750 -30.432  1.00  0.00     0.162 A 
BRANCH  14  18
ATOM     18  O   UNL     1      44.901 -31.848 -28.404  1.00  0.00    -0.504 OA
ATOM     19  H   UNL     1      44.733 -31.811 -27.410  1.00  0.00     0.293 HD
ENDBRANCH  14  18
BRANCH  16  20
ATOM     20  O   UNL     1      42.780 -30.041 -29.274  1.00  0.00    -0.502 OA
ATOM     21  H   UNL     1      42.059 -29.346 -29.395  1.00  0.00     0.293 HD
ENDBRANCH  16  20
BRANCH  17  22
ATOM     22  O   UNL     1      43.426 -27.897 -30.864  1.00  0.00    -0.504 OA
ATOM     23  H   UNL     1      43.167 -27.071 -30.338  1.00  0.00     0.293 HD
ENDBRANCH  17  22
ENDBRANCH   1  12
BRANCH   2  24
ATOM     24  O   UNL     1      47.544 -27.878 -32.742  1.00  0.00    -0.502 OA
ATOM     25  H   UNL     1      47.314 -26.892 -32.708  1.00  0.00     0.293 HD
ENDBRANCH   2  24
BRANCH   6  26
ATOM     26  O   UNL     1      52.851 -28.312 -32.896  1.00  0.00    -0.507 OA
ATOM     27  H   UNL     1      52.592 -28.625 -33.818  1.00  0.00     0.293 HD
ENDBRANCH   6  26
BRANCH   8  28
ATOM     28  O   UNL     1      53.651 -30.348 -28.621  1.00  0.00    -0.508 OA
ATOM     29  H   UNL     1      53.365 -30.997 -27.897  1.00  0.00     0.293 HD
ENDBRANCH   8  28
TORSDOF 7
ENDMDL
MODEL 3
REMARK VINA RESULT:    -5.716     14.706     16.203
REMARK INTER + INTRA:          -7.417
REMARK INTER:                  -7.586
REMARK INTRA:                   0.169
REMARK UNBOUND:                -0.364
REMARK SMILES O=c1c(O)c(-c2cc(O)c(O)c(O)c2)oc2cc(O)cc(O)c12
REMARK SMILES IDX 5 1 3 2 2 3 1 4 23 5 21 6 20 7 18 8 17 9 16 10 15 11 6 12
REMARK SMILES IDX 7 13 8 14 14 15 10 16 12 17 9 18 11 20 13 22 4 24 22 26
REMARK SMILES IDX 19 28
REMARK H PARENT 9 19 11 21 13 23 4 25 22 27 19 29
REMARK Flexibility Score: inf
ROOT
ATOM      1  C   UNL     1      45.664 -29.283 -30.059  1.00  0.00     0.180 A 
ATOM      2  C   UNL     1      46.462 -29.794 -29.020  1.00  0.00     0.208 A 
ATOM      3  C   UNL     1      47.859 -29.735 -29.143  1.00  0.00     0.238 A 
ATOM      4  O   UNL     1      48.567 -30.243 -28.235  1.00  0.00    -0.285 OA
ATOM      5  C   UNL     1      48.441 -29.153 -30.295  1.00  0.00     0.111 A 
ATOM      6  C   UNL     1      49.845 -29.005 -30.506  1.00  0.00     0.134 A 
ATOM      7  C   UNL     1      50.312 -28.534 -31.739  1.00  0.00     0.093 A 
ATOM      8  C   UNL     1      49.424 -28.143 -32.744  1.00  0.00     0.123 A 
ATOM      9  C   UNL     1      48.051 -28.229 -32.525  1.00  0.00     0.094 A 
ATOM     10  C   UNL     1      47.555 -28.729 -31.318  1.00  0.00     0.146 A 
ATOM     11  O   UNL     1      46.240 -28.803 -31.155  1.00  0.00    -0.452 OA
ENDROOT
BRANCH   1  12
ATOM     12  C   UNL     1      44.185 -29.286 -29.991  1.00  0.00     0.029 A 
ATOM     13  C   UNL     1      43.468 -28.182 -30.474  1.00  0.00     0.062 A 
ATOM     14  C   UNL     1      42.071 -28.141 -30.407  1.00  0.00     0.162 A 
ATOM     15  C   UNL     1      43.484 -30.347 -29.399  1.00  0.00     0.062 A 
ATOM     16  C   UNL     1      41.369 -29.226 -29.828  1.00  0.00     0.200 A 
ATOM     17  C   UNL     1      42.085 -30.321 -29.323  1.00  0.00     0.162 A 
BRANCH  14  18
ATOM     18  O   UNL     1      41.427 -27.014 -30.920  1.00  0.00    -0.504 OA
ATOM     19  H   UNL     1      41.889 -26.287 -31.444  1.00  0.00     0.293 HD
ENDBRANCH  14  18
BRANCH  16  20
ATOM     20  O   UNL     1      39.976 -29.253 -29.735  1.00  0.00    -0.502 OA
ATOM     21  H   UNL     1      39.430 -28.580 -29.218  1.00  0.00     0.293 HD
ENDBRANCH  16  20
BRANCH  17  22
ATOM     22  O   UNL     1      41.395 -31.382 -28.739  1.00  0.00    -0.504 OA
ATOM     23  H   UNL     1      40.445 -31.610 -29.008  1.00  0.00     0.293 HD
ENDBRANCH  17  22
ENDBRANCH   1  12
BRANCH   2  24
ATOM     24  O   UNL     1      45.866 -30.384 -27.902  1.00  0.00    -0.502 OA
ATOM     25  H   UNL     1      46.359 -30.509 -27.026  1.00  0.00     0.293 HD
ENDBRANCH   2  24
BRANCH   6  26
ATOM     26  O   UNL     1      50.814 -29.278 -29.535  1.00  0.00    -0.507 OA
ATOM     27  H   UNL     1      51.407 -28.585 -29.105  1.00  0.00     0.293 HD
ENDBRANCH   6  26
BRANCH   8  28
ATOM     28  O   UNL     1      49.896 -27.660 -33.962  1.00  0.00    -0.508 OA
ATOM     29  H   UNL     1      49.862 -26.673 -34.190  1.00  0.00     0.293 HD
ENDBRANCH   8  28
TORSDOF 7
ENDMDL
MODEL 4
REMARK VINA RESULT:    -5.711     13.336     15.095
REMARK INTER + INTRA:          -7.411
REMARK INTER:                  -7.767
REMARK INTRA:                   0.356
REMARK UNBOUND:                -0.364
REMARK SMILES O=c1c(O)c(-c2cc(O)c(O)c(O)c2)oc2cc(O)cc(O)c12
REMARK SMILES IDX 5 1 3 2 2 3 1 4 23 5 21 6 20 7 18 8 17 9 16 10 15 11 6 12
REMARK SMILES IDX 7 13 8 14 14 15 10 16 12 17 9 18 11 20 13 22 4 24 22 26
REMARK SMILES IDX 19 28
REMARK H PARENT 9 19 11 21 13 23 4 25 22 27 19 29
REMARK Flexibility Score: inf
ROOT
ATOM      1  C   UNL     1      48.089 -29.133 -30.793  1.00  0.00     0.180 A 
ATOM      2  C   UNL     1      48.446 -28.461 -31.975  1.00  0.00     0.208 A 
ATOM      3  C   UNL     1      49.807 -28.300 -32.282  1.00  0.00     0.238 A 
ATOM      4  O   UNL     1      50.121 -27.651 -33.313  1.00  0.00    -0.285 OA
ATOM      5  C   UNL     1      50.792 -28.825 -31.411  1.00  0.00     0.111 A 
ATOM      6  C   UNL     1      52.199 -28.755 -31.643  1.00  0.00     0.134 A 
ATOM      7  C   UNL     1      53.085 -29.192 -30.651  1.00  0.00     0.093 A 
ATOM      8  C   UNL     1      52.615 -29.759 -29.464  1.00  0.00     0.123 A 
ATOM      9  C   UNL     1      51.244 -29.886 -29.254  1.00  0.00     0.094 A 
ATOM     10  C   UNL     1      50.334 -29.425 -30.209  1.00  0.00     0.146 A 
ATOM     11  O   UNL     1      49.037 -29.556 -29.964  1.00  0.00    -0.452 OA
ENDROOT
BRANCH   1  12
ATOM     12  C   UNL     1      46.676 -29.364 -30.415  1.00  0.00     0.029 A 
ATOM     13  C   UNL     1      45.685 -28.486 -30.877  1.00  0.00     0.062 A 
ATOM     14  C   UNL     1      44.343 -28.661 -30.523  1.00  0.00     0.162 A 
ATOM     15  C   UNL     1      46.312 -30.411 -29.556  1.00  0.00     0.062 A 
ATOM     16  C   UNL     1      43.979 -29.734 -29.674  1.00  0.00     0.200 A 
ATOM     17  C   UNL     1      44.972 -30.599 -29.191  1.00  0.00     0.162 A 
BRANCH  14  18
ATOM     18  O   UNL     1      43.411 -27.754 -31.031  1.00  0.00    -0.504 OA
ATOM     19  H   UNL     1      43.132 -27.712 -32.001  1.00  0.00     0.293 HD
ENDBRANCH  14  18
BRANCH  16  20
ATOM     20  O   UNL     1      42.658 -29.970 -29.286  1.00  0.00    -0.502 OA
ATOM     21  H   UNL     1      42.341 -30.819 -28.843  1.00  0.00     0.293 HD
ENDBRANCH  16  20
BRANCH  17  22
ATOM     22  O   UNL     1      44.617 -31.647 -28.343  1.00  0.00    -0.504 OA
ATOM     23  H   UNL     1      44.262 -32.525 -28.703  1.00  0.00     0.293 HD
ENDBRANCH  17  22
ENDBRANCH   1  12
BRANCH   2  24
ATOM     24  O   UNL     1      47.458 -27.932 -32.809  1.00  0.00    -0.502 OA
ATOM     25  H   UNL     1      47.586 -27.831 -33.809  1.00  0.00     0.293 HD
ENDBRANCH   2  24
BRANCH   6  26
ATOM     26  O   UNL     1      52.772 -28.293 -32.832  1.00  0.00    -0.507 OA
ATOM     27  H   UNL     1      52.255 -28.054 -33.664  1.00  0.00     0.293 HD
ENDBRANCH   6  26
BRANCH   8  28
ATOM     28  O   UNL     1      53.504 -30.206 -28.489  1.00  0.00    -0.508 OA
ATOM     29  H   UNL     1      53.216 -30.859 -27.769  1.00  0.00     0.293 HD
ENDBRANCH   8  28
TORSDOF 7
ENDMDL
MODEL 5
REMARK VINA RESULT:    -5.701     12.213     13.915
REMARK INTER + INTRA:          -7.398
REMARK INTER:                  -7.045
REMARK INTRA:                  -0.353
REMARK UNBOUND:                -0.364
REMARK SMILES O=c1c(O)c(-c2cc(O)c(O)c(O)c2)oc2cc(O)cc(O)c12
REMARK SMILES IDX 5 1 3 2 2 3 1 4 23 5 21 6 20 7 18 8 17 9 16 10 15 11 6 12
REMARK SMILES IDX 7 13 8 14 14 15 10 16 12 17 9 18 11 20 13 22 4 24 22 26
REMARK SMILES IDX 19 28
REMARK H PARENT 9 19 11 21 13 23 4 25 22 27 19 29
REMARK Flexibility Score: inf
ROOT
ATOM      1  C   UNL     1      47.509 -30.686 -29.416  1.00  0.00     0.180 A 
ATOM      2  C   UNL     1      46.501 -29.993 -30.110  1.00  0.00     0.208 A 
ATOM      3  C   UNL     1      46.870 -29.032 -31.065  1.00  0.00     0.238 A 
ATOM      4  O   UNL     1      45.964 -28.377 -31.643  1.00  0.00    -0.285 OA
ATOM      5  C   UNL     1      48.239 -28.788 -31.326  1.00  0.00     0.111 A 
ATOM      6  C   UNL     1      48.726 -27.866 -32.301  1.00  0.00     0.134 A 
ATOM      7  C   UNL     1      50.100 -27.609 -32.384  1.00  0.00     0.093 A 
ATOM      8  C   UNL     1      51.010 -28.290 -31.572  1.00  0.00     0.123 A 
ATOM      9  C   UNL     1      50.549 -29.235 -30.658  1.00  0.00     0.094 A 
ATOM     10  C   UNL     1      49.181 -29.487 -30.527  1.00  0.00     0.146 A 
ATOM     11  O   UNL     1      48.784 -30.387 -29.637  1.00  0.00    -0.452 OA
ENDROOT
BRANCH   1  12
ATOM     12  C   UNL     1      47.199 -31.730 -28.413  1.00  0.00     0.029 A 
ATOM     13  C   UNL     1      46.964 -33.046 -28.837  1.00  0.00     0.062 A 
ATOM     14  C   UNL     1      46.648 -34.054 -27.919  1.00  0.00     0.162 A 
ATOM     15  C   UNL     1      47.079 -31.421 -27.051  1.00  0.00     0.062 A 
ATOM     16  C   UNL     1      46.550 -33.739 -26.542  1.00  0.00     0.200 A 
ATOM     17  C   UNL     1      46.762 -32.419 -26.120  1.00  0.00     0.162 A 
BRANCH  14  18
ATOM     18  O   UNL     1      46.439 -35.343 -28.414  1.00  0.00    -0.504 OA
ATOM     19  H   UNL     1      46.786 -35.672 -29.303  1.00  0.00     0.293 HD
ENDBRANCH  14  18
BRANCH  16  20
ATOM     20  O   UNL     1      46.244 -34.697 -25.574  1.00  0.00    -0.502 OA
ATOM     21  H   UNL     1      46.141 -35.683 -25.765  1.00  0.00     0.293 HD
ENDBRANCH  16  20
BRANCH  17  22
ATOM     22  O   UNL     1      46.651 -32.105 -24.766  1.00  0.00    -0.504 OA
ATOM     23  H   UNL     1      47.315 -32.452 -24.084  1.00  0.00     0.293 HD
ENDBRANCH  17  22
ENDBRANCH   1  12
BRANCH   2  24
ATOM     24  O   UNL     1      45.156 -30.234 -29.820  1.00  0.00    -0.502 OA
ATOM     25  H   UNL     1      44.571 -30.821 -30.403  1.00  0.00     0.293 HD
ENDBRANCH   2  24
BRANCH   6  26
ATOM     26  O   UNL     1      47.911 -27.202 -33.224  1.00  0.00    -0.507 OA
ATOM     27  H   UNL     1      46.930 -27.390 -33.364  1.00  0.00     0.293 HD
ENDBRANCH   6  26
BRANCH   8  28
ATOM     28  O   UNL     1      52.377 -28.040 -31.671  1.00  0.00    -0.508 OA
ATOM     29  H   UNL     1      53.031 -28.769 -31.932  1.00  0.00     0.293 HD
ENDBRANCH   8  28
TORSDOF 7
ENDMDL
MODEL 6
REMARK VINA RESULT:    -5.664     12.086     13.845
REMARK INTER + INTRA:          -7.352
REMARK INTER:                  -7.015
REMARK INTRA:                  -0.337
REMARK UNBOUND:                -0.364
REMARK SMILES O=c1c(O)c(-c2cc(O)c(O)c(O)c2)oc2cc(O)cc(O)c12
REMARK SMILES IDX 5 1 3 2 2 3 1 4 23 5 21 6 20 7 18 8 17 9 16 10 15 11 6 12
REMARK SMILES IDX 7 13 8 14 14 15 10 16 12 17 9 18 11 20 13 22 4 24 22 26
REMARK SMILES IDX 19 28
REMARK H PARENT 9 19 11 21 13 23 4 25 22 27 19 29
REMARK Flexibility Score: inf
ROOT
ATOM      1  C   UNL     1      47.550 -30.834 -29.282  1.00  0.00     0.180 A 
ATOM      2  C   UNL     1      46.480 -30.158 -29.895  1.00  0.00     0.208 A 
ATOM      3  C   UNL     1      46.757 -29.147 -30.829  1.00  0.00     0.238 A 
ATOM      4  O   UNL     1      45.796 -28.510 -31.332  1.00  0.00    -0.285 OA
ATOM      5  C   UNL     1      48.100 -28.836 -31.152  1.00  0.00     0.111 A 
ATOM      6  C   UNL     1      48.497 -27.859 -32.113  1.00  0.00     0.134 A 
ATOM      7  C   UNL     1      49.853 -27.542 -32.258  1.00  0.00     0.093 A 
ATOM      8  C   UNL     1      50.832 -28.214 -31.521  1.00  0.00     0.123 A 
ATOM      9  C   UNL     1      50.458 -29.211 -30.623  1.00  0.00     0.094 A 
ATOM     10  C   UNL     1      49.111 -29.525 -30.431  1.00  0.00     0.146 A 
ATOM     11  O   UNL     1      48.798 -30.473 -29.557  1.00  0.00    -0.452 OA
ENDROOT
BRANCH   1  12
ATOM     12  C   UNL     1      47.337 -31.927 -28.307  1.00  0.00     0.029 A 
ATOM     13  C   UNL     1      47.529 -31.680 -26.940  1.00  0.00     0.062 A 
ATOM     14  C   UNL     1      47.356 -32.694 -25.992  1.00  0.00     0.162 A 
ATOM     15  C   UNL     1      47.001 -33.223 -28.725  1.00  0.00     0.062 A 
ATOM     16  C   UNL     1      46.995 -33.995 -26.419  1.00  0.00     0.200 A 
ATOM     17  C   UNL     1      46.826 -34.250 -27.788  1.00  0.00     0.162 A 
BRANCH  14  18
ATOM     18  O   UNL     1      47.553 -32.370 -24.648  1.00  0.00    -0.504 OA
ATOM     19  H   UNL     1      48.355 -31.867 -24.299  1.00  0.00     0.293 HD
ENDBRANCH  14  18
BRANCH  16  20
ATOM     20  O   UNL     1      46.802 -35.051 -25.526  1.00  0.00    -0.502 OA
ATOM     21  H   UNL     1      46.516 -35.979 -25.799  1.00  0.00     0.293 HD
ENDBRANCH  16  20
BRANCH  17  22
ATOM     22  O   UNL     1      46.486 -35.534 -28.211  1.00  0.00    -0.504 OA
ATOM     23  H   UNL     1      47.184 -36.180 -28.561  1.00  0.00     0.293 HD
ENDBRANCH  17  22
ENDBRANCH   1  12
BRANCH   2  24
ATOM     24  O   UNL     1      45.162 -30.466 -29.545  1.00  0.00    -0.502 OA
ATOM     25  H   UNL     1      44.622 -29.897 -28.905  1.00  0.00     0.293 HD
ENDBRANCH   2  24
BRANCH   6  26
ATOM     26  O   UNL     1      47.607 -27.196 -32.966  1.00  0.00    -0.507 OA
ATOM     27  H   UNL     1      47.755 -27.056 -33.953  1.00  0.00     0.293 HD
ENDBRANCH   6  26
BRANCH   8  28
ATOM     28  O   UNL     1      52.180 -27.904 -31.682  1.00  0.00    -0.508 OA
ATOM     29  H   UNL     1      52.586 -27.763 -32.601  1.00  0.00     0.293 HD
ENDBRANCH   8  28
TORSDOF 7
ENDMDL
MODEL 7
REMARK VINA RESULT:    -5.634     14.735     16.211
REMARK INTER + INTRA:          -7.316
REMARK INTER:                  -7.501
REMARK INTRA:                   0.185
REMARK UNBOUND:                -0.364
REMARK SMILES O=c1c(O)c(-c2cc(O)c(O)c(O)c2)oc2cc(O)cc(O)c12
REMARK SMILES IDX 5 1 3 2 2 3 1 4 23 5 21 6 20 7 18 8 17 9 16 10 15 11 6 12
REMARK SMILES IDX 7 13 8 14 14 15 10 16 12 17 9 18 11 20 13 22 4 24 22 26
REMARK SMILES IDX 19 28
REMARK H PARENT 9 19 11 21 13 23 4 25 22 27 19 29
REMARK Flexibility Score: inf
ROOT
ATOM      1  C   UNL     1      45.643 -29.210 -30.023  1.00  0.00     0.180 A 
ATOM      2  C   UNL     1      46.447 -29.741 -28.999  1.00  0.00     0.208 A 
ATOM      3  C   UNL     1      47.844 -29.710 -29.145  1.00  0.00     0.238 A 
ATOM      4  O   UNL     1      48.555 -30.235 -28.250  1.00  0.00    -0.285 OA
ATOM      5  C   UNL     1      48.418 -29.135 -30.304  1.00  0.00     0.111 A 
ATOM      6  C   UNL     1      49.821 -29.014 -30.538  1.00  0.00     0.134 A 
ATOM      7  C   UNL     1      50.277 -28.547 -31.776  1.00  0.00     0.093 A 
ATOM      8  C   UNL     1      49.380 -28.135 -32.765  1.00  0.00     0.123 A 
ATOM      9  C   UNL     1      48.010 -28.194 -32.524  1.00  0.00     0.094 A 
ATOM     10  C   UNL     1      47.524 -28.689 -31.311  1.00  0.00     0.146 A 
ATOM     11  O   UNL     1      46.210 -28.738 -31.127  1.00  0.00    -0.452 OA
ENDROOT
BRANCH   1  12
ATOM     12  C   UNL     1      44.166 -29.183 -29.930  1.00  0.00     0.029 A 
ATOM     13  C   UNL     1      43.489 -30.276 -29.369  1.00  0.00     0.062 A 
ATOM     14  C   UNL     1      42.093 -30.295 -29.283  1.00  0.00     0.162 A 
ATOM     15  C   UNL     1      43.420 -28.112 -30.444  1.00  0.00     0.062 A 
ATOM     16  C   UNL     1      41.348 -29.200 -29.785  1.00  0.00     0.200 A 
ATOM     17  C   UNL     1      42.022 -28.116 -30.368  1.00  0.00     0.162 A 
BRANCH  14  18
ATOM     18  O   UNL     1      41.491 -31.411 -28.701  1.00  0.00    -0.504 OA
ATOM     19  H   UNL     1      40.522 -31.451 -28.421  1.00  0.00     0.293 HD
ENDBRANCH  14  18
BRANCH  16  20
ATOM     20  O   UNL     1      39.954 -29.152 -29.726  1.00  0.00    -0.502 OA
ATOM     21  H   UNL     1      39.360 -29.966 -29.700  1.00  0.00     0.293 HD
ENDBRANCH  16  20
BRANCH  17  22
ATOM     22  O   UNL     1      41.289 -27.045 -30.875  1.00  0.00    -0.504 OA
ATOM     23  H   UNL     1      40.932 -27.047 -31.824  1.00  0.00     0.293 HD
ENDBRANCH  17  22
ENDBRANCH   1  12
BRANCH   2  24
ATOM     24  O   UNL     1      45.858 -30.323 -27.873  1.00  0.00    -0.502 OA
ATOM     25  H   UNL     1      44.888 -30.170 -27.627  1.00  0.00     0.293 HD
ENDBRANCH   2  24
BRANCH   6  26
ATOM     26  O   UNL     1      50.800 -29.310 -29.584  1.00  0.00    -0.507 OA
ATOM     27  H   UNL     1      50.829 -30.155 -29.034  1.00  0.00     0.293 HD
ENDBRANCH   6  26
BRANCH   8  28
ATOM     28  O   UNL     1      49.842 -27.657 -33.989  1.00  0.00    -0.508 OA
ATOM     29  H   UNL     1      49.547 -28.070 -34.866  1.00  0.00     0.293 HD
ENDBRANCH   8  28
TORSDOF 7
ENDMDL
MODEL 8
REMARK VINA RESULT:    -5.605     12.135     14.718
REMARK INTER + INTRA:          -7.280
REMARK INTER:                  -6.918
REMARK INTRA:                  -0.362
REMARK UNBOUND:                -0.364
REMARK SMILES O=c1c(O)c(-c2cc(O)c(O)c(O)c2)oc2cc(O)cc(O)c12
REMARK SMILES IDX 5 1 3 2 2 3 1 4 23 5 21 6 20 7 18 8 17 9 16 10 15 11 6 12
REMARK SMILES IDX 7 13 8 14 14 15 10 16 12 17 9 18 11 20 13 22 4 24 22 26
REMARK SMILES IDX 19 28
REMARK H PARENT 9 19 11 21 13 23 4 25 22 27 19 29
REMARK Flexibility Score: inf
ROOT
ATOM      1  C   UNL     1      47.126 -30.635 -28.758  1.00  0.00     0.180 A 
ATOM      2  C   UNL     1      46.949 -30.110 -27.465  1.00  0.00     0.208 A 
ATOM      3  C   UNL     1      46.724 -30.993 -26.396  1.00  0.00     0.238 A 
ATOM      4  O   UNL     1      46.513 -30.514 -25.252  1.00  0.00    -0.285 OA
ATOM      5  C   UNL     1      46.696 -32.389 -26.630  1.00  0.00     0.111 A 
ATOM      6  C   UNL     1      46.516 -33.376 -25.616  1.00  0.00     0.134 A 
ATOM      7  C   UNL     1      46.373 -34.721 -25.978  1.00  0.00     0.093 A 
ATOM      8  C   UNL     1      46.470 -35.122 -27.313  1.00  0.00     0.123 A 
ATOM      9  C   UNL     1      46.704 -34.171 -28.304  1.00  0.00     0.094 A 
ATOM     10  C   UNL     1      46.815 -32.818 -27.977  1.00  0.00     0.146 A 
ATOM     11  O   UNL     1      47.027 -31.945 -28.954  1.00  0.00    -0.452 OA
ENDROOT
BRANCH   1  12
ATOM     12  C   UNL     1      47.392 -29.770 -29.929  1.00  0.00     0.029 A 
ATOM     13  C   UNL     1      46.316 -29.276 -30.682  1.00  0.00     0.062 A 
ATOM     14  C   UNL     1      46.531 -28.473 -31.807  1.00  0.00     0.162 A 
ATOM     15  C   UNL     1      48.701 -29.479 -30.340  1.00  0.00     0.062 A 
ATOM     16  C   UNL     1      47.855 -28.165 -32.203  1.00  0.00     0.200 A 
ATOM     17  C   UNL     1      48.932 -28.678 -31.466  1.00  0.00     0.162 A 
BRANCH  14  18
ATOM     18  O   UNL     1      45.410 -28.009 -32.498  1.00  0.00    -0.504 OA
ATOM     19  H   UNL     1      45.451 -27.533 -33.388  1.00  0.00     0.293 HD
ENDBRANCH  14  18
BRANCH  16  20
ATOM     20  O   UNL     1      48.139 -27.365 -33.311  1.00  0.00    -0.502 OA
ATOM     21  H   UNL     1      48.940 -26.755 -33.379  1.00  0.00     0.293 HD
ENDBRANCH  16  20
BRANCH  17  22
ATOM     22  O   UNL     1      50.236 -28.387 -31.863  1.00  0.00    -0.504 OA
ATOM     23  H   UNL     1      50.990 -29.053 -31.739  1.00  0.00     0.293 HD
ENDBRANCH  17  22
ENDBRANCH   1  12
BRANCH   2  24
ATOM     24  O   UNL     1      46.959 -28.728 -27.261  1.00  0.00    -0.502 OA
ATOM     25  H   UNL     1      46.532 -28.079 -27.911  1.00  0.00     0.293 HD
ENDBRANCH   2  24
BRANCH   6  26
ATOM     26  O   UNL     1      46.498 -33.094 -24.245  1.00  0.00    -0.507 OA
ATOM     27  H   UNL     1      46.264 -32.198 -23.847  1.00  0.00     0.293 HD
ENDBRANCH   6  26
BRANCH   8  28
ATOM     28  O   UNL     1      46.343 -36.464 -27.663  1.00  0.00    -0.508 OA
ATOM     29  H   UNL     1      46.843 -37.191 -27.165  1.00  0.00     0.293 HD
ENDBRANCH   8  28
TORSDOF 7
ENDMDL
MODEL 9
REMARK VINA RESULT:    -5.596     14.804     16.952
REMARK INTER + INTRA:          -7.269
REMARK INTER:                  -7.189
REMARK INTRA:                  -0.079
REMARK UNBOUND:                -0.364
REMARK SMILES O=c1c(O)c(-c2cc(O)c(O)c(O)c2)oc2cc(O)cc(O)c12
REMARK SMILES IDX 5 1 3 2 2 3 1 4 23 5 21 6 20 7 18 8 17 9 16 10 15 11 6 12
REMARK SMILES IDX 7 13 8 14 14 15 10 16 12 17 9 18 11 20 13 22 4 24 22 26
REMARK SMILES IDX 19 28
REMARK H PARENT 9 19 11 21 13 23 4 25 22 27 19 29
REMARK Flexibility Score: inf
ROOT
ATOM      1  C   UNL     1      46.838 -28.769 -30.559  1.00  0.00     0.180 A 
ATOM      2  C   UNL     1      46.737 -29.542 -29.389  1.00  0.00     0.208 A 
ATOM      3  C   UNL     1      45.472 -29.996 -28.980  1.00  0.00     0.238 A 
ATOM      4  O   UNL     1      45.382 -30.641 -27.903  1.00  0.00    -0.285 OA
ATOM      5  C   UNL     1      44.328 -29.685 -29.753  1.00  0.00     0.111 A 
ATOM      6  C   UNL     1      43.004 -30.126 -29.454  1.00  0.00     0.134 A 
ATOM      7  C   UNL     1      41.929 -29.651 -30.215  1.00  0.00     0.093 A 
ATOM      8  C   UNL     1      42.138 -28.801 -31.305  1.00  0.00     0.123 A 
ATOM      9  C   UNL     1      43.433 -28.413 -31.640  1.00  0.00     0.094 A 
ATOM     10  C   UNL     1      44.522 -28.842 -30.878  1.00  0.00     0.146 A 
ATOM     11  O   UNL     1      45.738 -28.439 -31.226  1.00  0.00    -0.452 OA
ENDROOT
BRANCH   1  12
ATOM     12  C   UNL     1      48.138 -28.276 -31.067  1.00  0.00     0.029 A 
ATOM     13  C   UNL     1      48.939 -27.469 -30.247  1.00  0.00     0.062 A 
ATOM     14  C   UNL     1      50.164 -26.968 -30.701  1.00  0.00     0.162 A 
ATOM     15  C   UNL     1      48.563 -28.552 -32.375  1.00  0.00     0.062 A 
ATOM     16  C   UNL     1      50.597 -27.269 -32.016  1.00  0.00     0.200 A 
ATOM     17  C   UNL     1      49.786 -28.057 -32.846  1.00  0.00     0.162 A 
BRANCH  14  18
ATOM     18  O   UNL     1      50.912 -26.181 -29.824  1.00  0.00    -0.504 OA
ATOM     19  H   UNL     1      51.869 -25.904 -29.987  1.00  0.00     0.293 HD
ENDBRANCH  14  18
BRANCH  16  20
ATOM     20  O   UNL     1      51.810 -26.807 -32.530  1.00  0.00    -0.502 OA
ATOM     21  H   UNL     1      51.916 -26.388 -33.442  1.00  0.00     0.293 HD
ENDBRANCH  16  20
BRANCH  17  22
ATOM     22  O   UNL     1      50.204 -28.342 -34.144  1.00  0.00    -0.504 OA
ATOM     23  H   UNL     1      50.974 -28.975 -34.328  1.00  0.00     0.293 HD
ENDBRANCH  17  22
ENDBRANCH   1  12
BRANCH   2  24
ATOM     24  O   UNL     1      47.876 -29.819 -28.629  1.00  0.00    -0.502 OA
ATOM     25  H   UNL     1      48.490 -29.091 -28.285  1.00  0.00     0.293 HD
ENDBRANCH   2  24
BRANCH   6  26
ATOM     26  O   UNL     1      42.696 -31.046 -28.446  1.00  0.00    -0.507 OA
ATOM     27  H   UNL     1      41.882 -30.996 -27.853  1.00  0.00     0.293 HD
ENDBRANCH   6  26
BRANCH   8  28
ATOM     28  O   UNL     1      41.065 -28.345 -32.066  1.00  0.00    -0.508 OA
ATOM     29  H   UNL     1      40.425 -27.642 -31.714  1.00  0.00     0.293 HD
ENDBRANCH   8  28
TORSDOF 7
ENDMDL
