MODEL 1
REMARK VINA RESULT:    -3.600      0.000      0.000
REMARK INTER + INTRA:          -5.389
REMARK INTER:                  -5.073
REMARK INTRA:                  -0.316
REMARK UNBOUND:                -0.316
REMARK SMILES CCCCCCCCC(=O)[O-]
REMARK SMILES IDX 6 1 7 2 8 3 9 4 10 5 11 6 5 7 4 8 3 9 2 10 1 11
REMARK H PARENT
REMARK Flexibility Score: inf
ROOT
ATOM      1  C   UNL     1      57.192  29.670  51.077  1.00  0.00     0.000 C 
ENDROOT
BRANCH   1   2
ATOM      2  C   UNL     1      57.856  28.472  50.385  1.00  0.00     0.006 C 
BRANCH   2   3
ATOM      3  C   UNL     1      59.264  28.829  49.900  1.00  0.00     0.053 C 
BRANCH   3   4
ATOM      4  C   UNL     1      60.114  27.601  49.811  1.00  0.00     0.041 C 
ATOM      5  O   UNL     1      61.366  27.702  49.728  1.00  0.00    -0.550 OA
ATOM      6  O   UNL     1      59.527  26.343  49.868  1.00  0.00    -0.550 OA
ENDBRANCH   3   4
ENDBRANCH   2   3
ENDBRANCH   1   2
BRANCH   1   7
ATOM      7  C   UNL     1      55.670  29.485  51.154  1.00  0.00     0.000 C 
BRANCH   7   8
ATOM      8  C   UNL     1      55.222  28.074  50.739  1.00  0.00    -0.000 C 
BRANCH   8   9
ATOM      9  C   UNL     1      53.785  28.046  50.189  1.00  0.00    -0.000 C 
BRANCH   9  10
ATOM     10  C   UNL     1      53.304  26.622  49.874  1.00  0.00    -0.003 C 
ATOM     11  C   UNL     1      54.457  25.633  49.707  1.00  0.00     0.004 C 
ENDBRANCH   9  10
ENDBRANCH   8   9
ENDBRANCH   7   8
ENDBRANCH   1   7
TORSDOF 7
ENDMDL
MODEL 2
REMARK VINA RESULT:    -3.557      0.798      1.353
REMARK INTER + INTRA:          -5.328
REMARK INTER:                  -4.790
REMARK INTRA:                  -0.538
REMARK UNBOUND:                -0.316
REMARK SMILES CCCCCCCCC(=O)[O-]
REMARK SMILES IDX 6 1 7 2 8 3 9 4 10 5 11 6 5 7 4 8 3 9 2 10 1 11
REMARK H PARENT
REMARK Flexibility Score: inf
ROOT
ATOM      1  C   UNL     1      57.118  30.021  50.923  1.00  0.00     0.000 C 
ENDROOT
BRANCH   1   2
ATOM      2  C   UNL     1      57.967  28.744  50.880  1.00  0.00     0.006 C 
BRANCH   2   3
ATOM      3  C   UNL     1      59.019  28.821  49.770  1.00  0.00     0.053 C 
BRANCH   3   4
ATOM      4  C   UNL     1      59.886  27.601  49.785  1.00  0.00     0.041 C 
ATOM      5  O   UNL     1      59.367  26.455  49.755  1.00  0.00    -0.550 OA
ATOM      6  O   UNL     1      61.270  27.731  49.785  1.00  0.00    -0.550 OA
ENDBRANCH   3   4
ENDBRANCH   2   3
ENDBRANCH   1   2
BRANCH   1   7
ATOM      7  C   UNL     1      55.621  29.688  50.851  1.00  0.00     0.000 C 
BRANCH   7   8
ATOM      8  C   UNL     1      55.308  28.260  51.324  1.00  0.00    -0.000 C 
BRANCH   8   9
ATOM      9  C   UNL     1      54.453  27.475  50.314  1.00  0.00    -0.000 C 
BRANCH   9  10
ATOM     10  C   UNL     1      55.029  26.084  50.011  1.00  0.00    -0.003 C 
ATOM     11  C   UNL     1      56.095  25.655  51.018  1.00  0.00     0.004 C 
ENDBRANCH   9  10
ENDBRANCH   8   9
ENDBRANCH   7   8
ENDBRANCH   1   7
TORSDOF 7
ENDMDL
MODEL 3
REMARK VINA RESULT:    -3.415      3.176      5.305
REMARK INTER + INTRA:          -5.128
REMARK INTER:                  -4.611
REMARK INTRA:                  -0.517
REMARK UNBOUND:                -0.316
REMARK SMILES CCCCCCCCC(=O)[O-]
REMARK SMILES IDX 6 1 7 2 8 3 9 4 10 5 11 6 5 7 4 8 3 9 2 10 1 11
REMARK H PARENT
REMARK Flexibility Score: inf
ROOT
ATOM      1  C   UNL     1      55.554  26.092  50.273  1.00  0.00     0.000 C 
ENDROOT
BRANCH   1   2
ATOM      2  C   UNL     1      54.693  27.360  50.328  1.00  0.00     0.006 C 
BRANCH   2   3
ATOM      3  C   UNL     1      55.500  28.551  50.853  1.00  0.00     0.053 C 
BRANCH   3   4
ATOM      4  C   UNL     1      54.684  29.804  50.791  1.00  0.00     0.041 C 
ATOM      5  O   UNL     1      55.251  30.927  50.732  1.00  0.00    -0.550 OA
ATOM      6  O   UNL     1      53.297  29.730  50.751  1.00  0.00    -0.550 OA
ENDBRANCH   3   4
ENDBRANCH   2   3
ENDBRANCH   1   2
BRANCH   1   7
ATOM      7  C   UNL     1      56.790  26.227  51.174  1.00  0.00     0.000 C 
BRANCH   7   8
ATOM      8  C   UNL     1      58.096  25.875  50.444  1.00  0.00    -0.000 C 
BRANCH   8   9
ATOM      9  C   UNL     1      59.266  26.789  50.849  1.00  0.00    -0.000 C 
BRANCH   9  10
ATOM     10  C   UNL     1      59.694  27.733  49.716  1.00  0.00    -0.003 C 
ATOM     11  C   UNL     1      59.008  29.097  49.792  1.00  0.00     0.004 C 
ENDBRANCH   9  10
ENDBRANCH   8   9
ENDBRANCH   7   8
ENDBRANCH   1   7
TORSDOF 7
ENDMDL
MODEL 4
REMARK VINA RESULT:    -3.378      1.634      2.563
REMARK INTER + INTRA:          -5.077
REMARK INTER:                  -4.698
REMARK INTRA:                  -0.379
REMARK UNBOUND:                -0.316
REMARK SMILES CCCCCCCCC(=O)[O-]
REMARK SMILES IDX 6 1 7 2 8 3 9 4 10 5 11 6 5 7 4 8 3 9 2 10 1 11
REMARK H PARENT
REMARK Flexibility Score: inf
ROOT
ATOM      1  C   UNL     1      58.937  29.005  49.730  1.00  0.00     0.000 C 
ENDROOT
BRANCH   1   2
ATOM      2  C   UNL     1      59.717  27.685  49.712  1.00  0.00     0.006 C 
BRANCH   2   3
ATOM      3  C   UNL     1      59.519  26.911  51.018  1.00  0.00     0.053 C 
BRANCH   3   4
ATOM      4  C   UNL     1      58.834  25.607  50.755  1.00  0.00     0.041 C 
ATOM      5  O   UNL     1      59.487  24.531  50.783  1.00  0.00    -0.550 OA
ATOM      6  O   UNL     1      57.464  25.575  50.524  1.00  0.00    -0.550 OA
ENDBRANCH   3   4
ENDBRANCH   2   3
ENDBRANCH   1   2
BRANCH   1   7
ATOM      7  C   UNL     1      58.002  29.075  50.946  1.00  0.00     0.000 C 
BRANCH   7   8
ATOM      8  C   UNL     1      56.814  30.025  50.726  1.00  0.00    -0.000 C 
BRANCH   8   9
ATOM      9  C   UNL     1      55.493  29.460  51.277  1.00  0.00    -0.000 C 
BRANCH   9  10
ATOM     10  C   UNL     1      55.121  28.112  50.642  1.00  0.00    -0.003 C 
ATOM     11  C   UNL     1      53.666  28.060  50.177  1.00  0.00     0.004 C 
ENDBRANCH   9  10
ENDBRANCH   8   9
ENDBRANCH   7   8
ENDBRANCH   1   7
TORSDOF 7
ENDMDL
MODEL 5
REMARK VINA RESULT:    -3.321      1.625      3.107
REMARK INTER + INTRA:          -4.996
REMARK INTER:                  -4.568
REMARK INTRA:                  -0.429
REMARK UNBOUND:                -0.316
REMARK SMILES CCCCCCCCC(=O)[O-]
REMARK SMILES IDX 6 1 7 2 8 3 9 4 10 5 11 6 5 7 4 8 3 9 2 10 1 11
REMARK H PARENT
REMARK Flexibility Score: inf
ROOT
ATOM      1  C   UNL     1      55.216  25.997  50.027  1.00  0.00     0.000 C 
ENDROOT
BRANCH   1   2
ATOM      2  C   UNL     1      56.446  25.645  50.874  1.00  0.00     0.006 C 
BRANCH   2   3
ATOM      3  C   UNL     1      57.517  26.735  50.767  1.00  0.00     0.053 C 
BRANCH   3   4
ATOM      4  C   UNL     1      58.831  26.139  50.369  1.00  0.00     0.041 C 
ATOM      5  O   UNL     1      59.672  26.828  49.734  1.00  0.00    -0.550 OA
ATOM      6  O   UNL     1      59.146  24.839  50.742  1.00  0.00    -0.550 OA
ENDBRANCH   3   4
ENDBRANCH   2   3
ENDBRANCH   1   2
BRANCH   1   7
ATOM      7  C   UNL     1      54.185  26.778  50.854  1.00  0.00     0.000 C 
BRANCH   7   8
ATOM      8  C   UNL     1      53.363  27.758  50.002  1.00  0.00    -0.000 C 
BRANCH   8   9
ATOM      9  C   UNL     1      53.546  29.222  50.442  1.00  0.00    -0.000 C 
BRANCH   9  10
ATOM     10  C   UNL     1      54.971  29.514  50.934  1.00  0.00    -0.003 C 
ATOM     11  C   UNL     1      55.322  31.000  50.877  1.00  0.00     0.004 C 
ENDBRANCH   9  10
ENDBRANCH   8   9
ENDBRANCH   7   8
ENDBRANCH   1   7
TORSDOF 7
ENDMDL
MODEL 6
REMARK VINA RESULT:    -3.307      3.226      5.295
REMARK INTER + INTRA:          -4.977
REMARK INTER:                  -4.482
REMARK INTRA:                  -0.495
REMARK UNBOUND:                -0.316
REMARK SMILES CCCCCCCCC(=O)[O-]
REMARK SMILES IDX 6 1 7 2 8 3 9 4 10 5 11 6 5 7 4 8 3 9 2 10 1 11
REMARK H PARENT
REMARK Flexibility Score: inf
ROOT
ATOM      1  C   UNL     1      56.270  27.942  52.013  1.00  0.00     0.000 C 
ENDROOT
BRANCH   1   2
ATOM      2  C   UNL     1      55.466  27.762  50.719  1.00  0.00     0.006 C 
BRANCH   2   3
ATOM      3  C   UNL     1      55.452  26.295  50.280  1.00  0.00     0.053 C 
BRANCH   3   4
ATOM      4  C   UNL     1      54.065  25.874  49.906  1.00  0.00     0.041 C 
ATOM      5  O   UNL     1      53.200  26.739  49.607  1.00  0.00    -0.550 OA
ATOM      6  O   UNL     1      53.742  24.525  49.840  1.00  0.00    -0.550 OA
ENDBRANCH   3   4
ENDBRANCH   2   3
ENDBRANCH   1   2
BRANCH   1   7
ATOM      7  C   UNL     1      57.750  28.210  51.708  1.00  0.00     0.000 C 
BRANCH   7   8
ATOM      8  C   UNL     1      57.950  29.361  50.709  1.00  0.00    -0.000 C 
BRANCH   8   9
ATOM      9  C   UNL     1      59.028  29.050  49.656  1.00  0.00    -0.000 C 
BRANCH   9  10
ATOM     10  C   UNL     1      59.576  27.621  49.779  1.00  0.00    -0.003 C 
ATOM     11  C   UNL     1      61.084  27.586  50.028  1.00  0.00     0.004 C 
ENDBRANCH   9  10
ENDBRANCH   8   9
ENDBRANCH   7   8
ENDBRANCH   1   7
TORSDOF 7
ENDMDL
MODEL 7
REMARK VINA RESULT:    -3.305      2.099      3.095
REMARK INTER + INTRA:          -4.973
REMARK INTER:                  -4.352
REMARK INTRA:                  -0.622
REMARK UNBOUND:                -0.316
REMARK SMILES CCCCCCCCC(=O)[O-]
REMARK SMILES IDX 6 1 7 2 8 3 9 4 10 5 11 6 5 7 4 8 3 9 2 10 1 11
REMARK H PARENT
REMARK Flexibility Score: inf
ROOT
ATOM      1  C   UNL     1      59.634  26.532  50.751  1.00  0.00     0.000 C 
ENDROOT
BRANCH   1   2
ATOM      2  C   UNL     1      59.887  27.593  49.672  1.00  0.00     0.006 C 
BRANCH   2   3
ATOM      3  C   UNL     1      59.014  28.830  49.902  1.00  0.00     0.053 C 
BRANCH   3   4
ATOM      4  C   UNL     1      59.246  29.387  51.271  1.00  0.00     0.041 C 
ATOM      5  O   UNL     1      60.370  29.865  51.579  1.00  0.00    -0.550 OA
ATOM      6  O   UNL     1      58.207  29.423  52.192  1.00  0.00    -0.550 OA
ENDBRANCH   3   4
ENDBRANCH   2   3
ENDBRANCH   1   2
BRANCH   1   7
ATOM      7  C   UNL     1      58.422  25.661  50.393  1.00  0.00     0.000 C 
BRANCH   7   8
ATOM      8  C   UNL     1      57.207  25.939  51.292  1.00  0.00    -0.000 C 
BRANCH   8   9
ATOM      9  C   UNL     1      55.942  26.287  50.487  1.00  0.00    -0.000 C 
BRANCH   9  10
ATOM     10  C   UNL     1      55.500  27.744  50.689  1.00  0.00    -0.003 C 
ATOM     11  C   UNL     1      54.062  27.992  50.236  1.00  0.00     0.004 C 
ENDBRANCH   9  10
ENDBRANCH   8   9
ENDBRANCH   7   8
ENDBRANCH   1   7
TORSDOF 7
ENDMDL
MODEL 8
REMARK VINA RESULT:    -3.276      2.865      4.810
REMARK INTER + INTRA:          -4.932
REMARK INTER:                  -4.376
REMARK INTRA:                  -0.556
REMARK UNBOUND:                -0.316
REMARK SMILES CCCCCCCCC(=O)[O-]
REMARK SMILES IDX 6 1 7 2 8 3 9 4 10 5 11 6 5 7 4 8 3 9 2 10 1 11
REMARK H PARENT
REMARK Flexibility Score: inf
ROOT
ATOM      1  C   UNL     1      54.943  29.401  51.306  1.00  0.00     0.000 C 
ENDROOT
BRANCH   1   2
ATOM      2  C   UNL     1      54.569  28.232  50.385  1.00  0.00     0.006 C 
BRANCH   2   3
ATOM      3  C   UNL     1      55.529  27.054  50.574  1.00  0.00     0.053 C 
BRANCH   3   4
ATOM      4  C   UNL     1      54.793  25.756  50.461  1.00  0.00     0.041 C 
ATOM      5  O   UNL     1      54.740  24.969  51.442  1.00  0.00    -0.550 OA
ATOM      6  O   UNL     1      54.124  25.436  49.285  1.00  0.00    -0.550 OA
ENDBRANCH   3   4
ENDBRANCH   2   3
ENDBRANCH   1   2
BRANCH   1   7
ATOM      7  C   UNL     1      56.194  30.127  50.792  1.00  0.00     0.000 C 
BRANCH   7   8
ATOM      8  C   UNL     1      57.323  30.169  51.833  1.00  0.00    -0.000 C 
BRANCH   8   9
ATOM      9  C   UNL     1      58.457  29.178  51.517  1.00  0.00    -0.000 C 
BRANCH   9  10
ATOM     10  C   UNL     1      58.778  29.110  50.017  1.00  0.00    -0.003 C 
ATOM     11  C   UNL     1      59.658  27.914  49.655  1.00  0.00     0.004 C 
ENDBRANCH   9  10
ENDBRANCH   8   9
ENDBRANCH   7   8
ENDBRANCH   1   7
TORSDOF 7
ENDMDL
MODEL 9
REMARK VINA RESULT:    -3.237      2.612      4.936
REMARK INTER + INTRA:          -4.877
REMARK INTER:                  -4.248
REMARK INTRA:                  -0.629
REMARK UNBOUND:                -0.316
REMARK SMILES CCCCCCCCC(=O)[O-]
REMARK SMILES IDX 6 1 7 2 8 3 9 4 10 5 11 6 5 7 4 8 3 9 2 10 1 11
REMARK H PARENT
REMARK Flexibility Score: inf
ROOT
ATOM      1  C   UNL     1      58.131  29.135  51.224  1.00  0.00     0.000 C 
ENDROOT
BRANCH   1   2
ATOM      2  C   UNL     1      56.661  28.925  50.837  1.00  0.00     0.006 C 
BRANCH   2   3
ATOM      3  C   UNL     1      56.170  27.542  51.276  1.00  0.00     0.053 C 
BRANCH   3   4
ATOM      4  C   UNL     1      55.119  27.038  50.337  1.00  0.00     0.041 C 
ATOM      5  O   UNL     1      55.195  25.873  49.867  1.00  0.00    -0.550 OA
ATOM      6  O   UNL     1      54.030  27.840  50.018  1.00  0.00    -0.550 OA
ENDBRANCH   3   4
ENDBRANCH   2   3
ENDBRANCH   1   2
BRANCH   1   7
ATOM      7  C   UNL     1      59.030  29.156  49.980  1.00  0.00     0.000 C 
BRANCH   7   8
ATOM      8  C   UNL     1      59.555  27.761  49.606  1.00  0.00    -0.000 C 
BRANCH   8   9
ATOM      9  C   UNL     1      60.633  27.253  50.579  1.00  0.00    -0.000 C 
BRANCH   9  10
ATOM     10  C   UNL     1      60.215  25.962  51.297  1.00  0.00    -0.003 C 
ATOM     11  C   UNL     1      58.990  25.304  50.664  1.00  0.00     0.004 C 
ENDBRANCH   9  10
ENDBRANCH   8   9
ENDBRANCH   7   8
ENDBRANCH   1   7
TORSDOF 7
ENDMDL
