MODEL 1
REMARK VINA RESULT:    -4.237      0.000      0.000
REMARK INTER + INTRA:          -6.448
REMARK INTER:                  -6.466
REMARK INTRA:                   0.018
REMARK UNBOUND:                 0.018
REMARK SMILES CC1=CCC[C@@H](C)C(=O)C[C@@H](C(C)C)C(=O)C1
REMARK SMILES IDX 8 1 9 2 6 3 7 4 5 5 4 6 3 7 2 8 1 9 10 11 11 12 15 13 16 14
REMARK SMILES IDX 17 15 12 17 13 18 14 19
REMARK H PARENT
REMARK Flexibility Score: 70.00
ROOT
ATOM      1  C   UNL     1       1.185 -26.421 -13.436  1.00  0.00     0.136 C 
ATOM      2  O   UNL     1       1.154 -25.635 -14.373  1.00  0.00    -0.299 OA
ENDROOT
BRANCH   1   3
ATOM      3  C   UNL     1       1.912 -27.735 -13.618  1.00  0.00     0.053 C 
ATOM      4  C   UNL     1       2.078 -28.021 -15.118  1.00  0.00     0.016 C 
BRANCH   3   5
ATOM      5  C   UNL     1       1.133 -28.884 -12.925  1.00  0.00     0.015 C 
BRANCH   5   6
ATOM      6  C   UNL     1       1.683 -29.232 -11.526  1.00  0.00     0.028 C 
BRANCH   6   7
ATOM      7  C   UNL     1       3.112 -28.782 -11.310  1.00  0.00    -0.028 C 
ATOM      8  C   UNL     1       3.530 -27.674 -10.643  1.00  0.00    -0.070 CG0
ATOM      9  C   UNL     1       5.015 -27.400 -10.630  1.00  0.00     0.039 C 
ATOM     10  G   UNL     1       2.618 -26.723  -9.879  1.00  0.00     0.000 G0
ENDBRANCH   6   7
ENDBRANCH   5   6
ENDBRANCH   3   5
ENDBRANCH   1   3
BRANCH   1  11
ATOM     11  C   UNL     1       0.573 -25.985 -12.121  1.00  0.00     0.087 C 
BRANCH  11  12
ATOM     12  C   UNL     1       1.328 -24.877 -11.331  1.00  0.00     0.066 C 
BRANCH  12  13
ATOM     13  C   UNL     1       2.494 -25.347 -10.452  1.00  0.00     0.140 C 
ATOM     14  O   UNL     1       3.389 -24.551 -10.209  1.00  0.00    -0.299 OA
BRANCH  13  15
ATOM     15  C   UNL     1       2.621 -26.732  -9.862  1.00  0.00     0.106 CG0
ATOM     16  G   UNL     1       3.539 -27.648 -10.660  1.00  0.00     0.000 G0
ENDBRANCH  13  15
ENDBRANCH  12  13
BRANCH  12  17
ATOM     17  C   UNL     1       0.297 -24.021 -10.518  1.00  0.00    -0.006 C 
ATOM     18  C   UNL     1      -0.845 -23.460 -11.384  1.00  0.00     0.008 C 
ATOM     19  C   UNL     1      -0.279 -24.783  -9.312  1.00  0.00     0.008 C 
ENDBRANCH  12  17
ENDBRANCH  11  12
ENDBRANCH   1  11
TORSDOF 1
ENDMDL
MODEL 2
REMARK VINA RESULT:    -3.841      1.504      2.313
REMARK INTER + INTRA:          -5.843
REMARK INTER:                  -5.457
REMARK INTRA:                  -0.386
REMARK UNBOUND:                 0.018
REMARK SMILES CC1=CCC[C@@H](C)C(=O)C[C@@H](C(C)C)C(=O)C1
REMARK SMILES IDX 8 1 9 2 6 3 7 4 5 5 4 6 3 7 2 8 1 9 10 11 11 12 15 13 16 14
REMARK SMILES IDX 17 15 12 17 13 18 14 19
REMARK H PARENT
REMARK Flexibility Score: 70.00
ROOT
ATOM      1  C   UNL     1       1.024 -26.488 -12.940  1.00  0.00     0.136 C 
ATOM      2  O   UNL     1       1.641 -25.754 -13.700  1.00  0.00    -0.299 OA
ENDROOT
BRANCH   1   3
ATOM      3  C   UNL     1       1.457 -27.933 -12.819  1.00  0.00     0.053 C 
ATOM      4  C   UNL     1       0.512 -28.668 -11.857  1.00  0.00     0.016 C 
BRANCH   3   5
ATOM      5  C   UNL     1       2.922 -28.018 -12.318  1.00  0.00     0.015 C 
BRANCH   5   6
ATOM      6  C   UNL     1       3.077 -27.651 -10.827  1.00  0.00     0.028 C 
BRANCH   6   7
ATOM      7  C   UNL     1       3.668 -26.276 -10.602  1.00  0.00    -0.028 C 
ATOM      8  C   UNL     1       3.042 -25.189 -10.082  1.00  0.00    -0.070 CG0
ATOM      9  C   UNL     1       3.830 -23.902 -10.029  1.00  0.00     0.039 C 
ATOM     10  G   UNL     1       1.629 -25.189  -9.513  1.00  0.00     0.000 G0
ENDBRANCH   6   7
ENDBRANCH   5   6
ENDBRANCH   3   5
ENDBRANCH   1   3
BRANCH   1  11
ATOM     11  C   UNL     1      -0.075 -25.877 -12.098  1.00  0.00     0.087 C 
BRANCH  11  12
ATOM     12  C   UNL     1       0.136 -24.406 -11.631  1.00  0.00     0.066 C 
BRANCH  12  13
ATOM     13  C   UNL     1       0.681 -24.220 -10.209  1.00  0.00     0.140 C 
ATOM     14  O   UNL     1       0.347 -23.219  -9.592  1.00  0.00    -0.299 OA
BRANCH  13  15
ATOM     15  C   UNL     1       1.607 -25.187  -9.510  1.00  0.00     0.106 CG0
ATOM     16  G   UNL     1       3.020 -25.188 -10.079  1.00  0.00     0.000 G0
ENDBRANCH  13  15
ENDBRANCH  12  13
BRANCH  12  17
ATOM     17  C   UNL     1      -1.184 -23.592 -11.858  1.00  0.00    -0.006 C 
ATOM     18  C   UNL     1      -1.374 -23.136 -13.316  1.00  0.00     0.008 C 
ATOM     19  C   UNL     1      -2.433 -24.348 -11.374  1.00  0.00     0.008 C 
ENDBRANCH  12  17
ENDBRANCH  11  12
ENDBRANCH   1  11
TORSDOF 1
ENDMDL
MODEL 3
REMARK VINA RESULT:    -3.681      3.597      5.696
REMARK INTER + INTRA:          -5.599
REMARK INTER:                  -5.902
REMARK INTRA:                   0.303
REMARK UNBOUND:                 0.018
REMARK SMILES CC1=CCC[C@@H](C)C(=O)C[C@@H](C(C)C)C(=O)C1
REMARK SMILES IDX 8 1 9 2 6 3 7 4 5 5 4 6 3 7 2 8 1 9 10 11 11 12 15 13 16 14
REMARK SMILES IDX 17 15 12 17 13 18 14 19
REMARK H PARENT
REMARK Flexibility Score: 70.00
ROOT
ATOM      1  C   UNL     1       0.161 -24.482 -12.133  1.00  0.00     0.136 C 
ATOM      2  O   UNL     1       0.722 -24.836 -13.160  1.00  0.00    -0.299 OA
ENDROOT
BRANCH   1   3
ATOM      3  C   UNL     1       0.963 -24.435 -10.850  1.00  0.00     0.053 C 
ATOM      4  C   UNL     1       2.393 -24.920 -11.126  1.00  0.00     0.016 C 
BRANCH   3   5
ATOM      5  C   UNL     1       0.289 -25.308  -9.759  1.00  0.00     0.015 C 
BRANCH   5   6
ATOM      6  C   UNL     1      -0.277 -24.483  -8.584  1.00  0.00     0.028 C 
BRANCH   6   7
ATOM      7  C   UNL     1      -1.684 -23.980  -8.823  1.00  0.00    -0.028 C 
ATOM      8  C   UNL     1      -2.047 -22.814  -9.419  1.00  0.00    -0.070 CG0
ATOM      9  C   UNL     1      -3.524 -22.501  -9.472  1.00  0.00     0.039 C 
ATOM     10  G   UNL     1      -1.082 -21.834 -10.072  1.00  0.00     0.000 G0
ENDBRANCH   6   7
ENDBRANCH   5   6
ENDBRANCH   3   5
ENDBRANCH   1   3
BRANCH   1  11
ATOM     11  C   UNL     1      -1.278 -24.023 -12.230  1.00  0.00     0.087 C 
BRANCH  11  12
ATOM     12  C   UNL     1      -1.514 -22.539 -12.638  1.00  0.00     0.066 C 
BRANCH  12  13
ATOM     13  C   UNL     1      -1.423 -21.504 -11.509  1.00  0.00     0.140 C 
ATOM     14  O   UNL     1      -1.644 -20.334 -11.783  1.00  0.00    -0.299 OA
BRANCH  13  15
ATOM     15  C   UNL     1      -1.078 -21.826 -10.075  1.00  0.00     0.106 CG0
ATOM     16  G   UNL     1      -2.045 -22.807  -9.425  1.00  0.00     0.000 G0
ENDBRANCH  13  15
ENDBRANCH  12  13
BRANCH  12  17
ATOM     17  C   UNL     1      -2.864 -22.422 -13.426  1.00  0.00    -0.006 C 
ATOM     18  C   UNL     1      -2.684 -22.473 -14.954  1.00  0.00     0.008 C 
ATOM     19  C   UNL     1      -3.898 -23.472 -12.981  1.00  0.00     0.008 C 
ENDBRANCH  12  17
ENDBRANCH  11  12
ENDBRANCH   1  11
TORSDOF 1
ENDMDL
MODEL 4
REMARK VINA RESULT:    -3.679      4.180      6.349
REMARK INTER + INTRA:          -5.596
REMARK INTER:                  -5.675
REMARK INTRA:                   0.079
REMARK UNBOUND:                 0.018
REMARK SMILES CC1=CCC[C@@H](C)C(=O)C[C@@H](C(C)C)C(=O)C1
REMARK SMILES IDX 8 1 9 2 6 3 7 4 5 5 4 6 3 7 2 8 1 9 10 11 11 12 15 13 16 14
REMARK SMILES IDX 17 15 12 17 13 18 14 19
REMARK H PARENT
REMARK Flexibility Score: 70.00
ROOT
ATOM      1  C   UNL     1       5.368 -27.059 -10.643  1.00  0.00     0.136 C 
ATOM      2  O   UNL     1       4.421 -26.286 -10.600  1.00  0.00    -0.299 OA
ENDROOT
BRANCH   1   3
ATOM      3  C   UNL     1       5.236 -28.320 -11.469  1.00  0.00     0.053 C 
ATOM      4  C   UNL     1       3.789 -28.452 -11.967  1.00  0.00     0.016 C 
BRANCH   3   5
ATOM      5  C   UNL     1       5.641 -29.560 -10.630  1.00  0.00     0.015 C 
BRANCH   5   6
ATOM      6  C   UNL     1       7.161 -29.829 -10.638  1.00  0.00     0.028 C 
BRANCH   6   7
ATOM      7  C   UNL     1       7.745 -29.949 -12.029  1.00  0.00    -0.028 C 
ATOM      8  C   UNL     1       8.572 -29.069 -12.650  1.00  0.00    -0.070 CG0
ATOM      9  C   UNL     1       8.960 -29.380 -14.076  1.00  0.00     0.039 C 
ATOM     10  G   UNL     1       9.165 -27.826 -11.999  1.00  0.00     0.000 G0
ENDBRANCH   6   7
ENDBRANCH   5   6
ENDBRANCH   3   5
ENDBRANCH   1   3
BRANCH   1  11
ATOM     11  C   UNL     1       6.648 -26.657  -9.942  1.00  0.00     0.087 C 
BRANCH  11  12
ATOM     12  C   UNL     1       7.702 -25.889 -10.793  1.00  0.00     0.066 C 
BRANCH  12  13
ATOM     13  C   UNL     1       8.231 -26.619 -12.034  1.00  0.00     0.140 C 
ATOM     14  O   UNL     1       7.878 -26.216 -13.133  1.00  0.00    -0.299 OA
BRANCH  13  15
ATOM     15  C   UNL     1       9.161 -27.809 -11.999  1.00  0.00     0.106 CG0
ATOM     16  G   UNL     1       8.567 -29.059 -12.635  1.00  0.00     0.000 G0
ENDBRANCH  13  15
ENDBRANCH  12  13
BRANCH  12  17
ATOM     17  C   UNL     1       8.867 -25.400  -9.866  1.00  0.00    -0.006 C 
ATOM     18  C   UNL     1       8.680 -23.957  -9.363  1.00  0.00     0.008 C 
ATOM     19  C   UNL     1       9.109 -26.347  -8.677  1.00  0.00     0.008 C 
ENDBRANCH  12  17
ENDBRANCH  11  12
ENDBRANCH   1  11
TORSDOF 1
ENDMDL
MODEL 5
REMARK VINA RESULT:    -3.645      4.453      7.362
REMARK INTER + INTRA:          -5.545
REMARK INTER:                  -5.482
REMARK INTRA:                  -0.063
REMARK UNBOUND:                 0.018
REMARK SMILES CC1=CCC[C@@H](C)C(=O)C[C@@H](C(C)C)C(=O)C1
REMARK SMILES IDX 8 1 9 2 6 3 7 4 5 5 4 6 3 7 2 8 1 9 10 11 11 12 15 13 16 14
REMARK SMILES IDX 17 15 12 17 13 18 14 19
REMARK H PARENT
REMARK Flexibility Score: 70.00
ROOT
ATOM      1  C   UNL     1       9.988 -28.204  -9.469  1.00  0.00     0.136 C 
ATOM      2  O   UNL     1      10.082 -28.647  -8.333  1.00  0.00    -0.299 OA
ENDROOT
BRANCH   1   3
ATOM      3  C   UNL     1       9.995 -29.179 -10.628  1.00  0.00     0.053 C 
ATOM      4  C   UNL     1      10.106 -28.400 -11.946  1.00  0.00     0.016 C 
BRANCH   3   5
ATOM      5  C   UNL     1       8.709 -30.046 -10.611  1.00  0.00     0.015 C 
BRANCH   5   6
ATOM      6  C   UNL     1       7.784 -29.784 -11.818  1.00  0.00     0.028 C 
BRANCH   6   7
ATOM      7  C   UNL     1       6.447 -29.187 -11.436  1.00  0.00    -0.028 C 
ATOM      8  C   UNL     1       6.170 -27.877 -11.207  1.00  0.00    -0.070 CG0
ATOM      9  C   UNL     1       4.766 -27.540 -10.763  1.00  0.00     0.039 C 
ATOM     10  G   UNL     1       7.153 -26.732 -11.410  1.00  0.00     0.000 G0
ENDBRANCH   6   7
ENDBRANCH   5   6
ENDBRANCH   3   5
ENDBRANCH   1   3
BRANCH   1  11
ATOM     11  C   UNL     1       9.776 -26.715  -9.638  1.00  0.00     0.087 C 
BRANCH  11  12
ATOM     12  C   UNL     1       8.431 -26.135  -9.111  1.00  0.00     0.066 C 
BRANCH  12  13
ATOM     13  C   UNL     1       7.345 -25.880 -10.163  1.00  0.00     0.140 C 
ATOM     14  O   UNL     1       6.586 -24.938  -9.990  1.00  0.00    -0.299 OA
BRANCH  13  15
ATOM     15  C   UNL     1       7.142 -26.712 -11.407  1.00  0.00     0.106 CG0
ATOM     16  G   UNL     1       6.167 -27.866 -11.209  1.00  0.00     0.000 G0
ENDBRANCH  13  15
ENDBRANCH  12  13
BRANCH  12  17
ATOM     17  C   UNL     1       8.716 -24.857  -8.249  1.00  0.00    -0.006 C 
ATOM     18  C   UNL     1       9.574 -25.142  -7.003  1.00  0.00     0.008 C 
ATOM     19  C   UNL     1       9.343 -23.719  -9.073  1.00  0.00     0.008 C 
ENDBRANCH  12  17
ENDBRANCH  11  12
ENDBRANCH   1  11
TORSDOF 1
ENDMDL
MODEL 6
REMARK VINA RESULT:    -3.595      3.556      6.615
REMARK INTER + INTRA:          -5.469
REMARK INTER:                  -6.137
REMARK INTRA:                   0.669
REMARK UNBOUND:                 0.018
REMARK SMILES CC1=CCC[C@@H](C)C(=O)C[C@@H](C(C)C)C(=O)C1
REMARK SMILES IDX 8 1 9 2 6 3 7 4 5 5 4 6 3 7 2 8 1 9 10 11 11 12 15 13 16 14
REMARK SMILES IDX 17 15 12 17 13 18 14 19
REMARK H PARENT
REMARK Flexibility Score: 70.00
ROOT
ATOM      1  C   UNL     1      -1.883 -23.404  -9.304  1.00  0.00     0.136 C 
ATOM      2  O   UNL     1      -1.491 -22.376  -8.770  1.00  0.00    -0.299 OA
ENDROOT
BRANCH   1   3
ATOM      3  C   UNL     1      -3.355 -23.533  -9.632  1.00  0.00     0.053 C 
ATOM      4  C   UNL     1      -3.533 -24.517 -10.796  1.00  0.00     0.016 C 
BRANCH   3   5
ATOM      5  C   UNL     1      -3.952 -22.147  -9.990  1.00  0.00     0.015 C 
BRANCH   5   6
ATOM      6  C   UNL     1      -3.120 -21.382 -11.042  1.00  0.00     0.028 C 
BRANCH   6   7
ATOM      7  C   UNL     1      -3.212 -21.974 -12.431  1.00  0.00    -0.028 C 
ATOM      8  C   UNL     1      -2.184 -22.409 -13.206  1.00  0.00    -0.070 CG0
ATOM      9  C   UNL     1      -2.529 -22.892 -14.595  1.00  0.00     0.039 C 
ATOM     10  G   UNL     1      -0.730 -22.484 -12.760  1.00  0.00     0.000 G0
ENDBRANCH   6   7
ENDBRANCH   5   6
ENDBRANCH   3   5
ENDBRANCH   1   3
BRANCH   1  11
ATOM     11  C   UNL     1      -0.853 -24.444  -9.689  1.00  0.00     0.087 C 
BRANCH  11  12
ATOM     12  C   UNL     1       0.204 -24.023 -10.752  1.00  0.00     0.066 C 
BRANCH  12  13
ATOM     13  C   UNL     1      -0.318 -23.817 -12.180  1.00  0.00     0.140 C 
ATOM     14  O   UNL     1      -0.408 -24.796 -12.906  1.00  0.00    -0.299 OA
BRANCH  13  15
ATOM     15  C   UNL     1      -0.730 -22.484 -12.760  1.00  0.00     0.106 CG0
ATOM     16  G   UNL     1      -2.191 -22.436 -13.186  1.00  0.00     0.000 G0
ENDBRANCH  13  15
ENDBRANCH  12  13
BRANCH  12  17
ATOM     17  C   UNL     1       1.410 -25.022 -10.713  1.00  0.00    -0.006 C 
ATOM     18  C   UNL     1       2.719 -24.377 -10.222  1.00  0.00     0.008 C 
ATOM     19  C   UNL     1       1.102 -26.285  -9.891  1.00  0.00     0.008 C 
ENDBRANCH  12  17
ENDBRANCH  11  12
ENDBRANCH   1  11
TORSDOF 1
ENDMDL
MODEL 7
REMARK VINA RESULT:    -3.569      3.358      6.412
REMARK INTER + INTRA:          -5.428
REMARK INTER:                  -5.164
REMARK INTRA:                  -0.264
REMARK UNBOUND:                 0.018
REMARK SMILES CC1=CCC[C@@H](C)C(=O)C[C@@H](C(C)C)C(=O)C1
REMARK SMILES IDX 8 1 9 2 6 3 7 4 5 5 4 6 3 7 2 8 1 9 10 11 11 12 15 13 16 14
REMARK SMILES IDX 17 15 12 17 13 18 14 19
REMARK H PARENT
REMARK Flexibility Score: 70.00
ROOT
ATOM      1  C   UNL     1      -1.314 -23.030 -13.481  1.00  0.00     0.136 C 
ATOM      2  O   UNL     1      -0.925 -23.414 -14.575  1.00  0.00    -0.299 OA
ENDROOT
BRANCH   1   3
ATOM      3  C   UNL     1      -2.748 -22.565 -13.346  1.00  0.00     0.053 C 
ATOM      4  C   UNL     1      -3.527 -22.942 -14.615  1.00  0.00     0.016 C 
BRANCH   3   5
ATOM      5  C   UNL     1      -2.799 -21.033 -13.108  1.00  0.00     0.015 C 
BRANCH   5   6
ATOM      6  C   UNL     1      -2.922 -20.654 -11.616  1.00  0.00     0.028 C 
BRANCH   6   7
ATOM      7  C   UNL     1      -3.668 -21.682 -10.793  1.00  0.00    -0.028 C 
ATOM      8  C   UNL     1      -3.136 -22.569  -9.912  1.00  0.00    -0.070 CG0
ATOM      9  C   UNL     1      -4.086 -23.549  -9.266  1.00  0.00     0.039 C 
ATOM     10  G   UNL     1      -1.670 -22.614  -9.501  1.00  0.00     0.000 G0
ENDBRANCH   6   7
ENDBRANCH   5   6
ENDBRANCH   3   5
ENDBRANCH   1   3
BRANCH   1  11
ATOM     11  C   UNL     1      -0.361 -23.133 -12.310  1.00  0.00     0.087 C 
BRANCH  11  12
ATOM     12  C   UNL     1      -0.593 -24.313 -11.321  1.00  0.00     0.066 C 
BRANCH  12  13
ATOM     13  C   UNL     1      -0.990 -23.928  -9.890  1.00  0.00     0.140 C 
ATOM     14  O   UNL     1      -0.749 -24.723  -8.993  1.00  0.00    -0.299 OA
BRANCH  13  15
ATOM     15  C   UNL     1      -1.662 -22.631  -9.504  1.00  0.00     0.106 CG0
ATOM     16  G   UNL     1      -3.127 -22.564  -9.914  1.00  0.00     0.000 G0
ENDBRANCH  13  15
ENDBRANCH  12  13
BRANCH  12  17
ATOM     17  C   UNL     1       0.652 -25.264 -11.342  1.00  0.00    -0.006 C 
ATOM     18  C   UNL     1       0.821 -26.016 -12.674  1.00  0.00     0.008 C 
ATOM     19  C   UNL     1       1.957 -24.534 -10.978  1.00  0.00     0.008 C 
ENDBRANCH  12  17
ENDBRANCH  11  12
ENDBRANCH   1  11
TORSDOF 1
ENDMDL
MODEL 8
REMARK VINA RESULT:    -3.512      3.364      6.033
REMARK INTER + INTRA:          -5.342
REMARK INTER:                  -5.512
REMARK INTRA:                   0.170
REMARK UNBOUND:                 0.018
REMARK SMILES CC1=CCC[C@@H](C)C(=O)C[C@@H](C(C)C)C(=O)C1
REMARK SMILES IDX 8 1 9 2 6 3 7 4 5 5 4 6 3 7 2 8 1 9 10 11 11 12 15 13 16 14
REMARK SMILES IDX 17 15 12 17 13 18 14 19
REMARK H PARENT
REMARK Flexibility Score: 70.00
ROOT
ATOM      1  C   UNL     1      -3.204 -22.783  -9.829  1.00  0.00     0.136 C 
ATOM      2  O   UNL     1      -3.884 -23.716  -9.425  1.00  0.00    -0.299 OA
ENDROOT
BRANCH   1   3
ATOM      3  C   UNL     1      -1.920 -22.455  -9.097  1.00  0.00     0.053 C 
ATOM      4  C   UNL     1      -1.167 -21.355  -9.859  1.00  0.00     0.016 C 
BRANCH   3   5
ATOM      5  C   UNL     1      -1.039 -23.724  -8.957  1.00  0.00     0.015 C 
BRANCH   5   6
ATOM      6  C   UNL     1       0.309 -23.613  -9.700  1.00  0.00     0.028 C 
BRANCH   6   7
ATOM      7  C   UNL     1       0.563 -24.751 -10.664  1.00  0.00    -0.028 C 
ATOM      8  C   UNL     1       0.062 -24.890 -11.919  1.00  0.00    -0.070 CG0
ATOM      9  C   UNL     1       0.405 -26.162 -12.659  1.00  0.00     0.039 C 
ATOM     10  G   UNL     1      -0.774 -23.842 -12.642  1.00  0.00     0.000 G0
ENDBRANCH   6   7
ENDBRANCH   5   6
ENDBRANCH   3   5
ENDBRANCH   1   3
BRANCH   1  11
ATOM     11  C   UNL     1      -3.643 -22.077 -11.093  1.00  0.00     0.087 C 
BRANCH  11  12
ATOM     12  C   UNL     1      -3.226 -22.732 -12.443  1.00  0.00     0.066 C 
BRANCH  12  13
ATOM     13  C   UNL     1      -2.255 -23.916 -12.349  1.00  0.00     0.140 C 
ATOM     14  O   UNL     1      -2.702 -25.000 -12.004  1.00  0.00    -0.299 OA
BRANCH  13  15
ATOM     15  C   UNL     1      -0.777 -23.841 -12.651  1.00  0.00     0.106 CG0
ATOM     16  G   UNL     1       0.046 -24.884 -11.908  1.00  0.00     0.000 G0
ENDBRANCH  13  15
ENDBRANCH  12  13
BRANCH  12  17
ATOM     17  C   UNL     1      -2.701 -21.626 -13.420  1.00  0.00    -0.006 C 
ATOM     18  C   UNL     1      -3.099 -21.870 -14.887  1.00  0.00     0.008 C 
ATOM     19  C   UNL     1      -3.121 -20.210 -12.988  1.00  0.00     0.008 C 
ENDBRANCH  12  17
ENDBRANCH  11  12
ENDBRANCH   1  11
TORSDOF 1
ENDMDL
MODEL 9
REMARK VINA RESULT:    -3.430      2.079      4.942
REMARK INTER + INTRA:          -5.217
REMARK INTER:                  -5.161
REMARK INTRA:                  -0.056
REMARK UNBOUND:                 0.018
REMARK SMILES CC1=CCC[C@@H](C)C(=O)C[C@@H](C(C)C)C(=O)C1
REMARK SMILES IDX 8 1 9 2 6 3 7 4 5 5 4 6 3 7 2 8 1 9 10 11 11 12 15 13 16 14
REMARK SMILES IDX 17 15 12 17 13 18 14 19
REMARK H PARENT
REMARK Flexibility Score: 70.00
ROOT
ATOM      1  C   UNL     1       1.960 -26.390 -10.052  1.00  0.00     0.136 C 
ATOM      2  O   UNL     1       1.118 -27.104  -9.524  1.00  0.00    -0.299 OA
ENDROOT
BRANCH   1   3
ATOM      3  C   UNL     1       1.574 -24.977 -10.434  1.00  0.00     0.053 C 
ATOM      4  C   UNL     1       0.126 -24.710 -10.000  1.00  0.00     0.016 C 
BRANCH   3   5
ATOM      5  C   UNL     1       1.734 -24.769 -11.963  1.00  0.00     0.015 C 
BRANCH   5   6
ATOM      6  C   UNL     1       0.811 -25.680 -12.800  1.00  0.00     0.028 C 
BRANCH   6   7
ATOM      7  C   UNL     1       1.520 -26.371 -13.944  1.00  0.00    -0.028 C 
ATOM      8  C   UNL     1       1.916 -27.670 -13.998  1.00  0.00    -0.070 CG0
ATOM      9  C   UNL     1       2.678 -28.104 -15.228  1.00  0.00     0.039 C 
ATOM     10  G   UNL     1       1.609 -28.717 -12.937  1.00  0.00     0.000 G0
ENDBRANCH   6   7
ENDBRANCH   5   6
ENDBRANCH   3   5
ENDBRANCH   1   3
BRANCH   1  11
ATOM     11  C   UNL     1       3.363 -26.937 -10.201  1.00  0.00     0.087 C 
BRANCH  11  12
ATOM     12  C   UNL     1       3.663 -27.751 -11.494  1.00  0.00     0.066 C 
BRANCH  12  13
ATOM     13  C   UNL     1       2.649 -28.844 -11.856  1.00  0.00     0.140 C 
ATOM     14  O   UNL     1       2.683 -29.891 -11.227  1.00  0.00    -0.299 OA
BRANCH  13  15
ATOM     15  C   UNL     1       1.605 -28.722 -12.941  1.00  0.00     0.106 CG0
ATOM     16  G   UNL     1       1.942 -27.669 -13.989  1.00  0.00     0.000 G0
ENDBRANCH  13  15
ENDBRANCH  12  13
BRANCH  12  17
ATOM     17  C   UNL     1       5.124 -28.314 -11.430  1.00  0.00    -0.006 C 
ATOM     18  C   UNL     1       5.633 -28.843 -12.783  1.00  0.00     0.008 C 
ATOM     19  C   UNL     1       6.122 -27.296 -10.852  1.00  0.00     0.008 C 
ENDBRANCH  12  17
ENDBRANCH  11  12
ENDBRANCH   1  11
TORSDOF 1
ENDMDL
