MODEL 1
REMARK VINA RESULT:    -5.666      0.000      0.000
REMARK INTER + INTRA:          -9.948
REMARK INTER:                  -8.315
REMARK INTRA:                  -1.632
REMARK UNBOUND:                -1.632
REMARK SMILES O=c1c(O[C@@H]2O[C@@H](CO)[C@@H](O)[C@H](O)[C@@H]2O)c(-c2ccc(O)c(O)c2)oc2cc(O)cc(O)c12
REMARK SMILES IDX 4 1 3 2 16 3 25 4 2 5 26 6 1 7 33 8 27 9 31 10 28 11 30 12
REMARK SMILES IDX 17 13 18 14 19 15 20 16 24 17 22 18 21 19 23 21 32 23 29 25
REMARK SMILES IDX 5 27 14 28 6 29 12 30 7 31 10 32 15 33 13 35 8 37 9 38 11 40
REMARK H PARENT 21 20 23 22 32 24 29 26 15 34 13 36 9 39 11 41
REMARK Flexibility Score: inf
ROOT
ATOM      1  O   UNL     1      -4.416 -35.769 -31.989  1.00  0.00    -0.454 OA
ENDROOT
BRANCH   1   2
ATOM      2  C   UNL     1      -3.219 -36.159 -31.360  1.00  0.00     0.214 A 
ATOM      3  C   UNL     1      -2.860 -37.520 -31.292  1.00  0.00     0.180 A 
ATOM      4  O   UNL     1      -1.776 -37.883 -30.616  1.00  0.00    -0.452 OA
ATOM      5  C   UNL     1      -2.338 -35.207 -30.818  1.00  0.00     0.239 A 
ATOM      6  C   UNL     1      -0.973 -37.023 -30.003  1.00  0.00     0.146 A 
ATOM      7  O   UNL     1      -2.513 -33.990 -31.090  1.00  0.00    -0.285 OA
ATOM      8  C   UNL     1      -1.230 -35.631 -30.049  1.00  0.00     0.111 A 
ATOM      9  C   UNL     1       0.147 -37.516 -29.330  1.00  0.00     0.094 A 
ATOM     10  C   UNL     1      -0.350 -34.751 -29.354  1.00  0.00     0.134 A 
ATOM     11  C   UNL     1       1.035 -36.645 -28.703  1.00  0.00     0.123 A 
ATOM     12  C   UNL     1       0.788 -35.270 -28.723  1.00  0.00     0.093 A 
BRANCH   3  13
ATOM     13  C   UNL     1      -3.648 -38.584 -31.954  1.00  0.00     0.025 A 
ATOM     14  C   UNL     1      -4.686 -39.254 -31.280  1.00  0.00     0.016 A 
ATOM     15  C   UNL     1      -5.418 -40.252 -31.927  1.00  0.00     0.051 A 
ATOM     16  C   UNL     1      -5.137 -40.583 -33.259  1.00  0.00     0.157 A 
ATOM     17  C   UNL     1      -3.387 -38.904 -33.297  1.00  0.00     0.062 A 
ATOM     18  C   UNL     1      -4.123 -39.904 -33.947  1.00  0.00     0.158 A 
BRANCH  16  19
ATOM     19  O   UNL     1      -5.862 -41.582 -33.906  1.00  0.00    -0.504 OA
ATOM     20  H   UNL     1      -5.673 -42.565 -33.745  1.00  0.00     0.293 HD
ENDBRANCH  16  19
BRANCH  18  21
ATOM     21  O   UNL     1      -3.852 -40.231 -35.275  1.00  0.00    -0.504 OA
ATOM     22  H   UNL     1      -4.434 -40.883 -35.788  1.00  0.00     0.293 HD
ENDBRANCH  18  21
ENDBRANCH   3  13
BRANCH  10  23
ATOM     23  O   UNL     1      -0.570 -33.377 -29.223  1.00  0.00    -0.507 OA
ATOM     24  H   UNL     1      -0.573 -32.725 -29.994  1.00  0.00     0.293 HD
ENDBRANCH  10  23
BRANCH  11  25
ATOM     25  O   UNL     1       2.159 -37.155 -28.057  1.00  0.00    -0.508 OA
ATOM     26  H   UNL     1       3.089 -36.804 -28.255  1.00  0.00     0.293 HD
ENDBRANCH  11  25
ENDBRANCH   1   2
BRANCH   1  27
ATOM     27  C   UNL     1      -5.706 -35.728 -31.352  1.00  0.00     0.339 C 
ATOM     28  C   UNL     1      -6.250 -34.271 -31.261  1.00  0.00     0.214 C 
ATOM     29  O   UNL     1      -6.596 -36.629 -32.005  1.00  0.00    -0.332 OA
ATOM     30  C   UNL     1      -7.355 -34.036 -32.297  1.00  0.00     0.180 C 
ATOM     31  C   UNL     1      -7.957 -36.451 -31.640  1.00  0.00     0.179 C 
ATOM     32  C   UNL     1      -8.495 -35.052 -32.081  1.00  0.00     0.177 C 
BRANCH  28  33
ATOM     33  O   UNL     1      -5.218 -33.335 -31.423  1.00  0.00    -0.384 OA
ATOM     34  H   UNL     1      -5.534 -32.663 -32.082  1.00  0.00     0.211 HD
ENDBRANCH  28  33
BRANCH  30  35
ATOM     35  O   UNL     1      -6.823 -34.164 -33.593  1.00  0.00    -0.387 OA
ATOM     36  H   UNL     1      -7.586 -34.347 -34.202  1.00  0.00     0.211 HD
ENDBRANCH  30  35
BRANCH  31  37
ATOM     37  C   UNL     1      -8.212 -36.816 -30.157  1.00  0.00     0.191 C 
BRANCH  37  38
ATOM     38  O   UNL     1      -9.438 -37.484 -30.019  1.00  0.00    -0.394 OA
ATOM     39  H   UNL     1     -10.126 -36.903 -30.439  1.00  0.00     0.210 HD
ENDBRANCH  37  38
ENDBRANCH  31  37
BRANCH  32  40
ATOM     40  O   UNL     1      -9.404 -34.534 -31.142  1.00  0.00    -0.387 OA
ATOM     41  H   UNL     1      -9.038 -33.662 -30.837  1.00  0.00     0.211 HD
ENDBRANCH  32  40
ENDBRANCH   1  27
TORSDOF 12
ENDMDL
MODEL 2
REMARK VINA RESULT:    -5.603      0.742      1.304
REMARK INTER + INTRA:          -9.856
REMARK INTER:                  -8.208
REMARK INTRA:                  -1.648
REMARK UNBOUND:                -1.632
REMARK SMILES O=c1c(O[C@@H]2O[C@@H](CO)[C@@H](O)[C@H](O)[C@@H]2O)c(-c2ccc(O)c(O)c2)oc2cc(O)cc(O)c12
REMARK SMILES IDX 4 1 3 2 16 3 25 4 2 5 26 6 1 7 33 8 27 9 31 10 28 11 30 12
REMARK SMILES IDX 17 13 18 14 19 15 20 16 24 17 22 18 21 19 23 21 32 23 29 25
REMARK SMILES IDX 5 27 14 28 6 29 12 30 7 31 10 32 15 33 13 35 8 37 9 38 11 40
REMARK H PARENT 21 20 23 22 32 24 29 26 15 34 13 36 9 39 11 41
REMARK Flexibility Score: inf
ROOT
ATOM      1  O   UNL     1      -4.603 -36.198 -32.022  1.00  0.00    -0.454 OA
ENDROOT
BRANCH   1   2
ATOM      2  C   UNL     1      -3.388 -36.580 -31.425  1.00  0.00     0.214 A 
ATOM      3  C   UNL     1      -3.030 -37.940 -31.344  1.00  0.00     0.180 A 
ATOM      4  O   UNL     1      -1.926 -38.294 -30.695  1.00  0.00    -0.452 OA
ATOM      5  C   UNL     1      -2.487 -35.621 -30.929  1.00  0.00     0.239 A 
ATOM      6  C   UNL     1      -1.101 -37.426 -30.124  1.00  0.00     0.146 A 
ATOM      7  O   UNL     1      -2.668 -34.409 -31.218  1.00  0.00    -0.285 OA
ATOM      8  C   UNL     1      -1.357 -36.034 -30.188  1.00  0.00     0.111 A 
ATOM      9  C   UNL     1       0.038 -37.910 -29.478  1.00  0.00     0.094 A 
ATOM     10  C   UNL     1      -0.452 -35.144 -29.537  1.00  0.00     0.134 A 
ATOM     11  C   UNL     1       0.947 -37.029 -28.896  1.00  0.00     0.123 A 
ATOM     12  C   UNL     1       0.703 -35.654 -28.933  1.00  0.00     0.093 A 
BRANCH   3  13
ATOM     13  C   UNL     1      -3.841 -39.014 -31.959  1.00  0.00     0.025 A 
ATOM     14  C   UNL     1      -3.838 -39.228 -33.350  1.00  0.00     0.016 A 
ATOM     15  C   UNL     1      -4.609 -40.252 -33.907  1.00  0.00     0.051 A 
ATOM     16  C   UNL     1      -5.380 -41.084 -33.085  1.00  0.00     0.157 A 
ATOM     17  C   UNL     1      -4.598 -39.867 -31.138  1.00  0.00     0.062 A 
ATOM     18  C   UNL     1      -5.369 -40.895 -31.697  1.00  0.00     0.158 A 
BRANCH  16  19
ATOM     19  O   UNL     1      -6.154 -42.102 -33.638  1.00  0.00    -0.504 OA
ATOM     20  H   UNL     1      -7.158 -42.141 -33.501  1.00  0.00     0.293 HD
ENDBRANCH  16  19
BRANCH  18  21
ATOM     21  O   UNL     1      -6.130 -41.731 -30.881  1.00  0.00    -0.504 OA
ATOM     22  H   UNL     1      -6.044 -42.739 -30.930  1.00  0.00     0.293 HD
ENDBRANCH  18  21
ENDBRANCH   3  13
BRANCH  10  23
ATOM     23  O   UNL     1      -0.666 -33.767 -29.425  1.00  0.00    -0.507 OA
ATOM     24  H   UNL     1      -0.909 -33.296 -28.567  1.00  0.00     0.293 HD
ENDBRANCH  10  23
BRANCH  11  25
ATOM     25  O   UNL     1       2.090 -37.531 -28.276  1.00  0.00    -0.508 OA
ATOM     26  H   UNL     1       2.697 -38.196 -28.741  1.00  0.00     0.293 HD
ENDBRANCH  11  25
ENDBRANCH   1   2
BRANCH   1  27
ATOM     27  C   UNL     1      -5.859 -36.079 -31.331  1.00  0.00     0.339 C 
ATOM     28  C   UNL     1      -6.331 -34.596 -31.260  1.00  0.00     0.214 C 
ATOM     29  O   UNL     1      -6.819 -36.954 -31.917  1.00  0.00    -0.332 OA
ATOM     30  C   UNL     1      -7.470 -34.337 -32.253  1.00  0.00     0.180 C 
ATOM     31  C   UNL     1      -8.152 -36.702 -31.498  1.00  0.00     0.179 C 
ATOM     32  C   UNL     1      -8.644 -35.292 -31.957  1.00  0.00     0.177 C 
BRANCH  28  33
ATOM     33  O   UNL     1      -5.265 -33.714 -31.495  1.00  0.00    -0.384 OA
ATOM     34  H   UNL     1      -5.659 -32.816 -31.651  1.00  0.00     0.211 HD
ENDBRANCH  28  33
BRANCH  30  35
ATOM     35  O   UNL     1      -7.004 -34.526 -33.566  1.00  0.00    -0.387 OA
ATOM     36  H   UNL     1      -6.569 -35.419 -33.593  1.00  0.00     0.211 HD
ENDBRANCH  30  35
BRANCH  31  37
ATOM     37  C   UNL     1      -8.356 -37.013 -29.996  1.00  0.00     0.191 C 
BRANCH  37  38
ATOM     38  O   UNL     1      -9.654 -37.494 -29.765  1.00  0.00    -0.394 OA
ATOM     39  H   UNL     1      -9.621 -37.996 -28.908  1.00  0.00     0.210 HD
ENDBRANCH  37  38
ENDBRANCH  31  37
BRANCH  32  40
ATOM     40  O   UNL     1      -9.485 -34.705 -30.994  1.00  0.00    -0.387 OA
ATOM     41  H   UNL     1     -10.240 -35.335 -30.849  1.00  0.00     0.211 HD
ENDBRANCH  32  40
ENDBRANCH   1  27
TORSDOF 12
ENDMDL
MODEL 3
REMARK VINA RESULT:    -5.283      1.688      2.078
REMARK INTER + INTRA:          -9.387
REMARK INTER:                  -7.914
REMARK INTRA:                  -1.473
REMARK UNBOUND:                -1.632
REMARK SMILES O=c1c(O[C@@H]2O[C@@H](CO)[C@@H](O)[C@H](O)[C@@H]2O)c(-c2ccc(O)c(O)c2)oc2cc(O)cc(O)c12
REMARK SMILES IDX 4 1 3 2 16 3 25 4 2 5 26 6 1 7 33 8 27 9 31 10 28 11 30 12
REMARK SMILES IDX 17 13 18 14 19 15 20 16 24 17 22 18 21 19 23 21 32 23 29 25
REMARK SMILES IDX 5 27 14 28 6 29 12 30 7 31 10 32 15 33 13 35 8 37 9 38 11 40
REMARK H PARENT 21 20 23 22 32 24 29 26 15 34 13 36 9 39 11 41
REMARK Flexibility Score: inf
ROOT
ATOM      1  O   UNL     1      -5.377 -35.638 -32.141  1.00  0.00    -0.454 OA
ENDROOT
BRANCH   1   2
ATOM      2  C   UNL     1      -3.997 -35.580 -31.869  1.00  0.00     0.214 A 
ATOM      3  C   UNL     1      -3.324 -36.705 -31.353  1.00  0.00     0.180 A 
ATOM      4  O   UNL     1      -2.044 -36.609 -31.014  1.00  0.00    -0.452 OA
ATOM      5  C   UNL     1      -3.251 -34.419 -32.137  1.00  0.00     0.239 A 
ATOM      6  C   UNL     1      -1.329 -35.500 -31.156  1.00  0.00     0.146 A 
ATOM      7  O   UNL     1      -3.774 -33.504 -32.826  1.00  0.00    -0.285 OA
ATOM      8  C   UNL     1      -1.909 -34.329 -31.703  1.00  0.00     0.111 A 
ATOM      9  C   UNL     1       0.015 -35.516 -30.777  1.00  0.00     0.094 A 
ATOM     10  C   UNL     1      -1.105 -33.156 -31.812  1.00  0.00     0.134 A 
ATOM     11  C   UNL     1       0.808 -34.383 -30.941  1.00  0.00     0.123 A 
ATOM     12  C   UNL     1       0.249 -33.214 -31.463  1.00  0.00     0.093 A 
BRANCH   3  13
ATOM     13  C   UNL     1      -3.989 -38.014 -31.170  1.00  0.00     0.025 A 
ATOM     14  C   UNL     1      -4.303 -38.503 -29.889  1.00  0.00     0.016 A 
ATOM     15  C   UNL     1      -4.935 -39.741 -29.741  1.00  0.00     0.051 A 
ATOM     16  C   UNL     1      -5.277 -40.498 -30.869  1.00  0.00     0.157 A 
ATOM     17  C   UNL     1      -4.356 -38.768 -32.297  1.00  0.00     0.062 A 
ATOM     18  C   UNL     1      -4.992 -40.008 -32.150  1.00  0.00     0.158 A 
BRANCH  16  19
ATOM     19  O   UNL     1      -5.902 -41.735 -30.725  1.00  0.00    -0.504 OA
ATOM     20  H   UNL     1      -6.833 -41.905 -31.089  1.00  0.00     0.293 HD
ENDBRANCH  16  19
BRANCH  18  21
ATOM     21  O   UNL     1      -5.342 -40.761 -33.270  1.00  0.00    -0.504 OA
ATOM     22  H   UNL     1      -5.368 -40.350 -34.196  1.00  0.00     0.293 HD
ENDBRANCH  18  21
ENDBRANCH   3  13
BRANCH  10  23
ATOM     23  O   UNL     1      -1.599 -31.913 -32.218  1.00  0.00    -0.507 OA
ATOM     24  H   UNL     1      -1.423 -31.045 -31.734  1.00  0.00     0.293 HD
ENDBRANCH  10  23
BRANCH  11  25
ATOM     25  O   UNL     1       2.153 -34.426 -30.578  1.00  0.00    -0.508 OA
ATOM     26  H   UNL     1       2.845 -33.844 -31.035  1.00  0.00     0.293 HD
ENDBRANCH  11  25
ENDBRANCH   1   2
BRANCH   1  27
ATOM     27  C   UNL     1      -6.407 -35.778 -31.146  1.00  0.00     0.339 C 
ATOM     28  C   UNL     1      -7.245 -34.471 -31.008  1.00  0.00     0.214 C 
ATOM     29  O   UNL     1      -7.194 -36.932 -31.423  1.00  0.00    -0.332 OA
ATOM     30  C   UNL     1      -8.618 -34.630 -31.672  1.00  0.00     0.180 C 
ATOM     31  C   UNL     1      -8.400 -36.994 -30.674  1.00  0.00     0.179 C 
ATOM     32  C   UNL     1      -9.366 -35.821 -31.039  1.00  0.00     0.177 C 
BRANCH  28  33
ATOM     33  O   UNL     1      -6.562 -33.372 -31.550  1.00  0.00    -0.384 OA
ATOM     34  H   UNL     1      -6.291 -33.622 -32.471  1.00  0.00     0.211 HD
ENDBRANCH  28  33
BRANCH  30  35
ATOM     35  O   UNL     1      -8.453 -34.834 -33.053  1.00  0.00    -0.387 OA
ATOM     36  H   UNL     1      -9.070 -34.207 -33.514  1.00  0.00     0.211 HD
ENDBRANCH  30  35
BRANCH  31  37
ATOM     37  C   UNL     1      -8.134 -37.181 -29.161  1.00  0.00     0.191 C 
BRANCH  37  38
ATOM     38  O   UNL     1      -9.109 -38.013 -28.590  1.00  0.00    -0.394 OA
ATOM     39  H   UNL     1      -9.972 -37.774 -29.021  1.00  0.00     0.210 HD
ENDBRANCH  37  38
ENDBRANCH  31  37
BRANCH  32  40
ATOM     40  O   UNL     1     -10.076 -35.374 -29.910  1.00  0.00    -0.387 OA
ATOM     41  H   UNL     1     -10.749 -34.720 -30.234  1.00  0.00     0.211 HD
ENDBRANCH  32  40
ENDBRANCH   1  27
TORSDOF 12
ENDMDL
MODEL 4
REMARK VINA RESULT:    -5.168      2.693      4.940
REMARK INTER + INTRA:          -9.217
REMARK INTER:                  -8.459
REMARK INTRA:                  -0.757
REMARK UNBOUND:                -1.632
REMARK SMILES O=c1c(O[C@@H]2O[C@@H](CO)[C@@H](O)[C@H](O)[C@@H]2O)c(-c2ccc(O)c(O)c2)oc2cc(O)cc(O)c12
REMARK SMILES IDX 4 1 3 2 16 3 25 4 2 5 26 6 1 7 33 8 27 9 31 10 28 11 30 12
REMARK SMILES IDX 17 13 18 14 19 15 20 16 24 17 22 18 21 19 23 21 32 23 29 25
REMARK SMILES IDX 5 27 14 28 6 29 12 30 7 31 10 32 15 33 13 35 8 37 9 38 11 40
REMARK H PARENT 21 20 23 22 32 24 29 26 15 34 13 36 9 39 11 41
REMARK Flexibility Score: inf
ROOT
ATOM      1  O   UNL     1      -4.682 -35.615 -30.320  1.00  0.00    -0.454 OA
ENDROOT
BRANCH   1   2
ATOM      2  C   UNL     1      -4.335 -36.905 -29.878  1.00  0.00     0.214 A 
ATOM      3  C   UNL     1      -3.047 -37.419 -30.124  1.00  0.00     0.180 A 
ATOM      4  O   UNL     1      -2.760 -38.671 -29.785  1.00  0.00    -0.452 OA
ATOM      5  C   UNL     1      -5.243 -37.695 -29.152  1.00  0.00     0.239 A 
ATOM      6  C   UNL     1      -3.623 -39.484 -29.189  1.00  0.00     0.146 A 
ATOM      7  O   UNL     1      -6.293 -37.162 -28.706  1.00  0.00    -0.285 OA
ATOM      8  C   UNL     1      -4.930 -39.043 -28.865  1.00  0.00     0.111 A 
ATOM      9  C   UNL     1      -3.211 -40.779 -28.866  1.00  0.00     0.094 A 
ATOM     10  C   UNL     1      -5.827 -39.963 -28.247  1.00  0.00     0.134 A 
ATOM     11  C   UNL     1      -4.074 -41.652 -28.209  1.00  0.00     0.123 A 
ATOM     12  C   UNL     1      -5.373 -41.240 -27.897  1.00  0.00     0.093 A 
BRANCH   3  13
ATOM     13  C   UNL     1      -1.976 -36.615 -30.755  1.00  0.00     0.025 A 
ATOM     14  C   UNL     1      -1.040 -35.906 -29.981  1.00  0.00     0.016 A 
ATOM     15  C   UNL     1      -0.035 -35.158 -30.600  1.00  0.00     0.051 A 
ATOM     16  C   UNL     1       0.058 -35.119 -31.998  1.00  0.00     0.157 A 
ATOM     17  C   UNL     1      -1.863 -36.591 -32.156  1.00  0.00     0.062 A 
ATOM     18  C   UNL     1      -0.854 -35.842 -32.777  1.00  0.00     0.158 A 
BRANCH  16  19
ATOM     19  O   UNL     1       1.055 -34.369 -32.618  1.00  0.00    -0.504 OA
ATOM     20  H   UNL     1       0.858 -33.789 -33.425  1.00  0.00     0.293 HD
ENDBRANCH  16  19
BRANCH  18  21
ATOM     21  O   UNL     1      -0.753 -35.808 -34.167  1.00  0.00    -0.504 OA
ATOM     22  H   UNL     1       0.140 -35.913 -34.634  1.00  0.00     0.293 HD
ENDBRANCH  18  21
ENDBRANCH   3  13
BRANCH  10  23
ATOM     23  O   UNL     1      -7.173 -39.683 -27.995  1.00  0.00    -0.507 OA
ATOM     24  H   UNL     1      -7.597 -38.774 -28.109  1.00  0.00     0.293 HD
ENDBRANCH  10  23
BRANCH  11  25
ATOM     25  O   UNL     1      -3.636 -42.931 -27.875  1.00  0.00    -0.508 OA
ATOM     26  H   UNL     1      -3.042 -43.095 -27.070  1.00  0.00     0.293 HD
ENDBRANCH  11  25
ENDBRANCH   1   2
BRANCH   1  27
ATOM     27  C   UNL     1      -5.986 -35.229 -30.791  1.00  0.00     0.339 C 
ATOM     28  C   UNL     1      -6.077 -33.690 -31.016  1.00  0.00     0.214 C 
ATOM     29  O   UNL     1      -6.331 -35.994 -31.942  1.00  0.00    -0.332 OA
ATOM     30  C   UNL     1      -6.033 -33.353 -32.511  1.00  0.00     0.180 C 
ATOM     31  C   UNL     1      -7.459 -35.492 -32.644  1.00  0.00     0.179 C 
ATOM     32  C   UNL     1      -7.185 -34.075 -33.240  1.00  0.00     0.177 C 
BRANCH  28  33
ATOM     33  O   UNL     1      -5.055 -33.017 -30.330  1.00  0.00    -0.384 OA
ATOM     34  H   UNL     1      -4.877 -32.175 -30.826  1.00  0.00     0.211 HD
ENDBRANCH  28  33
BRANCH  30  35
ATOM     35  O   UNL     1      -4.793 -33.744 -33.046  1.00  0.00    -0.387 OA
ATOM     36  H   UNL     1      -4.198 -32.950 -33.009  1.00  0.00     0.211 HD
ENDBRANCH  30  35
BRANCH  31  37
ATOM     37  C   UNL     1      -8.760 -35.617 -31.814  1.00  0.00     0.191 C 
BRANCH  37  38
ATOM     38  O   UNL     1      -9.017 -36.960 -31.501  1.00  0.00    -0.394 OA
ATOM     39  H   UNL     1      -9.235 -36.987 -30.532  1.00  0.00     0.210 HD
ENDBRANCH  37  38
ENDBRANCH  31  37
BRANCH  32  40
ATOM     40  O   UNL     1      -8.337 -33.269 -33.196  1.00  0.00    -0.387 OA
ATOM     41  H   UNL     1      -9.113 -33.868 -33.357  1.00  0.00     0.211 HD
ENDBRANCH  32  40
ENDBRANCH   1  27
TORSDOF 12
ENDMDL
MODEL 5
REMARK VINA RESULT:    -5.136      1.636      2.655
REMARK INTER + INTRA:          -9.170
REMARK INTER:                  -8.327
REMARK INTRA:                  -0.842
REMARK UNBOUND:                -1.632
REMARK SMILES O=c1c(O[C@@H]2O[C@@H](CO)[C@@H](O)[C@H](O)[C@@H]2O)c(-c2ccc(O)c(O)c2)oc2cc(O)cc(O)c12
REMARK SMILES IDX 4 1 3 2 16 3 25 4 2 5 26 6 1 7 33 8 27 9 31 10 28 11 30 12
REMARK SMILES IDX 17 13 18 14 19 15 20 16 24 17 22 18 21 19 23 21 32 23 29 25
REMARK SMILES IDX 5 27 14 28 6 29 12 30 7 31 10 32 15 33 13 35 8 37 9 38 11 40
REMARK H PARENT 21 20 23 22 32 24 29 26 15 34 13 36 9 39 11 41
REMARK Flexibility Score: inf
ROOT
ATOM      1  O   UNL     1      -5.463 -37.379 -30.138  1.00  0.00    -0.454 OA
ENDROOT
BRANCH   1   2
ATOM      2  C   UNL     1      -4.059 -37.457 -30.171  1.00  0.00     0.214 A 
ATOM      3  C   UNL     1      -3.419 -38.501 -30.867  1.00  0.00     0.180 A 
ATOM      4  O   UNL     1      -2.096 -38.617 -30.813  1.00  0.00    -0.452 OA
ATOM      5  C   UNL     1      -3.261 -36.482 -29.546  1.00  0.00     0.239 A 
ATOM      6  C   UNL     1      -1.314 -37.776 -30.148  1.00  0.00     0.146 A 
ATOM      7  O   UNL     1      -3.801 -35.419 -29.144  1.00  0.00    -0.285 OA
ATOM      8  C   UNL     1      -1.863 -36.672 -29.451  1.00  0.00     0.111 A 
ATOM      9  C   UNL     1       0.066 -37.987 -30.169  1.00  0.00     0.094 A 
ATOM     10  C   UNL     1      -0.982 -35.812 -28.733  1.00  0.00     0.134 A 
ATOM     11  C   UNL     1       0.925 -37.108 -29.514  1.00  0.00     0.123 A 
ATOM     12  C   UNL     1       0.400 -36.023 -28.806  1.00  0.00     0.093 A 
BRANCH   3  13
ATOM     13  C   UNL     1      -4.164 -39.494 -31.672  1.00  0.00     0.025 A 
ATOM     14  C   UNL     1      -4.083 -39.509 -33.076  1.00  0.00     0.016 A 
ATOM     15  C   UNL     1      -4.793 -40.459 -33.815  1.00  0.00     0.051 A 
ATOM     16  C   UNL     1      -5.580 -41.417 -33.162  1.00  0.00     0.157 A 
ATOM     17  C   UNL     1      -4.936 -40.472 -31.022  1.00  0.00     0.062 A 
ATOM     18  C   UNL     1      -5.647 -41.427 -31.763  1.00  0.00     0.158 A 
BRANCH  16  19
ATOM     19  O   UNL     1      -6.293 -42.363 -33.895  1.00  0.00    -0.504 OA
ATOM     20  H   UNL     1      -6.157 -43.358 -33.753  1.00  0.00     0.293 HD
ENDBRANCH  16  19
BRANCH  18  21
ATOM     21  O   UNL     1      -6.424 -42.388 -31.116  1.00  0.00    -0.504 OA
ATOM     22  H   UNL     1      -7.391 -42.547 -31.375  1.00  0.00     0.293 HD
ENDBRANCH  18  21
ENDBRANCH   3  13
BRANCH  10  23
ATOM     23  O   UNL     1      -1.416 -34.769 -27.909  1.00  0.00    -0.507 OA
ATOM     24  H   UNL     1      -1.330 -33.789 -28.137  1.00  0.00     0.293 HD
ENDBRANCH  10  23
BRANCH  11  25
ATOM     25  O   UNL     1       2.300 -37.323 -29.566  1.00  0.00    -0.508 OA
ATOM     26  H   UNL     1       2.900 -36.778 -30.175  1.00  0.00     0.293 HD
ENDBRANCH  11  25
ENDBRANCH   1   2
BRANCH   1  27
ATOM     27  C   UNL     1      -6.241 -36.294 -30.675  1.00  0.00     0.339 C 
ATOM     28  C   UNL     1      -7.371 -36.814 -31.613  1.00  0.00     0.214 C 
ATOM     29  O   UNL     1      -6.715 -35.468 -29.616  1.00  0.00    -0.332 OA
ATOM     30  C   UNL     1      -8.736 -36.734 -30.919  1.00  0.00     0.180 C 
ATOM     31  C   UNL     1      -7.720 -34.548 -30.015  1.00  0.00     0.179 C 
ATOM     32  C   UNL     1      -9.016 -35.279 -30.491  1.00  0.00     0.177 C 
BRANCH  28  33
ATOM     33  O   UNL     1      -7.113 -38.126 -32.039  1.00  0.00    -0.384 OA
ATOM     34  H   UNL     1      -7.685 -38.293 -32.833  1.00  0.00     0.211 HD
ENDBRANCH  28  33
BRANCH  30  35
ATOM     35  O   UNL     1      -8.747 -37.586 -29.800  1.00  0.00    -0.387 OA
ATOM     36  H   UNL     1      -8.878 -37.011 -29.001  1.00  0.00     0.211 HD
ENDBRANCH  30  35
BRANCH  31  37
ATOM     37  C   UNL     1      -7.172 -33.479 -30.992  1.00  0.00     0.191 C 
BRANCH  37  38
ATOM     38  O   UNL     1      -7.964 -32.322 -30.949  1.00  0.00    -0.394 OA
ATOM     39  H   UNL     1      -8.904 -32.626 -30.838  1.00  0.00     0.210 HD
ENDBRANCH  37  38
ENDBRANCH  31  37
BRANCH  32  40
ATOM     40  O   UNL     1      -9.630 -34.594 -31.554  1.00  0.00    -0.387 OA
ATOM     41  H   UNL     1      -9.339 -33.646 -31.492  1.00  0.00     0.211 HD
ENDBRANCH  32  40
ENDBRANCH   1  27
TORSDOF 12
ENDMDL
MODEL 6
REMARK VINA RESULT:    -5.074      2.310      6.974
REMARK INTER + INTRA:          -9.079
REMARK INTER:                  -8.307
REMARK INTRA:                  -0.772
REMARK UNBOUND:                -1.632
REMARK SMILES O=c1c(O[C@@H]2O[C@@H](CO)[C@@H](O)[C@H](O)[C@@H]2O)c(-c2ccc(O)c(O)c2)oc2cc(O)cc(O)c12
REMARK SMILES IDX 4 1 3 2 16 3 25 4 2 5 26 6 1 7 33 8 27 9 31 10 28 11 30 12
REMARK SMILES IDX 17 13 18 14 19 15 20 16 24 17 22 18 21 19 23 21 32 23 29 25
REMARK SMILES IDX 5 27 14 28 6 29 12 30 7 31 10 32 15 33 13 35 8 37 9 38 11 40
REMARK H PARENT 21 20 23 22 32 24 29 26 15 34 13 36 9 39 11 41
REMARK Flexibility Score: inf
ROOT
ATOM      1  O   UNL     1      -3.791 -38.013 -31.645  1.00  0.00    -0.454 OA
ENDROOT
BRANCH   1   2
ATOM      2  C   UNL     1      -4.620 -36.898 -31.420  1.00  0.00     0.214 A 
ATOM      3  C   UNL     1      -4.059 -35.643 -31.115  1.00  0.00     0.180 A 
ATOM      4  O   UNL     1      -4.852 -34.621 -30.814  1.00  0.00    -0.452 OA
ATOM      5  C   UNL     1      -6.018 -36.997 -31.528  1.00  0.00     0.239 A 
ATOM      6  C   UNL     1      -6.177 -34.700 -30.804  1.00  0.00     0.146 A 
ATOM      7  O   UNL     1      -6.518 -38.032 -32.042  1.00  0.00    -0.285 OA
ATOM      8  C   UNL     1      -6.833 -35.911 -31.136  1.00  0.00     0.111 A 
ATOM      9  C   UNL     1      -6.914 -33.558 -30.483  1.00  0.00     0.094 A 
ATOM     10  C   UNL     1      -8.258 -35.950 -31.088  1.00  0.00     0.134 A 
ATOM     11  C   UNL     1      -8.306 -33.590 -30.496  1.00  0.00     0.123 A 
ATOM     12  C   UNL     1      -8.971 -34.779 -30.803  1.00  0.00     0.093 A 
BRANCH   3  13
ATOM     13  C   UNL     1      -2.598 -35.403 -31.117  1.00  0.00     0.025 A 
ATOM     14  C   UNL     1      -1.930 -34.940 -29.968  1.00  0.00     0.016 A 
ATOM     15  C   UNL     1      -0.550 -34.726 -29.993  1.00  0.00     0.051 A 
ATOM     16  C   UNL     1       0.184 -34.985 -31.158  1.00  0.00     0.157 A 
ATOM     17  C   UNL     1      -1.852 -35.684 -32.274  1.00  0.00     0.062 A 
ATOM     18  C   UNL     1      -0.467 -35.471 -32.299  1.00  0.00     0.158 A 
BRANCH  16  19
ATOM     19  O   UNL     1       1.560 -34.767 -31.187  1.00  0.00    -0.504 OA
ATOM     20  H   UNL     1       2.136 -34.897 -30.363  1.00  0.00     0.293 HD
ENDBRANCH  16  19
BRANCH  18  21
ATOM     21  O   UNL     1       0.268 -35.736 -33.453  1.00  0.00    -0.504 OA
ATOM     22  H   UNL     1       0.055 -36.531 -34.045  1.00  0.00     0.293 HD
ENDBRANCH  18  21
ENDBRANCH   3  13
BRANCH  10  23
ATOM     23  O   UNL     1      -9.008 -37.115 -31.272  1.00  0.00    -0.507 OA
ATOM     24  H   UNL     1      -9.612 -37.285 -32.062  1.00  0.00     0.293 HD
ENDBRANCH  10  23
BRANCH  11  25
ATOM     25  O   UNL     1      -9.023 -32.433 -30.195  1.00  0.00    -0.508 OA
ATOM     26  H   UNL     1      -8.825 -31.888 -29.364  1.00  0.00     0.293 HD
ENDBRANCH  11  25
ENDBRANCH   1   2
BRANCH   1  27
ATOM     27  C   UNL     1      -3.811 -39.224 -30.870  1.00  0.00     0.339 C 
ATOM     28  C   UNL     1      -2.369 -39.706 -30.530  1.00  0.00     0.214 C 
ATOM     29  O   UNL     1      -4.639 -39.051 -29.723  1.00  0.00    -0.332 OA
ATOM     30  C   UNL     1      -2.027 -39.415 -29.064  1.00  0.00     0.180 C 
ATOM     31  C   UNL     1      -4.495 -40.080 -28.754  1.00  0.00     0.179 C 
ATOM     32  C   UNL     1      -3.057 -40.101 -28.144  1.00  0.00     0.177 C 
BRANCH  28  33
ATOM     33  O   UNL     1      -1.424 -39.116 -31.382  1.00  0.00    -0.384 OA
ATOM     34  H   UNL     1      -0.550 -39.143 -30.911  1.00  0.00     0.211 HD
ENDBRANCH  28  33
BRANCH  30  35
ATOM     35  O   UNL     1      -2.026 -38.025 -28.847  1.00  0.00    -0.387 OA
ATOM     36  H   UNL     1      -1.185 -37.808 -28.366  1.00  0.00     0.211 HD
ENDBRANCH  30  35
BRANCH  31  37
ATOM     37  C   UNL     1      -5.007 -41.444 -29.277  1.00  0.00     0.191 C 
BRANCH  37  38
ATOM     38  O   UNL     1      -6.360 -41.619 -28.950  1.00  0.00    -0.394 OA
ATOM     39  H   UNL     1      -6.384 -41.951 -28.014  1.00  0.00     0.210 HD
ENDBRANCH  37  38
ENDBRANCH  31  37
BRANCH  32  40
ATOM     40  O   UNL     1      -2.634 -41.415 -27.875  1.00  0.00    -0.387 OA
ATOM     41  H   UNL     1      -2.305 -41.426 -26.938  1.00  0.00     0.211 HD
ENDBRANCH  32  40
ENDBRANCH   1  27
TORSDOF 12
ENDMDL
MODEL 7
REMARK VINA RESULT:    -5.073      1.623      2.722
REMARK INTER + INTRA:          -9.079
REMARK INTER:                  -8.118
REMARK INTRA:                  -0.961
REMARK UNBOUND:                -1.632
REMARK SMILES O=c1c(O[C@@H]2O[C@@H](CO)[C@@H](O)[C@H](O)[C@@H]2O)c(-c2ccc(O)c(O)c2)oc2cc(O)cc(O)c12
REMARK SMILES IDX 4 1 3 2 16 3 25 4 2 5 26 6 1 7 33 8 27 9 31 10 28 11 30 12
REMARK SMILES IDX 17 13 18 14 19 15 20 16 24 17 22 18 21 19 23 21 32 23 29 25
REMARK SMILES IDX 5 27 14 28 6 29 12 30 7 31 10 32 15 33 13 35 8 37 9 38 11 40
REMARK H PARENT 21 20 23 22 32 24 29 26 15 34 13 36 9 39 11 41
REMARK Flexibility Score: inf
ROOT
ATOM      1  O   UNL     1      -5.037 -36.635 -30.820  1.00  0.00    -0.454 OA
ENDROOT
BRANCH   1   2
ATOM      2  C   UNL     1      -3.659 -36.747 -31.085  1.00  0.00     0.214 A 
ATOM      3  C   UNL     1      -3.123 -37.956 -31.568  1.00  0.00     0.180 A 
ATOM      4  O   UNL     1      -1.809 -38.079 -31.726  1.00  0.00    -0.452 OA
ATOM      5  C   UNL     1      -2.793 -35.653 -30.911  1.00  0.00     0.239 A 
ATOM      6  C   UNL     1      -0.947 -37.102 -31.475  1.00  0.00     0.146 A 
ATOM      7  O   UNL     1      -3.286 -34.509 -30.728  1.00  0.00    -0.285 OA
ATOM      8  C   UNL     1      -1.396 -35.836 -31.023  1.00  0.00     0.111 A 
ATOM      9  C   UNL     1       0.413 -37.338 -31.688  1.00  0.00     0.094 A 
ATOM     10  C   UNL     1      -0.427 -34.828 -30.745  1.00  0.00     0.134 A 
ATOM     11  C   UNL     1       1.347 -36.328 -31.470  1.00  0.00     0.123 A 
ATOM     12  C   UNL     1       0.925 -35.079 -31.007  1.00  0.00     0.093 A 
BRANCH   3  13
ATOM     13  C   UNL     1      -3.969 -39.118 -31.917  1.00  0.00     0.025 A 
ATOM     14  C   UNL     1      -4.192 -39.488 -33.256  1.00  0.00     0.016 A 
ATOM     15  C   UNL     1      -4.992 -40.593 -33.559  1.00  0.00     0.051 A 
ATOM     16  C   UNL     1      -5.567 -41.352 -32.532  1.00  0.00     0.157 A 
ATOM     17  C   UNL     1      -4.529 -39.899 -30.891  1.00  0.00     0.062 A 
ATOM     18  C   UNL     1      -5.330 -41.008 -31.195  1.00  0.00     0.158 A 
BRANCH  16  19
ATOM     19  O   UNL     1      -6.369 -42.452 -32.832  1.00  0.00    -0.504 OA
ATOM     20  H   UNL     1      -6.350 -42.889 -33.746  1.00  0.00     0.293 HD
ENDBRANCH  16  19
BRANCH  18  21
ATOM     21  O   UNL     1      -5.896 -41.772 -30.175  1.00  0.00    -0.504 OA
ATOM     22  H   UNL     1      -5.534 -42.688 -29.937  1.00  0.00     0.293 HD
ENDBRANCH  18  21
ENDBRANCH   3  13
BRANCH  10  23
ATOM     23  O   UNL     1      -0.739 -33.589 -30.179  1.00  0.00    -0.507 OA
ATOM     24  H   UNL     1      -0.420 -32.701 -30.538  1.00  0.00     0.293 HD
ENDBRANCH  10  23
BRANCH  11  25
ATOM     25  O   UNL     1       2.697 -36.577 -31.710  1.00  0.00    -0.508 OA
ATOM     26  H   UNL     1       3.393 -36.479 -30.979  1.00  0.00     0.293 HD
ENDBRANCH  11  25
ENDBRANCH   1   2
BRANCH   1  27
ATOM     27  C   UNL     1      -5.972 -35.894 -31.623  1.00  0.00     0.339 C 
ATOM     28  C   UNL     1      -7.276 -36.709 -31.876  1.00  0.00     0.214 C 
ATOM     29  O   UNL     1      -6.205 -34.615 -31.040  1.00  0.00    -0.332 OA
ATOM     30  C   UNL     1      -8.427 -36.180 -31.012  1.00  0.00     0.180 C 
ATOM     31  C   UNL     1      -7.319 -33.930 -31.592  1.00  0.00     0.179 C 
ATOM     32  C   UNL     1      -8.658 -34.685 -31.314  1.00  0.00     0.177 C 
BRANCH  28  33
ATOM     33  O   UNL     1      -7.071 -38.076 -31.638  1.00  0.00    -0.384 OA
ATOM     34  H   UNL     1      -7.380 -38.261 -30.712  1.00  0.00     0.211 HD
ENDBRANCH  28  33
BRANCH  30  35
ATOM     35  O   UNL     1      -8.120 -36.364 -29.652  1.00  0.00    -0.387 OA
ATOM     36  H   UNL     1      -8.035 -37.342 -29.504  1.00  0.00     0.211 HD
ENDBRANCH  30  35
BRANCH  31  37
ATOM     37  C   UNL     1      -7.082 -33.534 -33.070  1.00  0.00     0.191 C 
BRANCH  37  38
ATOM     38  O   UNL     1      -7.842 -32.404 -33.404  1.00  0.00    -0.394 OA
ATOM     39  H   UNL     1      -8.334 -32.630 -34.238  1.00  0.00     0.210 HD
ENDBRANCH  37  38
ENDBRANCH  31  37
BRANCH  32  40
ATOM     40  O   UNL     1      -9.548 -34.564 -32.396  1.00  0.00    -0.387 OA
ATOM     41  H   UNL     1      -9.224 -33.808 -32.953  1.00  0.00     0.211 HD
ENDBRANCH  32  40
ENDBRANCH   1  27
TORSDOF 12
ENDMDL
MODEL 8
REMARK VINA RESULT:    -5.061      3.017      7.099
REMARK INTER + INTRA:          -9.060
REMARK INTER:                  -7.588
REMARK INTRA:                  -1.472
REMARK UNBOUND:                -1.632
REMARK SMILES O=c1c(O[C@@H]2O[C@@H](CO)[C@@H](O)[C@H](O)[C@@H]2O)c(-c2ccc(O)c(O)c2)oc2cc(O)cc(O)c12
REMARK SMILES IDX 4 1 3 2 16 3 25 4 2 5 26 6 1 7 33 8 27 9 31 10 28 11 30 12
REMARK SMILES IDX 17 13 18 14 19 15 20 16 24 17 22 18 21 19 23 21 32 23 29 25
REMARK SMILES IDX 5 27 14 28 6 29 12 30 7 31 10 32 15 33 13 35 8 37 9 38 11 40
REMARK H PARENT 21 20 23 22 32 24 29 26 15 34 13 36 9 39 11 41
REMARK Flexibility Score: inf
ROOT
ATOM      1  O   UNL     1      -1.855 -34.167 -32.248  1.00  0.00    -0.454 OA
ENDROOT
BRANCH   1   2
ATOM      2  C   UNL     1      -3.074 -34.828 -32.004  1.00  0.00     0.214 A 
ATOM      3  C   UNL     1      -3.087 -36.085 -31.369  1.00  0.00     0.180 A 
ATOM      4  O   UNL     1      -4.234 -36.740 -31.227  1.00  0.00    -0.452 OA
ATOM      5  C   UNL     1      -4.303 -34.240 -32.350  1.00  0.00     0.239 A 
ATOM      6  C   UNL     1      -5.405 -36.265 -31.633  1.00  0.00     0.146 A 
ATOM      7  O   UNL     1      -4.326 -33.025 -32.679  1.00  0.00    -0.285 OA
ATOM      8  C   UNL     1      -5.496 -34.991 -32.247  1.00  0.00     0.111 A 
ATOM      9  C   UNL     1      -6.550 -37.035 -31.422  1.00  0.00     0.094 A 
ATOM     10  C   UNL     1      -6.774 -34.536 -32.687  1.00  0.00     0.134 A 
ATOM     11  C   UNL     1      -7.802 -36.557 -31.802  1.00  0.00     0.123 A 
ATOM     12  C   UNL     1      -7.910 -35.310 -32.425  1.00  0.00     0.093 A 
BRANCH   3  13
ATOM     13  C   UNL     1      -1.861 -36.723 -30.841  1.00  0.00     0.025 A 
ATOM     14  C   UNL     1      -1.523 -36.644 -29.477  1.00  0.00     0.016 A 
ATOM     15  C   UNL     1      -0.361 -37.259 -29.002  1.00  0.00     0.051 A 
ATOM     16  C   UNL     1       0.469 -37.972 -29.876  1.00  0.00     0.157 A 
ATOM     17  C   UNL     1      -1.036 -37.460 -31.707  1.00  0.00     0.062 A 
ATOM     18  C   UNL     1       0.128 -38.079 -31.230  1.00  0.00     0.158 A 
BRANCH  16  19
ATOM     19  O   UNL     1       1.631 -38.582 -29.406  1.00  0.00    -0.504 OA
ATOM     20  H   UNL     1       2.372 -38.046 -28.968  1.00  0.00     0.293 HD
ENDBRANCH  16  19
BRANCH  18  21
ATOM     21  O   UNL     1       0.952 -38.797 -32.095  1.00  0.00    -0.504 OA
ATOM     22  H   UNL     1       1.408 -38.352 -32.883  1.00  0.00     0.293 HD
ENDBRANCH  18  21
ENDBRANCH   3  13
BRANCH  10  23
ATOM     23  O   UNL     1      -6.969 -33.357 -33.414  1.00  0.00    -0.507 OA
ATOM     24  H   UNL     1      -7.407 -33.314 -34.322  1.00  0.00     0.293 HD
ENDBRANCH  10  23
BRANCH  11  25
ATOM     25  O   UNL     1      -8.936 -37.331 -31.562  1.00  0.00    -0.508 OA
ATOM     26  H   UNL     1      -9.423 -37.805 -32.314  1.00  0.00     0.293 HD
ENDBRANCH  11  25
ENDBRANCH   1   2
BRANCH   1  27
ATOM     27  C   UNL     1      -1.298 -33.924 -33.552  1.00  0.00     0.339 C 
ATOM     28  C   UNL     1      -0.931 -32.422 -33.743  1.00  0.00     0.214 C 
ATOM     29  O   UNL     1      -0.206 -34.811 -33.785  1.00  0.00    -0.332 OA
ATOM     30  C   UNL     1       0.585 -32.214 -33.651  1.00  0.00     0.180 C 
ATOM     31  C   UNL     1       0.584 -34.459 -34.911  1.00  0.00     0.179 C 
ATOM     32  C   UNL     1       1.294 -33.082 -34.710  1.00  0.00     0.177 C 
BRANCH  28  33
ATOM     33  O   UNL     1      -1.595 -31.616 -32.807  1.00  0.00    -0.384 OA
ATOM     34  H   UNL     1      -1.518 -32.067 -31.926  1.00  0.00     0.211 HD
ENDBRANCH  28  33
BRANCH  30  35
ATOM     35  O   UNL     1       1.030 -32.554 -32.361  1.00  0.00    -0.387 OA
ATOM     36  H   UNL     1       0.495 -33.337 -32.067  1.00  0.00     0.211 HD
ENDBRANCH  30  35
BRANCH  31  37
ATOM     37  C   UNL     1      -0.198 -34.609 -36.238  1.00  0.00     0.191 C 
BRANCH  37  38
ATOM     38  O   UNL     1      -0.672 -35.921 -36.383  1.00  0.00    -0.394 OA
ATOM     39  H   UNL     1      -0.078 -36.499 -35.835  1.00  0.00     0.210 HD
ENDBRANCH  37  38
ENDBRANCH  31  37
BRANCH  32  40
ATOM     40  O   UNL     1       1.371 -32.366 -35.918  1.00  0.00    -0.387 OA
ATOM     41  H   UNL     1       1.041 -31.448 -35.730  1.00  0.00     0.211 HD
ENDBRANCH  32  40
ENDBRANCH   1  27
TORSDOF 12
ENDMDL
MODEL 9
REMARK VINA RESULT:    -4.997      2.469      3.565
REMARK INTER + INTRA:          -8.966
REMARK INTER:                  -8.560
REMARK INTRA:                  -0.406
REMARK UNBOUND:                -1.632
REMARK SMILES O=c1c(O[C@@H]2O[C@@H](CO)[C@@H](O)[C@H](O)[C@@H]2O)c(-c2ccc(O)c(O)c2)oc2cc(O)cc(O)c12
REMARK SMILES IDX 4 1 3 2 16 3 25 4 2 5 26 6 1 7 33 8 27 9 31 10 28 11 30 12
REMARK SMILES IDX 17 13 18 14 19 15 20 16 24 17 22 18 21 19 23 21 32 23 29 25
REMARK SMILES IDX 5 27 14 28 6 29 12 30 7 31 10 32 15 33 13 35 8 37 9 38 11 40
REMARK H PARENT 21 20 23 22 32 24 29 26 15 34 13 36 9 39 11 41
REMARK Flexibility Score: inf
ROOT
ATOM      1  O   UNL     1      -5.401 -36.744 -30.319  1.00  0.00    -0.454 OA
ENDROOT
BRANCH   1   2
ATOM      2  C   UNL     1      -4.074 -36.683 -30.781  1.00  0.00     0.214 A 
ATOM      3  C   UNL     1      -3.172 -37.727 -30.497  1.00  0.00     0.180 A 
ATOM      4  O   UNL     1      -1.898 -37.616 -30.859  1.00  0.00    -0.452 OA
ATOM      5  C   UNL     1      -3.624 -35.606 -31.564  1.00  0.00     0.239 A 
ATOM      6  C   UNL     1      -1.411 -36.567 -31.510  1.00  0.00     0.146 A 
ATOM      7  O   UNL     1      -4.470 -34.801 -32.037  1.00  0.00    -0.285 OA
ATOM      8  C   UNL     1      -2.250 -35.485 -31.874  1.00  0.00     0.111 A 
ATOM      9  C   UNL     1      -0.057 -36.561 -31.851  1.00  0.00     0.094 A 
ATOM     10  C   UNL     1      -1.673 -34.372 -32.552  1.00  0.00     0.134 A 
ATOM     11  C   UNL     1       0.487 -35.495 -32.564  1.00  0.00     0.123 A 
ATOM     12  C   UNL     1      -0.322 -34.412 -32.917  1.00  0.00     0.093 A 
BRANCH   3  13
ATOM     13  C   UNL     1      -3.584 -38.967 -29.803  1.00  0.00     0.025 A 
ATOM     14  C   UNL     1      -3.021 -39.338 -28.569  1.00  0.00     0.016 A 
ATOM     15  C   UNL     1      -3.430 -40.512 -27.930  1.00  0.00     0.051 A 
ATOM     16  C   UNL     1      -4.417 -41.322 -28.507  1.00  0.00     0.157 A 
ATOM     17  C   UNL     1      -4.591 -39.772 -30.364  1.00  0.00     0.062 A 
ATOM     18  C   UNL     1      -5.003 -40.948 -29.723  1.00  0.00     0.158 A 
BRANCH  16  19
ATOM     19  O   UNL     1      -4.823 -42.496 -27.875  1.00  0.00    -0.504 OA
ATOM     20  H   UNL     1      -4.226 -42.976 -27.211  1.00  0.00     0.293 HD
ENDBRANCH  16  19
BRANCH  18  21
ATOM     21  O   UNL     1      -5.991 -41.753 -30.288  1.00  0.00    -0.504 OA
ATOM     22  H   UNL     1      -5.848 -42.221 -31.176  1.00  0.00     0.293 HD
ENDBRANCH  18  21
ENDBRANCH   3  13
BRANCH  10  23
ATOM     23  O   UNL     1      -2.371 -33.198 -32.850  1.00  0.00    -0.507 OA
ATOM     24  H   UNL     1      -3.357 -33.063 -32.681  1.00  0.00     0.293 HD
ENDBRANCH  10  23
BRANCH  11  25
ATOM     25  O   UNL     1       1.835 -35.518 -32.915  1.00  0.00    -0.508 OA
ATOM     26  H   UNL     1       2.566 -35.455 -32.216  1.00  0.00     0.293 HD
ENDBRANCH  11  25
ENDBRANCH   1   2
BRANCH   1  27
ATOM     27  C   UNL     1      -6.422 -35.774 -30.615  1.00  0.00     0.339 C 
ATOM     28  C   UNL     1      -7.598 -36.412 -31.414  1.00  0.00     0.214 C 
ATOM     29  O   UNL     1      -6.835 -35.125 -29.416  1.00  0.00    -0.332 OA
ATOM     30  C   UNL     1      -8.820 -36.623 -30.512  1.00  0.00     0.180 C 
ATOM     31  C   UNL     1      -8.027 -34.366 -29.559  1.00  0.00     0.179 C 
ATOM     32  C   UNL     1      -9.252 -35.275 -29.899  1.00  0.00     0.177 C 
BRANCH  28  33
ATOM     33  O   UNL     1      -7.210 -37.623 -32.006  1.00  0.00    -0.384 OA
ATOM     34  H   UNL     1      -6.686 -38.125 -31.328  1.00  0.00     0.211 HD
ENDBRANCH  28  33
BRANCH  30  35
ATOM     35  O   UNL     1      -8.504 -37.544 -29.497  1.00  0.00    -0.387 OA
ATOM     36  H   UNL     1      -7.846 -37.102 -28.899  1.00  0.00     0.211 HD
ENDBRANCH  30  35
BRANCH  31  37
ATOM     37  C   UNL     1      -7.831 -33.149 -30.495  1.00  0.00     0.191 C 
BRANCH  37  38
ATOM     38  O   UNL     1      -8.689 -32.102 -30.125  1.00  0.00    -0.394 OA
ATOM     39  H   UNL     1      -9.316 -31.969 -30.885  1.00  0.00     0.210 HD
ENDBRANCH  37  38
ENDBRANCH  31  37
BRANCH  32  40
ATOM     40  O   UNL     1     -10.139 -34.630 -30.779  1.00  0.00    -0.387 OA
ATOM     41  H   UNL     1     -11.021 -35.075 -30.677  1.00  0.00     0.211 HD
ENDBRANCH  32  40
ENDBRANCH   1  27
TORSDOF 12
ENDMDL
