MODEL 1
REMARK VINA RESULT:    -5.172      0.000      0.000
REMARK INTER + INTRA:          -6.219
REMARK INTER:                  -6.079
REMARK INTRA:                  -0.140
REMARK UNBOUND:                -0.140
REMARK SMILES O=C([O-])C=Cc1ccc(O)c(O)c1
REMARK SMILES IDX 6 1 13 2 7 3 11 4 8 5 9 6 5 7 4 8 2 9 1 10 3 11 12 12 10 14
REMARK H PARENT 12 13 10 15
REMARK Flexibility Score: inf
ROOT
ATOM      1  C   UNL     1       8.979  -6.683  -7.983  1.00  0.00    -0.022 A 
ATOM      2  C   UNL     1       9.979  -5.971  -7.292  1.00  0.00     0.058 A 
ATOM      3  C   UNL     1       7.678  -6.709  -7.455  1.00  0.00     0.012 A 
ATOM      4  C   UNL     1       9.674  -5.277  -6.111  1.00  0.00     0.157 A 
ATOM      5  C   UNL     1       7.374  -6.017  -6.280  1.00  0.00     0.051 A 
ATOM      6  C   UNL     1       8.364  -5.299  -5.606  1.00  0.00     0.157 A 
ENDROOT
BRANCH   1   7
ATOM      7  C   UNL     1       9.254  -7.442  -9.229  1.00  0.00     0.010 C 
ATOM      8  C   UNL     1       8.538  -7.311 -10.354  1.00  0.00     0.025 C 
BRANCH   8   9
ATOM      9  C   UNL     1       8.832  -8.090 -11.568  1.00  0.00     0.064 C 
ATOM     10  O   UNL     1       8.804  -9.349 -11.558  1.00  0.00    -0.545 OA
ATOM     11  O   UNL     1       9.151  -7.424 -12.745  1.00  0.00    -0.545 OA
ENDBRANCH   8   9
ENDBRANCH   1   7
BRANCH   4  12
ATOM     12  O   UNL     1      10.670  -4.572  -5.436  1.00  0.00    -0.504 OA
ATOM     13  H   UNL     1      11.649  -4.822  -5.520  1.00  0.00     0.293 HD
ENDBRANCH   4  12
BRANCH   6  14
ATOM     14  O   UNL     1       8.030  -4.617  -4.437  1.00  0.00    -0.504 OA
ATOM     15  H   UNL     1       7.180  -4.071  -4.356  1.00  0.00     0.293 HD
ENDBRANCH   6  14
TORSDOF 4
ENDMDL
MODEL 2
REMARK VINA RESULT:    -5.115      1.272      2.201
REMARK INTER + INTRA:          -6.151
REMARK INTER:                  -6.006
REMARK INTRA:                  -0.146
REMARK UNBOUND:                -0.140
REMARK SMILES O=C([O-])C=Cc1ccc(O)c(O)c1
REMARK SMILES IDX 6 1 13 2 7 3 11 4 8 5 9 6 5 7 4 8 2 9 1 10 3 11 12 12 10 14
REMARK H PARENT 12 13 10 15
REMARK Flexibility Score: inf
ROOT
ATOM      1  C   UNL     1       8.305  -7.150  -8.304  1.00  0.00    -0.022 A 
ATOM      2  C   UNL     1       7.621  -6.558  -7.223  1.00  0.00     0.058 A 
ATOM      3  C   UNL     1       9.671  -6.877  -8.472  1.00  0.00     0.012 A 
ATOM      4  C   UNL     1       8.301  -5.731  -6.316  1.00  0.00     0.157 A 
ATOM      5  C   UNL     1      10.349  -6.055  -7.568  1.00  0.00     0.051 A 
ATOM      6  C   UNL     1       9.672  -5.482  -6.489  1.00  0.00     0.157 A 
ENDROOT
BRANCH   1   7
ATOM      7  C   UNL     1       7.627  -8.023  -9.296  1.00  0.00     0.010 C 
ATOM      8  C   UNL     1       7.876  -7.985 -10.613  1.00  0.00     0.025 C 
BRANCH   8   9
ATOM      9  C   UNL     1       7.175  -8.858 -11.569  1.00  0.00     0.064 C 
ATOM     10  O   UNL     1       6.083  -9.411 -11.269  1.00  0.00    -0.545 OA
ATOM     11  O   UNL     1       7.729  -9.077 -12.824  1.00  0.00    -0.545 OA
ENDBRANCH   8   9
ENDBRANCH   1   7
BRANCH   4  12
ATOM     12  O   UNL     1       7.617  -5.152  -5.248  1.00  0.00    -0.504 OA
ATOM     13  H   UNL     1       8.017  -5.116  -4.317  1.00  0.00     0.293 HD
ENDBRANCH   4  12
BRANCH   6  14
ATOM     14  O   UNL     1      10.375  -4.667  -5.603  1.00  0.00    -0.504 OA
ATOM     15  H   UNL     1      10.877  -5.045  -4.808  1.00  0.00     0.293 HD
ENDBRANCH   6  14
TORSDOF 4
ENDMDL
MODEL 3
REMARK VINA RESULT:    -5.044      2.279      2.671
REMARK INTER + INTRA:          -6.069
REMARK INTER:                  -5.943
REMARK INTRA:                  -0.125
REMARK UNBOUND:                -0.140
REMARK SMILES O=C([O-])C=Cc1ccc(O)c(O)c1
REMARK SMILES IDX 6 1 13 2 7 3 11 4 8 5 9 6 5 7 4 8 2 9 1 10 3 11 12 12 10 14
REMARK H PARENT 12 13 10 15
REMARK Flexibility Score: inf
ROOT
ATOM      1  C   UNL     1       8.432  -6.356  -7.395  1.00  0.00    -0.022 A 
ATOM      2  C   UNL     1       8.437  -5.504  -6.272  1.00  0.00     0.058 A 
ATOM      3  C   UNL     1       8.030  -7.690  -7.230  1.00  0.00     0.012 A 
ATOM      4  C   UNL     1       8.023  -5.974  -5.017  1.00  0.00     0.157 A 
ATOM      5  C   UNL     1       7.615  -8.159  -5.980  1.00  0.00     0.051 A 
ATOM      6  C   UNL     1       7.607  -7.308  -4.874  1.00  0.00     0.157 A 
ENDROOT
BRANCH   1   7
ATOM      7  C   UNL     1       8.873  -5.908  -8.740  1.00  0.00     0.010 C 
ATOM      8  C   UNL     1       8.069  -5.299  -9.622  1.00  0.00     0.025 C 
BRANCH   8   9
ATOM      9  C   UNL     1       8.538  -4.880 -10.953  1.00  0.00     0.064 C 
ATOM     10  O   UNL     1       9.743  -4.570 -11.153  1.00  0.00    -0.545 OA
ATOM     11  O   UNL     1       7.635  -4.821 -12.008  1.00  0.00    -0.545 OA
ENDBRANCH   8   9
ENDBRANCH   1   7
BRANCH   4  12
ATOM     12  O   UNL     1       8.028  -5.123  -3.913  1.00  0.00    -0.504 OA
ATOM     13  H   UNL     1       7.177  -4.694  -3.568  1.00  0.00     0.293 HD
ENDBRANCH   4  12
BRANCH   6  14
ATOM     14  O   UNL     1       7.186  -7.804  -3.640  1.00  0.00    -0.504 OA
ATOM     15  H   UNL     1       6.218  -7.757  -3.343  1.00  0.00     0.293 HD
ENDBRANCH   6  14
TORSDOF 4
ENDMDL
MODEL 4
REMARK VINA RESULT:    -5.030     16.986     18.813
REMARK INTER + INTRA:          -6.052
REMARK INTER:                  -5.930
REMARK INTRA:                  -0.121
REMARK UNBOUND:                -0.140
REMARK SMILES O=C([O-])C=Cc1ccc(O)c(O)c1
REMARK SMILES IDX 6 1 13 2 7 3 11 4 8 5 9 6 5 7 4 8 2 9 1 10 3 11 12 12 10 14
REMARK H PARENT 12 13 10 15
REMARK Flexibility Score: inf
ROOT
ATOM      1  C   UNL     1      21.106   0.485 -18.593  1.00  0.00    -0.022 A 
ATOM      2  C   UNL     1      21.476   1.226 -19.732  1.00  0.00     0.058 A 
ATOM      3  C   UNL     1      20.533  -0.785 -18.767  1.00  0.00     0.012 A 
ATOM      4  C   UNL     1      21.298   0.694 -21.018  1.00  0.00     0.157 A 
ATOM      5  C   UNL     1      20.357  -1.316 -20.047  1.00  0.00     0.051 A 
ATOM      6  C   UNL     1      20.739  -0.585 -21.174  1.00  0.00     0.157 A 
ENDROOT
BRANCH   1   7
ATOM      7  C   UNL     1      21.264   1.009 -17.213  1.00  0.00     0.010 C 
ATOM      8  C   UNL     1      22.433   1.420 -16.701  1.00  0.00     0.025 C 
BRANCH   8   9
ATOM      9  C   UNL     1      22.553   1.923 -15.323  1.00  0.00     0.064 C 
ATOM     10  O   UNL     1      21.990   1.335 -14.362  1.00  0.00    -0.545 OA
ATOM     11  O   UNL     1      23.299   3.070 -15.078  1.00  0.00    -0.545 OA
ENDBRANCH   8   9
ENDBRANCH   1   7
BRANCH   4  12
ATOM     12  O   UNL     1      21.670   1.433 -22.140  1.00  0.00    -0.504 OA
ATOM     13  H   UNL     1      21.342   2.381 -22.285  1.00  0.00     0.293 HD
ENDBRANCH   4  12
BRANCH   6  14
ATOM     14  O   UNL     1      20.553  -1.143 -22.438  1.00  0.00    -0.504 OA
ATOM     15  H   UNL     1      19.700  -1.005 -22.967  1.00  0.00     0.293 HD
ENDBRANCH   6  14
TORSDOF 4
ENDMDL
MODEL 5
REMARK VINA RESULT:    -4.973      3.189      4.096
REMARK INTER + INTRA:          -5.986
REMARK INTER:                  -5.858
REMARK INTRA:                  -0.127
REMARK UNBOUND:                -0.140
REMARK SMILES O=C([O-])C=Cc1ccc(O)c(O)c1
REMARK SMILES IDX 6 1 13 2 7 3 11 4 8 5 9 6 5 7 4 8 2 9 1 10 3 11 12 12 10 14
REMARK H PARENT 12 13 10 15
REMARK Flexibility Score: inf
ROOT
ATOM      1  C   UNL     1       8.644  -5.260 -10.518  1.00  0.00    -0.022 A 
ATOM      2  C   UNL     1       7.996  -5.002  -9.293  1.00  0.00     0.058 A 
ATOM      3  C   UNL     1       9.964  -5.737 -10.499  1.00  0.00     0.012 A 
ATOM      4  C   UNL     1       8.651  -5.243  -8.076  1.00  0.00     0.157 A 
ATOM      5  C   UNL     1      10.616  -5.979  -9.287  1.00  0.00     0.051 A 
ATOM      6  C   UNL     1       9.965  -5.737  -8.075  1.00  0.00     0.157 A 
ENDROOT
BRANCH   1   7
ATOM      7  C   UNL     1       7.998  -5.010 -11.831  1.00  0.00     0.010 C 
ATOM      8  C   UNL     1       7.832  -3.789 -12.360  1.00  0.00     0.025 C 
BRANCH   8   9
ATOM      9  C   UNL     1       7.175  -3.579 -13.660  1.00  0.00     0.064 C 
ATOM     10  O   UNL     1       7.243  -4.445 -14.573  1.00  0.00    -0.545 OA
ATOM     11  O   UNL     1       6.471  -2.403 -13.886  1.00  0.00    -0.545 OA
ENDBRANCH   8   9
ENDBRANCH   1   7
BRANCH   4  12
ATOM     12  O   UNL     1       8.001  -4.988  -6.869  1.00  0.00    -0.504 OA
ATOM     13  H   UNL     1       7.763  -5.734  -6.225  1.00  0.00     0.293 HD
ENDBRANCH   4  12
BRANCH   6  14
ATOM     14  O   UNL     1      10.640  -5.989  -6.881  1.00  0.00    -0.504 OA
ATOM     15  H   UNL     1      10.961  -5.242  -6.276  1.00  0.00     0.293 HD
ENDBRANCH   6  14
TORSDOF 4
ENDMDL
MODEL 6
REMARK VINA RESULT:    -4.916     15.857     17.990
REMARK INTER + INTRA:          -5.918
REMARK INTER:                  -5.796
REMARK INTRA:                  -0.121
REMARK UNBOUND:                -0.140
REMARK SMILES O=C([O-])C=Cc1ccc(O)c(O)c1
REMARK SMILES IDX 6 1 13 2 7 3 11 4 8 5 9 6 5 7 4 8 2 9 1 10 3 11 12 12 10 14
REMARK H PARENT 12 13 10 15
REMARK Flexibility Score: inf
ROOT
ATOM      1  C   UNL     1      20.529  -0.018 -19.186  1.00  0.00    -0.022 A 
ATOM      2  C   UNL     1      20.392  -0.811 -20.343  1.00  0.00     0.058 A 
ATOM      3  C   UNL     1      21.216   1.203 -19.280  1.00  0.00     0.012 A 
ATOM      4  C   UNL     1      20.909  -0.376 -21.572  1.00  0.00     0.157 A 
ATOM      5  C   UNL     1      21.730   1.638 -20.504  1.00  0.00     0.051 A 
ATOM      6  C   UNL     1      21.578   0.857 -21.652  1.00  0.00     0.157 A 
ENDROOT
BRANCH   1   7
ATOM      7  C   UNL     1      20.010  -0.440 -17.861  1.00  0.00     0.010 C 
ATOM      8  C   UNL     1      18.709  -0.440 -17.537  1.00  0.00     0.025 C 
BRANCH   8   9
ATOM      9  C   UNL     1      18.231  -0.854 -16.208  1.00  0.00     0.064 C 
ATOM     10  O   UNL     1      18.156  -2.072 -15.891  1.00  0.00    -0.545 OA
ATOM     11  O   UNL     1      17.852   0.114 -15.287  1.00  0.00    -0.545 OA
ENDBRANCH   8   9
ENDBRANCH   1   7
BRANCH   4  12
ATOM     12  O   UNL     1      20.766  -1.166 -22.712  1.00  0.00    -0.504 OA
ATOM     13  H   UNL     1      21.368  -1.962 -22.886  1.00  0.00     0.293 HD
ENDBRANCH   4  12
BRANCH   6  14
ATOM     14  O   UNL     1      22.100   1.318 -22.860  1.00  0.00    -0.504 OA
ATOM     15  H   UNL     1      22.339   0.689 -23.618  1.00  0.00     0.293 HD
ENDBRANCH   6  14
TORSDOF 4
ENDMDL
MODEL 7
REMARK VINA RESULT:    -4.872      2.060      6.076
REMARK INTER + INTRA:          -5.866
REMARK INTER:                  -5.737
REMARK INTRA:                  -0.129
REMARK UNBOUND:                -0.140
REMARK SMILES O=C([O-])C=Cc1ccc(O)c(O)c1
REMARK SMILES IDX 6 1 13 2 7 3 11 4 8 5 9 6 5 7 4 8 2 9 1 10 3 11 12 12 10 14
REMARK H PARENT 12 13 10 15
REMARK Flexibility Score: inf
ROOT
ATOM      1  C   UNL     1       8.267  -5.797  -9.891  1.00  0.00    -0.022 A 
ATOM      2  C   UNL     1       8.317  -6.903 -10.763  1.00  0.00     0.058 A 
ATOM      3  C   UNL     1       7.938  -4.537 -10.414  1.00  0.00     0.012 A 
ATOM      4  C   UNL     1       8.018  -6.751 -12.125  1.00  0.00     0.157 A 
ATOM      5  C   UNL     1       7.638  -4.385 -11.770  1.00  0.00     0.051 A 
ATOM      6  C   UNL     1       7.674  -5.486 -12.628  1.00  0.00     0.157 A 
ENDROOT
BRANCH   1   7
ATOM      7  C   UNL     1       8.587  -5.905  -8.445  1.00  0.00     0.010 C 
ATOM      8  C   UNL     1       7.667  -5.838  -7.472  1.00  0.00     0.025 C 
BRANCH   8   9
ATOM      9  C   UNL     1       8.022  -5.936  -6.047  1.00  0.00     0.064 C 
ATOM     10  O   UNL     1       7.649  -6.916  -5.347  1.00  0.00    -0.545 OA
ATOM     11  O   UNL     1       8.780  -4.930  -5.462  1.00  0.00    -0.545 OA
ENDBRANCH   8   9
ENDBRANCH   1   7
BRANCH   4  12
ATOM     12  O   UNL     1       8.067  -7.851 -12.980  1.00  0.00    -0.504 OA
ATOM     13  H   UNL     1       8.089  -7.742 -13.987  1.00  0.00     0.293 HD
ENDBRANCH   4  12
BRANCH   6  14
ATOM     14  O   UNL     1       7.368  -5.304 -13.977  1.00  0.00    -0.504 OA
ATOM     15  H   UNL     1       8.036  -4.916 -14.632  1.00  0.00     0.293 HD
ENDBRANCH   6  14
TORSDOF 4
ENDMDL
MODEL 8
REMARK VINA RESULT:    -4.779     14.762     16.572
REMARK INTER + INTRA:          -5.757
REMARK INTER:                  -5.631
REMARK INTRA:                  -0.126
REMARK UNBOUND:                -0.140
REMARK SMILES O=C([O-])C=Cc1ccc(O)c(O)c1
REMARK SMILES IDX 6 1 13 2 7 3 11 4 8 5 9 6 5 7 4 8 2 9 1 10 3 11 12 12 10 14
REMARK H PARENT 12 13 10 15
REMARK Flexibility Score: inf
ROOT
ATOM      1  C   UNL     1      19.540  -0.452 -18.158  1.00  0.00    -0.022 A 
ATOM      2  C   UNL     1      20.667   0.332 -17.844  1.00  0.00     0.058 A 
ATOM      3  C   UNL     1      19.143  -0.561 -19.501  1.00  0.00     0.012 A 
ATOM      4  C   UNL     1      21.396   0.972 -18.857  1.00  0.00     0.157 A 
ATOM      5  C   UNL     1      19.869   0.075 -20.511  1.00  0.00     0.051 A 
ATOM      6  C   UNL     1      20.996   0.839 -20.197  1.00  0.00     0.157 A 
ENDROOT
BRANCH   1   7
ATOM      7  C   UNL     1      18.730  -1.139 -17.121  1.00  0.00     0.010 C 
ATOM      8  C   UNL     1      18.050  -0.496 -16.160  1.00  0.00     0.025 C 
BRANCH   8   9
ATOM      9  C   UNL     1      17.267  -1.212 -15.139  1.00  0.00     0.064 C 
ATOM     10  O   UNL     1      16.261  -0.680 -14.598  1.00  0.00    -0.545 OA
ATOM     11  O   UNL     1      17.645  -2.495 -14.764  1.00  0.00    -0.545 OA
ENDBRANCH   8   9
ENDBRANCH   1   7
BRANCH   4  12
ATOM     12  O   UNL     1      22.512   1.744 -18.537  1.00  0.00    -0.504 OA
ATOM     13  H   UNL     1      23.429   1.535 -18.915  1.00  0.00     0.293 HD
ENDBRANCH   4  12
BRANCH   6  14
ATOM     14  O   UNL     1      21.701   1.461 -21.226  1.00  0.00    -0.504 OA
ATOM     15  H   UNL     1      21.402   2.340 -21.630  1.00  0.00     0.293 HD
ENDBRANCH   6  14
TORSDOF 4
ENDMDL
