MODEL 1
REMARK VINA RESULT:    -7.097      0.000      0.000
REMARK INTER + INTRA:          -7.765
REMARK INTER:                  -7.512
REMARK INTRA:                  -0.253
REMARK UNBOUND:                -0.253
REMARK SMILES O=c1cc(-c2ccccc2)oc2ccccc12
REMARK SMILES IDX 4 1 3 2 2 3 1 4 17 5 16 6 15 7 14 8 13 9 12 10 11 11 5 12
REMARK SMILES IDX 8 13 7 14 9 15 6 16 10 17
REMARK H PARENT
REMARK Flexibility Score: inf
ROOT
ATOM      1  C   UNL     1      32.340  11.389  36.081  1.00  0.00     0.138 A 
ATOM      2  C   UNL     1      31.329  10.673  36.757  1.00  0.00     0.100 A 
ATOM      3  C   UNL     1      30.874  11.127  37.996  1.00  0.00     0.193 A 
ATOM      4  O   UNL     1      29.971  10.487  38.599  1.00  0.00    -0.289 OA
ATOM      5  C   UNL     1      31.431  12.287  38.553  1.00  0.00     0.065 A 
ATOM      6  C   UNL     1      31.020  12.798  39.798  1.00  0.00     0.016 A 
ATOM      7  C   UNL     1      31.608  13.960  40.307  1.00  0.00     0.001 A 
ATOM      8  C   UNL     1      32.606  14.617  39.582  1.00  0.00     0.004 A 
ATOM      9  C   UNL     1      33.021  14.118  38.345  1.00  0.00     0.048 A 
ATOM     10  C   UNL     1      32.439  12.956  37.826  1.00  0.00     0.138 A 
ATOM     11  O   UNL     1      32.840  12.488  36.648  1.00  0.00    -0.456 OA
ENDROOT
BRANCH   1  12
ATOM     12  C   UNL     1      32.882  10.973  34.751  1.00  0.00     0.017 A 
ATOM     13  C   UNL     1      33.993  10.221  32.268  1.00  0.00     0.000 A 
ATOM     14  C   UNL     1      32.645   9.980  32.530  1.00  0.00     0.001 A 
ATOM     15  C   UNL     1      34.792  10.833  33.233  1.00  0.00     0.001 A 
ATOM     16  C   UNL     1      32.090  10.350  33.759  1.00  0.00     0.012 A 
ATOM     17  C   UNL     1      34.244  11.206  34.464  1.00  0.00     0.012 A 
ENDBRANCH   1  12
TORSDOF 1
ENDMDL
MODEL 2
REMARK VINA RESULT:    -6.276      1.034      5.883
REMARK INTER + INTRA:          -6.896
REMARK INTER:                  -6.635
REMARK INTRA:                  -0.261
REMARK UNBOUND:                -0.253
REMARK SMILES O=c1cc(-c2ccccc2)oc2ccccc12
REMARK SMILES IDX 4 1 3 2 2 3 1 4 17 5 16 6 15 7 14 8 13 9 12 10 11 11 5 12
REMARK SMILES IDX 8 13 7 14 9 15 6 16 10 17
REMARK H PARENT
REMARK Flexibility Score: inf
ROOT
ATOM      1  C   UNL     1      31.787  12.231  37.608  1.00  0.00     0.138 A 
ATOM      2  C   UNL     1      30.751  11.297  37.395  1.00  0.00     0.100 A 
ATOM      3  C   UNL     1      30.764  10.503  36.247  1.00  0.00     0.193 A 
ATOM      4  O   UNL     1      29.837   9.669  36.058  1.00  0.00    -0.289 OA
ATOM      5  C   UNL     1      31.807  10.646  35.321  1.00  0.00     0.065 A 
ATOM      6  C   UNL     1      31.880   9.878  34.144  1.00  0.00     0.016 A 
ATOM      7  C   UNL     1      32.943  10.061  33.254  1.00  0.00     0.001 A 
ATOM      8  C   UNL     1      33.936  11.005  33.530  1.00  0.00     0.004 A 
ATOM      9  C   UNL     1      33.871  11.773  34.696  1.00  0.00     0.048 A 
ATOM     10  C   UNL     1      32.812  11.598  35.593  1.00  0.00     0.138 A 
ATOM     11  O   UNL     1      32.759  12.333  36.700  1.00  0.00    -0.456 OA
ENDROOT
BRANCH   1  12
ATOM     12  C   UNL     1      31.849  13.119  38.809  1.00  0.00     0.017 A 
ATOM     13  C   UNL     1      31.909  14.733  41.125  1.00  0.00     0.000 A 
ATOM     14  C   UNL     1      32.623  15.115  39.989  1.00  0.00     0.001 A 
ATOM     15  C   UNL     1      31.165  13.553  41.115  1.00  0.00     0.001 A 
ATOM     16  C   UNL     1      32.598  14.318  38.840  1.00  0.00     0.012 A 
ATOM     17  C   UNL     1      31.134  12.752  39.969  1.00  0.00     0.012 A 
ENDBRANCH   1  12
TORSDOF 1
ENDMDL
MODEL 3
REMARK VINA RESULT:    -4.101      1.282      2.430
REMARK INTER + INTRA:          -4.594
REMARK INTER:                  -4.358
REMARK INTRA:                  -0.237
REMARK UNBOUND:                -0.253
REMARK SMILES O=c1cc(-c2ccccc2)oc2ccccc12
REMARK SMILES IDX 4 1 3 2 2 3 1 4 17 5 16 6 15 7 14 8 13 9 12 10 11 11 5 12
REMARK SMILES IDX 8 13 7 14 9 15 6 16 10 17
REMARK H PARENT
REMARK Flexibility Score: inf
ROOT
ATOM      1  C   UNL     1      32.254  11.400  35.992  1.00  0.00     0.138 A 
ATOM      2  C   UNL     1      32.283  12.745  36.417  1.00  0.00     0.100 A 
ATOM      3  C   UNL     1      31.835  13.074  37.697  1.00  0.00     0.193 A 
ATOM      4  O   UNL     1      31.862  14.276  38.076  1.00  0.00    -0.289 OA
ATOM      5  C   UNL     1      31.360  12.061  38.543  1.00  0.00     0.065 A 
ATOM      6  C   UNL     1      30.893  12.323  39.844  1.00  0.00     0.016 A 
ATOM      7  C   UNL     1      30.431  11.276  40.646  1.00  0.00     0.001 A 
ATOM      8  C   UNL     1      30.430   9.965  40.159  1.00  0.00     0.004 A 
ATOM      9  C   UNL     1      30.892   9.695  38.868  1.00  0.00     0.048 A 
ATOM     10  C   UNL     1      31.357  10.736  38.057  1.00  0.00     0.138 A 
ATOM     11  O   UNL     1      31.794  10.470  36.830  1.00  0.00    -0.456 OA
ENDROOT
BRANCH   1  12
ATOM     12  C   UNL     1      32.716  10.963  34.639  1.00  0.00     0.017 A 
ATOM     13  C   UNL     1      33.673  10.180  32.101  1.00  0.00     0.000 A 
ATOM     14  C   UNL     1      32.385   9.825  32.501  1.00  0.00     0.001 A 
ATOM     15  C   UNL     1      34.487  10.923  32.956  1.00  0.00     0.001 A 
ATOM     16  C   UNL     1      31.906  10.209  33.758  1.00  0.00     0.012 A 
ATOM     17  C   UNL     1      34.015  11.311  34.213  1.00  0.00     0.012 A 
ENDBRANCH   1  12
TORSDOF 1
ENDMDL
