MODEL 1
REMARK VINA RESULT:    -3.762      0.000      0.000
REMARK INTER + INTRA:          -5.296
REMARK INTER:                  -4.862
REMARK INTRA:                  -0.435
REMARK UNBOUND:                -0.435
REMARK SMILES CCO[C@@H]1O[C@H](CO)[C@@H](O)[C@@H](O)[C@H]1O
REMARK SMILES IDX 4 1 13 2 11 3 9 4 6 5 5 6 3 7 2 8 1 9 14 10 12 12 7 14 8 15
REMARK SMILES IDX 10 17
REMARK H PARENT 14 11 12 13 8 16 10 18
REMARK Flexibility Score: inf
ROOT
ATOM      1  C   UNL     1     -19.867  -5.723  17.171  1.00  0.00     0.281 C 
ATOM      2  C   UNL     1     -18.804  -4.693  17.588  1.00  0.00     0.202 C 
ATOM      3  C   UNL     1     -17.702  -5.363  18.428  1.00  0.00     0.179 C 
ATOM      4  C   UNL     1     -17.153  -6.610  17.721  1.00  0.00     0.177 C 
ATOM      5  C   UNL     1     -18.295  -7.539  17.232  1.00  0.00     0.178 C 
ATOM      6  O   UNL     1     -19.311  -6.854  16.502  1.00  0.00    -0.341 OA
ENDROOT
BRANCH   1   7
ATOM      7  O   UNL     1     -20.634  -6.112  18.299  1.00  0.00    -0.350 OA
BRANCH   7   8
ATOM      8  C   UNL     1     -21.990  -5.760  18.118  1.00  0.00     0.160 C 
ATOM      9  C   UNL     1     -22.660  -6.801  17.234  1.00  0.00     0.035 C 
ENDBRANCH   7   8
ENDBRANCH   1   7
BRANCH   2  10
ATOM     10  O   UNL     1     -18.265  -4.087  16.441  1.00  0.00    -0.385 OA
ATOM     11  H   UNL     1     -17.470  -3.569  16.732  1.00  0.00     0.211 HD
ENDBRANCH   2  10
BRANCH   3  12
ATOM     12  O   UNL     1     -16.657  -4.463  18.688  1.00  0.00    -0.387 OA
ATOM     13  H   UNL     1     -16.798  -4.116  19.607  1.00  0.00     0.211 HD
ENDBRANCH   3  12
BRANCH   5  14
ATOM     14  C   UNL     1     -18.855  -8.440  18.348  1.00  0.00     0.191 C 
BRANCH  14  15
ATOM     15  O   UNL     1     -20.011  -9.092  17.900  1.00  0.00    -0.394 OA
ATOM     16  H   UNL     1     -20.752  -8.768  18.475  1.00  0.00     0.210 HD
ENDBRANCH  14  15
ENDBRANCH   5  14
BRANCH   4  17
ATOM     17  O   UNL     1     -16.287  -6.255  16.668  1.00  0.00    -0.387 OA
ATOM     18  H   UNL     1     -15.352  -6.297  16.998  1.00  0.00     0.211 HD
ENDBRANCH   4  17
TORSDOF 7
ENDMDL
MODEL 2
REMARK VINA RESULT:    -3.753      1.640      3.768
REMARK INTER + INTRA:          -5.284
REMARK INTER:                  -4.872
REMARK INTRA:                  -0.413
REMARK UNBOUND:                -0.435
REMARK SMILES CCO[C@@H]1O[C@H](CO)[C@@H](O)[C@@H](O)[C@H]1O
REMARK SMILES IDX 4 1 13 2 11 3 9 4 6 5 5 6 3 7 2 8 1 9 14 10 12 12 7 14 8 15
REMARK SMILES IDX 10 17
REMARK H PARENT 14 11 12 13 8 16 10 18
REMARK Flexibility Score: inf
ROOT
ATOM      1  C   UNL     1     -17.221  -6.842  17.890  1.00  0.00     0.281 C 
ATOM      2  C   UNL     1     -17.227  -5.443  17.251  1.00  0.00     0.202 C 
ATOM      3  C   UNL     1     -18.549  -5.195  16.504  1.00  0.00     0.179 C 
ATOM      4  C   UNL     1     -19.755  -5.499  17.405  1.00  0.00     0.177 C 
ATOM      5  C   UNL     1     -19.614  -6.880  18.101  1.00  0.00     0.178 C 
ATOM      6  O   UNL     1     -18.350  -7.070  18.732  1.00  0.00    -0.341 OA
ENDROOT
BRANCH   1   7
ATOM      7  O   UNL     1     -17.114  -7.834  16.884  1.00  0.00    -0.350 OA
BRANCH   7   8
ATOM      8  C   UNL     1     -15.975  -8.640  17.105  1.00  0.00     0.160 C 
ATOM      9  C   UNL     1     -14.860  -8.194  16.172  1.00  0.00     0.035 C 
ENDBRANCH   7   8
ENDBRANCH   1   7
BRANCH   2  10
ATOM     10  O   UNL     1     -17.020  -4.473  18.246  1.00  0.00    -0.385 OA
ATOM     11  H   UNL     1     -17.767  -3.823  18.179  1.00  0.00     0.211 HD
ENDBRANCH   2  10
BRANCH   3  12
ATOM     12  O   UNL     1     -18.621  -3.871  16.044  1.00  0.00    -0.387 OA
ATOM     13  H   UNL     1     -19.440  -3.473  16.441  1.00  0.00     0.211 HD
ENDBRANCH   3  12
BRANCH   5  14
ATOM     14  C   UNL     1     -20.020  -8.054  17.190  1.00  0.00     0.191 C 
BRANCH  14  15
ATOM     15  O   UNL     1     -19.619  -9.265  17.768  1.00  0.00    -0.394 OA
ATOM     16  H   UNL     1     -19.094  -9.027  18.576  1.00  0.00     0.210 HD
ENDBRANCH  14  15
ENDBRANCH   5  14
BRANCH   4  17
ATOM     17  O   UNL     1     -19.961  -4.466  18.341  1.00  0.00    -0.387 OA
ATOM     18  H   UNL     1     -20.082  -3.613  17.849  1.00  0.00     0.211 HD
ENDBRANCH   4  17
TORSDOF 7
ENDMDL
MODEL 3
REMARK VINA RESULT:    -3.666      1.436      3.291
REMARK INTER + INTRA:          -5.172
REMARK INTER:                  -4.930
REMARK INTRA:                  -0.242
REMARK UNBOUND:                -0.435
REMARK SMILES CCO[C@@H]1O[C@H](CO)[C@@H](O)[C@@H](O)[C@H]1O
REMARK SMILES IDX 4 1 13 2 11 3 9 4 6 5 5 6 3 7 2 8 1 9 14 10 12 12 7 14 8 15
REMARK SMILES IDX 10 17
REMARK H PARENT 14 11 12 13 8 16 10 18
REMARK Flexibility Score: inf
ROOT
ATOM      1  C   UNL     1     -18.419  -7.232  18.090  1.00  0.00     0.281 C 
ATOM      2  C   UNL     1     -16.923  -7.524  17.885  1.00  0.00     0.202 C 
ATOM      3  C   UNL     1     -16.306  -6.519  16.896  1.00  0.00     0.179 C 
ATOM      4  C   UNL     1     -16.634  -5.076  17.303  1.00  0.00     0.177 C 
ATOM      5  C   UNL     1     -18.146  -4.895  17.603  1.00  0.00     0.178 C 
ATOM      6  O   UNL     1     -18.671  -5.885  18.485  1.00  0.00    -0.341 OA
ENDROOT
BRANCH   1   7
ATOM      7  O   UNL     1     -19.144  -7.575  16.922  1.00  0.00    -0.350 OA
BRANCH   7   8
ATOM      8  C   UNL     1     -20.302  -8.312  17.259  1.00  0.00     0.160 C 
ATOM      9  C   UNL     1     -21.521  -7.414  17.120  1.00  0.00     0.035 C 
ENDBRANCH   7   8
ENDBRANCH   1   7
BRANCH   2  10
ATOM     10  O   UNL     1     -16.263  -7.480  19.125  1.00  0.00    -0.385 OA
ATOM     11  H   UNL     1     -16.591  -8.252  19.656  1.00  0.00     0.211 HD
ENDBRANCH   2  10
BRANCH   3  12
ATOM     12  O   UNL     1     -14.915  -6.688  16.816  1.00  0.00    -0.387 OA
ATOM     13  H   UNL     1     -14.680  -7.433  17.429  1.00  0.00     0.211 HD
ENDBRANCH   3  12
BRANCH   5  14
ATOM     14  C   UNL     1     -18.991  -4.710  16.329  1.00  0.00     0.191 C 
BRANCH  14  15
ATOM     15  O   UNL     1     -18.657  -3.501  15.707  1.00  0.00    -0.394 OA
ATOM     16  H   UNL     1     -17.852  -3.160  16.177  1.00  0.00     0.210 HD
ENDBRANCH  14  15
ENDBRANCH   5  14
BRANCH   4  17
ATOM     17  O   UNL     1     -15.838  -4.663  18.390  1.00  0.00    -0.387 OA
ATOM     18  H   UNL     1     -14.895  -4.916  18.206  1.00  0.00     0.211 HD
ENDBRANCH   4  17
TORSDOF 7
ENDMDL
MODEL 4
REMARK VINA RESULT:    -3.478      2.081      4.450
REMARK INTER + INTRA:          -4.930
REMARK INTER:                  -4.482
REMARK INTRA:                  -0.447
REMARK UNBOUND:                -0.435
REMARK SMILES CCO[C@@H]1O[C@H](CO)[C@@H](O)[C@@H](O)[C@H]1O
REMARK SMILES IDX 4 1 13 2 11 3 9 4 6 5 5 6 3 7 2 8 1 9 14 10 12 12 7 14 8 15
REMARK SMILES IDX 10 17
REMARK H PARENT 14 11 12 13 8 16 10 18
REMARK Flexibility Score: inf
ROOT
ATOM      1  C   UNL     1     -16.847  -5.222  18.393  1.00  0.00     0.281 C 
ATOM      2  C   UNL     1     -17.975  -4.825  17.426  1.00  0.00     0.202 C 
ATOM      3  C   UNL     1     -18.249  -5.956  16.420  1.00  0.00     0.179 C 
ATOM      4  C   UNL     1     -18.457  -7.295  17.141  1.00  0.00     0.177 C 
ATOM      5  C   UNL     1     -17.336  -7.565  18.180  1.00  0.00     0.178 C 
ATOM      6  O   UNL     1     -17.094  -6.463  19.052  1.00  0.00    -0.341 OA
ENDROOT
BRANCH   1   7
ATOM      7  O   UNL     1     -15.606  -5.235  17.709  1.00  0.00    -0.350 OA
BRANCH   7   8
ATOM      8  C   UNL     1     -14.651  -4.457  18.403  1.00  0.00     0.160 C 
ATOM      9  C   UNL     1     -13.279  -5.090  18.238  1.00  0.00     0.035 C 
ENDBRANCH   7   8
ENDBRANCH   1   7
BRANCH   2  10
ATOM     10  O   UNL     1     -19.132  -4.512  18.161  1.00  0.00    -0.385 OA
ATOM     11  H   UNL     1     -18.865  -4.460  19.116  1.00  0.00     0.211 HD
ENDBRANCH   2  10
BRANCH   3  12
ATOM     12  O   UNL     1     -19.372  -5.660  15.631  1.00  0.00    -0.387 OA
ATOM     13  H   UNL     1     -20.152  -6.092  16.069  1.00  0.00     0.211 HD
ENDBRANCH   3  12
BRANCH   5  14
ATOM     14  C   UNL     1     -16.051  -8.126  17.543  1.00  0.00     0.191 C 
BRANCH  14  15
ATOM     15  O   UNL     1     -15.020  -8.150  18.491  1.00  0.00    -0.394 OA
ATOM     16  H   UNL     1     -15.236  -8.890  19.117  1.00  0.00     0.210 HD
ENDBRANCH  14  15
ENDBRANCH   5  14
BRANCH   4  17
ATOM     17  O   UNL     1     -19.735  -7.360  17.731  1.00  0.00    -0.387 OA
ATOM     18  H   UNL     1     -19.728  -8.070  18.424  1.00  0.00     0.211 HD
ENDBRANCH   4  17
TORSDOF 7
ENDMDL
MODEL 5
REMARK VINA RESULT:    -3.440      1.800      3.749
REMARK INTER + INTRA:          -4.880
REMARK INTER:                  -4.439
REMARK INTRA:                  -0.441
REMARK UNBOUND:                -0.435
REMARK SMILES CCO[C@@H]1O[C@H](CO)[C@@H](O)[C@@H](O)[C@H]1O
REMARK SMILES IDX 4 1 13 2 11 3 9 4 6 5 5 6 3 7 2 8 1 9 14 10 12 12 7 14 8 15
REMARK SMILES IDX 10 17
REMARK H PARENT 14 11 12 13 8 16 10 18
REMARK Flexibility Score: inf
ROOT
ATOM      1  C   UNL     1     -17.950  -7.447  17.395  1.00  0.00     0.281 C 
ATOM      2  C   UNL     1     -19.295  -6.701  17.440  1.00  0.00     0.202 C 
ATOM      3  C   UNL     1     -19.155  -5.380  18.215  1.00  0.00     0.179 C 
ATOM      4  C   UNL     1     -17.974  -4.554  17.684  1.00  0.00     0.177 C 
ATOM      5  C   UNL     1     -16.686  -5.411  17.562  1.00  0.00     0.178 C 
ATOM      6  O   UNL     1     -16.889  -6.646  16.878  1.00  0.00    -0.341 OA
ENDROOT
BRANCH   1   7
ATOM      7  O   UNL     1     -17.637  -7.959  18.679  1.00  0.00    -0.350 OA
BRANCH   7   8
ATOM      8  C   UNL     1     -17.037  -9.234  18.570  1.00  0.00     0.160 C 
ATOM      9  C   UNL     1     -17.885 -10.105  17.657  1.00  0.00     0.035 C 
ENDBRANCH   7   8
ENDBRANCH   1   7
BRANCH   2  10
ATOM     10  O   UNL     1     -19.746  -6.472  16.129  1.00  0.00    -0.385 OA
ATOM     11  H   UNL     1     -19.737  -7.348  15.661  1.00  0.00     0.211 HD
ENDBRANCH   2  10
BRANCH   3  12
ATOM     12  O   UNL     1     -20.337  -4.627  18.134  1.00  0.00    -0.387 OA
ATOM     13  H   UNL     1     -20.360  -4.225  17.227  1.00  0.00     0.211 HD
ENDBRANCH   3  12
BRANCH   5  14
ATOM     14  C   UNL     1     -15.946  -5.576  18.902  1.00  0.00     0.191 C 
BRANCH  14  15
ATOM     15  O   UNL     1     -14.881  -6.473  18.752  1.00  0.00    -0.394 OA
ATOM     16  H   UNL     1     -14.856  -7.015  19.583  1.00  0.00     0.210 HD
ENDBRANCH  14  15
ENDBRANCH   5  14
BRANCH   4  17
ATOM     17  O   UNL     1     -18.300  -3.931  16.463  1.00  0.00    -0.387 OA
ATOM     18  H   UNL     1     -18.898  -4.535  15.949  1.00  0.00     0.211 HD
ENDBRANCH   4  17
TORSDOF 7
ENDMDL
MODEL 6
REMARK VINA RESULT:    -3.196      1.602      4.643
REMARK INTER + INTRA:          -4.564
REMARK INTER:                  -4.122
REMARK INTRA:                  -0.442
REMARK UNBOUND:                -0.435
REMARK SMILES CCO[C@@H]1O[C@H](CO)[C@@H](O)[C@@H](O)[C@H]1O
REMARK SMILES IDX 4 1 13 2 11 3 9 4 6 5 5 6 3 7 2 8 1 9 14 10 12 12 7 14 8 15
REMARK SMILES IDX 10 17
REMARK H PARENT 14 11 12 13 8 16 10 18
REMARK Flexibility Score: inf
ROOT
ATOM      1  C   UNL     1     -18.624  -7.890  17.469  1.00  0.00     0.281 C 
ATOM      2  C   UNL     1     -19.901  -8.619  17.923  1.00  0.00     0.202 C 
ATOM      3  C   UNL     1     -20.899  -7.626  18.544  1.00  0.00     0.179 C 
ATOM      4  C   UNL     1     -21.134  -6.429  17.612  1.00  0.00     0.177 C 
ATOM      5  C   UNL     1     -19.796  -5.824  17.109  1.00  0.00     0.178 C 
ATOM      6  O   UNL     1     -18.893  -6.799  16.592  1.00  0.00    -0.341 OA
ENDROOT
BRANCH   1   7
ATOM      7  O   UNL     1     -17.875  -7.477  18.599  1.00  0.00    -0.350 OA
BRANCH   7   8
ATOM      8  C   UNL     1     -16.603  -8.092  18.599  1.00  0.00     0.160 C 
ATOM      9  C   UNL     1     -15.623  -7.209  17.843  1.00  0.00     0.035 C 
ENDBRANCH   7   8
ENDBRANCH   1   7
BRANCH   2  10
ATOM     10  O   UNL     1     -20.471  -9.290  16.828  1.00  0.00    -0.385 OA
ATOM     11  H   UNL     1     -20.160 -10.232  16.870  1.00  0.00     0.211 HD
ENDBRANCH   2  10
BRANCH   3  12
ATOM     12  O   UNL     1     -22.120  -8.258  18.826  1.00  0.00    -0.387 OA
ATOM     13  H   UNL     1     -22.184  -8.331  19.814  1.00  0.00     0.211 HD
ENDBRANCH   3  12
BRANCH   5  14
ATOM     14  C   UNL     1     -19.144  -4.877  18.133  1.00  0.00     0.191 C 
BRANCH  14  15
ATOM     15  O   UNL     1     -17.886  -4.469  17.671  1.00  0.00    -0.394 OA
ATOM     16  H   UNL     1     -17.928  -4.511  16.680  1.00  0.00     0.210 HD
ENDBRANCH  14  15
ENDBRANCH   5  14
BRANCH   4  17
ATOM     17  O   UNL     1     -21.979  -6.780  16.540  1.00  0.00    -0.387 OA
ATOM     18  H   UNL     1     -22.710  -7.355  16.889  1.00  0.00     0.211 HD
ENDBRANCH   4  17
TORSDOF 7
ENDMDL
MODEL 7
REMARK VINA RESULT:    -2.838      6.901      8.831
REMARK INTER + INTRA:          -4.102
REMARK INTER:                  -3.690
REMARK INTRA:                  -0.411
REMARK UNBOUND:                -0.435
REMARK SMILES CCO[C@@H]1O[C@H](CO)[C@@H](O)[C@@H](O)[C@H]1O
REMARK SMILES IDX 4 1 13 2 11 3 9 4 6 5 5 6 3 7 2 8 1 9 14 10 12 12 7 14 8 15
REMARK SMILES IDX 10 17
REMARK H PARENT 14 11 12 13 8 16 10 18
REMARK Flexibility Score: inf
ROOT
ATOM      1  C   UNL     1     -11.648  -7.010  16.113  1.00  0.00     0.281 C 
ATOM      2  C   UNL     1     -11.340  -6.578  17.556  1.00  0.00     0.202 C 
ATOM      3  C   UNL     1      -9.842  -6.746  17.863  1.00  0.00     0.179 C 
ATOM      4  C   UNL     1      -8.981  -6.070  16.787  1.00  0.00     0.177 C 
ATOM      5  C   UNL     1      -9.432  -6.472  15.357  1.00  0.00     0.178 C 
ATOM      6  O   UNL     1     -10.837  -6.342  15.149  1.00  0.00    -0.341 OA
ENDROOT
BRANCH   1   7
ATOM      7  O   UNL     1     -11.541  -8.419  15.995  1.00  0.00    -0.350 OA
BRANCH   7   8
ATOM      8  C   UNL     1     -12.720  -9.044  16.459  1.00  0.00     0.160 C 
ATOM      9  C   UNL     1     -13.902  -8.542  15.645  1.00  0.00     0.035 C 
ENDBRANCH   7   8
ENDBRANCH   1   7
BRANCH   2  10
ATOM     10  O   UNL     1     -11.746  -5.245  17.742  1.00  0.00    -0.385 OA
ATOM     11  H   UNL     1     -10.924  -4.709  17.892  1.00  0.00     0.211 HD
ENDBRANCH   2  10
BRANCH   3  12
ATOM     12  O   UNL     1      -9.528  -6.218  19.125  1.00  0.00    -0.387 OA
ATOM     13  H   UNL     1      -8.538  -6.181  19.183  1.00  0.00     0.211 HD
ENDBRANCH   3  12
BRANCH   5  14
ATOM     14  C   UNL     1      -8.879  -7.839  14.916  1.00  0.00     0.191 C 
BRANCH  14  15
ATOM     15  O   UNL     1      -9.425  -8.197  13.676  1.00  0.00    -0.394 OA
ATOM     16  H   UNL     1      -9.411  -9.189  13.643  1.00  0.00     0.210 HD
ENDBRANCH  14  15
ENDBRANCH   5  14
BRANCH   4  17
ATOM     17  O   UNL     1      -8.970  -4.670  16.952  1.00  0.00    -0.387 OA
ATOM     18  H   UNL     1      -8.212  -4.296  16.431  1.00  0.00     0.211 HD
ENDBRANCH   4  17
TORSDOF 7
ENDMDL
MODEL 8
REMARK VINA RESULT:    -2.741      2.301      4.198
REMARK INTER + INTRA:          -3.977
REMARK INTER:                  -3.527
REMARK INTRA:                  -0.450
REMARK UNBOUND:                -0.435
REMARK SMILES CCO[C@@H]1O[C@H](CO)[C@@H](O)[C@@H](O)[C@H]1O
REMARK SMILES IDX 4 1 13 2 11 3 9 4 6 5 5 6 3 7 2 8 1 9 14 10 12 12 7 14 8 15
REMARK SMILES IDX 10 17
REMARK H PARENT 14 11 12 13 8 16 10 18
REMARK Flexibility Score: inf
ROOT
ATOM      1  C   UNL     1     -17.013  -7.811  17.717  1.00  0.00     0.281 C 
ATOM      2  C   UNL     1     -15.933  -8.463  16.838  1.00  0.00     0.202 C 
ATOM      3  C   UNL     1     -14.864  -7.431  16.439  1.00  0.00     0.179 C 
ATOM      4  C   UNL     1     -14.332  -6.685  17.671  1.00  0.00     0.177 C 
ATOM      5  C   UNL     1     -15.488  -6.158  18.563  1.00  0.00     0.178 C 
ATOM      6  O   UNL     1     -16.473  -7.147  18.858  1.00  0.00    -0.341 OA
ENDROOT
BRANCH   1   7
ATOM      7  O   UNL     1     -17.810  -6.936  16.936  1.00  0.00    -0.350 OA
BRANCH   7   8
ATOM      8  C   UNL     1     -19.182  -7.186  17.160  1.00  0.00     0.160 C 
ATOM      9  C   UNL     1     -19.963  -5.899  16.949  1.00  0.00     0.035 C 
ENDBRANCH   7   8
ENDBRANCH   1   7
BRANCH   2  10
ATOM     10  O   UNL     1     -15.358  -9.543  17.529  1.00  0.00    -0.385 OA
ATOM     11  H   UNL     1     -14.593  -9.864  16.983  1.00  0.00     0.211 HD
ENDBRANCH   2  10
BRANCH   3  12
ATOM     12  O   UNL     1     -13.801  -8.050  15.762  1.00  0.00    -0.387 OA
ATOM     13  H   UNL     1     -13.823  -9.011  16.011  1.00  0.00     0.211 HD
ENDBRANCH   3  12
BRANCH   5  14
ATOM     14  C   UNL     1     -16.091  -4.839  18.046  1.00  0.00     0.191 C 
BRANCH  14  15
ATOM     15  O   UNL     1     -17.227  -4.508  18.795  1.00  0.00    -0.394 OA
ATOM     16  H   UNL     1     -18.009  -4.744  18.231  1.00  0.00     0.210 HD
ENDBRANCH  14  15
ENDBRANCH   5  14
BRANCH   4  17
ATOM     17  O   UNL     1     -13.439  -7.491  18.405  1.00  0.00    -0.387 OA
ATOM     18  H   UNL     1     -13.255  -8.316  17.883  1.00  0.00     0.211 HD
ENDBRANCH   4  17
TORSDOF 7
ENDMDL
