MODEL 1
REMARK VINA RESULT:    -2.937      0.000      0.000
REMARK INTER + INTRA:          -3.516
REMARK INTER:                  -3.366
REMARK INTRA:                  -0.150
REMARK UNBOUND:                -0.150
REMARK SMILES CC=Cc1ccc(O)c(OC)c1
REMARK SMILES IDX 4 1 12 2 9 3 7 4 6 5 5 6 3 7 1 8 2 9 10 10 11 11 8 12
REMARK H PARENT 8 13
REMARK Flexibility Score: inf
ROOT
ATOM      1  C   UNL     1     142.447 145.036 138.364  1.00  0.00    -0.022 A 
ATOM      2  C   UNL     1     143.084 144.111 139.207  1.00  0.00     0.058 A 
ATOM      3  C   UNL     1     144.358 144.379 139.746  1.00  0.00     0.161 A 
ATOM      4  C   UNL     1     145.000 145.587 139.422  1.00  0.00     0.157 A 
ATOM      5  C   UNL     1     144.376 146.503 138.571  1.00  0.00     0.051 A 
ATOM      6  C   UNL     1     143.114 146.232 138.040  1.00  0.00     0.012 A 
ENDROOT
BRANCH   1   7
ATOM      7  C   UNL     1     141.110 144.696 137.818  1.00  0.00     0.003 C 
ATOM      8  C   UNL     1     139.517 143.966 136.084  1.00  0.00     0.035 C 
ATOM      9  C   UNL     1     140.899 144.275 136.564  1.00  0.00    -0.030 C 
ENDBRANCH   1   7
BRANCH   3  10
ATOM     10  O   UNL     1     145.010 143.475 140.600  1.00  0.00    -0.493 OA
ATOM     11  C   UNL     1     144.851 142.060 140.553  1.00  0.00     0.278 C 
ENDBRANCH   3  10
BRANCH   4  12
ATOM     12  O   UNL     1     146.260 145.894 139.933  1.00  0.00    -0.504 OA
ATOM     13  H   UNL     1     146.423 146.706 140.517  1.00  0.00     0.293 HD
ENDBRANCH   4  12
TORSDOF 3
ENDMDL
MODEL 2
REMARK VINA RESULT:    -2.906      8.509     10.802
REMARK INTER + INTRA:          -3.481
REMARK INTER:                  -3.316
REMARK INTRA:                  -0.165
REMARK UNBOUND:                -0.150
REMARK SMILES CC=Cc1ccc(O)c(OC)c1
REMARK SMILES IDX 4 1 12 2 9 3 7 4 6 5 5 6 3 7 1 8 2 9 10 10 11 11 8 12
REMARK H PARENT 8 13
REMARK Flexibility Score: inf
ROOT
ATOM      1  C   UNL     1     145.884 135.473 138.555  1.00  0.00    -0.022 A 
ATOM      2  C   UNL     1     145.285 134.572 139.450  1.00  0.00     0.058 A 
ATOM      3  C   UNL     1     146.011 133.485 139.977  1.00  0.00     0.161 A 
ATOM      4  C   UNL     1     147.348 133.300 139.589  1.00  0.00     0.157 A 
ATOM      5  C   UNL     1     147.943 134.186 138.686  1.00  0.00     0.051 A 
ATOM      6  C   UNL     1     147.220 135.261 138.168  1.00  0.00     0.012 A 
ENDROOT
BRANCH   1   7
ATOM      7  C   UNL     1     145.069 136.594 138.024  1.00  0.00     0.003 C 
ATOM      8  C   UNL     1     144.142 138.056 136.269  1.00  0.00     0.035 C 
ATOM      9  C   UNL     1     144.973 136.899 136.724  1.00  0.00    -0.030 C 
ENDBRANCH   1   7
BRANCH   3  10
ATOM     10  O   UNL     1     145.437 132.576 140.882  1.00  0.00    -0.493 OA
ATOM     11  C   UNL     1     144.196 131.908 140.678  1.00  0.00     0.278 C 
ENDBRANCH   3  10
BRANCH   4  12
ATOM     12  O   UNL     1     148.105 132.238 140.086  1.00  0.00    -0.504 OA
ATOM     13  H   UNL     1     147.693 131.340 140.307  1.00  0.00     0.293 HD
ENDBRANCH   4  12
TORSDOF 3
ENDMDL
MODEL 3
REMARK VINA RESULT:    -2.872      8.495     10.755
REMARK INTER + INTRA:          -3.442
REMARK INTER:                  -3.288
REMARK INTRA:                  -0.153
REMARK UNBOUND:                -0.150
REMARK SMILES CC=Cc1ccc(O)c(OC)c1
REMARK SMILES IDX 4 1 12 2 9 3 7 4 6 5 5 6 3 7 1 8 2 9 10 10 11 11 8 12
REMARK H PARENT 8 13
REMARK Flexibility Score: inf
ROOT
ATOM      1  C   UNL     1     132.243 144.343 138.293  1.00  0.00    -0.022 A 
ATOM      2  C   UNL     1     133.328 144.565 139.157  1.00  0.00     0.058 A 
ATOM      3  C   UNL     1     133.524 145.822 139.764  1.00  0.00     0.161 A 
ATOM      4  C   UNL     1     132.625 146.866 139.489  1.00  0.00     0.157 A 
ATOM      5  C   UNL     1     131.553 146.653 138.618  1.00  0.00     0.051 A 
ATOM      6  C   UNL     1     131.363 145.407 138.019  1.00  0.00     0.012 A 
ENDROOT
BRANCH   1   7
ATOM      7  C   UNL     1     132.091 143.003 137.674  1.00  0.00     0.003 C 
ATOM      8  C   UNL     1     132.293 141.330 135.876  1.00  0.00     0.035 C 
ATOM      9  C   UNL     1     132.496 142.702 136.434  1.00  0.00    -0.030 C 
ENDBRANCH   1   7
BRANCH   3  10
ATOM     10  O   UNL     1     134.595 146.065 140.640  1.00  0.00    -0.493 OA
ATOM     11  C   UNL     1     135.918 145.569 140.457  1.00  0.00     0.278 C 
ENDBRANCH   3  10
BRANCH   4  12
ATOM     12  O   UNL     1     132.780 148.125 140.069  1.00  0.00    -0.504 OA
ATOM     13  H   UNL     1     132.298 148.944 139.718  1.00  0.00     0.293 HD
ENDBRANCH   4  12
TORSDOF 3
ENDMDL
MODEL 4
REMARK VINA RESULT:    -2.787     10.541     12.014
REMARK INTER + INTRA:          -3.344
REMARK INTER:                  -3.174
REMARK INTRA:                  -0.171
REMARK UNBOUND:                -0.150
REMARK SMILES CC=Cc1ccc(O)c(OC)c1
REMARK SMILES IDX 4 1 12 2 9 3 7 4 6 5 5 6 3 7 1 8 2 9 10 10 11 11 8 12
REMARK H PARENT 8 13
REMARK Flexibility Score: inf
ROOT
ATOM      1  C   UNL     1     132.721 143.809 138.298  1.00  0.00    -0.022 A 
ATOM      2  C   UNL     1     131.616 144.500 137.775  1.00  0.00     0.058 A 
ATOM      3  C   UNL     1     131.361 145.838 138.136  1.00  0.00     0.161 A 
ATOM      4  C   UNL     1     132.223 146.480 139.042  1.00  0.00     0.157 A 
ATOM      5  C   UNL     1     133.315 145.791 139.576  1.00  0.00     0.051 A 
ATOM      6  C   UNL     1     133.563 144.467 139.214  1.00  0.00     0.012 A 
ENDROOT
BRANCH   1   7
ATOM      7  C   UNL     1     132.935 142.398 137.889  1.00  0.00     0.003 C 
ATOM      8  C   UNL     1     132.340 140.264 136.811  1.00  0.00     0.035 C 
ATOM      9  C   UNL     1     132.057 141.687 137.170  1.00  0.00    -0.030 C 
ENDBRANCH   1   7
BRANCH   3  10
ATOM     10  O   UNL     1     130.269 146.554 137.619  1.00  0.00    -0.493 OA
ATOM     11  C   UNL     1     128.903 146.254 137.893  1.00  0.00     0.278 C 
ENDBRANCH   3  10
BRANCH   4  12
ATOM     12  O   UNL     1     132.009 147.804 139.427  1.00  0.00    -0.504 OA
ATOM     13  H   UNL     1     131.120 148.123 139.792  1.00  0.00     0.293 HD
ENDBRANCH   4  12
TORSDOF 3
ENDMDL
MODEL 5
REMARK VINA RESULT:    -2.684      2.583      3.509
REMARK INTER + INTRA:          -3.227
REMARK INTER:                  -3.044
REMARK INTRA:                  -0.183
REMARK UNBOUND:                -0.150
REMARK SMILES CC=Cc1ccc(O)c(OC)c1
REMARK SMILES IDX 4 1 12 2 9 3 7 4 6 5 5 6 3 7 1 8 2 9 10 10 11 11 8 12
REMARK H PARENT 8 13
REMARK Flexibility Score: inf
ROOT
ATOM      1  C   UNL     1     142.357 147.425 139.529  1.00  0.00    -0.022 A 
ATOM      2  C   UNL     1     143.257 147.921 140.487  1.00  0.00     0.058 A 
ATOM      3  C   UNL     1     144.564 147.405 140.588  1.00  0.00     0.161 A 
ATOM      4  C   UNL     1     144.963 146.372 139.722  1.00  0.00     0.157 A 
ATOM      5  C   UNL     1     144.066 145.865 138.779  1.00  0.00     0.051 A 
ATOM      6  C   UNL     1     142.772 146.380 138.682  1.00  0.00     0.012 A 
ENDROOT
BRANCH   1   7
ATOM      7  C   UNL     1     140.990 147.999 139.475  1.00  0.00     0.003 C 
ATOM      8  C   UNL     1     138.640 148.124 138.742  1.00  0.00     0.035 C 
ATOM      9  C   UNL     1     139.988 147.476 138.757  1.00  0.00    -0.030 C 
ENDBRANCH   1   7
BRANCH   3  10
ATOM     10  O   UNL     1     145.485 147.892 141.529  1.00  0.00    -0.493 OA
ATOM     11  C   UNL     1     145.398 147.671 142.934  1.00  0.00     0.278 C 
ENDBRANCH   3  10
BRANCH   4  12
ATOM     12  O   UNL     1     146.248 145.832 139.786  1.00  0.00    -0.504 OA
ATOM     13  H   UNL     1     146.772 145.788 140.652  1.00  0.00     0.293 HD
ENDBRANCH   4  12
TORSDOF 3
ENDMDL
MODEL 6
REMARK VINA RESULT:    -2.658      2.061      4.521
REMARK INTER + INTRA:          -3.197
REMARK INTER:                  -3.030
REMARK INTRA:                  -0.168
REMARK UNBOUND:                -0.150
REMARK SMILES CC=Cc1ccc(O)c(OC)c1
REMARK SMILES IDX 4 1 12 2 9 3 7 4 6 5 5 6 3 7 1 8 2 9 10 10 11 11 8 12
REMARK H PARENT 8 13
REMARK Flexibility Score: inf
ROOT
ATOM      1  C   UNL     1     143.935 143.871 139.759  1.00  0.00    -0.022 A 
ATOM      2  C   UNL     1     142.730 143.928 139.040  1.00  0.00     0.058 A 
ATOM      3  C   UNL     1     142.401 145.061 138.268  1.00  0.00     0.161 A 
ATOM      4  C   UNL     1     143.291 146.148 138.232  1.00  0.00     0.157 A 
ATOM      5  C   UNL     1     144.483 146.101 138.959  1.00  0.00     0.051 A 
ATOM      6  C   UNL     1     144.804 144.976 139.721  1.00  0.00     0.012 A 
ENDROOT
BRANCH   1   7
ATOM      7  C   UNL     1     144.225 142.656 140.563  1.00  0.00     0.003 C 
ATOM      8  C   UNL     1     145.624 140.816 141.415  1.00  0.00     0.035 C 
ATOM      9  C   UNL     1     145.416 142.046 140.591  1.00  0.00    -0.030 C 
ENDBRANCH   1   7
BRANCH   3  10
ATOM     10  O   UNL     1     141.208 145.138 137.532  1.00  0.00    -0.493 OA
ATOM     11  C   UNL     1     140.806 144.196 136.542  1.00  0.00     0.278 C 
ENDBRANCH   3  10
BRANCH   4  12
ATOM     12  O   UNL     1     143.006 147.289 137.481  1.00  0.00    -0.504 OA
ATOM     13  H   UNL     1     142.076 147.487 137.132  1.00  0.00     0.293 HD
ENDBRANCH   4  12
TORSDOF 3
ENDMDL
MODEL 7
REMARK VINA RESULT:    -2.653      8.841     11.212
REMARK INTER + INTRA:          -3.191
REMARK INTER:                  -3.023
REMARK INTRA:                  -0.167
REMARK UNBOUND:                -0.150
REMARK SMILES CC=Cc1ccc(O)c(OC)c1
REMARK SMILES IDX 4 1 12 2 9 3 7 4 6 5 5 6 3 7 1 8 2 9 10 10 11 11 8 12
REMARK H PARENT 8 13
REMARK Flexibility Score: inf
ROOT
ATOM      1  C   UNL     1     133.815 145.507 139.751  1.00  0.00    -0.022 A 
ATOM      2  C   UNL     1     133.398 144.376 139.031  1.00  0.00     0.058 A 
ATOM      3  C   UNL     1     132.221 144.404 138.257  1.00  0.00     0.161 A 
ATOM      4  C   UNL     1     131.452 145.580 138.219  1.00  0.00     0.157 A 
ATOM      5  C   UNL     1     131.856 146.703 138.947  1.00  0.00     0.051 A 
ATOM      6  C   UNL     1     133.023 146.670 139.711  1.00  0.00     0.012 A 
ENDROOT
BRANCH   1   7
ATOM      7  C   UNL     1     135.059 145.418 140.557  1.00  0.00     0.003 C 
ATOM      8  C   UNL     1     137.210 146.219 141.454  1.00  0.00     0.035 C 
ATOM      9  C   UNL     1     135.974 146.392 140.630  1.00  0.00    -0.030 C 
ENDBRANCH   1   7
BRANCH   3  10
ATOM     10  O   UNL     1     131.789 143.290 137.520  1.00  0.00    -0.493 OA
ATOM     11  C   UNL     1     132.584 142.595 136.563  1.00  0.00     0.278 C 
ENDBRANCH   3  10
BRANCH   4  12
ATOM     12  O   UNL     1     130.281 145.652 137.465  1.00  0.00    -0.504 OA
ATOM     13  H   UNL     1     129.389 145.902 137.877  1.00  0.00     0.293 HD
ENDBRANCH   4  12
TORSDOF 3
ENDMDL
MODEL 8
REMARK VINA RESULT:    -2.637      5.052      6.242
REMARK INTER + INTRA:          -3.172
REMARK INTER:                  -3.001
REMARK INTRA:                  -0.171
REMARK UNBOUND:                -0.150
REMARK SMILES CC=Cc1ccc(O)c(OC)c1
REMARK SMILES IDX 4 1 12 2 9 3 7 4 6 5 5 6 3 7 1 8 2 9 10 10 11 11 8 12
REMARK H PARENT 8 13
REMARK Flexibility Score: inf
ROOT
ATOM      1  C   UNL     1     142.805 140.157 136.786  1.00  0.00    -0.022 A 
ATOM      2  C   UNL     1     143.595 139.509 137.749  1.00  0.00     0.058 A 
ATOM      3  C   UNL     1     144.476 138.471 137.384  1.00  0.00     0.161 A 
ATOM      4  C   UNL     1     144.552 138.078 136.038  1.00  0.00     0.157 A 
ATOM      5  C   UNL     1     143.757 138.710 135.078  1.00  0.00     0.051 A 
ATOM      6  C   UNL     1     142.887 139.737 135.445  1.00  0.00     0.012 A 
ENDROOT
BRANCH   1   7
ATOM      7  C   UNL     1     141.888 141.237 137.229  1.00  0.00     0.003 C 
ATOM      8  C   UNL     1     141.177 143.141 138.622  1.00  0.00     0.035 C 
ATOM      9  C   UNL     1     142.162 142.088 138.225  1.00  0.00    -0.030 C 
ENDBRANCH   1   7
BRANCH   3  10
ATOM     10  O   UNL     1     145.283 137.815 138.327  1.00  0.00    -0.493 OA
ATOM     11  C   UNL     1     146.548 138.290 138.780  1.00  0.00     0.278 C 
ENDBRANCH   3  10
BRANCH   4  12
ATOM     12  O   UNL     1     145.411 137.056 135.631  1.00  0.00    -0.504 OA
ATOM     13  H   UNL     1     146.261 137.240 135.111  1.00  0.00     0.293 HD
ENDBRANCH   4  12
TORSDOF 3
ENDMDL
MODEL 9
REMARK VINA RESULT:    -2.600     11.047     12.897
REMARK INTER + INTRA:          -3.131
REMARK INTER:                  -2.960
REMARK INTRA:                  -0.171
REMARK UNBOUND:                -0.150
REMARK SMILES CC=Cc1ccc(O)c(OC)c1
REMARK SMILES IDX 4 1 12 2 9 3 7 4 6 5 5 6 3 7 1 8 2 9 10 10 11 11 8 12
REMARK H PARENT 8 13
REMARK Flexibility Score: inf
ROOT
ATOM      1  C   UNL     1     141.642 133.850 136.935  1.00  0.00    -0.022 A 
ATOM      2  C   UNL     1     141.339 132.865 137.889  1.00  0.00     0.058 A 
ATOM      3  C   UNL     1     140.628 131.703 137.528  1.00  0.00     0.161 A 
ATOM      4  C   UNL     1     140.210 131.539 136.197  1.00  0.00     0.157 A 
ATOM      5  C   UNL     1     140.496 132.525 135.248  1.00  0.00     0.051 A 
ATOM      6  C   UNL     1     141.201 133.673 135.610  1.00  0.00     0.012 A 
ENDROOT
BRANCH   1   7
ATOM      7  C   UNL     1     142.384 135.059 137.373  1.00  0.00     0.003 C 
ATOM      8  C   UNL     1     144.094 136.300 138.642  1.00  0.00     0.035 C 
ATOM      9  C   UNL     1     143.406 135.035 138.238  1.00  0.00    -0.030 C 
ENDBRANCH   1   7
BRANCH   3  10
ATOM     10  O   UNL     1     140.322 130.698 138.461  1.00  0.00    -0.493 OA
ATOM     11  C   UNL     1     141.212 129.655 138.846  1.00  0.00     0.278 C 
ENDBRANCH   3  10
BRANCH   4  12
ATOM     12  O   UNL     1     139.506 130.404 135.795  1.00  0.00    -0.504 OA
ATOM     13  H   UNL     1     139.459 130.112 134.827  1.00  0.00     0.293 HD
ENDBRANCH   4  12
TORSDOF 3
ENDMDL
