MODEL 1
REMARK VINA RESULT:    -5.016      0.000      0.000
REMARK INTER + INTRA:          -4.315
REMARK INTER:                  -5.896
REMARK INTRA:                   1.580
REMARK UNBOUND:                 1.580
REMARK SMILES C=C(C)[C@H]1CC[C@]2(C(=O)[O-])CC[C@@]3(C)[C@H](CC[C@@H]4[C@]5(C)C[C@H](O)[C@H](O)C(C)(C)[C@H]5CC[C@@]43C)[C@@H]12
REMARK SMILES IDX 7 1 6 2 34 3 11 4 5 5 15 6 4 7 12 8 16 9 13 10 17 11 32 12
REMARK SMILES IDX 14 13 18 14 31 15 33 16 19 17 30 18 29 19 21 20 20 21 26 22
REMARK SMILES IDX 22 23 24 24 27 25 28 26 8 27 9 28 10 29 2 30 3 31 1 32 23 33
REMARK SMILES IDX 25 35
REMARK H PARENT 23 34 25 36
REMARK Flexibility Score: inf
ROOT
ATOM      1  C   UNL     1      -3.879  -5.456 -24.956  1.00  0.00     0.014 C 
ATOM      2  C   UNL     1      -4.287  -4.766 -26.279  1.00  0.00     0.014 C 
ATOM      3  C   UNL     1      -2.387  -5.650 -25.174  1.00  0.00     0.012 C 
ATOM      4  C   UNL     1      -4.069  -4.559 -23.683  1.00  0.00     0.014 C 
ATOM      5  C   UNL     1      -3.373  -5.355 -27.374  1.00  0.00     0.009 C 
ATOM      6  C   UNL     1      -1.546  -6.294 -24.000  1.00  0.00     0.000 C 
ATOM      7  C   UNL     1      -2.182  -6.040 -26.659  1.00  0.00     0.018 C 
ATOM      8  C   UNL     1      -2.894  -4.613 -22.636  1.00  0.00     0.008 C 
ATOM      9  C   UNL     1      -0.136  -5.703 -24.191  1.00  0.00     0.005 C 
ATOM     10  C   UNL     1      -2.124  -5.992 -22.530  1.00  0.00    -0.024 C 
ATOM     11  C   UNL     1       0.843  -6.098 -23.137  1.00  0.00     0.005 C 
ATOM     12  C   UNL     1      -0.974  -6.030 -21.331  1.00  0.00    -0.024 C 
ATOM     13  C   UNL     1      -3.213  -7.054 -22.133  1.00  0.00     0.012 C 
ATOM     14  C   UNL     1       0.463  -5.471 -21.772  1.00  0.00     0.002 C 
ATOM     15  C   UNL     1      -0.738  -7.501 -20.810  1.00  0.00     0.008 C 
ATOM     16  C   UNL     1      -1.534  -5.200 -20.131  1.00  0.00     0.012 C 
ATOM     17  C   UNL     1       1.655  -5.647 -20.689  1.00  0.00    -0.023 C 
ATOM     18  C   UNL     1       0.379  -7.684 -19.767  1.00  0.00     0.005 C 
ATOM     19  C   UNL     1       1.738  -7.159 -20.262  1.00  0.00     0.004 C 
ATOM     20  C   UNL     1       3.057  -5.257 -21.284  1.00  0.00     0.042 C 
ATOM     21  C   UNL     1       1.399  -4.670 -19.489  1.00  0.00     0.012 C 
ATOM     22  C   UNL     1       2.968  -7.565 -19.347  1.00  0.00    -0.003 C 
ATOM     23  C   UNL     1       4.258  -5.567 -20.363  1.00  0.00     0.144 C 
ATOM     24  C   UNL     1       4.297  -7.070 -20.004  1.00  0.00     0.149 C 
ATOM     25  C   UNL     1       2.872  -7.031 -17.892  1.00  0.00     0.014 C 
ATOM     26  C   UNL     1       3.052  -9.113 -19.231  1.00  0.00     0.014 C 
ENDROOT
BRANCH   1  27
ATOM     27  C   UNL     1      -4.683  -6.748 -24.862  1.00  0.00     0.048 C 
ATOM     28  O   UNL     1      -5.066  -7.328 -25.912  1.00  0.00    -0.550 OA
ATOM     29  O   UNL     1      -5.081  -7.265 -23.636  1.00  0.00    -0.550 OA
ENDBRANCH   1  27
BRANCH   7  30
ATOM     30  C   UNL     1      -2.001  -7.537 -26.962  1.00  0.00    -0.077 C 
ATOM     31  C   UNL     1      -1.031  -8.442 -26.236  1.00  0.00     0.039 C 
ATOM     32  C   UNL     1      -2.838  -8.135 -27.834  1.00  0.00     0.008 C 
ENDBRANCH   7  30
BRANCH  23  33
ATOM     33  O   UNL     1       5.437  -5.207 -21.037  1.00  0.00    -0.390 OA
ATOM     34  H   UNL     1       5.825  -6.044 -21.407  1.00  0.00     0.211 HD
ENDBRANCH  23  33
BRANCH  24  35
ATOM     35  O   UNL     1       4.568  -7.821 -21.166  1.00  0.00    -0.390 OA
ATOM     36  H   UNL     1       4.685  -7.178 -21.911  1.00  0.00     0.211 HD
ENDBRANCH  24  35
TORSDOF 4
ENDMDL
MODEL 2
REMARK VINA RESULT:    -4.928      1.965      7.916
REMARK INTER + INTRA:          -4.212
REMARK INTER:                  -4.794
REMARK INTRA:                   0.582
REMARK UNBOUND:                 1.580
REMARK SMILES C=C(C)[C@H]1CC[C@]2(C(=O)[O-])CC[C@@]3(C)[C@H](CC[C@@H]4[C@]5(C)C[C@H](O)[C@H](O)C(C)(C)[C@H]5CC[C@@]43C)[C@@H]12
REMARK SMILES IDX 7 1 6 2 34 3 11 4 5 5 15 6 4 7 12 8 16 9 13 10 17 11 32 12
REMARK SMILES IDX 14 13 18 14 31 15 33 16 19 17 30 18 29 19 21 20 20 21 26 22
REMARK SMILES IDX 22 23 24 24 27 25 28 26 8 27 9 28 10 29 2 30 3 31 1 32 23 33
REMARK SMILES IDX 25 35
REMARK H PARENT 23 34 25 36
REMARK Flexibility Score: inf
ROOT
ATOM      1  C   UNL     1       2.027  -7.995 -19.751  1.00  0.00     0.014 C 
ATOM      2  C   UNL     1       3.287  -8.776 -19.305  1.00  0.00     0.014 C 
ATOM      3  C   UNL     1       2.198  -8.003 -21.263  1.00  0.00     0.012 C 
ATOM      4  C   UNL     1       0.676  -8.716 -19.414  1.00  0.00     0.014 C 
ATOM      5  C   UNL     1       4.395  -8.423 -20.319  1.00  0.00     0.009 C 
ATOM      6  C   UNL     1       1.062  -7.334 -22.137  1.00  0.00     0.000 C 
ATOM      7  C   UNL     1       3.704  -7.807 -21.560  1.00  0.00     0.018 C 
ATOM      8  C   UNL     1      -0.411  -8.684 -20.552  1.00  0.00     0.008 C 
ATOM      9  C   UNL     1       1.126  -8.104 -23.471  1.00  0.00     0.005 C 
ATOM     10  C   UNL     1      -0.404  -7.401 -21.480  1.00  0.00    -0.024 C 
ATOM     11  C   UNL     1       0.076  -7.711 -24.456  1.00  0.00     0.005 C 
ATOM     12  C   UNL     1      -1.642  -7.365 -22.587  1.00  0.00    -0.024 C 
ATOM     13  C   UNL     1      -0.636  -6.181 -20.516  1.00  0.00     0.012 C 
ATOM     14  C   UNL     1      -1.330  -8.133 -23.959  1.00  0.00     0.002 C 
ATOM     15  C   UNL     1      -2.014  -5.882 -22.983  1.00  0.00     0.008 C 
ATOM     16  C   UNL     1      -2.898  -7.984 -21.892  1.00  0.00     0.012 C 
ATOM     17  C   UNL     1      -2.440  -7.978 -25.128  1.00  0.00    -0.023 C 
ATOM     18  C   UNL     1      -3.080  -5.716 -24.080  1.00  0.00     0.005 C 
ATOM     19  C   UNL     1      -2.706  -6.448 -25.381  1.00  0.00     0.004 C 
ATOM     20  C   UNL     1      -1.954  -8.593 -26.491  1.00  0.00     0.042 C 
ATOM     21  C   UNL     1      -3.725  -8.779 -24.718  1.00  0.00     0.012 C 
ATOM     22  C   UNL     1      -3.627  -6.090 -26.621  1.00  0.00    -0.003 C 
ATOM     23  C   UNL     1      -2.890  -8.326 -27.690  1.00  0.00     0.144 C 
ATOM     24  C   UNL     1      -3.087  -6.807 -27.900  1.00  0.00     0.149 C 
ATOM     25  C   UNL     1      -5.125  -6.443 -26.414  1.00  0.00     0.014 C 
ATOM     26  C   UNL     1      -3.580  -4.559 -26.888  1.00  0.00     0.014 C 
ENDROOT
BRANCH   1  27
ATOM     27  C   UNL     1       2.108  -6.616 -19.108  1.00  0.00     0.048 C 
ATOM     28  O   UNL     1       2.345  -6.510 -17.875  1.00  0.00    -0.550 OA
ATOM     29  O   UNL     1       1.841  -5.461 -19.833  1.00  0.00    -0.550 OA
ENDBRANCH   1  27
BRANCH   7  30
ATOM     30  C   UNL     1       4.158  -6.385 -21.931  1.00  0.00    -0.077 C 
ATOM     31  C   UNL     1       4.817  -5.423 -20.968  1.00  0.00     0.039 C 
ATOM     32  C   UNL     1       4.098  -5.993 -23.220  1.00  0.00     0.008 C 
ENDBRANCH   7  30
BRANCH  23  33
ATOM     33  O   UNL     1      -2.312  -8.894 -28.838  1.00  0.00    -0.390 OA
ATOM     34  H   UNL     1      -2.790  -9.749 -29.009  1.00  0.00     0.211 HD
ENDBRANCH  23  33
BRANCH  24  35
ATOM     35  O   UNL     1      -1.865  -6.228 -28.298  1.00  0.00    -0.390 OA
ATOM     36  H   UNL     1      -1.253  -6.267 -27.519  1.00  0.00     0.211 HD
ENDBRANCH  24  35
TORSDOF 4
ENDMDL
MODEL 3
REMARK VINA RESULT:    -4.122      2.369      3.796
REMARK INTER + INTRA:          -3.265
REMARK INTER:                  -4.266
REMARK INTRA:                   1.001
REMARK UNBOUND:                 1.580
REMARK SMILES C=C(C)[C@H]1CC[C@]2(C(=O)[O-])CC[C@@]3(C)[C@H](CC[C@@H]4[C@]5(C)C[C@H](O)[C@H](O)C(C)(C)[C@H]5CC[C@@]43C)[C@@H]12
REMARK SMILES IDX 7 1 6 2 34 3 11 4 5 5 15 6 4 7 12 8 16 9 13 10 17 11 32 12
REMARK SMILES IDX 14 13 18 14 31 15 33 16 19 17 30 18 29 19 21 20 20 21 26 22
REMARK SMILES IDX 22 23 24 24 27 25 28 26 8 27 9 28 10 29 2 30 3 31 1 32 23 33
REMARK SMILES IDX 25 35
REMARK H PARENT 23 34 25 36
REMARK Flexibility Score: inf
ROOT
ATOM      1  C   UNL     1      -4.069  -7.852 -26.780  1.00  0.00     0.014 C 
ATOM      2  C   UNL     1      -5.125  -7.331 -27.784  1.00  0.00     0.014 C 
ATOM      3  C   UNL     1      -3.660  -6.560 -26.089  1.00  0.00     0.012 C 
ATOM      4  C   UNL     1      -4.647  -8.821 -25.690  1.00  0.00     0.014 C 
ATOM      5  C   UNL     1      -4.661  -5.922 -28.207  1.00  0.00     0.009 C 
ATOM      6  C   UNL     1      -2.603  -6.654 -24.916  1.00  0.00     0.000 C 
ATOM      7  C   UNL     1      -3.613  -5.452 -27.168  1.00  0.00     0.018 C 
ATOM      8  C   UNL     1      -4.121  -8.583 -24.225  1.00  0.00     0.008 C 
ATOM      9  C   UNL     1      -2.950  -5.453 -24.015  1.00  0.00     0.005 C 
ATOM     10  C   UNL     1      -2.640  -8.040 -24.101  1.00  0.00    -0.024 C 
ATOM     11  C   UNL     1      -2.134  -5.366 -22.768  1.00  0.00     0.005 C 
ATOM     12  C   UNL     1      -2.097  -7.918 -22.536  1.00  0.00    -0.024 C 
ATOM     13  C   UNL     1      -1.735  -9.118 -24.801  1.00  0.00     0.012 C 
ATOM     14  C   UNL     1      -2.468  -6.537 -21.810  1.00  0.00     0.002 C 
ATOM     15  C   UNL     1      -0.525  -8.049 -22.462  1.00  0.00     0.008 C 
ATOM     16  C   UNL     1      -2.698  -9.125 -21.746  1.00  0.00     0.012 C 
ATOM     17  C   UNL     1      -1.814  -6.307 -20.346  1.00  0.00    -0.023 C 
ATOM     18  C   UNL     1       0.112  -7.851 -21.076  1.00  0.00     0.005 C 
ATOM     19  C   UNL     1      -0.256  -6.495 -20.447  1.00  0.00     0.004 C 
ATOM     20  C   UNL     1      -2.069  -4.852 -19.806  1.00  0.00     0.042 C 
ATOM     21  C   UNL     1      -2.499  -7.281 -19.325  1.00  0.00     0.012 C 
ATOM     22  C   UNL     1       0.583  -6.126 -19.153  1.00  0.00    -0.003 C 
ATOM     23  C   UNL     1      -1.326  -4.510 -18.496  1.00  0.00     0.144 C 
ATOM     24  C   UNL     1       0.199  -4.690 -18.671  1.00  0.00     0.149 C 
ATOM     25  C   UNL     1       0.412  -7.134 -17.985  1.00  0.00     0.014 C 
ATOM     26  C   UNL     1       2.100  -6.115 -19.493  1.00  0.00     0.014 C 
ENDROOT
BRANCH   1  27
ATOM     27  C   UNL     1      -2.966  -8.515 -27.597  1.00  0.00     0.048 C 
ATOM     28  O   UNL     1      -1.772  -8.461 -27.200  1.00  0.00    -0.550 OA
ATOM     29  O   UNL     1      -3.231  -9.109 -28.824  1.00  0.00    -0.550 OA
ENDBRANCH   1  27
BRANCH   7  30
ATOM     30  C   UNL     1      -2.229  -5.099 -27.739  1.00  0.00    -0.077 C 
ATOM     31  C   UNL     1      -0.966  -5.007 -26.913  1.00  0.00     0.039 C 
ATOM     32  C   UNL     1      -2.079  -4.991 -29.075  1.00  0.00     0.008 C 
ENDBRANCH   7  30
BRANCH  23  33
ATOM     33  O   UNL     1      -1.614  -3.177 -18.159  1.00  0.00    -0.390 OA
ATOM     34  H   UNL     1      -2.602  -3.076 -18.197  1.00  0.00     0.211 HD
ENDBRANCH  23  33
BRANCH  24  35
ATOM     35  O   UNL     1       0.680  -3.730 -19.585  1.00  0.00    -0.390 OA
ATOM     36  H   UNL     1      -0.098  -3.398 -20.100  1.00  0.00     0.211 HD
ENDBRANCH  24  35
TORSDOF 4
ENDMDL
MODEL 4
REMARK VINA RESULT:    -4.088      1.752      8.101
REMARK INTER + INTRA:          -3.225
REMARK INTER:                  -3.847
REMARK INTRA:                   0.622
REMARK UNBOUND:                 1.580
REMARK SMILES C=C(C)[C@H]1CC[C@]2(C(=O)[O-])CC[C@@]3(C)[C@H](CC[C@@H]4[C@]5(C)C[C@H](O)[C@H](O)C(C)(C)[C@H]5CC[C@@]43C)[C@@H]12
REMARK SMILES IDX 7 1 6 2 34 3 11 4 5 5 15 6 4 7 12 8 16 9 13 10 17 11 32 12
REMARK SMILES IDX 14 13 18 14 31 15 33 16 19 17 30 18 29 19 21 20 20 21 26 22
REMARK SMILES IDX 22 23 24 24 27 25 28 26 8 27 9 28 10 29 2 30 3 31 1 32 23 33
REMARK SMILES IDX 25 35
REMARK H PARENT 23 34 25 36
REMARK Flexibility Score: inf
ROOT
ATOM      1  C   UNL     1       4.225  -6.872 -21.649  1.00  0.00     0.014 C 
ATOM      2  C   UNL     1       5.332  -5.902 -21.172  1.00  0.00     0.014 C 
ATOM      3  C   UNL     1       2.984  -6.010 -21.474  1.00  0.00     0.012 C 
ATOM      4  C   UNL     1       4.330  -7.266 -23.164  1.00  0.00     0.014 C 
ATOM      5  C   UNL     1       4.702  -5.042 -20.056  1.00  0.00     0.009 C 
ATOM      6  C   UNL     1       1.592  -6.621 -21.912  1.00  0.00     0.000 C 
ATOM      7  C   UNL     1       3.165  -5.196 -20.169  1.00  0.00     0.018 C 
ATOM      8  C   UNL     1       2.968  -7.285 -23.954  1.00  0.00     0.008 C 
ATOM      9  C   UNL     1       0.757  -5.386 -22.303  1.00  0.00     0.005 C 
ATOM     10  C   UNL     1       1.686  -7.683 -23.116  1.00  0.00    -0.024 C 
ATOM     11  C   UNL     1      -0.596  -5.708 -22.844  1.00  0.00     0.005 C 
ATOM     12  C   UNL     1       0.299  -7.800 -24.022  1.00  0.00    -0.024 C 
ATOM     13  C   UNL     1       1.975  -9.125 -22.561  1.00  0.00     0.012 C 
ATOM     14  C   UNL     1      -0.485  -6.415 -24.218  1.00  0.00     0.002 C 
ATOM     15  C   UNL     1      -0.730  -8.804 -23.369  1.00  0.00     0.008 C 
ATOM     16  C   UNL     1       0.706  -8.393 -25.410  1.00  0.00     0.012 C 
ATOM     17  C   UNL     1      -1.927  -6.513 -24.949  1.00  0.00    -0.023 C 
ATOM     18  C   UNL     1      -2.099  -8.923 -24.061  1.00  0.00     0.005 C 
ATOM     19  C   UNL     1      -2.815  -7.567 -24.189  1.00  0.00     0.004 C 
ATOM     20  C   UNL     1      -2.703  -5.146 -24.914  1.00  0.00     0.042 C 
ATOM     21  C   UNL     1      -1.707  -6.854 -26.464  1.00  0.00     0.012 C 
ATOM     22  C   UNL     1      -4.331  -7.668 -24.643  1.00  0.00    -0.003 C 
ATOM     23  C   UNL     1      -4.155  -5.213 -25.437  1.00  0.00     0.144 C 
ATOM     24  C   UNL     1      -4.977  -6.245 -24.633  1.00  0.00     0.149 C 
ATOM     25  C   UNL     1      -4.528  -8.323 -26.037  1.00  0.00     0.014 C 
ATOM     26  C   UNL     1      -5.125  -8.550 -23.638  1.00  0.00     0.014 C 
ENDROOT
BRANCH   1  27
ATOM     27  C   UNL     1       4.283  -8.095 -20.741  1.00  0.00     0.048 C 
ATOM     28  O   UNL     1       5.366  -8.726 -20.606  1.00  0.00    -0.550 OA
ATOM     29  O   UNL     1       3.145  -8.591 -20.118  1.00  0.00    -0.550 OA
ENDBRANCH   1  27
BRANCH   7  30
ATOM     30  C   UNL     1       2.461  -5.737 -18.913  1.00  0.00    -0.077 C 
ATOM     31  C   UNL     1       0.960  -5.774 -18.728  1.00  0.00     0.039 C 
ATOM     32  C   UNL     1       3.196  -6.342 -17.959  1.00  0.00     0.008 C 
ENDBRANCH   7  30
BRANCH  23  33
ATOM     33  O   UNL     1      -4.732  -3.939 -25.309  1.00  0.00    -0.390 OA
ATOM     34  H   UNL     1      -5.470  -4.021 -24.649  1.00  0.00     0.211 HD
ENDBRANCH  23  33
BRANCH  24  35
ATOM     35  O   UNL     1      -5.124  -5.792 -23.305  1.00  0.00    -0.390 OA
ATOM     36  H   UNL     1      -6.008  -5.349 -23.242  1.00  0.00     0.211 HD
ENDBRANCH  24  35
TORSDOF 4
ENDMDL
MODEL 5
REMARK VINA RESULT:    -3.589      3.911      7.576
REMARK INTER + INTRA:          -2.639
REMARK INTER:                  -3.972
REMARK INTRA:                   1.333
REMARK UNBOUND:                 1.580
REMARK SMILES C=C(C)[C@H]1CC[C@]2(C(=O)[O-])CC[C@@]3(C)[C@H](CC[C@@H]4[C@]5(C)C[C@H](O)[C@H](O)C(C)(C)[C@H]5CC[C@@]43C)[C@@H]12
REMARK SMILES IDX 7 1 6 2 34 3 11 4 5 5 15 6 4 7 12 8 16 9 13 10 17 11 32 12
REMARK SMILES IDX 14 13 18 14 31 15 33 16 19 17 30 18 29 19 21 20 20 21 26 22
REMARK SMILES IDX 22 23 24 24 27 25 28 26 8 27 9 28 10 29 2 30 3 31 1 32 23 33
REMARK SMILES IDX 25 35
REMARK H PARENT 23 34 25 36
REMARK Flexibility Score: inf
ROOT
ATOM      1  C   UNL     1       1.907  -7.742 -20.269  1.00  0.00     0.014 C 
ATOM      2  C   UNL     1       0.498  -7.177 -19.970  1.00  0.00     0.014 C 
ATOM      3  C   UNL     1       2.702  -6.460 -20.462  1.00  0.00     0.012 C 
ATOM      4  C   UNL     1       2.546  -8.531 -19.073  1.00  0.00     0.014 C 
ATOM      5  C   UNL     1       0.368  -5.881 -20.797  1.00  0.00     0.009 C 
ATOM      6  C   UNL     1       4.254  -6.588 -20.742  1.00  0.00     0.000 C 
ATOM      7  C   UNL     1       1.796  -5.463 -21.226  1.00  0.00     0.018 C 
ATOM      8  C   UNL     1       4.070  -8.238 -18.806  1.00  0.00     0.008 C 
ATOM      9  C   UNL     1       4.837  -5.280 -20.174  1.00  0.00     0.005 C 
ATOM     10  C   UNL     1       4.940  -7.883 -20.079  1.00  0.00    -0.024 C 
ATOM     11  C   UNL     1       6.325  -5.193 -20.240  1.00  0.00     0.005 C 
ATOM     12  C   UNL     1       6.559  -7.698 -19.757  1.00  0.00    -0.024 C 
ATOM     13  C   UNL     1       4.818  -9.125 -21.035  1.00  0.00     0.012 C 
ATOM     14  C   UNL     1       6.979  -6.224 -19.287  1.00  0.00     0.002 C 
ATOM     15  C   UNL     1       7.438  -8.025 -21.028  1.00  0.00     0.008 C 
ATOM     16  C   UNL     1       6.932  -8.745 -18.658  1.00  0.00     0.012 C 
ATOM     17  C   UNL     1       8.569  -5.956 -19.126  1.00  0.00    -0.023 C 
ATOM     18  C   UNL     1       8.952  -7.793 -20.888  1.00  0.00     0.005 C 
ATOM     19  C   UNL     1       9.291  -6.352 -20.467  1.00  0.00     0.004 C 
ATOM     20  C   UNL     1       8.889  -4.440 -18.861  1.00  0.00     0.042 C 
ATOM     21  C   UNL     1       9.093  -6.742 -17.875  1.00  0.00     0.012 C 
ATOM     22  C   UNL     1      10.830  -5.985 -20.572  1.00  0.00    -0.003 C 
ATOM     23  C   UNL     1      10.392  -4.086 -18.873  1.00  0.00     0.144 C 
ATOM     24  C   UNL     1      11.034  -4.476 -20.224  1.00  0.00     0.149 C 
ATOM     25  C   UNL     1      11.747  -6.859 -19.674  1.00  0.00     0.014 C 
ATOM     26  C   UNL     1      11.326  -6.200 -22.030  1.00  0.00     0.014 C 
ENDROOT
BRANCH   1  27
ATOM     27  C   UNL     1       1.784  -8.609 -21.516  1.00  0.00     0.048 C 
ATOM     28  O   UNL     1       2.793  -8.812 -22.243  1.00  0.00    -0.550 OA
ATOM     29  O   UNL     1       0.559  -9.120 -21.926  1.00  0.00    -0.550 OA
ENDBRANCH   1  27
BRANCH   7  30
ATOM     30  C   UNL     1       2.023  -5.343 -22.742  1.00  0.00    -0.077 C 
ATOM     31  C   UNL     1       3.327  -5.667 -23.436  1.00  0.00     0.039 C 
ATOM     32  C   UNL     1       0.974  -5.063 -23.542  1.00  0.00     0.008 C 
ENDBRANCH   7  30
BRANCH  23  33
ATOM     33  O   UNL     1      10.524  -2.702 -18.664  1.00  0.00    -0.390 OA
ATOM     34  H   UNL     1      10.627  -2.284 -19.559  1.00  0.00     0.211 HD
ENDBRANCH  23  33
BRANCH  24  35
ATOM     35  O   UNL     1      10.496  -3.668 -21.247  1.00  0.00    -0.390 OA
ATOM     36  H   UNL     1      10.947  -3.923 -22.091  1.00  0.00     0.211 HD
ENDBRANCH  24  35
TORSDOF 4
ENDMDL
MODEL 6
REMARK VINA RESULT:    -3.563      1.956      7.801
REMARK INTER + INTRA:          -2.608
REMARK INTER:                  -3.599
REMARK INTRA:                   0.991
REMARK UNBOUND:                 1.580
REMARK SMILES C=C(C)[C@H]1CC[C@]2(C(=O)[O-])CC[C@@]3(C)[C@H](CC[C@@H]4[C@]5(C)C[C@H](O)[C@H](O)C(C)(C)[C@H]5CC[C@@]43C)[C@@H]12
REMARK SMILES IDX 7 1 6 2 34 3 11 4 5 5 15 6 4 7 12 8 16 9 13 10 17 11 32 12
REMARK SMILES IDX 14 13 18 14 31 15 33 16 19 17 30 18 29 19 21 20 20 21 26 22
REMARK SMILES IDX 22 23 24 24 27 25 28 26 8 27 9 28 10 29 2 30 3 31 1 32 23 33
REMARK SMILES IDX 25 35
REMARK H PARENT 23 34 25 36
REMARK Flexibility Score: inf
ROOT
ATOM      1  C   UNL     1       4.162  -7.639 -20.657  1.00  0.00     0.014 C 
ATOM      2  C   UNL     1       5.274  -8.710 -20.557  1.00  0.00     0.014 C 
ATOM      3  C   UNL     1       3.397  -8.123 -21.879  1.00  0.00     0.012 C 
ATOM      4  C   UNL     1       3.173  -7.630 -19.439  1.00  0.00     0.014 C 
ATOM      5  C   UNL     1       5.606  -9.125 -22.006  1.00  0.00     0.009 C 
ATOM      6  C   UNL     1       2.107  -7.316 -22.310  1.00  0.00     0.000 C 
ATOM      7  C   UNL     1       4.437  -8.643 -22.901  1.00  0.00     0.018 C 
ATOM      8  C   UNL     1       1.650  -7.469 -19.806  1.00  0.00     0.008 C 
ATOM      9  C   UNL     1       1.227  -8.375 -23.003  1.00  0.00     0.005 C 
ATOM     10  C   UNL     1       1.335  -6.602 -21.093  1.00  0.00    -0.024 C 
ATOM     11  C   UNL     1      -0.110  -7.873 -23.434  1.00  0.00     0.005 C 
ATOM     12  C   UNL     1      -0.286  -6.369 -21.367  1.00  0.00    -0.024 C 
ATOM     13  C   UNL     1       1.945  -5.183 -20.806  1.00  0.00     0.012 C 
ATOM     14  C   UNL     1      -0.994  -7.538 -22.206  1.00  0.00     0.002 C 
ATOM     15  C   UNL     1      -0.546  -5.031 -22.164  1.00  0.00     0.008 C 
ATOM     16  C   UNL     1      -0.970  -6.214 -19.970  1.00  0.00     0.012 C 
ATOM     17  C   UNL     1      -2.531  -7.270 -22.640  1.00  0.00    -0.023 C 
ATOM     18  C   UNL     1      -2.004  -4.751 -22.569  1.00  0.00     0.005 C 
ATOM     19  C   UNL     1      -2.614  -5.894 -23.399  1.00  0.00     0.004 C 
ATOM     20  C   UNL     1      -3.069  -8.372 -23.623  1.00  0.00     0.042 C 
ATOM     21  C   UNL     1      -3.439  -7.338 -21.363  1.00  0.00     0.012 C 
ATOM     22  C   UNL     1      -4.008  -5.543 -24.068  1.00  0.00    -0.003 C 
ATOM     23  C   UNL     1      -4.467  -8.084 -24.213  1.00  0.00     0.144 C 
ATOM     24  C   UNL     1      -4.474  -6.734 -24.967  1.00  0.00     0.149 C 
ATOM     25  C   UNL     1      -5.125  -5.190 -23.048  1.00  0.00     0.014 C 
ATOM     26  C   UNL     1      -3.856  -4.297 -24.986  1.00  0.00     0.014 C 
ENDROOT
BRANCH   1  27
ATOM     27  C   UNL     1       4.855  -6.292 -20.831  1.00  0.00     0.048 C 
ATOM     28  O   UNL     1       5.623  -5.859 -19.931  1.00  0.00    -0.550 OA
ATOM     29  O   UNL     1       4.596  -5.481 -21.928  1.00  0.00    -0.550 OA
ENDBRANCH   1  27
BRANCH   7  30
ATOM     30  C   UNL     1       4.829  -7.685 -24.039  1.00  0.00    -0.077 C 
ATOM     31  C   UNL     1       6.202  -7.629 -24.670  1.00  0.00     0.039 C 
ATOM     32  C   UNL     1       3.873  -6.930 -24.618  1.00  0.00     0.008 C 
ENDBRANCH   7  30
BRANCH  23  33
ATOM     33  O   UNL     1      -4.798  -9.125 -25.097  1.00  0.00    -0.390 OA
ATOM     34  H   UNL     1      -4.999  -8.706 -25.976  1.00  0.00     0.211 HD
ENDBRANCH  23  33
BRANCH  24  35
ATOM     35  O   UNL     1      -3.647  -6.831 -26.105  1.00  0.00    -0.390 OA
ATOM     36  H   UNL     1      -3.691  -7.769 -26.422  1.00  0.00     0.211 HD
ENDBRANCH  24  35
TORSDOF 4
ENDMDL
MODEL 7
REMARK VINA RESULT:    -3.280      6.597     11.619
REMARK INTER + INTRA:          -2.276
REMARK INTER:                  -3.732
REMARK INTRA:                   1.457
REMARK UNBOUND:                 1.580
REMARK SMILES C=C(C)[C@H]1CC[C@]2(C(=O)[O-])CC[C@@]3(C)[C@H](CC[C@@H]4[C@]5(C)C[C@H](O)[C@H](O)C(C)(C)[C@H]5CC[C@@]43C)[C@@H]12
REMARK SMILES IDX 7 1 6 2 34 3 11 4 5 5 15 6 4 7 12 8 16 9 13 10 17 11 32 12
REMARK SMILES IDX 14 13 18 14 31 15 33 16 19 17 30 18 29 19 21 20 20 21 26 22
REMARK SMILES IDX 22 23 24 24 27 25 28 26 8 27 9 28 10 29 2 30 3 31 1 32 23 33
REMARK SMILES IDX 25 35
REMARK H PARENT 23 34 25 36
REMARK Flexibility Score: inf
ROOT
ATOM      1  C   UNL     1       6.689  -7.856 -18.704  1.00  0.00     0.014 C 
ATOM      2  C   UNL     1       5.389  -7.986 -17.875  1.00  0.00     0.014 C 
ATOM      3  C   UNL     1       6.831  -6.344 -18.792  1.00  0.00     0.012 C 
ATOM      4  C   UNL     1       7.964  -8.420 -17.986  1.00  0.00     0.014 C 
ATOM      5  C   UNL     1       4.500  -6.789 -18.274  1.00  0.00     0.009 C 
ATOM      6  C   UNL     1       8.100  -5.763 -19.535  1.00  0.00     0.000 C 
ATOM      7  C   UNL     1       5.411  -5.755 -18.981  1.00  0.00     0.018 C 
ATOM      8  C   UNL     1       9.259  -7.533 -18.110  1.00  0.00     0.008 C 
ATOM      9  C   UNL     1       8.333  -4.401 -18.852  1.00  0.00     0.005 C 
ATOM     10  C   UNL     1       9.403  -6.703 -19.450  1.00  0.00    -0.024 C 
ATOM     11  C   UNL     1       9.549  -3.678 -19.326  1.00  0.00     0.005 C 
ATOM     12  C   UNL     1      10.839  -5.877 -19.579  1.00  0.00    -0.024 C 
ATOM     13  C   UNL     1       9.397  -7.764 -20.609  1.00  0.00     0.012 C 
ATOM     14  C   UNL     1      10.836  -4.427 -18.896  1.00  0.00     0.002 C 
ATOM     15  C   UNL     1      11.239  -5.655 -21.091  1.00  0.00     0.008 C 
ATOM     16  C   UNL     1      11.945  -6.777 -18.937  1.00  0.00     0.012 C 
ATOM     17  C   UNL     1      12.157  -3.522 -19.145  1.00  0.00    -0.023 C 
ATOM     18  C   UNL     1      12.502  -4.813 -21.345  1.00  0.00     0.005 C 
ATOM     19  C   UNL     1      12.423  -3.422 -20.692  1.00  0.00     0.004 C 
ATOM     20  C   UNL     1      11.977  -2.054 -18.612  1.00  0.00     0.042 C 
ATOM     21  C   UNL     1      13.353  -4.139 -18.341  1.00  0.00     0.012 C 
ATOM     22  C   UNL     1      13.566  -2.421 -21.146  1.00  0.00    -0.003 C 
ATOM     23  C   UNL     1      13.129  -1.091 -18.972  1.00  0.00     0.144 C 
ATOM     24  C   UNL     1      13.320  -1.018 -20.505  1.00  0.00     0.149 C 
ATOM     25  C   UNL     1      15.000  -2.909 -20.805  1.00  0.00     0.014 C 
ATOM     26  C   UNL     1      13.529  -2.242 -22.690  1.00  0.00     0.014 C 
ENDROOT
BRANCH   1  27
ATOM     27  C   UNL     1       6.438  -8.550 -20.038  1.00  0.00     0.048 C 
ATOM     28  O   UNL     1       5.336  -9.125 -20.249  1.00  0.00    -0.550 OA
ATOM     29  O   UNL     1       7.430  -8.642 -21.005  1.00  0.00    -0.550 OA
ENDBRANCH   1  27
BRANCH   7  30
ATOM     30  C   UNL     1       5.001  -5.385 -20.416  1.00  0.00    -0.077 C 
ATOM     31  C   UNL     1       4.028  -6.183 -21.256  1.00  0.00     0.039 C 
ATOM     32  C   UNL     1       5.414  -4.212 -20.935  1.00  0.00     0.008 C 
ENDBRANCH   7  30
BRANCH  23  33
ATOM     33  O   UNL     1      12.815   0.183 -18.470  1.00  0.00    -0.390 OA
ATOM     34  H   UNL     1      11.876   0.144 -18.147  1.00  0.00     0.211 HD
ENDBRANCH  23  33
BRANCH  24  35
ATOM     35  O   UNL     1      12.188  -0.413 -21.088  1.00  0.00    -0.390 OA
ATOM     36  H   UNL     1      11.916   0.335 -20.497  1.00  0.00     0.211 HD
ENDBRANCH  24  35
TORSDOF 4
ENDMDL
