MODEL 1
REMARK VINA RESULT:    -7.037      0.000      0.000
REMARK INTER + INTRA:          -7.654
REMARK INTER:                  -7.654
REMARK INTRA:                   0.000
REMARK UNBOUND:                 0.000
REMARK SMILES Cc1cc(O)c2c(c1)C(=O)c1cc(O)cc(O)c1C2=O
REMARK SMILES IDX 1 1 2 2 8 3 7 4 6 5 4 6 3 7 19 8 20 9 18 10 11 11 9 12 10 13
REMARK SMILES IDX 12 14 13 15 15 16 16 17 5 18 17 20 14 22
REMARK H PARENT 5 19 17 21 14 23
REMARK Flexibility Score: inf
ROOT
ATOM      1  C   UNL     1      -8.079   3.572  -0.568  1.00  0.00     0.044 C 
ATOM      2  C   UNL     1      -7.357   3.768  -1.870  1.00  0.00    -0.047 A 
ATOM      3  C   UNL     1      -7.541   4.942  -2.606  1.00  0.00     0.016 A 
ATOM      4  C   UNL     1      -6.891   5.123  -3.839  1.00  0.00     0.038 A 
ATOM      5  C   UNL     1      -6.044   4.111  -4.342  1.00  0.00     0.076 A 
ATOM      6  C   UNL     1      -5.927   2.889  -3.631  1.00  0.00     0.127 A 
ATOM      7  C   UNL     1      -6.566   2.740  -2.396  1.00  0.00     0.050 A 
ATOM      8  C   UNL     1      -5.260   4.398  -5.572  1.00  0.00     0.201 C 
ATOM      9  O   UNL     1      -4.138   3.849  -5.743  1.00  0.00    -0.288 OA
ATOM     10  C   UNL     1      -5.709   5.468  -6.501  1.00  0.00     0.076 A 
ATOM     11  C   UNL     1      -6.560   6.476  -5.995  1.00  0.00     0.041 A 
ATOM     12  C   UNL     1      -7.099   6.367  -4.619  1.00  0.00     0.194 C 
ATOM     13  O   UNL     1      -7.754   7.324  -4.119  1.00  0.00    -0.289 OA
ATOM     14  C   UNL     1      -6.896   7.576  -6.802  1.00  0.00     0.059 A 
ATOM     15  C   UNL     1      -6.407   7.674  -8.107  1.00  0.00     0.120 A 
ATOM     16  C   UNL     1      -5.599   6.661  -8.623  1.00  0.00     0.093 A 
ATOM     17  C   UNL     1      -5.267   5.545  -7.848  1.00  0.00     0.131 A 
ENDROOT
BRANCH   6  18
ATOM     18  O   UNL     1      -5.221   1.791  -4.127  1.00  0.00    -0.507 OA
ATOM     19  H   UNL     1      -4.391   1.872  -4.697  1.00  0.00     0.293 HD
ENDBRANCH   6  18
BRANCH  17  20
ATOM     20  O   UNL     1      -4.532   4.528  -8.462  1.00  0.00    -0.507 OA
ATOM     21  H   UNL     1      -4.288   4.530  -9.443  1.00  0.00     0.293 HD
ENDBRANCH  17  20
BRANCH  15  22
ATOM     22  O   UNL     1      -6.726   8.770  -8.906  1.00  0.00    -0.508 OA
ATOM     23  H   UNL     1      -7.586   8.803  -9.442  1.00  0.00     0.293 HD
ENDBRANCH  15  22
TORSDOF 3
ENDMDL
MODEL 2
REMARK VINA RESULT:    -6.551      1.391      6.473
REMARK INTER + INTRA:          -7.125
REMARK INTER:                  -7.125
REMARK INTRA:                   0.000
REMARK UNBOUND:                 0.000
REMARK SMILES Cc1cc(O)c2c(c1)C(=O)c1cc(O)cc(O)c1C2=O
REMARK SMILES IDX 1 1 2 2 8 3 7 4 6 5 4 6 3 7 19 8 20 9 18 10 11 11 9 12 10 13
REMARK SMILES IDX 12 14 13 15 15 16 16 17 5 18 17 20 14 22
REMARK H PARENT 5 19 17 21 14 23
REMARK Flexibility Score: inf
ROOT
ATOM      1  C   UNL     1      -5.467   8.189 -11.342  1.00  0.00     0.044 C 
ATOM      2  C   UNL     1      -5.810   7.880  -9.914  1.00  0.00    -0.047 A 
ATOM      3  C   UNL     1      -5.256   6.761  -9.284  1.00  0.00     0.016 A 
ATOM      4  C   UNL     1      -5.592   6.447  -7.957  1.00  0.00     0.038 A 
ATOM      5  C   UNL     1      -6.497   7.268  -7.248  1.00  0.00     0.076 A 
ATOM      6  C   UNL     1      -7.119   8.352  -7.919  1.00  0.00     0.127 A 
ATOM      7  C   UNL     1      -6.753   8.657  -9.234  1.00  0.00     0.050 A 
ATOM      8  C   UNL     1      -6.714   6.991  -5.804  1.00  0.00     0.201 C 
ATOM      9  O   UNL     1      -7.004   7.936  -5.021  1.00  0.00    -0.288 OA
ATOM     10  C   UNL     1      -6.405   5.645  -5.255  1.00  0.00     0.076 A 
ATOM     11  C   UNL     1      -5.501   4.826  -5.968  1.00  0.00     0.041 A 
ATOM     12  C   UNL     1      -5.007   5.254  -7.299  1.00  0.00     0.194 C 
ATOM     13  O   UNL     1      -4.106   4.590  -7.881  1.00  0.00    -0.289 OA
ATOM     14  C   UNL     1      -5.079   3.605  -5.415  1.00  0.00     0.059 A 
ATOM     15  C   UNL     1      -5.557   3.188  -4.170  1.00  0.00     0.120 A 
ATOM     16  C   UNL     1      -6.480   3.975  -3.482  1.00  0.00     0.093 A 
ATOM     17  C   UNL     1      -6.932   5.184  -4.020  1.00  0.00     0.131 A 
ENDROOT
BRANCH   6  18
ATOM     18  O   UNL     1      -8.125   9.125  -7.334  1.00  0.00    -0.507 OA
ATOM     19  H   UNL     1      -8.226   9.248  -6.337  1.00  0.00     0.293 HD
ENDBRANCH   6  18
BRANCH  17  20
ATOM     20  O   UNL     1      -7.924   5.872  -3.318  1.00  0.00    -0.507 OA
ATOM     21  H   UNL     1      -8.661   6.400  -3.764  1.00  0.00     0.293 HD
ENDBRANCH  17  20
BRANCH  15  22
ATOM     22  O   UNL     1      -5.130   1.984  -3.612  1.00  0.00    -0.508 OA
ATOM     23  H   UNL     1      -4.367   1.454  -4.016  1.00  0.00     0.293 HD
ENDBRANCH  15  22
TORSDOF 3
ENDMDL
MODEL 3
REMARK VINA RESULT:    -6.418      1.308      5.482
REMARK INTER + INTRA:          -6.981
REMARK INTER:                  -6.981
REMARK INTRA:                   0.000
REMARK UNBOUND:                 0.000
REMARK SMILES Cc1cc(O)c2c(c1)C(=O)c1cc(O)cc(O)c1C2=O
REMARK SMILES IDX 1 1 2 2 8 3 7 4 6 5 4 6 3 7 19 8 20 9 18 10 11 11 9 12 10 13
REMARK SMILES IDX 12 14 13 15 15 16 16 17 5 18 17 20 14 22
REMARK H PARENT 5 19 17 21 14 23
REMARK Flexibility Score: inf
ROOT
ATOM      1  C   UNL     1      -5.844   8.348  -9.387  1.00  0.00     0.044 C 
ATOM      2  C   UNL     1      -5.715   7.233  -8.390  1.00  0.00    -0.047 A 
ATOM      3  C   UNL     1      -6.502   7.229  -7.234  1.00  0.00     0.016 A 
ATOM      4  C   UNL     1      -6.368   6.204  -6.282  1.00  0.00     0.038 A 
ATOM      5  C   UNL     1      -5.431   5.168  -6.491  1.00  0.00     0.076 A 
ATOM      6  C   UNL     1      -4.578   5.224  -7.623  1.00  0.00     0.127 A 
ATOM      7  C   UNL     1      -4.744   6.242  -8.568  1.00  0.00     0.050 A 
ATOM      8  C   UNL     1      -5.423   4.026  -5.539  1.00  0.00     0.201 C 
ATOM      9  O   UNL     1      -5.079   2.881  -5.937  1.00  0.00    -0.288 OA
ATOM     10  C   UNL     1      -5.995   4.195  -4.178  1.00  0.00     0.076 A 
ATOM     11  C   UNL     1      -6.929   5.235  -3.973  1.00  0.00     0.041 A 
ATOM     12  C   UNL     1      -7.200   6.211  -5.055  1.00  0.00     0.194 C 
ATOM     13  O   UNL     1      -8.123   7.062  -4.922  1.00  0.00    -0.289 OA
ATOM     14  C   UNL     1      -7.595   5.342  -2.739  1.00  0.00     0.059 A 
ATOM     15  C   UNL     1      -7.329   4.437  -1.709  1.00  0.00     0.120 A 
ATOM     16  C   UNL     1      -6.378   3.434  -1.895  1.00  0.00     0.093 A 
ATOM     17  C   UNL     1      -5.687   3.318  -3.105  1.00  0.00     0.131 A 
ENDROOT
BRANCH   6  18
ATOM     18  O   UNL     1      -3.537   4.317  -7.830  1.00  0.00    -0.507 OA
ATOM     19  H   UNL     1      -3.280   3.601  -7.164  1.00  0.00     0.293 HD
ENDBRANCH   6  18
BRANCH  17  20
ATOM     20  O   UNL     1      -4.685   2.348  -3.186  1.00  0.00    -0.507 OA
ATOM     21  H   UNL     1      -3.712   2.562  -3.358  1.00  0.00     0.293 HD
ENDBRANCH  17  20
BRANCH  15  22
ATOM     22  O   UNL     1      -7.996   4.532  -0.489  1.00  0.00    -0.508 OA
ATOM     23  H   UNL     1      -8.990   4.726  -0.442  1.00  0.00     0.293 HD
ENDBRANCH  15  22
TORSDOF 3
ENDMDL
MODEL 4
REMARK VINA RESULT:    -6.333      1.870      6.346
REMARK INTER + INTRA:          -6.888
REMARK INTER:                  -6.888
REMARK INTRA:                   0.000
REMARK UNBOUND:                 0.000
REMARK SMILES Cc1cc(O)c2c(c1)C(=O)c1cc(O)cc(O)c1C2=O
REMARK SMILES IDX 1 1 2 2 8 3 7 4 6 5 4 6 3 7 19 8 20 9 18 10 11 11 9 12 10 13
REMARK SMILES IDX 12 14 13 15 15 16 16 17 5 18 17 20 14 22
REMARK H PARENT 5 19 17 21 14 23
REMARK Flexibility Score: inf
ROOT
ATOM      1  C   UNL     1      -4.188   5.065  -8.726  1.00  0.00     0.044 C 
ATOM      2  C   UNL     1      -4.716   5.313  -7.342  1.00  0.00    -0.047 A 
ATOM      3  C   UNL     1      -5.002   4.238  -6.496  1.00  0.00     0.016 A 
ATOM      4  C   UNL     1      -5.523   4.459  -5.209  1.00  0.00     0.038 A 
ATOM      5  C   UNL     1      -5.761   5.778  -4.764  1.00  0.00     0.076 A 
ATOM      6  C   UNL     1      -5.546   6.859  -5.658  1.00  0.00     0.127 A 
ATOM      7  C   UNL     1      -5.008   6.616  -6.925  1.00  0.00     0.050 A 
ATOM      8  C   UNL     1      -6.170   5.979  -3.350  1.00  0.00     0.201 C 
ATOM      9  O   UNL     1      -5.851   7.041  -2.750  1.00  0.00    -0.288 OA
ATOM     10  C   UNL     1      -6.785   4.858  -2.593  1.00  0.00     0.076 A 
ATOM     11  C   UNL     1      -6.548   3.541  -3.043  1.00  0.00     0.041 A 
ATOM     12  C   UNL     1      -5.833   3.313  -4.321  1.00  0.00     0.194 C 
ATOM     13  O   UNL     1      -5.508   2.143  -4.663  1.00  0.00    -0.289 OA
ATOM     14  C   UNL     1      -6.997   2.450  -2.279  1.00  0.00     0.059 A 
ATOM     15  C   UNL     1      -7.690   2.659  -1.083  1.00  0.00     0.120 A 
ATOM     16  C   UNL     1      -7.960   3.959  -0.656  1.00  0.00     0.093 A 
ATOM     17  C   UNL     1      -7.543   5.061  -1.409  1.00  0.00     0.131 A 
ENDROOT
BRANCH   6  18
ATOM     18  O   UNL     1      -5.886   8.177  -5.344  1.00  0.00    -0.507 OA
ATOM     19  H   UNL     1      -5.309   8.783  -4.778  1.00  0.00     0.293 HD
ENDBRANCH   6  18
BRANCH  17  20
ATOM     20  O   UNL     1      -7.930   6.328  -0.966  1.00  0.00    -0.507 OA
ATOM     21  H   UNL     1      -7.288   7.003  -0.574  1.00  0.00     0.293 HD
ENDBRANCH  17  20
BRANCH  15  22
ATOM     22  O   UNL     1      -8.125   1.580  -0.316  1.00  0.00    -0.508 OA
ATOM     23  H   UNL     1      -8.481   0.734  -0.745  1.00  0.00     0.293 HD
ENDBRANCH  15  22
TORSDOF 3
ENDMDL
MODEL 5
REMARK VINA RESULT:    -6.228      1.242      3.500
REMARK INTER + INTRA:          -6.775
REMARK INTER:                  -6.775
REMARK INTRA:                   0.000
REMARK UNBOUND:                 0.000
REMARK SMILES Cc1cc(O)c2c(c1)C(=O)c1cc(O)cc(O)c1C2=O
REMARK SMILES IDX 1 1 2 2 8 3 7 4 6 5 4 6 3 7 19 8 20 9 18 10 11 11 9 12 10 13
REMARK SMILES IDX 12 14 13 15 15 16 16 17 5 18 17 20 14 22
REMARK H PARENT 5 19 17 21 14 23
REMARK Flexibility Score: inf
ROOT
ATOM      1  C   UNL     1      -7.268   3.117   0.599  1.00  0.00     0.044 C 
ATOM      2  C   UNL     1      -7.234   3.977  -0.630  1.00  0.00    -0.047 A 
ATOM      3  C   UNL     1      -6.617   3.514  -1.796  1.00  0.00     0.016 A 
ATOM      4  C   UNL     1      -6.556   4.323  -2.944  1.00  0.00     0.038 A 
ATOM      5  C   UNL     1      -7.122   5.617  -2.922  1.00  0.00     0.076 A 
ATOM      6  C   UNL     1      -7.671   6.112  -1.711  1.00  0.00     0.127 A 
ATOM      7  C   UNL     1      -7.739   5.281  -0.589  1.00  0.00     0.050 A 
ATOM      8  C   UNL     1      -7.170   6.385  -4.194  1.00  0.00     0.201 C 
ATOM      9  O   UNL     1      -8.100   7.212  -4.393  1.00  0.00    -0.288 OA
ATOM     10  C   UNL     1      -6.237   6.041  -5.299  1.00  0.00     0.076 A 
ATOM     11  C   UNL     1      -5.671   4.747  -5.315  1.00  0.00     0.041 A 
ATOM     12  C   UNL     1      -5.893   3.828  -4.174  1.00  0.00     0.194 C 
ATOM     13  O   UNL     1      -5.497   2.631  -4.240  1.00  0.00    -0.289 OA
ATOM     14  C   UNL     1      -4.894   4.338  -6.413  1.00  0.00     0.059 A 
ATOM     15  C   UNL     1      -4.665   5.208  -7.482  1.00  0.00     0.120 A 
ATOM     16  C   UNL     1      -5.189   6.499  -7.451  1.00  0.00     0.093 A 
ATOM     17  C   UNL     1      -5.948   6.938  -6.361  1.00  0.00     0.131 A 
ENDROOT
BRANCH   6  18
ATOM     18  O   UNL     1      -8.124   7.426  -1.569  1.00  0.00    -0.507 OA
ATOM     19  H   UNL     1      -8.058   7.949  -0.707  1.00  0.00     0.293 HD
ENDBRANCH   6  18
BRANCH  17  20
ATOM     20  O   UNL     1      -6.361   8.272  -6.358  1.00  0.00    -0.507 OA
ATOM     21  H   UNL     1      -7.018   8.652  -5.690  1.00  0.00     0.293 HD
ENDBRANCH  17  20
BRANCH  15  22
ATOM     22  O   UNL     1      -3.906   4.802  -8.579  1.00  0.00    -0.508 OA
ATOM     23  H   UNL     1      -2.911   4.627  -8.499  1.00  0.00     0.293 HD
ENDBRANCH  15  22
TORSDOF 3
ENDMDL
MODEL 6
REMARK VINA RESULT:    -5.798     14.074     15.738
REMARK INTER + INTRA:          -6.306
REMARK INTER:                  -6.306
REMARK INTRA:                   0.000
REMARK UNBOUND:                 0.000
REMARK SMILES Cc1cc(O)c2c(c1)C(=O)c1cc(O)cc(O)c1C2=O
REMARK SMILES IDX 1 1 2 2 8 3 7 4 6 5 4 6 3 7 19 8 20 9 18 10 11 11 9 12 10 13
REMARK SMILES IDX 12 14 13 15 15 16 16 17 5 18 17 20 14 22
REMARK H PARENT 5 19 17 21 14 23
REMARK Flexibility Score: inf
ROOT
ATOM      1  C   UNL     1      -7.870  -8.514  -7.918  1.00  0.00     0.044 C 
ATOM      2  C   UNL     1      -7.046  -8.166  -9.123  1.00  0.00    -0.047 A 
ATOM      3  C   UNL     1      -6.328  -9.160  -9.796  1.00  0.00     0.016 A 
ATOM      4  C   UNL     1      -5.532  -8.840 -10.908  1.00  0.00     0.038 A 
ATOM      5  C   UNL     1      -5.453  -7.502 -11.354  1.00  0.00     0.076 A 
ATOM      6  C   UNL     1      -6.116  -6.486 -10.617  1.00  0.00     0.127 A 
ATOM      7  C   UNL     1      -6.919  -6.832  -9.526  1.00  0.00     0.050 A 
ATOM      8  C   UNL     1      -4.722  -7.224 -12.618  1.00  0.00     0.201 C 
ATOM      9  O   UNL     1      -5.072  -6.255 -13.344  1.00  0.00    -0.288 OA
ATOM     10  C   UNL     1      -3.711  -8.193 -13.114  1.00  0.00     0.076 A 
ATOM     11  C   UNL     1      -3.791  -9.529 -12.663  1.00  0.00     0.041 A 
ATOM     12  C   UNL     1      -4.767  -9.898 -11.611  1.00  0.00     0.194 C 
ATOM     13  O   UNL     1      -4.930 -11.109 -11.296  1.00  0.00    -0.289 OA
ATOM     14  C   UNL     1      -2.940 -10.504 -13.213  1.00  0.00     0.059 A 
ATOM     15  C   UNL     1      -2.005 -10.159 -14.191  1.00  0.00     0.120 A 
ATOM     16  C   UNL     1      -1.895  -8.833 -14.609  1.00  0.00     0.093 A 
ATOM     17  C   UNL     1      -2.716  -7.840 -14.063  1.00  0.00     0.131 A 
ENDROOT
BRANCH   6  18
ATOM     18  O   UNL     1      -5.976  -5.128 -10.909  1.00  0.00    -0.507 OA
ATOM     19  H   UNL     1      -5.091  -4.640 -10.889  1.00  0.00     0.293 HD
ENDBRANCH   6  18
BRANCH  17  20
ATOM     20  O   UNL     1      -2.486  -6.522 -14.464  1.00  0.00    -0.507 OA
ATOM     21  H   UNL     1      -1.596  -6.054 -14.364  1.00  0.00     0.293 HD
ENDBRANCH  17  20
BRANCH  15  22
ATOM     22  O   UNL     1      -1.168 -11.125 -14.748  1.00  0.00    -0.508 OA
ATOM     23  H   UNL     1      -0.512 -11.648 -14.180  1.00  0.00     0.293 HD
ENDBRANCH  15  22
TORSDOF 3
ENDMDL
MODEL 7
REMARK VINA RESULT:    -5.661      1.828      3.064
REMARK INTER + INTRA:          -6.157
REMARK INTER:                  -6.157
REMARK INTRA:                   0.000
REMARK UNBOUND:                 0.000
REMARK SMILES Cc1cc(O)c2c(c1)C(=O)c1cc(O)cc(O)c1C2=O
REMARK SMILES IDX 1 1 2 2 8 3 7 4 6 5 4 6 3 7 19 8 20 9 18 10 11 11 9 12 10 13
REMARK SMILES IDX 12 14 13 15 15 16 16 17 5 18 17 20 14 22
REMARK H PARENT 5 19 17 21 14 23
REMARK Flexibility Score: inf
ROOT
ATOM      1  C   UNL     1      -6.334   6.115  -2.571  1.00  0.00     0.044 C 
ATOM      2  C   UNL     1      -6.028   5.962  -4.033  1.00  0.00    -0.047 A 
ATOM      3  C   UNL     1      -6.446   6.937  -4.944  1.00  0.00     0.016 A 
ATOM      4  C   UNL     1      -6.188   6.790  -6.318  1.00  0.00     0.038 A 
ATOM      5  C   UNL     1      -5.501   5.648  -6.786  1.00  0.00     0.076 A 
ATOM      6  C   UNL     1      -5.154   4.624  -5.867  1.00  0.00     0.127 A 
ATOM      7  C   UNL     1      -5.402   4.802  -4.502  1.00  0.00     0.050 A 
ATOM      8  C   UNL     1      -5.117   5.598  -8.221  1.00  0.00     0.201 C 
ATOM      9  O   UNL     1      -4.082   4.969  -8.571  1.00  0.00    -0.288 OA
ATOM     10  C   UNL     1      -5.842   6.438  -9.209  1.00  0.00     0.076 A 
ATOM     11  C   UNL     1      -6.531   7.577  -8.736  1.00  0.00     0.041 A 
ATOM     12  C   UNL     1      -6.642   7.823  -7.279  1.00  0.00     0.194 C 
ATOM     13  O   UNL     1      -7.145   8.901  -6.857  1.00  0.00    -0.289 OA
ATOM     14  C   UNL     1      -7.113   8.471  -9.652  1.00  0.00     0.059 A 
ATOM     15  C   UNL     1      -7.028   8.234 -11.026  1.00  0.00     0.120 A 
ATOM     16  C   UNL     1      -6.384   7.089 -11.494  1.00  0.00     0.093 A 
ATOM     17  C   UNL     1      -5.815   6.173 -10.603  1.00  0.00     0.131 A 
ENDROOT
BRANCH   6  18
ATOM     18  O   UNL     1      -4.599   3.406  -6.267  1.00  0.00    -0.507 OA
ATOM     19  H   UNL     1      -5.147   2.579  -6.458  1.00  0.00     0.293 HD
ENDBRANCH   6  18
BRANCH  17  20
ATOM     20  O   UNL     1      -5.268   5.006 -11.141  1.00  0.00    -0.507 OA
ATOM     21  H   UNL     1      -5.647   4.084 -10.975  1.00  0.00     0.293 HD
ENDBRANCH  17  20
BRANCH  15  22
ATOM     22  O   UNL     1      -7.592   9.125 -11.938  1.00  0.00    -0.508 OA
ATOM     23  H   UNL     1      -7.107   9.968 -12.223  1.00  0.00     0.293 HD
ENDBRANCH  15  22
TORSDOF 3
ENDMDL
MODEL 8
REMARK VINA RESULT:    -5.558     13.050     14.320
REMARK INTER + INTRA:          -6.046
REMARK INTER:                  -6.046
REMARK INTRA:                   0.000
REMARK UNBOUND:                 0.000
REMARK SMILES Cc1cc(O)c2c(c1)C(=O)c1cc(O)cc(O)c1C2=O
REMARK SMILES IDX 1 1 2 2 8 3 7 4 6 5 4 6 3 7 19 8 20 9 18 10 11 11 9 12 10 13
REMARK SMILES IDX 12 14 13 15 15 16 16 17 5 18 17 20 14 22
REMARK H PARENT 5 19 17 21 14 23
REMARK Flexibility Score: inf
ROOT
ATOM      1  C   UNL     1      -6.661  -9.601  -6.447  1.00  0.00     0.044 C 
ATOM      2  C   UNL     1      -6.240  -9.330  -7.862  1.00  0.00    -0.047 A 
ATOM      3  C   UNL     1      -6.628  -8.145  -8.496  1.00  0.00     0.016 A 
ATOM      4  C   UNL     1      -6.263  -7.894  -9.829  1.00  0.00     0.038 A 
ATOM      5  C   UNL     1      -5.495  -8.845 -10.538  1.00  0.00     0.076 A 
ATOM      6  C   UNL     1      -5.176 -10.080  -9.917  1.00  0.00     0.127 A 
ATOM      7  C   UNL     1      -5.533 -10.298  -8.582  1.00  0.00     0.050 A 
ATOM      8  C   UNL     1      -5.003  -8.481 -11.893  1.00  0.00     0.201 C 
ATOM      9  O   UNL     1      -3.919  -8.966 -12.317  1.00  0.00    -0.288 OA
ATOM     10  C   UNL     1      -5.686  -7.410 -12.664  1.00  0.00     0.076 A 
ATOM     11  C   UNL     1      -6.454  -6.463 -11.951  1.00  0.00     0.041 A 
ATOM     12  C   UNL     1      -6.685  -6.641 -10.498  1.00  0.00     0.194 C 
ATOM     13  O   UNL     1      -7.262  -5.735  -9.835  1.00  0.00    -0.289 OA
ATOM     14  C   UNL     1      -7.002  -5.359 -12.625  1.00  0.00     0.059 A 
ATOM     15  C   UNL     1      -6.805  -5.197 -13.999  1.00  0.00     0.120 A 
ATOM     16  C   UNL     1      -6.080  -6.151 -14.713  1.00  0.00     0.093 A 
ATOM     17  C   UNL     1      -5.542  -7.270 -14.069  1.00  0.00     0.131 A 
ENDROOT
BRANCH   6  18
ATOM     18  O   UNL     1      -4.543 -11.125 -10.593  1.00  0.00    -0.507 OA
ATOM     19  H   UNL     1      -3.880 -11.751 -10.158  1.00  0.00     0.293 HD
ENDBRANCH   6  18
BRANCH  17  20
ATOM     20  O   UNL     1      -4.908  -8.229 -14.864  1.00  0.00    -0.507 OA
ATOM     21  H   UNL     1      -4.752  -9.183 -14.570  1.00  0.00     0.293 HD
ENDBRANCH  17  20
BRANCH  15  22
ATOM     22  O   UNL     1      -7.335  -4.096 -14.669  1.00  0.00    -0.508 OA
ATOM     23  H   UNL     1      -7.873  -3.388 -14.183  1.00  0.00     0.293 HD
ENDBRANCH  15  22
TORSDOF 3
ENDMDL
MODEL 9
REMARK VINA RESULT:    -5.254     14.326     16.173
REMARK INTER + INTRA:          -5.714
REMARK INTER:                  -5.714
REMARK INTRA:                   0.000
REMARK UNBOUND:                 0.000
REMARK SMILES Cc1cc(O)c2c(c1)C(=O)c1cc(O)cc(O)c1C2=O
REMARK SMILES IDX 1 1 2 2 8 3 7 4 6 5 4 6 3 7 19 8 20 9 18 10 11 11 9 12 10 13
REMARK SMILES IDX 12 14 13 15 15 16 16 17 5 18 17 20 14 22
REMARK H PARENT 5 19 17 21 14 23
REMARK Flexibility Score: inf
ROOT
ATOM      1  C   UNL     1      -3.722  -9.448 -17.867  1.00  0.00     0.044 C 
ATOM      2  C   UNL     1      -3.964  -9.313 -16.392  1.00  0.00    -0.047 A 
ATOM      3  C   UNL     1      -4.951  -8.442 -15.918  1.00  0.00     0.016 A 
ATOM      4  C   UNL     1      -5.166  -8.288 -14.538  1.00  0.00     0.038 A 
ATOM      5  C   UNL     1      -4.380  -9.017 -13.618  1.00  0.00     0.076 A 
ATOM      6  C   UNL     1      -3.326  -9.833 -14.103  1.00  0.00     0.127 A 
ATOM      7  C   UNL     1      -3.145  -9.988 -15.481  1.00  0.00     0.050 A 
ATOM      8  C   UNL     1      -4.734  -8.940 -12.177  1.00  0.00     0.201 C 
ATOM      9  O   UNL     1      -4.503  -9.923 -11.422  1.00  0.00    -0.288 OA
ATOM     10  C   UNL     1      -5.526  -7.789 -11.671  1.00  0.00     0.076 A 
ATOM     11  C   UNL     1      -6.308  -7.061 -12.595  1.00  0.00     0.041 A 
ATOM     12  C   UNL     1      -6.208  -7.356 -14.044  1.00  0.00     0.194 C 
ATOM     13  O   UNL     1      -6.995  -6.798 -14.858  1.00  0.00    -0.289 OA
ATOM     14  C   UNL     1      -7.174  -6.054 -12.136  1.00  0.00     0.059 A 
ATOM     15  C   UNL     1      -7.257  -5.757 -10.773  1.00  0.00     0.120 A 
ATOM     16  C   UNL     1      -6.457  -6.447  -9.863  1.00  0.00     0.093 A 
ATOM     17  C   UNL     1      -5.572  -7.439 -10.296  1.00  0.00     0.131 A 
ENDROOT
BRANCH   6  18
ATOM     18  O   UNL     1      -2.419 -10.476 -13.258  1.00  0.00    -0.507 OA
ATOM     19  H   UNL     1      -2.675 -11.226 -12.631  1.00  0.00     0.293 HD
ENDBRANCH   6  18
BRANCH  17  20
ATOM     20  O   UNL     1      -4.737  -8.021  -9.339  1.00  0.00    -0.507 OA
ATOM     21  H   UNL     1      -3.789  -8.313  -9.528  1.00  0.00     0.293 HD
ENDBRANCH  17  20
BRANCH  15  22
ATOM     22  O   UNL     1      -8.125  -4.768 -10.312  1.00  0.00    -0.508 OA
ATOM     23  H   UNL     1      -7.935  -4.251  -9.461  1.00  0.00     0.293 HD
ENDBRANCH  15  22
TORSDOF 3
ENDMDL
