MODEL 1
REMARK VINA RESULT:    -4.128      0.000      0.000
REMARK INTER + INTRA:          -5.931
REMARK INTER:                  -5.214
REMARK INTRA:                  -0.717
REMARK UNBOUND:                -0.717
REMARK SMILES O=C(C=Cc1ccc(O)cc1)c1ccc(O)cc1O
REMARK SMILES IDX 4 1 3 2 5 3 6 4 7 5 8 6 11 7 10 8 9 9 2 11 1 12 12 13 18 14
REMARK SMILES IDX 13 15 17 16 14 17 15 18 19 19 16 21
REMARK H PARENT 9 10 19 20 16 22
REMARK Flexibility Score: inf
ROOT
ATOM      1  C   UNL     1       0.285  65.491  -5.652  1.00  0.00     0.012 C 
ATOM      2  C   UNL     1       0.579  66.452  -6.541  1.00  0.00     0.053 C 
ENDROOT
BRANCH   1   3
ATOM      3  C   UNL     1       0.779  64.095  -5.752  1.00  0.00    -0.025 A 
ATOM      4  C   UNL     1       1.648  63.669  -6.779  1.00  0.00     0.012 A 
ATOM      5  C   UNL     1       2.094  62.344  -6.822  1.00  0.00     0.047 A 
ATOM      6  C   UNL     1       1.687  61.430  -5.841  1.00  0.00     0.115 A 
ATOM      7  C   UNL     1       0.392  63.173  -4.766  1.00  0.00     0.012 A 
ATOM      8  C   UNL     1       0.839  61.849  -4.814  1.00  0.00     0.047 A 
BRANCH   6   9
ATOM      9  O   UNL     1       2.125  60.108  -5.878  1.00  0.00    -0.508 OA
ATOM     10  H   UNL     1       1.563  59.353  -5.503  1.00  0.00     0.293 HD
ENDBRANCH   6   9
ENDBRANCH   1   3
BRANCH   2  11
ATOM     11  C   UNL     1       0.069  67.836  -6.426  1.00  0.00     0.189 C 
ATOM     12  O   UNL     1       0.866  68.788  -6.642  1.00  0.00    -0.289 OA
BRANCH  11  13
ATOM     13  C   UNL     1      -1.322  68.149  -6.039  1.00  0.00     0.064 A 
ATOM     14  C   UNL     1      -1.636  68.795  -4.820  1.00  0.00     0.130 A 
ATOM     15  C   UNL     1      -2.362  67.781  -6.909  1.00  0.00     0.020 A 
ATOM     16  C   UNL     1      -2.968  69.103  -4.522  1.00  0.00     0.093 A 
ATOM     17  C   UNL     1      -3.689  68.084  -6.595  1.00  0.00     0.047 A 
ATOM     18  C   UNL     1      -3.996  68.749  -5.406  1.00  0.00     0.119 A 
BRANCH  14  19
ATOM     19  O   UNL     1      -0.655  69.125  -3.882  1.00  0.00    -0.507 OA
ATOM     20  H   UNL     1      -0.329  68.478  -3.177  1.00  0.00     0.293 HD
ENDBRANCH  14  19
BRANCH  18  21
ATOM     21  O   UNL     1      -5.323  69.050  -5.110  1.00  0.00    -0.508 OA
ATOM     22  H   UNL     1      -5.848  68.515  -4.429  1.00  0.00     0.293 HD
ENDBRANCH  18  21
ENDBRANCH  11  13
ENDBRANCH   2  11
TORSDOF 6
ENDMDL
MODEL 2
REMARK VINA RESULT:    -3.889      1.053      2.064
REMARK INTER + INTRA:          -5.629
REMARK INTER:                  -5.112
REMARK INTRA:                  -0.517
REMARK UNBOUND:                -0.717
REMARK SMILES O=C(C=Cc1ccc(O)cc1)c1ccc(O)cc1O
REMARK SMILES IDX 4 1 3 2 5 3 6 4 7 5 8 6 11 7 10 8 9 9 2 11 1 12 12 13 18 14
REMARK SMILES IDX 13 15 17 16 14 17 15 18 19 19 16 21
REMARK H PARENT 9 10 19 20 16 22
REMARK Flexibility Score: inf
ROOT
ATOM      1  C   UNL     1       0.699  65.145  -5.909  1.00  0.00     0.012 C 
ATOM      2  C   UNL     1       0.638  65.961  -6.972  1.00  0.00     0.053 C 
ENDROOT
BRANCH   1   3
ATOM      3  C   UNL     1       1.057  63.707  -5.991  1.00  0.00    -0.025 A 
ATOM      4  C   UNL     1       0.679  62.773  -5.005  1.00  0.00     0.012 A 
ATOM      5  C   UNL     1       1.033  61.426  -5.135  1.00  0.00     0.047 A 
ATOM      6  C   UNL     1       1.760  60.992  -6.251  1.00  0.00     0.115 A 
ATOM      7  C   UNL     1       1.771  63.257  -7.113  1.00  0.00     0.012 A 
ATOM      8  C   UNL     1       2.125  61.909  -7.239  1.00  0.00     0.047 A 
BRANCH   6   9
ATOM      9  O   UNL     1       2.118  59.653  -6.388  1.00  0.00    -0.508 OA
ATOM     10  H   UNL     1       1.607  58.916  -5.915  1.00  0.00     0.293 HD
ENDBRANCH   6   9
ENDBRANCH   1   3
BRANCH   2  11
ATOM     11  C   UNL     1       0.271  67.390  -6.869  1.00  0.00     0.189 C 
ATOM     12  O   UNL     1       1.158  68.255  -7.101  1.00  0.00    -0.289 OA
BRANCH  11  13
ATOM     13  C   UNL     1      -1.079  67.845  -6.477  1.00  0.00     0.064 A 
ATOM     14  C   UNL     1      -2.189  67.743  -7.348  1.00  0.00     0.130 A 
ATOM     15  C   UNL     1      -1.256  68.407  -5.202  1.00  0.00     0.020 A 
ATOM     16  C   UNL     1      -3.454  68.154  -6.911  1.00  0.00     0.093 A 
ATOM     17  C   UNL     1      -2.520  68.824  -4.781  1.00  0.00     0.047 A 
ATOM     18  C   UNL     1      -3.622  68.694  -5.629  1.00  0.00     0.119 A 
BRANCH  14  19
ATOM     19  O   UNL     1      -2.066  67.258  -8.652  1.00  0.00    -0.507 OA
ATOM     20  H   UNL     1      -1.172  67.051  -9.080  1.00  0.00     0.293 HD
ENDBRANCH  14  19
BRANCH  18  21
ATOM     21  O   UNL     1      -4.879  69.108  -5.192  1.00  0.00    -0.508 OA
ATOM     22  H   UNL     1      -5.098  69.185  -4.206  1.00  0.00     0.293 HD
ENDBRANCH  18  21
ENDBRANCH  11  13
ENDBRANCH   2  11
TORSDOF 6
ENDMDL
MODEL 3
REMARK VINA RESULT:    -3.826      1.615      7.036
REMARK INTER + INTRA:          -5.549
REMARK INTER:                  -5.095
REMARK INTRA:                  -0.455
REMARK UNBOUND:                -0.717
REMARK SMILES O=C(C=Cc1ccc(O)cc1)c1ccc(O)cc1O
REMARK SMILES IDX 4 1 3 2 5 3 6 4 7 5 8 6 11 7 10 8 9 9 2 11 1 12 12 13 18 14
REMARK SMILES IDX 13 15 17 16 14 17 15 18 19 19 16 21
REMARK H PARENT 9 10 19 20 16 22
REMARK Flexibility Score: inf
ROOT
ATOM      1  C   UNL     1      -1.512  66.754  -5.992  1.00  0.00     0.012 C 
ATOM      2  C   UNL     1      -0.470  67.450  -6.470  1.00  0.00     0.053 C 
ENDROOT
BRANCH   1   3
ATOM      3  C   UNL     1      -2.902  67.272  -5.952  1.00  0.00    -0.025 A 
ATOM      4  C   UNL     1      -3.201  68.649  -5.998  1.00  0.00     0.012 A 
ATOM      5  C   UNL     1      -4.529  69.085  -5.968  1.00  0.00     0.047 A 
ATOM      6  C   UNL     1      -5.576  68.156  -5.900  1.00  0.00     0.115 A 
ATOM      7  C   UNL     1      -3.960  66.350  -5.900  1.00  0.00     0.012 A 
ATOM      8  C   UNL     1      -5.288  66.790  -5.869  1.00  0.00     0.047 A 
BRANCH   6   9
ATOM      9  O   UNL     1      -6.902  68.581  -5.868  1.00  0.00    -0.508 OA
ATOM     10  H   UNL     1      -7.664  67.931  -5.713  1.00  0.00     0.293 HD
ENDBRANCH   6   9
ENDBRANCH   1   3
BRANCH   2  11
ATOM     11  C   UNL     1       0.910  66.918  -6.493  1.00  0.00     0.189 C 
ATOM     12  O   UNL     1       1.867  67.725  -6.345  1.00  0.00    -0.289 OA
BRANCH  11  13
ATOM     13  C   UNL     1       1.215  65.489  -6.714  1.00  0.00     0.064 A 
ATOM     14  C   UNL     1       1.750  65.016  -7.936  1.00  0.00     0.130 A 
ATOM     15  C   UNL     1       0.954  64.577  -5.679  1.00  0.00     0.020 A 
ATOM     16  C   UNL     1       2.057  63.657  -8.077  1.00  0.00     0.093 A 
ATOM     17  C   UNL     1       1.255  63.223  -5.836  1.00  0.00     0.047 A 
ATOM     18  C   UNL     1       1.811  62.759  -7.030  1.00  0.00     0.119 A 
BRANCH  14  19
ATOM     19  O   UNL     1       1.968  65.860  -9.027  1.00  0.00    -0.507 OA
ATOM     20  H   UNL     1       2.889  66.175  -9.303  1.00  0.00     0.293 HD
ENDBRANCH  14  19
BRANCH  18  21
ATOM     21  O   UNL     1       2.111  61.406  -7.169  1.00  0.00    -0.508 OA
ATOM     22  H   UNL     1       3.018  61.036  -6.909  1.00  0.00     0.293 HD
ENDBRANCH  18  21
ENDBRANCH  11  13
ENDBRANCH   2  11
TORSDOF 6
ENDMDL
MODEL 4
REMARK VINA RESULT:    -3.597      2.092      6.986
REMARK INTER + INTRA:          -5.260
REMARK INTER:                  -4.540
REMARK INTRA:                  -0.720
REMARK UNBOUND:                -0.717
REMARK SMILES O=C(C=Cc1ccc(O)cc1)c1ccc(O)cc1O
REMARK SMILES IDX 4 1 3 2 5 3 6 4 7 5 8 6 11 7 10 8 9 9 2 11 1 12 12 13 18 14
REMARK SMILES IDX 13 15 17 16 14 17 15 18 19 19 16 21
REMARK H PARENT 9 10 19 20 16 22
REMARK Flexibility Score: inf
ROOT
ATOM      1  C   UNL     1      -1.605  66.809  -6.045  1.00  0.00     0.012 C 
ATOM      2  C   UNL     1      -0.571  67.593  -6.385  1.00  0.00     0.053 C 
ENDROOT
BRANCH   1   3
ATOM      3  C   UNL     1      -3.003  67.292  -5.927  1.00  0.00    -0.025 A 
ATOM      4  C   UNL     1      -4.117  66.457  -6.153  1.00  0.00     0.012 A 
ATOM      5  C   UNL     1      -5.415  66.959  -6.017  1.00  0.00     0.047 A 
ATOM      6  C   UNL     1      -5.620  68.295  -5.647  1.00  0.00     0.115 A 
ATOM      7  C   UNL     1      -3.222  68.625  -5.540  1.00  0.00     0.012 A 
ATOM      8  C   UNL     1      -4.522  69.124  -5.408  1.00  0.00     0.047 A 
BRANCH   6   9
ATOM      9  O   UNL     1      -6.910  68.804  -5.512  1.00  0.00    -0.508 OA
ATOM     10  H   UNL     1      -7.077  69.792  -5.355  1.00  0.00     0.293 HD
ENDBRANCH   6   9
ENDBRANCH   1   3
BRANCH   2  11
ATOM     11  C   UNL     1       0.817  67.092  -6.490  1.00  0.00     0.189 C 
ATOM     12  O   UNL     1       1.729  67.723  -5.892  1.00  0.00    -0.289 OA
BRANCH  11  13
ATOM     13  C   UNL     1       1.183  65.904  -7.289  1.00  0.00     0.064 A 
ATOM     14  C   UNL     1       1.668  64.717  -6.692  1.00  0.00     0.130 A 
ATOM     15  C   UNL     1       1.053  65.966  -8.686  1.00  0.00     0.020 A 
ATOM     16  C   UNL     1       1.963  63.608  -7.493  1.00  0.00     0.093 A 
ATOM     17  C   UNL     1       1.361  64.857  -9.476  1.00  0.00     0.047 A 
ATOM     18  C   UNL     1       1.811  63.675  -8.884  1.00  0.00     0.119 A 
BRANCH  14  19
ATOM     19  O   UNL     1       1.886  64.615  -5.316  1.00  0.00    -0.507 OA
ATOM     20  H   UNL     1       2.727  64.217  -4.920  1.00  0.00     0.293 HD
ENDBRANCH  14  19
BRANCH  18  21
ATOM     21  O   UNL     1       2.107  62.574  -9.685  1.00  0.00    -0.508 OA
ATOM     22  H   UNL     1       2.254  62.670 -10.683  1.00  0.00     0.293 HD
ENDBRANCH  18  21
ENDBRANCH  11  13
ENDBRANCH   2  11
TORSDOF 6
ENDMDL
MODEL 5
REMARK VINA RESULT:    -3.066      1.793      2.583
REMARK INTER + INTRA:          -4.589
REMARK INTER:                  -3.919
REMARK INTRA:                  -0.670
REMARK UNBOUND:                -0.717
REMARK SMILES O=C(C=Cc1ccc(O)cc1)c1ccc(O)cc1O
REMARK SMILES IDX 4 1 3 2 5 3 6 4 7 5 8 6 11 7 10 8 9 9 2 11 1 12 12 13 18 14
REMARK SMILES IDX 13 15 17 16 14 17 15 18 19 19 16 21
REMARK H PARENT 9 10 19 20 16 22
REMARK Flexibility Score: inf
ROOT
ATOM      1  C   UNL     1       0.605  65.607  -6.938  1.00  0.00     0.012 C 
ATOM      2  C   UNL     1       0.110  66.681  -6.304  1.00  0.00     0.053 C 
ENDROOT
BRANCH   1   3
ATOM      3  C   UNL     1       1.005  64.354  -6.251  1.00  0.00    -0.025 A 
ATOM      4  C   UNL     1       1.764  63.349  -6.885  1.00  0.00     0.012 A 
ATOM      5  C   UNL     1       2.125  62.191  -6.190  1.00  0.00     0.047 A 
ATOM      6  C   UNL     1       1.742  62.023  -4.852  1.00  0.00     0.115 A 
ATOM      7  C   UNL     1       0.641  64.181  -4.905  1.00  0.00     0.012 A 
ATOM      8  C   UNL     1       1.002  63.020  -4.213  1.00  0.00     0.047 A 
BRANCH   6   9
ATOM      9  O   UNL     1       2.095  60.871  -4.152  1.00  0.00    -0.508 OA
ATOM     10  H   UNL     1       3.057  60.681  -3.895  1.00  0.00     0.293 HD
ENDBRANCH   6   9
ENDBRANCH   1   3
BRANCH   2  11
ATOM     11  C   UNL     1      -0.276  67.923  -7.007  1.00  0.00     0.189 C 
ATOM     12  O   UNL     1       0.544  68.879  -7.030  1.00  0.00    -0.289 OA
BRANCH  11  13
ATOM     13  C   UNL     1      -1.592  68.102  -7.657  1.00  0.00     0.064 A 
ATOM     14  C   UNL     1      -1.720  68.299  -9.052  1.00  0.00     0.130 A 
ATOM     15  C   UNL     1      -2.746  68.086  -6.857  1.00  0.00     0.020 A 
ATOM     16  C   UNL     1      -2.993  68.424  -9.620  1.00  0.00     0.093 A 
ATOM     17  C   UNL     1      -4.010  68.222  -7.434  1.00  0.00     0.047 A 
ATOM     18  C   UNL     1      -4.138  68.386  -8.815  1.00  0.00     0.119 A 
BRANCH  14  19
ATOM     19  O   UNL     1      -0.608  68.394  -9.892  1.00  0.00    -0.507 OA
ATOM     20  H   UNL     1       0.340  68.459  -9.546  1.00  0.00     0.293 HD
ENDBRANCH  14  19
BRANCH  18  21
ATOM     21  O   UNL     1      -5.407  68.514  -9.376  1.00  0.00    -0.508 OA
ATOM     22  H   UNL     1      -6.199  67.993  -9.020  1.00  0.00     0.293 HD
ENDBRANCH  18  21
ENDBRANCH  11  13
ENDBRANCH   2  11
TORSDOF 6
ENDMDL
MODEL 6
REMARK VINA RESULT:    -2.512      2.282      7.028
REMARK INTER + INTRA:          -3.890
REMARK INTER:                  -3.217
REMARK INTRA:                  -0.673
REMARK UNBOUND:                -0.717
REMARK SMILES O=C(C=Cc1ccc(O)cc1)c1ccc(O)cc1O
REMARK SMILES IDX 4 1 3 2 5 3 6 4 7 5 8 6 11 7 10 8 9 9 2 11 1 12 12 13 18 14
REMARK SMILES IDX 13 15 17 16 14 17 15 18 19 19 16 21
REMARK H PARENT 9 10 19 20 16 22
REMARK Flexibility Score: inf
ROOT
ATOM      1  C   UNL     1      -1.957  67.966  -7.626  1.00  0.00     0.012 C 
ATOM      2  C   UNL     1      -0.951  68.329  -8.435  1.00  0.00     0.053 C 
ENDROOT
BRANCH   1   3
ATOM      3  C   UNL     1      -3.387  68.236  -7.915  1.00  0.00    -0.025 A 
ATOM      4  C   UNL     1      -3.813  68.903  -9.082  1.00  0.00     0.012 A 
ATOM      5  C   UNL     1      -5.175  69.123  -9.313  1.00  0.00     0.047 A 
ATOM      6  C   UNL     1      -6.129  68.675  -8.390  1.00  0.00     0.115 A 
ATOM      7  C   UNL     1      -4.354  67.777  -7.006  1.00  0.00     0.012 A 
ATOM      8  C   UNL     1      -5.715  68.001  -7.239  1.00  0.00     0.047 A 
BRANCH   6   9
ATOM      9  O   UNL     1      -7.487  68.892  -8.611  1.00  0.00    -0.508 OA
ATOM     10  H   UNL     1      -8.187  68.225  -8.307  1.00  0.00     0.293 HD
ENDBRANCH   6   9
ENDBRANCH   1   3
BRANCH   2  11
ATOM     11  C   UNL     1       0.469  68.057  -8.124  1.00  0.00     0.189 C 
ATOM     12  O   UNL     1       1.330  68.921  -8.444  1.00  0.00    -0.289 OA
BRANCH  11  13
ATOM     13  C   UNL     1       0.925  66.805  -7.484  1.00  0.00     0.064 A 
ATOM     14  C   UNL     1       1.291  66.750  -6.119  1.00  0.00     0.130 A 
ATOM     15  C   UNL     1       1.006  65.641  -8.265  1.00  0.00     0.020 A 
ATOM     16  C   UNL     1       1.678  65.529  -5.554  1.00  0.00     0.093 A 
ATOM     17  C   UNL     1       1.404  64.431  -7.693  1.00  0.00     0.047 A 
ATOM     18  C   UNL     1       1.736  64.369  -6.338  1.00  0.00     0.119 A 
BRANCH  14  19
ATOM     19  O   UNL     1       1.298  67.886  -5.306  1.00  0.00    -0.507 OA
ATOM     20  H   UNL     1       2.117  68.468  -5.182  1.00  0.00     0.293 HD
ENDBRANCH  14  19
BRANCH  18  21
ATOM     21  O   UNL     1       2.125  63.153  -5.780  1.00  0.00    -0.508 OA
ATOM     22  H   UNL     1       2.243  62.323  -6.348  1.00  0.00     0.293 HD
ENDBRANCH  18  21
ENDBRANCH  11  13
ENDBRANCH   2  11
TORSDOF 6
ENDMDL
MODEL 7
REMARK VINA RESULT:    -1.884      1.759      2.369
REMARK INTER + INTRA:          -3.096
REMARK INTER:                  -2.782
REMARK INTRA:                  -0.314
REMARK UNBOUND:                -0.717
REMARK SMILES O=C(C=Cc1ccc(O)cc1)c1ccc(O)cc1O
REMARK SMILES IDX 4 1 3 2 5 3 6 4 7 5 8 6 11 7 10 8 9 9 2 11 1 12 12 13 18 14
REMARK SMILES IDX 13 15 17 16 14 17 15 18 19 19 16 21
REMARK H PARENT 9 10 19 20 16 22
REMARK Flexibility Score: inf
ROOT
ATOM      1  C   UNL     1      -0.178  66.195  -6.017  1.00  0.00     0.012 C 
ATOM      2  C   UNL     1      -1.435  66.406  -6.436  1.00  0.00     0.053 C 
ENDROOT
BRANCH   1   3
ATOM      3  C   UNL     1       0.336  64.874  -5.579  1.00  0.00    -0.025 A 
ATOM      4  C   UNL     1       1.689  64.502  -5.717  1.00  0.00     0.012 A 
ATOM      5  C   UNL     1       2.125  63.247  -5.278  1.00  0.00     0.047 A 
ATOM      6  C   UNL     1       1.222  62.352  -4.689  1.00  0.00     0.115 A 
ATOM      7  C   UNL     1      -0.556  63.974  -4.972  1.00  0.00     0.012 A 
ATOM      8  C   UNL     1      -0.117  62.720  -4.536  1.00  0.00     0.047 A 
BRANCH   6   9
ATOM      9  O   UNL     1       1.647  61.101  -4.250  1.00  0.00    -0.508 OA
ATOM     10  H   UNL     1       1.163  60.606  -3.509  1.00  0.00     0.293 HD
ENDBRANCH   6   9
ENDBRANCH   1   3
BRANCH   2  11
ATOM     11  C   UNL     1      -1.929  67.733  -6.862  1.00  0.00     0.189 C 
ATOM     12  O   UNL     1      -1.105  68.683  -6.941  1.00  0.00    -0.289 OA
BRANCH  11  13
ATOM     13  C   UNL     1      -3.350  68.000  -7.168  1.00  0.00     0.064 A 
ATOM     14  C   UNL     1      -4.361  67.905  -6.182  1.00  0.00     0.130 A 
ATOM     15  C   UNL     1      -3.703  68.347  -8.482  1.00  0.00     0.020 A 
ATOM     16  C   UNL     1      -5.686  68.207  -6.517  1.00  0.00     0.093 A 
ATOM     17  C   UNL     1      -5.030  68.635  -8.807  1.00  0.00     0.047 A 
ATOM     18  C   UNL     1      -6.023  68.572  -7.828  1.00  0.00     0.119 A 
BRANCH  14  19
ATOM     19  O   UNL     1      -4.086  67.499  -4.875  1.00  0.00    -0.507 OA
ATOM     20  H   UNL     1      -4.746  67.605  -4.115  1.00  0.00     0.293 HD
ENDBRANCH  14  19
BRANCH  18  21
ATOM     21  O   UNL     1      -7.341  68.869  -8.166  1.00  0.00    -0.508 OA
ATOM     22  H   UNL     1      -7.855  68.310  -8.837  1.00  0.00     0.293 HD
ENDBRANCH  18  21
ENDBRANCH  11  13
ENDBRANCH   2  11
TORSDOF 6
ENDMDL
MODEL 8
REMARK VINA RESULT:    -1.856      1.991      2.886
REMARK INTER + INTRA:          -3.061
REMARK INTER:                  -2.448
REMARK INTRA:                  -0.613
REMARK UNBOUND:                -0.717
REMARK SMILES O=C(C=Cc1ccc(O)cc1)c1ccc(O)cc1O
REMARK SMILES IDX 4 1 3 2 5 3 6 4 7 5 8 6 11 7 10 8 9 9 2 11 1 12 12 13 18 14
REMARK SMILES IDX 13 15 17 16 14 17 15 18 19 19 16 21
REMARK H PARENT 9 10 19 20 16 22
REMARK Flexibility Score: inf
ROOT
ATOM      1  C   UNL     1       1.890  63.938  -7.124  1.00  0.00     0.012 C 
ATOM      2  C   UNL     1       0.943  64.873  -7.294  1.00  0.00     0.053 C 
ENDROOT
BRANCH   1   3
ATOM      3  C   UNL     1       1.916  62.647  -7.854  1.00  0.00    -0.025 A 
ATOM      4  C   UNL     1       1.909  61.401  -7.194  1.00  0.00     0.012 A 
ATOM      5  C   UNL     1       1.923  60.211  -7.930  1.00  0.00     0.047 A 
ATOM      6  C   UNL     1       1.937  60.248  -9.331  1.00  0.00     0.115 A 
ATOM      7  C   UNL     1       1.914  62.670  -9.259  1.00  0.00     0.012 A 
ATOM      8  C   UNL     1       1.930  61.479  -9.991  1.00  0.00     0.047 A 
BRANCH   6   9
ATOM      9  O   UNL     1       1.954  59.069 -10.072  1.00  0.00    -0.508 OA
ATOM     10  H   UNL     1       2.148  58.173  -9.639  1.00  0.00     0.293 HD
ENDBRANCH   6   9
ENDBRANCH   1   3
BRANCH   2  11
ATOM     11  C   UNL     1       0.931  66.151  -6.549  1.00  0.00     0.189 C 
ATOM     12  O   UNL     1       2.006  66.551  -6.028  1.00  0.00    -0.289 OA
BRANCH  11  13
ATOM     13  C   UNL     1      -0.291  66.960  -6.364  1.00  0.00     0.064 A 
ATOM     14  C   UNL     1      -0.291  68.367  -6.520  1.00  0.00     0.130 A 
ATOM     15  C   UNL     1      -1.484  66.309  -6.012  1.00  0.00     0.020 A 
ATOM     16  C   UNL     1      -1.486  69.081  -6.372  1.00  0.00     0.093 A 
ATOM     17  C   UNL     1      -2.668  67.033  -5.856  1.00  0.00     0.047 A 
ATOM     18  C   UNL     1      -2.675  68.417  -6.040  1.00  0.00     0.119 A 
BRANCH  14  19
ATOM     19  O   UNL     1       0.875  69.081  -6.802  1.00  0.00    -0.507 OA
ATOM     20  H   UNL     1       0.970  70.072  -6.622  1.00  0.00     0.293 HD
ENDBRANCH  14  19
BRANCH  18  21
ATOM     21  O   UNL     1      -3.865  69.125  -5.887  1.00  0.00    -0.508 OA
ATOM     22  H   UNL     1      -4.762  68.655  -5.873  1.00  0.00     0.293 HD
ENDBRANCH  18  21
ENDBRANCH  11  13
ENDBRANCH   2  11
TORSDOF 6
ENDMDL
MODEL 9
REMARK VINA RESULT:    -1.421     21.353     24.106
REMARK INTER + INTRA:          -2.512
REMARK INTER:                  -1.874
REMARK INTRA:                  -0.638
REMARK UNBOUND:                -0.717
REMARK SMILES O=C(C=Cc1ccc(O)cc1)c1ccc(O)cc1O
REMARK SMILES IDX 4 1 3 2 5 3 6 4 7 5 8 6 11 7 10 8 9 9 2 11 1 12 12 13 18 14
REMARK SMILES IDX 13 15 17 16 14 17 15 18 19 19 16 21
REMARK H PARENT 9 10 19 20 16 22
REMARK Flexibility Score: inf
ROOT
ATOM      1  C   UNL     1     -10.834  49.870   8.528  1.00  0.00     0.012 C 
ATOM      2  C   UNL     1      -9.853  50.120   9.408  1.00  0.00     0.053 C 
ENDROOT
BRANCH   1   3
ATOM      3  C   UNL     1     -12.275  49.844   8.883  1.00  0.00    -0.025 A 
ATOM      4  C   UNL     1     -12.838  50.720   9.833  1.00  0.00     0.012 A 
ATOM      5  C   UNL     1     -14.205  50.662  10.124  1.00  0.00     0.047 A 
ATOM      6  C   UNL     1     -15.028  49.737   9.468  1.00  0.00     0.115 A 
ATOM      7  C   UNL     1     -13.113  48.932   8.220  1.00  0.00     0.012 A 
ATOM      8  C   UNL     1     -14.479  48.876   8.515  1.00  0.00     0.047 A 
BRANCH   6   9
ATOM      9  O   UNL     1     -16.390  49.671   9.752  1.00  0.00    -0.508 OA
ATOM     10  H   UNL     1     -16.987  50.487   9.682  1.00  0.00     0.293 HD
ENDBRANCH   6   9
ENDBRANCH   1   3
BRANCH   2  11
ATOM     11  C   UNL     1      -8.422  50.134   9.035  1.00  0.00     0.189 C 
ATOM     12  O   UNL     1      -7.945  49.124   8.451  1.00  0.00    -0.289 OA
BRANCH  11  13
ATOM     13  C   UNL     1      -7.523  51.265   9.343  1.00  0.00     0.064 A 
ATOM     14  C   UNL     1      -6.184  51.070   9.756  1.00  0.00     0.130 A 
ATOM     15  C   UNL     1      -8.023  52.573   9.232  1.00  0.00     0.020 A 
ATOM     16  C   UNL     1      -5.364  52.178   9.998  1.00  0.00     0.093 A 
ATOM     17  C   UNL     1      -7.199  53.671   9.487  1.00  0.00     0.047 A 
ATOM     18  C   UNL     1      -5.868  53.479   9.865  1.00  0.00     0.119 A 
BRANCH  14  19
ATOM     19  O   UNL     1      -5.648  49.795   9.953  1.00  0.00    -0.507 OA
ATOM     20  H   UNL     1      -4.747  49.638  10.386  1.00  0.00     0.293 HD
ENDBRANCH  14  19
BRANCH  18  21
ATOM     21  O   UNL     1      -5.057  54.584  10.109  1.00  0.00    -0.508 OA
ATOM     22  H   UNL     1      -5.285  55.500   9.742  1.00  0.00     0.293 HD
ENDBRANCH  18  21
ENDBRANCH  11  13
ENDBRANCH   2  11
TORSDOF 6
ENDMDL
