MODEL 1
REMARK VINA RESULT:    -3.398      0.000      0.000
REMARK INTER + INTRA:          -8.838
REMARK INTER:                  -7.370
REMARK INTRA:                  -1.468
REMARK UNBOUND:                -1.468
REMARK SMILES CCCCCCCCCCCCCCCCCCCCCC(=O)[O-]
REMARK SMILES IDX 12 1 11 2 10 3 9 4 8 5 7 6 6 7 5 8 4 9 3 10 2 11 1 12 13 13
REMARK SMILES IDX 14 14 15 15 16 16 17 17 18 18 19 19 20 20 21 21 22 22 23 23
REMARK SMILES IDX 24 24
REMARK H PARENT
REMARK Flexibility Score: inf
ROOT
ATOM      1  C   UNL     1       3.326   9.584   6.729  1.00  0.00     0.000 C 
ENDROOT
BRANCH   1   2
ATOM      2  C   UNL     1       4.553  10.511   6.659  1.00  0.00     0.000 C 
BRANCH   2   3
ATOM      3  C   UNL     1       4.821  11.093   5.253  1.00  0.00     0.000 C 
BRANCH   3   4
ATOM      4  C   UNL     1       6.136  11.889   5.182  1.00  0.00    -0.000 C 
BRANCH   4   5
ATOM      5  C   UNL     1       6.832  11.765   3.818  1.00  0.00    -0.000 C 
BRANCH   5   6
ATOM      6  C   UNL     1       8.347  12.024   3.899  1.00  0.00    -0.000 C 
BRANCH   6   7
ATOM      7  C   UNL     1       8.797  12.413   5.317  1.00  0.00    -0.000 C 
BRANCH   7   8
ATOM      8  C   UNL     1       9.221  11.190   6.151  1.00  0.00    -0.000 C 
BRANCH   8   9
ATOM      9  C   UNL     1       8.529  11.141   7.523  1.00  0.00    -0.000 C 
BRANCH   9  10
ATOM     10  C   UNL     1       8.833  12.372   8.388  1.00  0.00    -0.000 C 
BRANCH  10  11
ATOM     11  C   UNL     1       7.545  13.125   8.742  1.00  0.00    -0.003 C 
ATOM     12  C   UNL     1       6.379  12.160   8.945  1.00  0.00     0.004 C 
ENDBRANCH  10  11
ENDBRANCH   9  10
ENDBRANCH   8   9
ENDBRANCH   7   8
ENDBRANCH   6   7
ENDBRANCH   5   6
ENDBRANCH   4   5
ENDBRANCH   3   4
ENDBRANCH   2   3
ENDBRANCH   1   2
BRANCH   1  13
ATOM     13  C   UNL     1       2.329   9.896   7.862  1.00  0.00     0.000 C 
BRANCH  13  14
ATOM     14  C   UNL     1       2.956  10.105   9.252  1.00  0.00     0.000 C 
BRANCH  14  15
ATOM     15  C   UNL     1       1.921  10.071  10.390  1.00  0.00     0.000 C 
BRANCH  15  16
ATOM     16  C   UNL     1       1.530  11.476  10.882  1.00  0.00     0.000 C 
BRANCH  16  17
ATOM     17  C   UNL     1       1.972  12.637   9.969  1.00  0.00     0.000 C 
BRANCH  17  18
ATOM     18  C   UNL     1       0.963  13.028   8.869  1.00  0.00     0.000 C 
BRANCH  18  19
ATOM     19  C   UNL     1      -0.516  13.006   9.299  1.00  0.00     0.000 C 
BRANCH  19  20
ATOM     20  C   UNL     1      -1.538  13.108   8.150  1.00  0.00     0.006 C 
BRANCH  20  21
ATOM     21  C   UNL     1      -2.987  12.802   8.570  1.00  0.00     0.053 C 
BRANCH  21  22
ATOM     22  C   UNL     1      -3.766  12.113   7.490  1.00  0.00     0.041 C 
ATOM     23  O   UNL     1      -4.035  10.887   7.587  1.00  0.00    -0.550 OA
ATOM     24  O   UNL     1      -4.158  12.815   6.358  1.00  0.00    -0.550 OA
ENDBRANCH  21  22
ENDBRANCH  20  21
ENDBRANCH  19  20
ENDBRANCH  18  19
ENDBRANCH  17  18
ENDBRANCH  16  17
ENDBRANCH  15  16
ENDBRANCH  14  15
ENDBRANCH  13  14
ENDBRANCH   1  13
TORSDOF 20
ENDMDL
MODEL 2
REMARK VINA RESULT:    -3.289      1.202      2.760
REMARK INTER + INTRA:          -8.602
REMARK INTER:                  -7.631
REMARK INTRA:                  -0.971
REMARK UNBOUND:                -1.468
REMARK SMILES CCCCCCCCCCCCCCCCCCCCCC(=O)[O-]
REMARK SMILES IDX 12 1 11 2 10 3 9 4 8 5 7 6 6 7 5 8 4 9 3 10 2 11 1 12 13 13
REMARK SMILES IDX 14 14 15 15 16 16 17 17 18 18 19 19 20 20 21 21 22 22 23 23
REMARK SMILES IDX 24 24
REMARK H PARENT
REMARK Flexibility Score: inf
ROOT
ATOM      1  C   UNL     1       3.753  11.401   8.128  1.00  0.00     0.000 C 
ENDROOT
BRANCH   1   2
ATOM      2  C   UNL     1       4.753  12.560   7.955  1.00  0.00     0.000 C 
BRANCH   2   3
ATOM      3  C   UNL     1       5.741  12.717   9.133  1.00  0.00     0.000 C 
BRANCH   3   4
ATOM      4  C   UNL     1       7.084  12.011   8.877  1.00  0.00    -0.000 C 
BRANCH   4   5
ATOM      5  C   UNL     1       8.259  12.995   8.765  1.00  0.00    -0.000 C 
BRANCH   5   6
ATOM      6  C   UNL     1       9.518  12.349   8.160  1.00  0.00    -0.000 C 
BRANCH   6   7
ATOM      7  C   UNL     1      10.035  13.115   6.930  1.00  0.00    -0.000 C 
BRANCH   7   8
ATOM      8  C   UNL     1       9.342  12.667   5.630  1.00  0.00    -0.000 C 
BRANCH   8   9
ATOM      9  C   UNL     1       9.032  11.161   5.614  1.00  0.00    -0.000 C 
BRANCH   9  10
ATOM     10  C   UNL     1       7.548  10.856   5.863  1.00  0.00    -0.000 C 
BRANCH  10  11
ATOM     11  C   UNL     1       6.656  11.944   5.252  1.00  0.00    -0.003 C 
ATOM     12  C   UNL     1       5.856  11.403   4.071  1.00  0.00     0.004 C 
ENDBRANCH  10  11
ENDBRANCH   9  10
ENDBRANCH   8   9
ENDBRANCH   7   8
ENDBRANCH   6   7
ENDBRANCH   5   6
ENDBRANCH   4   5
ENDBRANCH   3   4
ENDBRANCH   2   3
ENDBRANCH   1   2
BRANCH   1  13
ATOM     13  C   UNL     1       4.359   9.989   8.023  1.00  0.00     0.000 C 
BRANCH  13  14
ATOM     14  C   UNL     1       3.763   8.943   8.983  1.00  0.00     0.000 C 
BRANCH  14  15
ATOM     15  C   UNL     1       2.987   9.573  10.152  1.00  0.00     0.000 C 
BRANCH  15  16
ATOM     16  C   UNL     1       1.772  10.396   9.686  1.00  0.00     0.000 C 
BRANCH  16  17
ATOM     17  C   UNL     1       1.286  11.467  10.683  1.00  0.00     0.000 C 
BRANCH  17  18
ATOM     18  C   UNL     1       1.265  12.910  10.137  1.00  0.00     0.000 C 
BRANCH  18  19
ATOM     19  C   UNL     1       0.392  13.125   8.886  1.00  0.00     0.000 C 
BRANCH  19  20
ATOM     20  C   UNL     1      -1.130  13.059   9.125  1.00  0.00     0.006 C 
BRANCH  20  21
ATOM     21  C   UNL     1      -1.966  13.027   7.833  1.00  0.00     0.053 C 
BRANCH  21  22
ATOM     22  C   UNL     1      -3.402  12.679   8.086  1.00  0.00     0.041 C 
ATOM     23  O   UNL     1      -4.152  12.350   7.129  1.00  0.00    -0.550 OA
ATOM     24  O   UNL     1      -3.924  12.760   9.370  1.00  0.00    -0.550 OA
ENDBRANCH  21  22
ENDBRANCH  20  21
ENDBRANCH  19  20
ENDBRANCH  18  19
ENDBRANCH  17  18
ENDBRANCH  16  17
ENDBRANCH  15  16
ENDBRANCH  14  15
ENDBRANCH  13  14
ENDBRANCH   1  13
TORSDOF 20
ENDMDL
MODEL 3
REMARK VINA RESULT:    -3.178      1.045      2.835
REMARK INTER + INTRA:          -8.362
REMARK INTER:                  -7.562
REMARK INTRA:                  -0.801
REMARK UNBOUND:                -1.468
REMARK SMILES CCCCCCCCCCCCCCCCCCCCCC(=O)[O-]
REMARK SMILES IDX 12 1 11 2 10 3 9 4 8 5 7 6 6 7 5 8 4 9 3 10 2 11 1 12 13 13
REMARK SMILES IDX 14 14 15 15 16 16 17 17 18 18 19 19 20 20 21 21 22 22 23 23
REMARK SMILES IDX 24 24
REMARK H PARENT
REMARK Flexibility Score: inf
ROOT
ATOM      1  C   UNL     1       3.895  10.536   6.092  1.00  0.00     0.000 C 
ENDROOT
BRANCH   1   2
ATOM      2  C   UNL     1       5.313  10.877   6.586  1.00  0.00     0.000 C 
BRANCH   2   3
ATOM      3  C   UNL     1       5.353  11.983   7.664  1.00  0.00     0.000 C 
BRANCH   3   4
ATOM      4  C   UNL     1       6.348  11.671   8.797  1.00  0.00    -0.000 C 
BRANCH   4   5
ATOM      5  C   UNL     1       7.184  12.893   9.204  1.00  0.00    -0.000 C 
BRANCH   5   6
ATOM      6  C   UNL     1       8.623  12.835   8.659  1.00  0.00    -0.000 C 
BRANCH   6   7
ATOM      7  C   UNL     1       8.819  11.691   7.650  1.00  0.00    -0.000 C 
BRANCH   7   8
ATOM      8  C   UNL     1      10.125  11.837   6.847  1.00  0.00    -0.000 C 
BRANCH   8   9
ATOM      9  C   UNL     1       9.888  11.831   5.328  1.00  0.00    -0.000 C 
BRANCH   9  10
ATOM     10  C   UNL     1       8.457  11.425   4.950  1.00  0.00    -0.000 C 
BRANCH  10  11
ATOM     11  C   UNL     1       7.889  12.360   3.875  1.00  0.00    -0.003 C 
ATOM     12  C   UNL     1       8.852  12.502   2.700  1.00  0.00     0.004 C 
ENDBRANCH  10  11
ENDBRANCH   9  10
ENDBRANCH   8   9
ENDBRANCH   7   8
ENDBRANCH   6   7
ENDBRANCH   5   6
ENDBRANCH   4   5
ENDBRANCH   3   4
ENDBRANCH   2   3
ENDBRANCH   1   2
BRANCH   1  13
ATOM     13  C   UNL     1       2.848  10.315   7.200  1.00  0.00     0.000 C 
BRANCH  13  14
ATOM     14  C   UNL     1       3.414   9.891   8.568  1.00  0.00     0.000 C 
BRANCH  14  15
ATOM     15  C   UNL     1       2.371   9.201   9.463  1.00  0.00     0.000 C 
BRANCH  15  16
ATOM     16  C   UNL     1       2.036  10.016  10.725  1.00  0.00     0.000 C 
BRANCH  16  17
ATOM     17  C   UNL     1       1.446  11.416  10.463  1.00  0.00     0.000 C 
BRANCH  17  18
ATOM     18  C   UNL     1       0.538  11.524   9.220  1.00  0.00     0.000 C 
BRANCH  18  19
ATOM     19  C   UNL     1       0.066  12.950   8.875  1.00  0.00     0.000 C 
BRANCH  19  20
ATOM     20  C   UNL     1      -1.457  13.115   8.702  1.00  0.00     0.006 C 
BRANCH  20  21
ATOM     21  C   UNL     1      -2.186  11.819   8.304  1.00  0.00     0.053 C 
BRANCH  21  22
ATOM     22  C   UNL     1      -3.521  12.081   7.673  1.00  0.00     0.041 C 
ATOM     23  O   UNL     1      -3.734  11.748   6.477  1.00  0.00    -0.550 OA
ATOM     24  O   UNL     1      -4.516  12.730   8.392  1.00  0.00    -0.550 OA
ENDBRANCH  21  22
ENDBRANCH  20  21
ENDBRANCH  19  20
ENDBRANCH  18  19
ENDBRANCH  17  18
ENDBRANCH  16  17
ENDBRANCH  15  16
ENDBRANCH  14  15
ENDBRANCH  13  14
ENDBRANCH   1  13
TORSDOF 20
ENDMDL
MODEL 4
REMARK VINA RESULT:    -2.907      4.064      9.046
REMARK INTER + INTRA:          -7.775
REMARK INTER:                  -6.534
REMARK INTRA:                  -1.241
REMARK UNBOUND:                -1.468
REMARK SMILES CCCCCCCCCCCCCCCCCCCCCC(=O)[O-]
REMARK SMILES IDX 12 1 11 2 10 3 9 4 8 5 7 6 6 7 5 8 4 9 3 10 2 11 1 12 13 13
REMARK SMILES IDX 14 14 15 15 16 16 17 17 18 18 19 19 20 20 21 21 22 22 23 23
REMARK SMILES IDX 24 24
REMARK H PARENT
REMARK Flexibility Score: inf
ROOT
ATOM      1  C   UNL     1       3.995   8.734   8.083  1.00  0.00     0.000 C 
ENDROOT
BRANCH   1   2
ATOM      2  C   UNL     1       3.730   9.433   6.737  1.00  0.00     0.000 C 
BRANCH   2   3
ATOM      3  C   UNL     1       2.720  10.599   6.823  1.00  0.00     0.000 C 
BRANCH   3   4
ATOM      4  C   UNL     1       1.721  10.432   7.983  1.00  0.00    -0.000 C 
BRANCH   4   5
ATOM      5  C   UNL     1       2.253  10.997   9.309  1.00  0.00    -0.000 C 
BRANCH   5   6
ATOM      6  C   UNL     1       1.133  11.556  10.206  1.00  0.00    -0.000 C 
BRANCH   6   7
ATOM      7  C   UNL     1       0.722  12.983   9.806  1.00  0.00    -0.000 C 
BRANCH   7   8
ATOM      8  C   UNL     1      -0.214  12.999   8.583  1.00  0.00    -0.000 C 
BRANCH   8   9
ATOM      9  C   UNL     1      -1.696  13.125   8.975  1.00  0.00    -0.000 C 
BRANCH   9  10
ATOM     10  C   UNL     1      -2.635  13.117   7.761  1.00  0.00    -0.000 C 
BRANCH  10  11
ATOM     11  C   UNL     1      -3.884  12.272   8.041  1.00  0.00    -0.003 C 
ATOM     12  C   UNL     1      -3.911  11.788   9.488  1.00  0.00     0.004 C 
ENDBRANCH  10  11
ENDBRANCH   9  10
ENDBRANCH   8   9
ENDBRANCH   7   8
ENDBRANCH   6   7
ENDBRANCH   5   6
ENDBRANCH   4   5
ENDBRANCH   3   4
ENDBRANCH   2   3
ENDBRANCH   1   2
BRANCH   1  13
ATOM     13  C   UNL     1       5.264   9.195   8.825  1.00  0.00     0.000 C 
BRANCH  13  14
ATOM     14  C   UNL     1       6.205  10.108   8.017  1.00  0.00     0.000 C 
BRANCH  14  15
ATOM     15  C   UNL     1       6.119  11.584   8.440  1.00  0.00     0.000 C 
BRANCH  15  16
ATOM     16  C   UNL     1       5.801  12.525   7.264  1.00  0.00     0.000 C 
BRANCH  16  17
ATOM     17  C   UNL     1       5.881  11.876   5.867  1.00  0.00     0.000 C 
BRANCH  17  18
ATOM     18  C   UNL     1       6.585  12.725   4.789  1.00  0.00     0.000 C 
BRANCH  18  19
ATOM     19  C   UNL     1       7.700  12.001   4.009  1.00  0.00     0.000 C 
BRANCH  19  20
ATOM     20  C   UNL     1       8.998  12.809   3.812  1.00  0.00     0.006 C 
BRANCH  20  21
ATOM     21  C   UNL     1      10.114  12.452   4.810  1.00  0.00     0.053 C 
BRANCH  21  22
ATOM     22  C   UNL     1       9.581  12.075   6.160  1.00  0.00     0.041 C 
ATOM     23  O   UNL     1       9.403  10.864   6.455  1.00  0.00    -0.550 OA
ATOM     24  O   UNL     1       9.240  13.062   7.075  1.00  0.00    -0.550 OA
ENDBRANCH  21  22
ENDBRANCH  20  21
ENDBRANCH  19  20
ENDBRANCH  18  19
ENDBRANCH  17  18
ENDBRANCH  16  17
ENDBRANCH  15  16
ENDBRANCH  14  15
ENDBRANCH  13  14
ENDBRANCH   1  13
TORSDOF 20
ENDMDL
MODEL 5
REMARK VINA RESULT:    -2.522      3.120      8.953
REMARK INTER + INTRA:          -6.938
REMARK INTER:                  -6.934
REMARK INTRA:                  -0.004
REMARK UNBOUND:                -1.468
REMARK SMILES CCCCCCCCCCCCCCCCCCCCCC(=O)[O-]
REMARK SMILES IDX 12 1 11 2 10 3 9 4 8 5 7 6 6 7 5 8 4 9 3 10 2 11 1 12 13 13
REMARK SMILES IDX 14 14 15 15 16 16 17 17 18 18 19 19 20 20 21 21 22 22 23 23
REMARK SMILES IDX 24 24
REMARK H PARENT
REMARK Flexibility Score: inf
ROOT
ATOM      1  C   UNL     1       4.085   8.948   8.144  1.00  0.00     0.000 C 
ENDROOT
BRANCH   1   2
ATOM      2  C   UNL     1       2.997   9.965   7.753  1.00  0.00     0.000 C 
BRANCH   2   3
ATOM      3  C   UNL     1       3.025  11.266   8.587  1.00  0.00     0.000 C 
BRANCH   3   4
ATOM      4  C   UNL     1       3.091  10.997  10.101  1.00  0.00    -0.000 C 
BRANCH   4   5
ATOM      5  C   UNL     1       1.712  10.707  10.712  1.00  0.00    -0.000 C 
BRANCH   5   6
ATOM      6  C   UNL     1       0.812  11.955  10.764  1.00  0.00    -0.000 C 
BRANCH   6   7
ATOM      7  C   UNL     1       0.372  12.416   9.364  1.00  0.00    -0.000 C 
BRANCH   7   8
ATOM      8  C   UNL     1      -0.994  13.124   9.384  1.00  0.00    -0.000 C 
BRANCH   8   9
ATOM      9  C   UNL     1      -1.777  12.938   8.074  1.00  0.00    -0.000 C 
BRANCH   9  10
ATOM     10  C   UNL     1      -3.290  13.125   8.253  1.00  0.00    -0.000 C 
BRANCH  10  11
ATOM     11  C   UNL     1      -4.067  12.360   7.175  1.00  0.00    -0.003 C 
ATOM     12  C   UNL     1      -3.757  10.866   7.225  1.00  0.00     0.004 C 
ENDBRANCH  10  11
ENDBRANCH   9  10
ENDBRANCH   8   9
ENDBRANCH   7   8
ENDBRANCH   6   7
ENDBRANCH   5   6
ENDBRANCH   4   5
ENDBRANCH   3   4
ENDBRANCH   2   3
ENDBRANCH   1   2
BRANCH   1  13
ATOM     13  C   UNL     1       5.518   9.322   7.722  1.00  0.00     0.000 C 
BRANCH  13  14
ATOM     14  C   UNL     1       5.979  10.733   8.131  1.00  0.00     0.000 C 
BRANCH  14  15
ATOM     15  C   UNL     1       7.499  10.930   8.001  1.00  0.00     0.000 C 
BRANCH  15  16
ATOM     16  C   UNL     1       7.881  12.357   7.567  1.00  0.00     0.000 C 
BRANCH  16  17
ATOM     17  C   UNL     1       9.395  12.627   7.465  1.00  0.00     0.000 C 
BRANCH  17  18
ATOM     18  C   UNL     1      10.113  11.911   6.302  1.00  0.00     0.000 C 
BRANCH  18  19
ATOM     19  C   UNL     1      10.107  12.669   4.961  1.00  0.00     0.000 C 
BRANCH  19  20
ATOM     20  C   UNL     1       8.729  12.792   4.280  1.00  0.00     0.006 C 
BRANCH  20  21
ATOM     21  C   UNL     1       7.843  11.542   4.428  1.00  0.00     0.053 C 
BRANCH  21  22
ATOM     22  C   UNL     1       6.380  11.866   4.391  1.00  0.00     0.041 C 
ATOM     23  O   UNL     1       5.986  12.965   3.919  1.00  0.00    -0.550 OA
ATOM     24  O   UNL     1       5.455  10.973   4.916  1.00  0.00    -0.550 OA
ENDBRANCH  21  22
ENDBRANCH  20  21
ENDBRANCH  19  20
ENDBRANCH  18  19
ENDBRANCH  17  18
ENDBRANCH  16  17
ENDBRANCH  15  16
ENDBRANCH  14  15
ENDBRANCH  13  14
ENDBRANCH   1  13
TORSDOF 20
ENDMDL
MODEL 6
REMARK VINA RESULT:    -2.414      2.903      7.979
REMARK INTER + INTRA:          -6.705
REMARK INTER:                  -6.276
REMARK INTRA:                  -0.429
REMARK UNBOUND:                -1.468
REMARK SMILES CCCCCCCCCCCCCCCCCCCCCC(=O)[O-]
REMARK SMILES IDX 12 1 11 2 10 3 9 4 8 5 7 6 6 7 5 8 4 9 3 10 2 11 1 12 13 13
REMARK SMILES IDX 14 14 15 15 16 16 17 17 18 18 19 19 20 20 21 21 22 22 23 23
REMARK SMILES IDX 24 24
REMARK H PARENT
REMARK Flexibility Score: inf
ROOT
ATOM      1  C   UNL     1       6.432  12.936   5.180  1.00  0.00     0.000 C 
ENDROOT
BRANCH   1   2
ATOM      2  C   UNL     1       5.810  11.612   5.663  1.00  0.00     0.000 C 
BRANCH   2   3
ATOM      3  C   UNL     1       4.855  10.958   4.640  1.00  0.00     0.000 C 
BRANCH   3   4
ATOM      4  C   UNL     1       3.651  10.270   5.309  1.00  0.00    -0.000 C 
BRANCH   4   5
ATOM      5  C   UNL     1       3.396  10.777   6.736  1.00  0.00    -0.000 C 
BRANCH   5   6
ATOM      6  C   UNL     1       2.003  10.387   7.264  1.00  0.00    -0.000 C 
BRANCH   6   7
ATOM      7  C   UNL     1       1.773  10.861   8.709  1.00  0.00    -0.000 C 
BRANCH   7   8
ATOM      8  C   UNL     1       1.163  12.273   8.770  1.00  0.00    -0.000 C 
BRANCH   8   9
ATOM      9  C   UNL     1      -0.279  12.272   9.305  1.00  0.00    -0.000 C 
BRANCH   9  10
ATOM     10  C   UNL     1      -1.230  13.125   8.454  1.00  0.00    -0.000 C 
BRANCH  10  11
ATOM     11  C   UNL     1      -2.686  12.918   8.888  1.00  0.00    -0.003 C 
ATOM     12  C   UNL     1      -3.532  12.371   7.741  1.00  0.00     0.004 C 
ENDBRANCH  10  11
ENDBRANCH   9  10
ENDBRANCH   8   9
ENDBRANCH   7   8
ENDBRANCH   6   7
ENDBRANCH   5   6
ENDBRANCH   4   5
ENDBRANCH   3   4
ENDBRANCH   2   3
ENDBRANCH   1   2
BRANCH   1  13
ATOM     13  C   UNL     1       7.622  12.789   4.214  1.00  0.00     0.000 C 
BRANCH  13  14
ATOM     14  C   UNL     1       8.372  11.446   4.290  1.00  0.00     0.000 C 
BRANCH  14  15
ATOM     15  C   UNL     1       9.231  11.308   5.558  1.00  0.00     0.000 C 
BRANCH  15  16
ATOM     16  C   UNL     1      10.015  12.590   5.891  1.00  0.00     0.000 C 
BRANCH  16  17
ATOM     17  C   UNL     1       9.855  13.098   7.338  1.00  0.00     0.000 C 
BRANCH  17  18
ATOM     18  C   UNL     1       8.407  13.121   7.869  1.00  0.00     0.000 C 
BRANCH  18  19
ATOM     19  C   UNL     1       7.993  11.890   8.697  1.00  0.00     0.000 C 
BRANCH  19  20
ATOM     20  C   UNL     1       6.684  11.207   8.253  1.00  0.00     0.006 C 
BRANCH  20  21
ATOM     21  C   UNL     1       5.488  11.483   9.182  1.00  0.00     0.053 C 
BRANCH  21  22
ATOM     22  C   UNL     1       4.835  10.225   9.669  1.00  0.00     0.041 C 
ATOM     23  O   UNL     1       4.168  10.229  10.737  1.00  0.00    -0.550 OA
ATOM     24  O   UNL     1       4.999   9.038   8.967  1.00  0.00    -0.550 OA
ENDBRANCH  21  22
ENDBRANCH  20  21
ENDBRANCH  19  20
ENDBRANCH  18  19
ENDBRANCH  17  18
ENDBRANCH  16  17
ENDBRANCH  15  16
ENDBRANCH  14  15
ENDBRANCH  13  14
ENDBRANCH   1  13
TORSDOF 20
ENDMDL
MODEL 7
REMARK VINA RESULT:    -1.741      1.185      2.661
REMARK INTER + INTRA:          -5.245
REMARK INTER:                  -4.639
REMARK INTRA:                  -0.606
REMARK UNBOUND:                -1.468
REMARK SMILES CCCCCCCCCCCCCCCCCCCCCC(=O)[O-]
REMARK SMILES IDX 12 1 11 2 10 3 9 4 8 5 7 6 6 7 5 8 4 9 3 10 2 11 1 12 13 13
REMARK SMILES IDX 14 14 15 15 16 16 17 17 18 18 19 19 20 20 21 21 22 22 23 23
REMARK SMILES IDX 24 24
REMARK H PARENT
REMARK Flexibility Score: inf
ROOT
ATOM      1  C   UNL     1       3.874  10.170   9.585  1.00  0.00     0.000 C 
ENDROOT
BRANCH   1   2
ATOM      2  C   UNL     1       4.675   9.078   8.853  1.00  0.00     0.000 C 
BRANCH   2   3
ATOM      3  C   UNL     1       5.855   9.620   8.015  1.00  0.00     0.000 C 
BRANCH   3   4
ATOM      4  C   UNL     1       5.810  11.150   7.850  1.00  0.00    -0.000 C 
BRANCH   4   5
ATOM      5  C   UNL     1       4.766  11.605   6.819  1.00  0.00    -0.000 C 
BRANCH   5   6
ATOM      6  C   UNL     1       5.241  11.407   5.368  1.00  0.00    -0.000 C 
BRANCH   6   7
ATOM      7  C   UNL     1       6.775  11.394   5.252  1.00  0.00    -0.000 C 
BRANCH   7   8
ATOM      8  C   UNL     1       7.266  12.012   3.931  1.00  0.00    -0.000 C 
BRANCH   8   9
ATOM      9  C   UNL     1       8.676  12.614   4.048  1.00  0.00    -0.000 C 
BRANCH   9  10
ATOM     10  C   UNL     1       9.541  11.905   5.099  1.00  0.00    -0.000 C 
BRANCH  10  11
ATOM     11  C   UNL     1       9.636  12.739   6.382  1.00  0.00    -0.003 C 
ATOM     12  C   UNL     1       9.365  11.885   7.618  1.00  0.00     0.004 C 
ENDBRANCH  10  11
ENDBRANCH   9  10
ENDBRANCH   8   9
ENDBRANCH   7   8
ENDBRANCH   6   7
ENDBRANCH   5   6
ENDBRANCH   4   5
ENDBRANCH   3   4
ENDBRANCH   2   3
ENDBRANCH   1   2
BRANCH   1  13
ATOM     13  C   UNL     1       3.005   9.675  10.757  1.00  0.00     0.000 C 
BRANCH  13  14
ATOM     14  C   UNL     1       1.559  10.204  10.775  1.00  0.00     0.000 C 
BRANCH  14  15
ATOM     15  C   UNL     1       1.481  11.739  10.838  1.00  0.00     0.000 C 
BRANCH  15  16
ATOM     16  C   UNL     1       1.765  12.406   9.480  1.00  0.00     0.000 C 
BRANCH  16  17
ATOM     17  C   UNL     1       0.538  13.039   8.792  1.00  0.00     0.000 C 
BRANCH  17  18
ATOM     18  C   UNL     1      -0.810  12.354   9.097  1.00  0.00     0.000 C 
BRANCH  18  19
ATOM     19  C   UNL     1      -2.058  13.125   8.624  1.00  0.00     0.000 C 
BRANCH  19  20
ATOM     20  C   UNL     1      -3.403  12.587   9.152  1.00  0.00     0.006 C 
BRANCH  20  21
ATOM     21  C   UNL     1      -4.512  12.519   8.086  1.00  0.00     0.053 C 
BRANCH  21  22
ATOM     22  C   UNL     1      -4.034  11.924   6.795  1.00  0.00     0.041 C 
ATOM     23  O   UNL     1      -4.148  12.568   5.719  1.00  0.00    -0.550 OA
ATOM     24  O   UNL     1      -3.501  10.642   6.774  1.00  0.00    -0.550 OA
ENDBRANCH  21  22
ENDBRANCH  20  21
ENDBRANCH  19  20
ENDBRANCH  18  19
ENDBRANCH  17  18
ENDBRANCH  16  17
ENDBRANCH  15  16
ENDBRANCH  14  15
ENDBRANCH  13  14
ENDBRANCH   1  13
TORSDOF 20
ENDMDL
MODEL 8
REMARK VINA RESULT:    -1.390      3.552      8.904
REMARK INTER + INTRA:          -4.484
REMARK INTER:                  -5.212
REMARK INTRA:                   0.729
REMARK UNBOUND:                -1.468
REMARK SMILES CCCCCCCCCCCCCCCCCCCCCC(=O)[O-]
REMARK SMILES IDX 12 1 11 2 10 3 9 4 8 5 7 6 6 7 5 8 4 9 3 10 2 11 1 12 13 13
REMARK SMILES IDX 14 14 15 15 16 16 17 17 18 18 19 19 20 20 21 21 22 22 23 23
REMARK SMILES IDX 24 24
REMARK H PARENT
REMARK Flexibility Score: inf
ROOT
ATOM      1  C   UNL     1       3.844   9.108   7.654  1.00  0.00     0.000 C 
ENDROOT
BRANCH   1   2
ATOM      2  C   UNL     1       2.736   9.566   6.687  1.00  0.00     0.000 C 
BRANCH   2   3
ATOM      3  C   UNL     1       1.803  10.650   7.270  1.00  0.00     0.000 C 
BRANCH   3   4
ATOM      4  C   UNL     1       1.987  10.837   8.787  1.00  0.00    -0.000 C 
BRANCH   4   5
ATOM      5  C   UNL     1       2.868  12.048   9.133  1.00  0.00    -0.000 C 
BRANCH   5   6
ATOM      6  C   UNL     1       2.242  12.946  10.216  1.00  0.00    -0.000 C 
BRANCH   6   7
ATOM      7  C   UNL     1       0.719  12.756  10.322  1.00  0.00    -0.000 C 
BRANCH   7   8
ATOM      8  C   UNL     1      -0.008  13.122   9.015  1.00  0.00    -0.000 C 
BRANCH   8   9
ATOM      9  C   UNL     1      -1.522  12.863   9.089  1.00  0.00    -0.000 C 
BRANCH   9  10
ATOM     10  C   UNL     1      -2.221  13.027   7.732  1.00  0.00    -0.000 C 
BRANCH  10  11
ATOM     11  C   UNL     1      -3.677  12.554   7.805  1.00  0.00    -0.003 C 
ATOM     12  C   UNL     1      -3.766  11.031   7.784  1.00  0.00     0.004 C 
ENDBRANCH  10  11
ENDBRANCH   9  10
ENDBRANCH   8   9
ENDBRANCH   7   8
ENDBRANCH   6   7
ENDBRANCH   5   6
ENDBRANCH   4   5
ENDBRANCH   3   4
ENDBRANCH   2   3
ENDBRANCH   1   2
BRANCH   1  13
ATOM     13  C   UNL     1       5.126   9.963   7.638  1.00  0.00     0.000 C 
BRANCH  13  14
ATOM     14  C   UNL     1       5.087  11.192   6.711  1.00  0.00     0.000 C 
BRANCH  14  15
ATOM     15  C   UNL     1       4.817  10.829   5.241  1.00  0.00     0.000 C 
BRANCH  15  16
ATOM     16  C   UNL     1       5.900  11.363   4.286  1.00  0.00     0.000 C 
BRANCH  16  17
ATOM     17  C   UNL     1       7.329  10.856   4.568  1.00  0.00     0.000 C 
BRANCH  17  18
ATOM     18  C   UNL     1       8.311  11.922   5.096  1.00  0.00     0.000 C 
BRANCH  18  19
ATOM     19  C   UNL     1       9.331  11.417   6.136  1.00  0.00     0.000 C 
BRANCH  19  20
ATOM     20  C   UNL     1      10.088  12.518   6.904  1.00  0.00     0.006 C 
BRANCH  20  21
ATOM     21  C   UNL     1       9.294  13.125   8.074  1.00  0.00     0.053 C 
BRANCH  21  22
ATOM     22  C   UNL     1       8.140  12.264   8.494  1.00  0.00     0.041 C 
ATOM     23  O   UNL     1       7.042  12.789   8.818  1.00  0.00    -0.550 OA
ATOM     24  O   UNL     1       8.290  10.885   8.570  1.00  0.00    -0.550 OA
ENDBRANCH  21  22
ENDBRANCH  20  21
ENDBRANCH  19  20
ENDBRANCH  18  19
ENDBRANCH  17  18
ENDBRANCH  16  17
ENDBRANCH  15  16
ENDBRANCH  14  15
ENDBRANCH  13  14
ENDBRANCH   1  13
TORSDOF 20
ENDMDL
