MODEL 1
REMARK VINA RESULT:    -4.213      0.000      0.000
REMARK INTER + INTRA:          -8.126
REMARK INTER:                  -7.169
REMARK INTRA:                  -0.957
REMARK UNBOUND:                -0.957
REMARK SMILES CCCCCCCCCCCCCC(=O)[O-]
REMARK SMILES IDX 8 1 9 2 10 3 11 4 12 5 13 6 14 7 15 8 16 9 7 10 6 11 5 12
REMARK SMILES IDX 4 13 3 14 2 15 1 16
REMARK H PARENT
REMARK Flexibility Score: inf
ROOT
ATOM      1  C   UNL     1       3.047 -37.066  19.828  1.00  0.00     0.000 C 
ENDROOT
BRANCH   1   2
ATOM      2  C   UNL     1       4.141 -38.105  20.114  1.00  0.00     0.000 C 
BRANCH   2   3
ATOM      3  C   UNL     1       5.536 -37.473  20.250  1.00  0.00     0.000 C 
BRANCH   3   4
ATOM      4  C   UNL     1       5.504 -35.940  20.125  1.00  0.00     0.000 C 
BRANCH   4   5
ATOM      5  C   UNL     1       6.101 -35.235  21.353  1.00  0.00     0.006 C 
BRANCH   5   6
ATOM      6  C   UNL     1       6.033 -36.098  22.620  1.00  0.00     0.053 C 
BRANCH   6   7
ATOM      7  C   UNL     1       5.746 -35.247  23.816  1.00  0.00     0.041 C 
ATOM      8  O   UNL     1       5.545 -34.012  23.683  1.00  0.00    -0.550 OA
ATOM      9  O   UNL     1       5.654 -35.827  25.075  1.00  0.00    -0.550 OA
ENDBRANCH   6   7
ENDBRANCH   5   6
ENDBRANCH   4   5
ENDBRANCH   3   4
ENDBRANCH   2   3
ENDBRANCH   1   2
BRANCH   1  10
ATOM     10  C   UNL     1       1.905 -37.687  19.006  1.00  0.00     0.000 C 
BRANCH  10  11
ATOM     11  C   UNL     1       2.053 -37.434  17.497  1.00  0.00    -0.000 C 
BRANCH  11  12
ATOM     12  C   UNL     1       3.196 -36.458  17.171  1.00  0.00    -0.000 C 
BRANCH  12  13
ATOM     13  C   UNL     1       2.972 -35.702  15.851  1.00  0.00    -0.000 C 
BRANCH  13  14
ATOM     14  C   UNL     1       2.632 -36.642  14.680  1.00  0.00    -0.000 C 
BRANCH  14  15
ATOM     15  C   UNL     1       3.883 -37.104  13.916  1.00  0.00    -0.003 C 
ATOM     16  C   UNL     1       4.292 -38.536  14.259  1.00  0.00     0.004 C 
ENDBRANCH  14  15
ENDBRANCH  13  14
ENDBRANCH  12  13
ENDBRANCH  11  12
ENDBRANCH  10  11
ENDBRANCH   1  10
TORSDOF 12
ENDMDL
MODEL 2
REMARK VINA RESULT:    -3.875      1.192      1.595
REMARK INTER + INTRA:          -7.550
REMARK INTER:                  -7.386
REMARK INTRA:                  -0.165
REMARK UNBOUND:                -0.957
REMARK SMILES CCCCCCCCCCCCCC(=O)[O-]
REMARK SMILES IDX 8 1 9 2 10 3 11 4 12 5 13 6 14 7 15 8 16 9 7 10 6 11 5 12
REMARK SMILES IDX 4 13 3 14 2 15 1 16
REMARK H PARENT
REMARK Flexibility Score: inf
ROOT
ATOM      1  C   UNL     1       2.865 -37.147  20.077  1.00  0.00     0.000 C 
ENDROOT
BRANCH   1   2
ATOM      2  C   UNL     1       4.366 -36.890  20.275  1.00  0.00     0.000 C 
BRANCH   2   3
ATOM      3  C   UNL     1       4.661 -35.471  20.786  1.00  0.00     0.000 C 
BRANCH   3   4
ATOM      4  C   UNL     1       5.777 -35.444  21.845  1.00  0.00     0.000 C 
BRANCH   4   5
ATOM      5  C   UNL     1       5.451 -34.513  23.023  1.00  0.00     0.006 C 
BRANCH   5   6
ATOM      6  C   UNL     1       6.125 -34.955  24.329  1.00  0.00     0.053 C 
BRANCH   6   7
ATOM      7  C   UNL     1       5.726 -36.355  24.675  1.00  0.00     0.041 C 
ATOM      8  O   UNL     1       5.015 -36.580  25.689  1.00  0.00    -0.550 OA
ATOM      9  O   UNL     1       6.101 -37.407  23.849  1.00  0.00    -0.550 OA
ENDBRANCH   6   7
ENDBRANCH   5   6
ENDBRANCH   4   5
ENDBRANCH   3   4
ENDBRANCH   2   3
ENDBRANCH   1   2
BRANCH   1  10
ATOM     10  C   UNL     1       2.560 -37.509  18.615  1.00  0.00     0.000 C 
BRANCH  10  11
ATOM     11  C   UNL     1       3.700 -37.127  17.658  1.00  0.00    -0.000 C 
BRANCH  11  12
ATOM     12  C   UNL     1       3.278 -36.064  16.630  1.00  0.00    -0.000 C 
BRANCH  12  13
ATOM     13  C   UNL     1       2.099 -36.522  15.754  1.00  0.00    -0.000 C 
BRANCH  13  14
ATOM     14  C   UNL     1       2.435 -36.506  14.252  1.00  0.00    -0.000 C 
BRANCH  14  15
ATOM     15  C   UNL     1       3.903 -36.868  13.975  1.00  0.00    -0.003 C 
ATOM     16  C   UNL     1       4.198 -38.352  14.186  1.00  0.00     0.004 C 
ENDBRANCH  14  15
ENDBRANCH  13  14
ENDBRANCH  12  13
ENDBRANCH  11  12
ENDBRANCH  10  11
ENDBRANCH   1  10
TORSDOF 12
ENDMDL
MODEL 3
REMARK VINA RESULT:    -3.371      3.880      7.641
REMARK INTER + INTRA:          -6.693
REMARK INTER:                  -6.119
REMARK INTRA:                  -0.574
REMARK UNBOUND:                -0.957
REMARK SMILES CCCCCCCCCCCCCC(=O)[O-]
REMARK SMILES IDX 8 1 9 2 10 3 11 4 12 5 13 6 14 7 15 8 16 9 7 10 6 11 5 12
REMARK SMILES IDX 4 13 3 14 2 15 1 16
REMARK H PARENT
REMARK Flexibility Score: inf
ROOT
ATOM      1  C   UNL     1       2.326 -37.482  19.850  1.00  0.00     0.000 C 
ENDROOT
BRANCH   1   2
ATOM      2  C   UNL     1       1.764 -37.843  18.467  1.00  0.00     0.000 C 
BRANCH   2   3
ATOM      3  C   UNL     1       2.657 -37.347  17.318  1.00  0.00     0.000 C 
BRANCH   3   4
ATOM      4  C   UNL     1       1.921 -36.383  16.372  1.00  0.00     0.000 C 
BRANCH   4   5
ATOM      5  C   UNL     1       2.753 -36.025  15.131  1.00  0.00     0.006 C 
BRANCH   5   6
ATOM      6  C   UNL     1       2.800 -37.164  14.103  1.00  0.00     0.053 C 
BRANCH   6   7
ATOM      7  C   UNL     1       4.202 -37.656  13.933  1.00  0.00     0.041 C 
ATOM      8  O   UNL     1       5.159 -36.839  13.875  1.00  0.00    -0.550 OA
ATOM      9  O   UNL     1       4.459 -39.020  13.887  1.00  0.00    -0.550 OA
ENDBRANCH   6   7
ENDBRANCH   5   6
ENDBRANCH   4   5
ENDBRANCH   3   4
ENDBRANCH   2   3
ENDBRANCH   1   2
BRANCH   1  10
ATOM     10  C   UNL     1       3.512 -36.512  19.723  1.00  0.00     0.000 C 
BRANCH  10  11
ATOM     11  C   UNL     1       4.867 -37.195  19.967  1.00  0.00    -0.000 C 
BRANCH  11  12
ATOM     12  C   UNL     1       5.887 -36.260  20.638  1.00  0.00    -0.000 C 
BRANCH  12  13
ATOM     13  C   UNL     1       5.778 -36.267  22.173  1.00  0.00    -0.000 C 
BRANCH  13  14
ATOM     14  C   UNL     1       5.345 -34.904  22.742  1.00  0.00    -0.000 C 
BRANCH  14  15
ATOM     15  C   UNL     1       5.782 -34.713  24.203  1.00  0.00    -0.003 C 
ATOM     16  C   UNL     1       6.121 -36.031  24.898  1.00  0.00     0.004 C 
ENDBRANCH  14  15
ENDBRANCH  13  14
ENDBRANCH  12  13
ENDBRANCH  11  12
ENDBRANCH  10  11
ENDBRANCH   1  10
TORSDOF 12
ENDMDL
MODEL 4
REMARK VINA RESULT:    -2.709      2.847      7.077
REMARK INTER + INTRA:          -5.566
REMARK INTER:                  -4.617
REMARK INTRA:                  -0.949
REMARK UNBOUND:                -0.957
REMARK SMILES CCCCCCCCCCCCCC(=O)[O-]
REMARK SMILES IDX 8 1 9 2 10 3 11 4 12 5 13 6 14 7 15 8 16 9 7 10 6 11 5 12
REMARK SMILES IDX 4 13 3 14 2 15 1 16
REMARK H PARENT
REMARK Flexibility Score: inf
ROOT
ATOM      1  C   UNL     1       5.949 -35.332  19.660  1.00  0.00     0.000 C 
ENDROOT
BRANCH   1   2
ATOM      2  C   UNL     1       5.070 -35.993  18.588  1.00  0.00     0.000 C 
BRANCH   2   3
ATOM      3  C   UNL     1       4.340 -34.967  17.707  1.00  0.00     0.000 C 
BRANCH   3   4
ATOM      4  C   UNL     1       3.439 -35.631  16.650  1.00  0.00     0.000 C 
BRANCH   4   5
ATOM      5  C   UNL     1       3.081 -37.082  17.007  1.00  0.00     0.006 C 
BRANCH   5   6
ATOM      6  C   UNL     1       1.630 -37.233  17.483  1.00  0.00     0.053 C 
BRANCH   6   7
ATOM      7  C   UNL     1       1.590 -37.530  18.948  1.00  0.00     0.041 C 
ATOM      8  O   UNL     1       2.653 -37.787  19.573  1.00  0.00    -0.550 OA
ATOM      9  O   UNL     1       0.384 -37.476  19.635  1.00  0.00    -0.550 OA
ENDBRANCH   6   7
ENDBRANCH   5   6
ENDBRANCH   4   5
ENDBRANCH   3   4
ENDBRANCH   2   3
ENDBRANCH   1   2
BRANCH   1  10
ATOM     10  C   UNL     1       5.682 -35.949  21.043  1.00  0.00     0.000 C 
BRANCH  10  11
ATOM     11  C   UNL     1       4.375 -35.445  21.676  1.00  0.00    -0.000 C 
BRANCH  11  12
ATOM     12  C   UNL     1       4.618 -34.413  22.791  1.00  0.00    -0.000 C 
BRANCH  12  13
ATOM     13  C   UNL     1       6.055 -34.460  23.339  1.00  0.00    -0.000 C 
BRANCH  13  14
ATOM     14  C   UNL     1       6.125 -35.021  24.770  1.00  0.00    -0.000 C 
BRANCH  14  15
ATOM     15  C   UNL     1       6.063 -36.556  24.803  1.00  0.00    -0.003 C 
ATOM     16  C   UNL     1       4.965 -37.086  25.725  1.00  0.00     0.004 C 
ENDBRANCH  14  15
ENDBRANCH  13  14
ENDBRANCH  12  13
ENDBRANCH  11  12
ENDBRANCH  10  11
ENDBRANCH   1  10
TORSDOF 12
ENDMDL
MODEL 5
REMARK VINA RESULT:    -2.536      3.858      7.337
REMARK INTER + INTRA:          -5.272
REMARK INTER:                  -4.447
REMARK INTRA:                  -0.825
REMARK UNBOUND:                -0.957
REMARK SMILES CCCCCCCCCCCCCC(=O)[O-]
REMARK SMILES IDX 8 1 9 2 10 3 11 4 12 5 13 6 14 7 15 8 16 9 7 10 6 11 5 12
REMARK SMILES IDX 4 13 3 14 2 15 1 16
REMARK H PARENT
REMARK Flexibility Score: inf
ROOT
ATOM      1  C   UNL     1       4.741 -35.191  21.914  1.00  0.00     0.000 C 
ENDROOT
BRANCH   1   2
ATOM      2  C   UNL     1       4.881 -35.706  20.473  1.00  0.00     0.000 C 
BRANCH   2   3
ATOM      3  C   UNL     1       3.745 -36.661  20.073  1.00  0.00     0.000 C 
BRANCH   3   4
ATOM      4  C   UNL     1       3.939 -37.254  18.666  1.00  0.00     0.000 C 
BRANCH   4   5
ATOM      5  C   UNL     1       3.454 -36.309  17.556  1.00  0.00     0.006 C 
BRANCH   5   6
ATOM      6  C   UNL     1       2.436 -36.972  16.619  1.00  0.00     0.053 C 
BRANCH   6   7
ATOM      7  C   UNL     1       3.030 -37.174  15.261  1.00  0.00     0.041 C 
ATOM      8  O   UNL     1       2.863 -36.311  14.361  1.00  0.00    -0.550 OA
ATOM      9  O   UNL     1       3.810 -38.295  15.004  1.00  0.00    -0.550 OA
ENDBRANCH   6   7
ENDBRANCH   5   6
ENDBRANCH   4   5
ENDBRANCH   3   4
ENDBRANCH   2   3
ENDBRANCH   1   2
BRANCH   1  10
ATOM     10  C   UNL     1       6.102 -35.185  22.627  1.00  0.00     0.000 C 
BRANCH  10  11
ATOM     11  C   UNL     1       5.974 -35.330  24.152  1.00  0.00    -0.000 C 
BRANCH  11  12
ATOM     12  C   UNL     1       6.027 -36.797  24.612  1.00  0.00    -0.000 C 
BRANCH  12  13
ATOM     13  C   UNL     1       6.125 -37.784  23.437  1.00  0.00    -0.000 C 
BRANCH  13  14
ATOM     14  C   UNL     1       5.321 -39.074  23.678  1.00  0.00    -0.000 C 
BRANCH  14  15
ATOM     15  C   UNL     1       5.474 -40.084  22.530  1.00  0.00    -0.003 C 
ATOM     16  C   UNL     1       5.762 -39.416  21.186  1.00  0.00     0.004 C 
ENDBRANCH  14  15
ENDBRANCH  13  14
ENDBRANCH  12  13
ENDBRANCH  11  12
ENDBRANCH  10  11
ENDBRANCH   1  10
TORSDOF 12
ENDMDL
MODEL 6
REMARK VINA RESULT:    -2.418      2.524      3.534
REMARK INTER + INTRA:          -5.070
REMARK INTER:                  -4.725
REMARK INTRA:                  -0.345
REMARK UNBOUND:                -0.957
REMARK SMILES CCCCCCCCCCCCCC(=O)[O-]
REMARK SMILES IDX 8 1 9 2 10 3 11 4 12 5 13 6 14 7 15 8 16 9 7 10 6 11 5 12
REMARK SMILES IDX 4 13 3 14 2 15 1 16
REMARK H PARENT
REMARK Flexibility Score: inf
ROOT
ATOM      1  C   UNL     1       6.123 -35.049  19.053  1.00  0.00     0.000 C 
ENDROOT
BRANCH   1   2
ATOM      2  C   UNL     1       6.098 -35.001  20.588  1.00  0.00     0.000 C 
BRANCH   2   3
ATOM      3  C   UNL     1       5.339 -36.186  21.205  1.00  0.00     0.000 C 
BRANCH   3   4
ATOM      4  C   UNL     1       5.161 -37.353  20.217  1.00  0.00     0.000 C 
BRANCH   4   5
ATOM      5  C   UNL     1       5.769 -38.664  20.737  1.00  0.00     0.006 C 
BRANCH   5   6
ATOM      6  C   UNL     1       5.593 -38.837  22.252  1.00  0.00     0.053 C 
BRANCH   6   7
ATOM      7  C   UNL     1       5.681 -40.283  22.626  1.00  0.00     0.041 C 
ATOM      8  O   UNL     1       5.314 -40.666  23.768  1.00  0.00    -0.550 OA
ATOM      9  O   UNL     1       6.122 -41.215  21.696  1.00  0.00    -0.550 OA
ENDBRANCH   6   7
ENDBRANCH   5   6
ENDBRANCH   4   5
ENDBRANCH   3   4
ENDBRANCH   2   3
ENDBRANCH   1   2
BRANCH   1  10
ATOM     10  C   UNL     1       4.807 -34.512  18.467  1.00  0.00     0.000 C 
BRANCH  10  11
ATOM     11  C   UNL     1       4.268 -35.382  17.320  1.00  0.00    -0.000 C 
BRANCH  11  12
ATOM     12  C   UNL     1       3.461 -36.590  17.824  1.00  0.00    -0.000 C 
BRANCH  12  13
ATOM     13  C   UNL     1       2.590 -37.221  16.724  1.00  0.00    -0.000 C 
BRANCH  13  14
ATOM     14  C   UNL     1       2.211 -36.219  15.620  1.00  0.00    -0.000 C 
BRANCH  14  15
ATOM     15  C   UNL     1       2.826 -36.585  14.260  1.00  0.00    -0.003 C 
ATOM     16  C   UNL     1       3.959 -37.604  14.375  1.00  0.00     0.004 C 
ENDBRANCH  14  15
ENDBRANCH  13  14
ENDBRANCH  12  13
ENDBRANCH  11  12
ENDBRANCH  10  11
ENDBRANCH   1  10
TORSDOF 12
ENDMDL
MODEL 7
REMARK VINA RESULT:    -2.356      2.776      3.933
REMARK INTER + INTRA:          -4.966
REMARK INTER:                  -3.971
REMARK INTRA:                  -0.995
REMARK UNBOUND:                -0.957
REMARK SMILES CCCCCCCCCCCCCC(=O)[O-]
REMARK SMILES IDX 8 1 9 2 10 3 11 4 12 5 13 6 14 7 15 8 16 9 7 10 6 11 5 12
REMARK SMILES IDX 4 13 3 14 2 15 1 16
REMARK H PARENT
REMARK Flexibility Score: inf
ROOT
ATOM      1  C   UNL     1       6.081 -35.055  19.249  1.00  0.00     0.000 C 
ENDROOT
BRANCH   1   2
ATOM      2  C   UNL     1       6.125 -35.236  20.774  1.00  0.00     0.000 C 
BRANCH   2   3
ATOM      3  C   UNL     1       5.354 -36.480  21.244  1.00  0.00     0.000 C 
BRANCH   3   4
ATOM      4  C   UNL     1       5.409 -37.630  20.223  1.00  0.00     0.000 C 
BRANCH   4   5
ATOM      5  C   UNL     1       4.029 -37.961  19.634  1.00  0.00     0.006 C 
BRANCH   5   6
ATOM      6  C   UNL     1       2.902 -37.136  20.270  1.00  0.00     0.053 C 
BRANCH   6   7
ATOM      7  C   UNL     1       1.579 -37.524  19.689  1.00  0.00     0.041 C 
ATOM      8  O   UNL     1       0.510 -37.158  20.245  1.00  0.00    -0.550 OA
ATOM      9  O   UNL     1       1.526 -38.249  18.506  1.00  0.00    -0.550 OA
ENDBRANCH   6   7
ENDBRANCH   5   6
ENDBRANCH   4   5
ENDBRANCH   3   4
ENDBRANCH   2   3
ENDBRANCH   1   2
BRANCH   1  10
ATOM     10  C   UNL     1       4.714 -34.514  18.801  1.00  0.00     0.000 C 
BRANCH  10  11
ATOM     11  C   UNL     1       4.466 -34.700  17.295  1.00  0.00    -0.000 C 
BRANCH  11  12
ATOM     12  C   UNL     1       3.792 -36.044  16.969  1.00  0.00    -0.000 C 
BRANCH  12  13
ATOM     13  C   UNL     1       2.470 -35.874  16.202  1.00  0.00    -0.000 C 
BRANCH  13  14
ATOM     14  C   UNL     1       2.410 -36.731  14.926  1.00  0.00    -0.000 C 
BRANCH  14  15
ATOM     15  C   UNL     1       3.792 -36.921  14.281  1.00  0.00    -0.003 C 
ATOM     16  C   UNL     1       4.213 -38.388  14.203  1.00  0.00     0.004 C 
ENDBRANCH  14  15
ENDBRANCH  13  14
ENDBRANCH  12  13
ENDBRANCH  11  12
ENDBRANCH  10  11
ENDBRANCH   1  10
TORSDOF 12
ENDMDL
MODEL 8
REMARK VINA RESULT:    -2.286      3.858      7.327
REMARK INTER + INTRA:          -4.846
REMARK INTER:                  -3.985
REMARK INTRA:                  -0.861
REMARK UNBOUND:                -0.957
REMARK SMILES CCCCCCCCCCCCCC(=O)[O-]
REMARK SMILES IDX 8 1 9 2 10 3 11 4 12 5 13 6 14 7 15 8 16 9 7 10 6 11 5 12
REMARK SMILES IDX 4 13 3 14 2 15 1 16
REMARK H PARENT
REMARK Flexibility Score: inf
ROOT
ATOM      1  C   UNL     1       3.787 -35.710  21.007  1.00  0.00     0.000 C 
ENDROOT
BRANCH   1   2
ATOM      2  C   UNL     1       4.344 -36.847  20.138  1.00  0.00     0.000 C 
BRANCH   2   3
ATOM      3  C   UNL     1       3.926 -36.724  18.664  1.00  0.00     0.000 C 
BRANCH   3   4
ATOM      4  C   UNL     1       2.634 -37.498  18.349  1.00  0.00     0.000 C 
BRANCH   4   5
ATOM      5  C   UNL     1       1.928 -36.978  17.087  1.00  0.00     0.006 C 
BRANCH   5   6
ATOM      6  C   UNL     1       2.853 -36.139  16.196  1.00  0.00     0.053 C 
BRANCH   6   7
ATOM      7  C   UNL     1       3.290 -36.932  15.005  1.00  0.00     0.041 C 
ATOM      8  O   UNL     1       3.378 -36.383  13.875  1.00  0.00    -0.550 OA
ATOM      9  O   UNL     1       3.646 -38.266  15.151  1.00  0.00    -0.550 OA
ENDBRANCH   6   7
ENDBRANCH   5   6
ENDBRANCH   4   5
ENDBRANCH   3   4
ENDBRANCH   2   3
ENDBRANCH   1   2
BRANCH   1  10
ATOM     10  C   UNL     1       4.835 -34.601  21.195  1.00  0.00     0.000 C 
BRANCH  10  11
ATOM     11  C   UNL     1       6.124 -35.108  21.860  1.00  0.00    -0.000 C 
BRANCH  11  12
ATOM     12  C   UNL     1       6.063 -35.041  23.395  1.00  0.00    -0.000 C 
BRANCH  12  13
ATOM     13  C   UNL     1       6.012 -36.433  24.048  1.00  0.00    -0.000 C 
BRANCH  13  14
ATOM     14  C   UNL     1       6.021 -37.573  23.015  1.00  0.00    -0.000 C 
BRANCH  14  15
ATOM     15  C   UNL     1       5.320 -38.839  23.532  1.00  0.00    -0.003 C 
ATOM     16  C   UNL     1       5.505 -40.040  22.605  1.00  0.00     0.004 C 
ENDBRANCH  14  15
ENDBRANCH  13  14
ENDBRANCH  12  13
ENDBRANCH  11  12
ENDBRANCH  10  11
ENDBRANCH   1  10
TORSDOF 12
ENDMDL
