MODEL 1
REMARK VINA RESULT:    -6.754      0.000      0.000
REMARK INTER + INTRA:         -10.169
REMARK INTER:                  -9.518
REMARK INTRA:                  -0.651
REMARK UNBOUND:                -0.651
REMARK SMILES COc1c(O[C@H]2O[C@H](C(=O)[O-])[C@@H](O)[C@H](O)[C@@H]2O)cc(O)c2c(=O)cc(-c3ccccc3)oc12
REMARK SMILES IDX 5 1 6 2 8 3 12 4 7 5 14 6 16 7 9 8 10 9 11 10 13 11 15 13
REMARK SMILES IDX 17 15 4 17 3 18 18 19 33 20 19 21 21 22 32 23 22 24 25 25
REMARK SMILES IDX 24 26 23 27 2 28 1 29 20 30 26 32 27 33 31 34 28 35 30 36
REMARK SMILES IDX 29 37
REMARK H PARENT 13 12 15 14 17 16 20 31
REMARK Flexibility Score: inf
ROOT
ATOM      1  O   UNL     1       3.380   8.498  -9.537  1.00  0.00    -0.458 OA
ENDROOT
BRANCH   1   2
ATOM      2  C   UNL     1       3.861   7.215  -9.951  1.00  0.00     0.339 C 
ATOM      3  C   UNL     1       4.544   5.148  -8.947  1.00  0.00     0.199 C 
ATOM      4  C   UNL     1       4.581   4.619 -10.401  1.00  0.00     0.180 C 
ATOM      5  O   UNL     1       4.535   6.569  -8.872  1.00  0.00    -0.328 OA
ATOM      6  C   UNL     1       3.312   5.064 -11.173  1.00  0.00     0.181 C 
ATOM      7  C   UNL     1       2.727   6.375 -10.584  1.00  0.00     0.214 C 
BRANCH   3   8
ATOM      8  C   UNL     1       5.722   4.646  -8.171  1.00  0.00     0.073 C 
ATOM      9  O   UNL     1       6.681   5.420  -7.912  1.00  0.00    -0.547 OA
ATOM     10  O   UNL     1       5.755   3.329  -7.725  1.00  0.00    -0.547 OA
ENDBRANCH   3   8
BRANCH   4  11
ATOM     11  O   UNL     1       4.734   3.220 -10.444  1.00  0.00    -0.387 OA
ATOM     12  H   UNL     1       3.897   2.831 -10.811  1.00  0.00     0.211 HD
ENDBRANCH   4  11
BRANCH   6  13
ATOM     13  O   UNL     1       3.649   5.240 -12.527  1.00  0.00    -0.387 OA
ATOM     14  H   UNL     1       2.861   5.635 -12.980  1.00  0.00     0.211 HD
ENDBRANCH   6  13
BRANCH   7  15
ATOM     15  O   UNL     1       2.078   7.113 -11.592  1.00  0.00    -0.384 OA
ATOM     16  H   UNL     1       1.557   7.825 -11.136  1.00  0.00     0.211 HD
ENDBRANCH   7  15
ENDBRANCH   1   2
BRANCH   1  17
ATOM     17  C   UNL     1       2.302   8.710  -8.666  1.00  0.00     0.172 A 
ATOM     18  C   UNL     1       2.513   8.731  -7.267  1.00  0.00     0.205 A 
ATOM     19  C   UNL     1       0.998   8.866  -9.168  1.00  0.00     0.097 A 
ATOM     20  C   UNL     1       1.412   8.812  -6.406  1.00  0.00     0.188 A 
ATOM     21  C   UNL     1      -0.103   8.959  -8.310  1.00  0.00     0.134 A 
ATOM     22  C   UNL     1       0.095   8.913  -6.914  1.00  0.00     0.111 A 
ATOM     23  O   UNL     1       1.621   8.775  -5.094  1.00  0.00    -0.452 OA
ATOM     24  C   UNL     1      -0.964   8.949  -5.986  1.00  0.00     0.197 A 
ATOM     25  C   UNL     1       0.647   8.801  -4.188  1.00  0.00     0.138 A 
ATOM     26  C   UNL     1      -0.689   8.880  -4.620  1.00  0.00     0.100 A 
ATOM     27  O   UNL     1      -2.165   9.037  -6.361  1.00  0.00    -0.289 OA
BRANCH  18  28
ATOM     28  O   UNL     1       3.784   8.628  -6.668  1.00  0.00    -0.490 OA
ATOM     29  C   UNL     1       4.284   7.515  -5.936  1.00  0.00     0.278 C 
ENDBRANCH  18  28
BRANCH  21  30
ATOM     30  O   UNL     1      -1.384   9.083  -8.853  1.00  0.00    -0.507 OA
ATOM     31  H   UNL     1      -2.198   9.210  -8.267  1.00  0.00     0.293 HD
ENDBRANCH  21  30
BRANCH  25  32
ATOM     32  C   UNL     1       1.024   8.730  -2.748  1.00  0.00     0.017 A 
ATOM     33  C   UNL     1       2.358   8.570  -2.321  1.00  0.00     0.012 A 
ATOM     34  C   UNL     1       0.008   8.783  -1.770  1.00  0.00     0.012 A 
ATOM     35  C   UNL     1       2.660   8.476  -0.957  1.00  0.00     0.001 A 
ATOM     36  C   UNL     1       0.318   8.691  -0.409  1.00  0.00     0.001 A 
ATOM     37  C   UNL     1       1.643   8.543  -0.004  1.00  0.00     0.000 A 
ENDBRANCH  25  32
ENDBRANCH   1  17
TORSDOF 9
ENDMDL
MODEL 2
REMARK VINA RESULT:    -6.584      2.073      3.840
REMARK INTER + INTRA:          -9.929
REMARK INTER:                  -8.443
REMARK INTRA:                  -1.486
REMARK UNBOUND:                -0.651
REMARK SMILES COc1c(O[C@H]2O[C@H](C(=O)[O-])[C@@H](O)[C@H](O)[C@@H]2O)cc(O)c2c(=O)cc(-c3ccccc3)oc12
REMARK SMILES IDX 5 1 6 2 8 3 12 4 7 5 14 6 16 7 9 8 10 9 11 10 13 11 15 13
REMARK SMILES IDX 17 15 4 17 3 18 18 19 33 20 19 21 21 22 32 23 22 24 25 25
REMARK SMILES IDX 24 26 23 27 2 28 1 29 20 30 26 32 27 33 31 34 28 35 30 36
REMARK SMILES IDX 29 37
REMARK H PARENT 13 12 15 14 17 16 20 31
REMARK Flexibility Score: inf
ROOT
ATOM      1  O   UNL     1       5.193   7.689  -6.179  1.00  0.00    -0.458 OA
ENDROOT
BRANCH   1   2
ATOM      2  C   UNL     1       5.563   6.339  -6.484  1.00  0.00     0.339 C 
ATOM      3  C   UNL     1       6.064   5.011  -8.415  1.00  0.00     0.199 C 
ATOM      4  C   UNL     1       6.479   3.931  -7.388  1.00  0.00     0.180 C 
ATOM      5  O   UNL     1       5.263   6.041  -7.846  1.00  0.00    -0.328 OA
ATOM      6  C   UNL     1       7.348   4.555  -6.265  1.00  0.00     0.181 C 
ATOM      7  C   UNL     1       7.030   6.062  -6.081  1.00  0.00     0.214 C 
BRANCH   3   8
ATOM      8  C   UNL     1       5.301   4.399  -9.549  1.00  0.00     0.073 C 
ATOM      9  O   UNL     1       5.856   3.547 -10.293  1.00  0.00    -0.547 OA
ATOM     10  O   UNL     1       3.977   4.758  -9.775  1.00  0.00    -0.547 OA
ENDBRANCH   3   8
BRANCH   4  11
ATOM     11  O   UNL     1       7.145   2.853  -8.004  1.00  0.00    -0.387 OA
ATOM     12  H   UNL     1       7.032   2.054  -7.426  1.00  0.00     0.211 HD
ENDBRANCH   4  11
BRANCH   6  13
ATOM     13  O   UNL     1       7.110   3.851  -5.071  1.00  0.00    -0.387 OA
ATOM     14  H   UNL     1       6.518   4.413  -4.509  1.00  0.00     0.211 HD
ENDBRANCH   6  13
BRANCH   7  15
ATOM     15  O   UNL     1       7.249   6.444  -4.744  1.00  0.00    -0.384 OA
ATOM     16  H   UNL     1       7.472   5.616  -4.242  1.00  0.00     0.211 HD
ENDBRANCH   7  15
ENDBRANCH   1   2
BRANCH   1  17
ATOM     17  C   UNL     1       3.990   8.074  -5.572  1.00  0.00     0.172 A 
ATOM     18  C   UNL     1       3.907   8.187  -4.165  1.00  0.00     0.205 A 
ATOM     19  C   UNL     1       2.844   8.316  -6.350  1.00  0.00     0.097 A 
ATOM     20  C   UNL     1       2.668   8.444  -3.566  1.00  0.00     0.188 A 
ATOM     21  C   UNL     1       1.607   8.586  -5.755  1.00  0.00     0.134 A 
ATOM     22  C   UNL     1       1.505   8.633  -4.350  1.00  0.00     0.111 A 
ATOM     23  O   UNL     1       2.595   8.492  -2.240  1.00  0.00    -0.452 OA
ATOM     24  C   UNL     1       0.288   8.847  -3.674  1.00  0.00     0.197 A 
ATOM     25  C   UNL     1       1.464   8.686  -1.567  1.00  0.00     0.138 A 
ATOM     26  C   UNL     1       0.264   8.861  -2.279  1.00  0.00     0.100 A 
ATOM     27  O   UNL     1      -0.792   9.021  -4.302  1.00  0.00    -0.289 OA
BRANCH  18  28
ATOM     28  O   UNL     1       5.006   8.008  -3.302  1.00  0.00    -0.490 OA
ATOM     29  C   UNL     1       5.935   9.009  -2.900  1.00  0.00     0.278 C 
ENDBRANCH  18  28
BRANCH  21  30
ATOM     30  O   UNL     1       0.488   8.791  -6.567  1.00  0.00    -0.507 OA
ATOM     31  H   UNL     1      -0.250   8.103  -6.636  1.00  0.00     0.293 HD
ENDBRANCH  21  30
BRANCH  25  32
ATOM     32  C   UNL     1       1.524   8.694  -0.078  1.00  0.00     0.017 A 
ATOM     33  C   UNL     1       2.689   8.343   0.636  1.00  0.00     0.012 A 
ATOM     34  C   UNL     1       0.363   9.025   0.653  1.00  0.00     0.012 A 
ATOM     35  C   UNL     1       2.687   8.334   2.036  1.00  0.00     0.001 A 
ATOM     36  C   UNL     1       0.371   9.017   2.052  1.00  0.00     0.001 A 
ATOM     37  C   UNL     1       1.533   8.677   2.742  1.00  0.00     0.000 A 
ENDBRANCH  25  32
ENDBRANCH   1  17
TORSDOF 9
ENDMDL
MODEL 3
REMARK VINA RESULT:    -6.525      1.226      2.855
REMARK INTER + INTRA:          -9.846
REMARK INTER:                  -8.706
REMARK INTRA:                  -1.140
REMARK UNBOUND:                -0.651
REMARK SMILES COc1c(O[C@H]2O[C@H](C(=O)[O-])[C@@H](O)[C@H](O)[C@@H]2O)cc(O)c2c(=O)cc(-c3ccccc3)oc12
REMARK SMILES IDX 5 1 6 2 8 3 12 4 7 5 14 6 16 7 9 8 10 9 11 10 13 11 15 13
REMARK SMILES IDX 17 15 4 17 3 18 18 19 33 20 19 21 21 22 32 23 22 24 25 25
REMARK SMILES IDX 24 26 23 27 2 28 1 29 20 30 26 32 27 33 31 34 28 35 30 36
REMARK SMILES IDX 29 37
REMARK H PARENT 13 12 15 14 17 16 20 31
REMARK Flexibility Score: inf
ROOT
ATOM      1  O   UNL     1       4.158   7.642  -9.133  1.00  0.00    -0.458 OA
ENDROOT
BRANCH   1   2
ATOM      2  C   UNL     1       4.142   6.592 -10.106  1.00  0.00     0.339 C 
ATOM      3  C   UNL     1       4.384   6.342 -12.478  1.00  0.00     0.199 C 
ATOM      4  C   UNL     1       4.386   4.824 -12.174  1.00  0.00     0.180 C 
ATOM      5  O   UNL     1       3.876   7.124 -11.403  1.00  0.00    -0.328 OA
ATOM      6  C   UNL     1       5.309   4.514 -10.967  1.00  0.00     0.181 C 
ATOM      7  C   UNL     1       5.430   5.738 -10.022  1.00  0.00     0.214 C 
BRANCH   3   8
ATOM      8  C   UNL     1       3.566   6.636 -13.697  1.00  0.00     0.073 C 
ATOM      9  O   UNL     1       4.122   6.710 -14.825  1.00  0.00    -0.547 OA
ATOM     10  O   UNL     1       2.191   6.815 -13.590  1.00  0.00    -0.547 OA
ENDBRANCH   3   8
BRANCH   4  11
ATOM     11  O   UNL     1       4.756   4.066 -13.302  1.00  0.00    -0.387 OA
ATOM     12  H   UNL     1       4.698   4.656 -14.099  1.00  0.00     0.211 HD
ENDBRANCH   4  11
BRANCH   6  13
ATOM     13  O   UNL     1       4.785   3.408 -10.275  1.00  0.00    -0.387 OA
ATOM     14  H   UNL     1       4.322   3.754  -9.470  1.00  0.00     0.211 HD
ENDBRANCH   6  13
BRANCH   7  15
ATOM     15  O   UNL     1       5.646   5.311  -8.699  1.00  0.00    -0.384 OA
ATOM     16  H   UNL     1       4.755   5.096  -8.318  1.00  0.00     0.211 HD
ENDBRANCH   7  15
ENDBRANCH   1   2
BRANCH   1  17
ATOM     17  C   UNL     1       3.052   8.053  -8.377  1.00  0.00     0.172 A 
ATOM     18  C   UNL     1       3.147   8.140  -6.968  1.00  0.00     0.205 A 
ATOM     19  C   UNL     1       1.828   8.347  -9.004  1.00  0.00     0.097 A 
ATOM     20  C   UNL     1       2.000   8.424  -6.217  1.00  0.00     0.188 A 
ATOM     21  C   UNL     1       0.683   8.642  -8.256  1.00  0.00     0.134 A 
ATOM     22  C   UNL     1       0.756   8.665  -6.848  1.00  0.00     0.111 A 
ATOM     23  O   UNL     1       2.093   8.447  -4.892  1.00  0.00    -0.452 OA
ATOM     24  C   UNL     1      -0.361   8.903  -6.023  1.00  0.00     0.197 A 
ATOM     25  C   UNL     1       1.060   8.664  -4.081  1.00  0.00     0.138 A 
ATOM     26  C   UNL     1      -0.212   8.890  -4.636  1.00  0.00     0.100 A 
ATOM     27  O   UNL     1      -1.503   9.124  -6.510  1.00  0.00    -0.289 OA
BRANCH  18  28
ATOM     28  O   UNL     1       4.337   7.909  -6.251  1.00  0.00    -0.490 OA
ATOM     29  C   UNL     1       4.795   6.656  -5.755  1.00  0.00     0.278 C 
ENDBRANCH  18  28
BRANCH  21  30
ATOM     30  O   UNL     1      -0.519   8.899  -8.920  1.00  0.00    -0.507 OA
ATOM     31  H   UNL     1      -1.007   8.176  -9.431  1.00  0.00     0.293 HD
ENDBRANCH  21  30
BRANCH  25  32
ATOM     32  C   UNL     1       1.303   8.640  -2.611  1.00  0.00     0.017 A 
ATOM     33  C   UNL     1       0.263   8.778  -1.669  1.00  0.00     0.012 A 
ATOM     34  C   UNL     1       2.627   8.516  -2.136  1.00  0.00     0.012 A 
ATOM     35  C   UNL     1       0.545   8.782  -0.297  1.00  0.00     0.001 A 
ATOM     36  C   UNL     1       2.899   8.518  -0.765  1.00  0.00     0.001 A 
ATOM     37  C   UNL     1       1.858   8.645   0.154  1.00  0.00     0.000 A 
ENDBRANCH  25  32
ENDBRANCH   1  17
TORSDOF 9
ENDMDL
MODEL 4
REMARK VINA RESULT:    -6.523     15.081     19.055
REMARK INTER + INTRA:          -9.843
REMARK INTER:                  -9.007
REMARK INTRA:                  -0.836
REMARK UNBOUND:                -0.651
REMARK SMILES COc1c(O[C@H]2O[C@H](C(=O)[O-])[C@@H](O)[C@H](O)[C@@H]2O)cc(O)c2c(=O)cc(-c3ccccc3)oc12
REMARK SMILES IDX 5 1 6 2 8 3 12 4 7 5 14 6 16 7 9 8 10 9 11 10 13 11 15 13
REMARK SMILES IDX 17 15 4 17 3 18 18 19 33 20 19 21 21 22 32 23 22 24 25 25
REMARK SMILES IDX 24 26 23 27 2 28 1 29 20 30 26 32 27 33 31 34 28 35 30 36
REMARK SMILES IDX 29 37
REMARK H PARENT 13 12 15 14 17 16 20 31
REMARK Flexibility Score: inf
ROOT
ATOM      1  O   UNL     1       4.711  -8.365   1.682  1.00  0.00    -0.458 OA
ENDROOT
BRANCH   1   2
ATOM      2  C   UNL     1       3.528  -7.972   2.386  1.00  0.00     0.339 C 
ATOM      3  C   UNL     1       1.758  -9.002   3.632  1.00  0.00     0.199 C 
ATOM      4  C   UNL     1       1.349  -7.550   3.979  1.00  0.00     0.180 C 
ATOM      5  O   UNL     1       2.640  -9.082   2.519  1.00  0.00    -0.328 OA
ATOM      6  C   UNL     1       2.594  -6.717   4.379  1.00  0.00     0.181 C 
ATOM      7  C   UNL     1       3.882  -7.280   3.723  1.00  0.00     0.214 C 
BRANCH   3   8
ATOM      8  C   UNL     1       0.550  -9.835   3.332  1.00  0.00     0.073 C 
ATOM      9  O   UNL     1      -0.371  -9.370   2.609  1.00  0.00    -0.547 OA
ATOM     10  O   UNL     1       0.447 -11.125   3.839  1.00  0.00    -0.547 OA
ENDBRANCH   3   8
BRANCH   4  11
ATOM     11  O   UNL     1       0.367  -7.511   4.987  1.00  0.00    -0.387 OA
ATOM     12  H   UNL     1      -0.513  -7.361   4.551  1.00  0.00     0.211 HD
ENDBRANCH   4  11
BRANCH   6  13
ATOM     13  O   UNL     1       2.385  -5.383   3.988  1.00  0.00    -0.387 OA
ATOM     14  H   UNL     1       2.546  -4.812   4.783  1.00  0.00     0.211 HD
ENDBRANCH   6  13
BRANCH   7  15
ATOM     15  O   UNL     1       4.809  -6.243   3.505  1.00  0.00    -0.384 OA
ATOM     16  H   UNL     1       4.283  -5.434   3.269  1.00  0.00     0.211 HD
ENDBRANCH   7  15
ENDBRANCH   1   2
BRANCH   1  17
ATOM     17  C   UNL     1       5.222  -7.720   0.547  1.00  0.00     0.172 A 
ATOM     18  C   UNL     1       5.424  -8.445  -0.651  1.00  0.00     0.205 A 
ATOM     19  C   UNL     1       5.573  -6.360   0.597  1.00  0.00     0.097 A 
ATOM     20  C   UNL     1       6.056  -7.821  -1.733  1.00  0.00     0.188 A 
ATOM     21  C   UNL     1       6.194  -5.731  -0.488  1.00  0.00     0.134 A 
ATOM     22  C   UNL     1       6.459  -6.466  -1.661  1.00  0.00     0.111 A 
ATOM     23  O   UNL     1       6.290  -8.530  -2.833  1.00  0.00    -0.452 OA
ATOM     24  C   UNL     1       7.125  -5.921  -2.776  1.00  0.00     0.197 A 
ATOM     25  C   UNL     1       6.920  -8.052  -3.903  1.00  0.00     0.138 A 
ATOM     26  C   UNL     1       7.369  -6.718  -3.895  1.00  0.00     0.100 A 
ATOM     27  O   UNL     1       7.517  -4.722  -2.788  1.00  0.00    -0.289 OA
BRANCH  18  28
ATOM     28  O   UNL     1       5.065  -9.796  -0.815  1.00  0.00    -0.490 OA
ATOM     29  C   UNL     1       3.742 -10.321  -0.846  1.00  0.00     0.278 C 
ENDBRANCH  18  28
BRANCH  21  30
ATOM     30  O   UNL     1       6.552  -4.385  -0.383  1.00  0.00    -0.507 OA
ATOM     31  H   UNL     1       5.873  -3.672  -0.155  1.00  0.00     0.293 HD
ENDBRANCH  21  30
BRANCH  25  32
ATOM     32  C   UNL     1       7.135  -8.966  -5.060  1.00  0.00     0.017 A 
ATOM     33  C   UNL     1       7.520 -10.313  -4.900  1.00  0.00     0.012 A 
ATOM     34  C   UNL     1       6.991  -8.459  -6.369  1.00  0.00     0.012 A 
ATOM     35  C   UNL     1       7.741 -11.124  -6.019  1.00  0.00     0.001 A 
ATOM     36  C   UNL     1       7.211  -9.278  -7.482  1.00  0.00     0.001 A 
ATOM     37  C   UNL     1       7.580 -10.610  -7.306  1.00  0.00     0.000 A 
ENDBRANCH  25  32
ENDBRANCH   1  17
TORSDOF 9
ENDMDL
MODEL 5
REMARK VINA RESULT:    -6.493      2.959      5.292
REMARK INTER + INTRA:          -9.801
REMARK INTER:                  -8.755
REMARK INTRA:                  -1.046
REMARK UNBOUND:                -0.651
REMARK SMILES COc1c(O[C@H]2O[C@H](C(=O)[O-])[C@@H](O)[C@H](O)[C@@H]2O)cc(O)c2c(=O)cc(-c3ccccc3)oc12
REMARK SMILES IDX 5 1 6 2 8 3 12 4 7 5 14 6 16 7 9 8 10 9 11 10 13 11 15 13
REMARK SMILES IDX 17 15 4 17 3 18 18 19 33 20 19 21 21 22 32 23 22 24 25 25
REMARK SMILES IDX 24 26 23 27 2 28 1 29 20 30 26 32 27 33 31 34 28 35 30 36
REMARK SMILES IDX 29 37
REMARK H PARENT 13 12 15 14 17 16 20 31
REMARK Flexibility Score: inf
ROOT
ATOM      1  O   UNL     1       4.091   8.386  -4.471  1.00  0.00    -0.458 OA
ENDROOT
BRANCH   1   2
ATOM      2  C   UNL     1       3.920   7.504  -5.585  1.00  0.00     0.339 C 
ATOM      3  C   UNL     1       4.830   7.190  -7.780  1.00  0.00     0.199 C 
ATOM      4  C   UNL     1       4.000   5.885  -7.783  1.00  0.00     0.180 C 
ATOM      5  O   UNL     1       4.417   8.111  -6.777  1.00  0.00    -0.328 OA
ATOM      6  C   UNL     1       4.168   5.131  -6.439  1.00  0.00     0.181 C 
ATOM      7  C   UNL     1       4.518   6.109  -5.286  1.00  0.00     0.214 C 
BRANCH   3   8
ATOM      8  C   UNL     1       4.743   7.876  -9.108  1.00  0.00     0.073 C 
ATOM      9  O   UNL     1       5.717   8.552  -9.533  1.00  0.00    -0.547 OA
ATOM     10  O   UNL     1       3.593   7.759  -9.881  1.00  0.00    -0.547 OA
ENDBRANCH   3   8
BRANCH   4  11
ATOM     11  O   UNL     1       4.332   5.057  -8.873  1.00  0.00    -0.387 OA
ATOM     12  H   UNL     1       3.770   5.327  -9.645  1.00  0.00     0.211 HD
ENDBRANCH   4  11
BRANCH   6  13
ATOM     13  O   UNL     1       2.974   4.445  -6.157  1.00  0.00    -0.387 OA
ATOM     14  H   UNL     1       2.969   4.245  -5.186  1.00  0.00     0.211 HD
ENDBRANCH   6  13
BRANCH   7  15
ATOM     15  O   UNL     1       4.021   5.617  -4.065  1.00  0.00    -0.384 OA
ATOM     16  H   UNL     1       3.521   4.785  -4.273  1.00  0.00     0.211 HD
ENDBRANCH   7  15
ENDBRANCH   1   2
BRANCH   1  17
ATOM     17  C   UNL     1       3.160   8.568  -3.439  1.00  0.00     0.172 A 
ATOM     18  C   UNL     1       3.574   8.500  -2.088  1.00  0.00     0.205 A 
ATOM     19  C   UNL     1       1.802   8.782  -3.733  1.00  0.00     0.097 A 
ATOM     20  C   UNL     1       2.613   8.553  -1.071  1.00  0.00     0.188 A 
ATOM     21  C   UNL     1       0.842   8.846  -2.718  1.00  0.00     0.134 A 
ATOM     22  C   UNL     1       1.240   8.712  -1.372  1.00  0.00     0.111 A 
ATOM     23  O   UNL     1       3.011   8.431   0.192  1.00  0.00    -0.452 OA
ATOM     24  C   UNL     1       0.330   8.715  -0.297  1.00  0.00     0.197 A 
ATOM     25  C   UNL     1       2.181   8.424   1.232  1.00  0.00     0.138 A 
ATOM     26  C   UNL     1       0.799   8.557   1.008  1.00  0.00     0.100 A 
ATOM     27  O   UNL     1      -0.910   8.850  -0.484  1.00  0.00    -0.289 OA
BRANCH  18  28
ATOM     28  O   UNL     1       4.914   8.334  -1.691  1.00  0.00    -0.490 OA
ATOM     29  C   UNL     1       5.640   7.110  -1.658  1.00  0.00     0.278 C 
ENDBRANCH  18  28
BRANCH  21  30
ATOM     30  O   UNL     1      -0.501   9.030  -3.058  1.00  0.00    -0.507 OA
ATOM     31  H   UNL     1      -1.243   8.553  -2.564  1.00  0.00     0.293 HD
ENDBRANCH  21  30
BRANCH  25  32
ATOM     32  C   UNL     1       2.762   8.258   2.594  1.00  0.00     0.017 A 
ATOM     33  C   UNL     1       2.417   9.097   3.673  1.00  0.00     0.012 A 
ATOM     34  C   UNL     1       3.727   7.250   2.809  1.00  0.00     0.012 A 
ATOM     35  C   UNL     1       3.014   8.922   4.927  1.00  0.00     0.001 A 
ATOM     36  C   UNL     1       4.317   7.081   4.066  1.00  0.00     0.001 A 
ATOM     37  C   UNL     1       3.956   7.912   5.125  1.00  0.00     0.000 A 
ENDBRANCH  25  32
ENDBRANCH   1  17
TORSDOF 9
ENDMDL
MODEL 6
REMARK VINA RESULT:    -6.468      2.899      4.823
REMARK INTER + INTRA:          -9.765
REMARK INTER:                  -8.207
REMARK INTRA:                  -1.559
REMARK UNBOUND:                -0.651
REMARK SMILES COc1c(O[C@H]2O[C@H](C(=O)[O-])[C@@H](O)[C@H](O)[C@@H]2O)cc(O)c2c(=O)cc(-c3ccccc3)oc12
REMARK SMILES IDX 5 1 6 2 8 3 12 4 7 5 14 6 16 7 9 8 10 9 11 10 13 11 15 13
REMARK SMILES IDX 17 15 4 17 3 18 18 19 33 20 19 21 21 22 32 23 22 24 25 25
REMARK SMILES IDX 24 26 23 27 2 28 1 29 20 30 26 32 27 33 31 34 28 35 30 36
REMARK SMILES IDX 29 37
REMARK H PARENT 13 12 15 14 17 16 20 31
REMARK Flexibility Score: inf
ROOT
ATOM      1  O   UNL     1       5.361   7.261  -8.318  1.00  0.00    -0.458 OA
ENDROOT
BRANCH   1   2
ATOM      2  C   UNL     1       4.878   6.279  -9.241  1.00  0.00     0.339 C 
ATOM      3  C   UNL     1       4.171   6.165 -11.529  1.00  0.00     0.199 C 
ATOM      4  C   UNL     1       4.148   4.635 -11.296  1.00  0.00     0.180 C 
ATOM      5  O   UNL     1       4.187   6.912 -10.318  1.00  0.00    -0.328 OA
ATOM      6  C   UNL     1       5.428   4.180 -10.549  1.00  0.00     0.181 C 
ATOM      7  C   UNL     1       6.014   5.329  -9.686  1.00  0.00     0.214 C 
BRANCH   3   8
ATOM      8  C   UNL     1       2.981   6.597 -12.328  1.00  0.00     0.073 C 
ATOM      9  O   UNL     1       1.973   7.079 -11.747  1.00  0.00    -0.547 OA
ATOM     10  O   UNL     1       2.990   6.479 -13.714  1.00  0.00    -0.547 OA
ENDBRANCH   3   8
BRANCH   4  11
ATOM     11  O   UNL     1       3.986   3.926 -12.502  1.00  0.00    -0.387 OA
ATOM     12  H   UNL     1       4.843   3.975 -13.003  1.00  0.00     0.211 HD
ENDBRANCH   4  11
BRANCH   6  13
ATOM     13  O   UNL     1       5.108   3.074  -9.743  1.00  0.00    -0.387 OA
ATOM     14  H   UNL     1       5.816   2.393  -9.877  1.00  0.00     0.211 HD
ENDBRANCH   6  13
BRANCH   7  15
ATOM     15  O   UNL     1       6.678   4.803  -8.563  1.00  0.00    -0.384 OA
ATOM     16  H   UNL     1       7.213   4.030  -8.883  1.00  0.00     0.211 HD
ENDBRANCH   7  15
ENDBRANCH   1   2
BRANCH   1  17
ATOM     17  C   UNL     1       4.869   7.455  -7.020  1.00  0.00     0.172 A 
ATOM     18  C   UNL     1       5.560   6.917  -5.910  1.00  0.00     0.205 A 
ATOM     19  C   UNL     1       3.666   8.152  -6.810  1.00  0.00     0.097 A 
ATOM     20  C   UNL     1       4.989   7.005  -4.634  1.00  0.00     0.188 A 
ATOM     21  C   UNL     1       3.099   8.252  -5.535  1.00  0.00     0.134 A 
ATOM     22  C   UNL     1       3.750   7.659  -4.434  1.00  0.00     0.111 A 
ATOM     23  O   UNL     1       5.623   6.445  -3.609  1.00  0.00    -0.452 OA
ATOM     24  C   UNL     1       3.220   7.672  -3.129  1.00  0.00     0.197 A 
ATOM     25  C   UNL     1       5.152   6.432  -2.365  1.00  0.00     0.138 A 
ATOM     26  C   UNL     1       3.915   7.046  -2.093  1.00  0.00     0.100 A 
ATOM     27  O   UNL     1       2.120   8.233  -2.870  1.00  0.00    -0.289 OA
BRANCH  18  28
ATOM     28  O   UNL     1       6.792   6.242  -6.010  1.00  0.00    -0.490 OA
ATOM     29  C   UNL     1       8.078   6.843  -6.120  1.00  0.00     0.278 C 
ENDBRANCH  18  28
BRANCH  21  30
ATOM     30  O   UNL     1       1.887   8.929  -5.377  1.00  0.00    -0.507 OA
ATOM     31  H   UNL     1       0.999   8.460  -5.493  1.00  0.00     0.293 HD
ENDBRANCH  21  30
BRANCH  25  32
ATOM     32  C   UNL     1       5.957   5.749  -1.314  1.00  0.00     0.017 A 
ATOM     33  C   UNL     1       7.360   5.867  -1.238  1.00  0.00     0.012 A 
ATOM     34  C   UNL     1       5.302   4.916  -0.381  1.00  0.00     0.012 A 
ATOM     35  C   UNL     1       8.078   5.179  -0.253  1.00  0.00     0.001 A 
ATOM     36  C   UNL     1       6.027   4.235   0.602  1.00  0.00     0.001 A 
ATOM     37  C   UNL     1       7.412   4.371   0.670  1.00  0.00     0.000 A 
ENDBRANCH  25  32
ENDBRANCH   1  17
TORSDOF 9
ENDMDL
MODEL 7
REMARK VINA RESULT:    -6.369      3.073      4.608
REMARK INTER + INTRA:          -9.626
REMARK INTER:                  -8.385
REMARK INTRA:                  -1.240
REMARK UNBOUND:                -0.651
REMARK SMILES COc1c(O[C@H]2O[C@H](C(=O)[O-])[C@@H](O)[C@H](O)[C@@H]2O)cc(O)c2c(=O)cc(-c3ccccc3)oc12
REMARK SMILES IDX 5 1 6 2 8 3 12 4 7 5 14 6 16 7 9 8 10 9 11 10 13 11 15 13
REMARK SMILES IDX 17 15 4 17 3 18 18 19 33 20 19 21 21 22 32 23 22 24 25 25
REMARK SMILES IDX 24 26 23 27 2 28 1 29 20 30 26 32 27 33 31 34 28 35 30 36
REMARK SMILES IDX 29 37
REMARK H PARENT 13 12 15 14 17 16 20 31
REMARK Flexibility Score: inf
ROOT
ATOM      1  O   UNL     1       4.159   4.999  -8.567  1.00  0.00    -0.458 OA
ENDROOT
BRANCH   1   2
ATOM      2  C   UNL     1       4.348   5.533  -9.881  1.00  0.00     0.339 C 
ATOM      3  C   UNL     1       5.770   5.170 -11.776  1.00  0.00     0.199 C 
ATOM      4  C   UNL     1       4.827   6.165 -12.495  1.00  0.00     0.180 C 
ATOM      5  O   UNL     1       5.655   5.219 -10.359  1.00  0.00    -0.328 OA
ATOM      6  C   UNL     1       3.345   5.826 -12.190  1.00  0.00     0.181 C 
ATOM      7  C   UNL     1       3.205   5.097 -10.827  1.00  0.00     0.214 C 
BRANCH   3   8
ATOM      8  C   UNL     1       7.198   5.438 -12.139  1.00  0.00     0.073 C 
ATOM      9  O   UNL     1       7.576   6.615 -12.378  1.00  0.00    -0.547 OA
ATOM     10  O   UNL     1       8.111   4.392 -12.201  1.00  0.00    -0.547 OA
ENDBRANCH   3   8
BRANCH   4  11
ATOM     11  O   UNL     1       5.064   6.200 -13.883  1.00  0.00    -0.387 OA
ATOM     12  H   UNL     1       4.338   5.689 -14.329  1.00  0.00     0.211 HD
ENDBRANCH   4  11
BRANCH   6  13
ATOM     13  O   UNL     1       2.603   7.019 -12.189  1.00  0.00    -0.387 OA
ATOM     14  H   UNL     1       2.870   7.536 -12.992  1.00  0.00     0.211 HD
ENDBRANCH   6  13
BRANCH   7  15
ATOM     15  O   UNL     1       1.955   5.388 -10.248  1.00  0.00    -0.384 OA
ATOM     16  H   UNL     1       1.263   5.036 -10.868  1.00  0.00     0.211 HD
ENDBRANCH   7  15
ENDBRANCH   1   2
BRANCH   1  17
ATOM     17  C   UNL     1       4.058   5.762  -7.395  1.00  0.00     0.172 A 
ATOM     18  C   UNL     1       4.773   5.382  -6.236  1.00  0.00     0.205 A 
ATOM     19  C   UNL     1       3.220   6.890  -7.349  1.00  0.00     0.097 A 
ATOM     20  C   UNL     1       4.562   6.077  -5.038  1.00  0.00     0.188 A 
ATOM     21  C   UNL     1       3.016   7.593  -6.157  1.00  0.00     0.134 A 
ATOM     22  C   UNL     1       3.674   7.178  -4.981  1.00  0.00     0.111 A 
ATOM     23  O   UNL     1       5.197   5.673  -3.943  1.00  0.00    -0.452 OA
ATOM     24  C   UNL     1       3.483   7.800  -3.731  1.00  0.00     0.197 A 
ATOM     25  C   UNL     1       5.039   6.231  -2.746  1.00  0.00     0.138 A 
ATOM     26  C   UNL     1       4.156   7.318  -2.608  1.00  0.00     0.100 A 
ATOM     27  O   UNL     1       2.707   8.786  -3.599  1.00  0.00    -0.289 OA
BRANCH  18  28
ATOM     28  O   UNL     1       5.670   4.297  -6.193  1.00  0.00    -0.490 OA
ATOM     29  C   UNL     1       7.017   4.297  -6.653  1.00  0.00     0.278 C 
ENDBRANCH  18  28
BRANCH  21  30
ATOM     30  O   UNL     1       2.151   8.690  -6.149  1.00  0.00    -0.507 OA
ATOM     31  H   UNL     1       1.453   8.820  -6.869  1.00  0.00     0.293 HD
ENDBRANCH  21  30
BRANCH  25  32
ATOM     32  C   UNL     1       5.799   5.663  -1.598  1.00  0.00     0.017 A 
ATOM     33  C   UNL     1       5.175   4.946  -0.556  1.00  0.00     0.012 A 
ATOM     34  C   UNL     1       7.191   5.881  -1.522  1.00  0.00     0.012 A 
ATOM     35  C   UNL     1       5.927   4.458   0.519  1.00  0.00     0.001 A 
ATOM     36  C   UNL     1       7.936   5.387  -0.446  1.00  0.00     0.001 A 
ATOM     37  C   UNL     1       7.305   4.672   0.570  1.00  0.00     0.000 A 
ENDBRANCH  25  32
ENDBRANCH   1  17
TORSDOF 9
ENDMDL
MODEL 8
REMARK VINA RESULT:    -6.359      3.982      9.102
REMARK INTER + INTRA:          -9.612
REMARK INTER:                  -8.853
REMARK INTRA:                  -0.759
REMARK UNBOUND:                -0.651
REMARK SMILES COc1c(O[C@H]2O[C@H](C(=O)[O-])[C@@H](O)[C@H](O)[C@@H]2O)cc(O)c2c(=O)cc(-c3ccccc3)oc12
REMARK SMILES IDX 5 1 6 2 8 3 12 4 7 5 14 6 16 7 9 8 10 9 11 10 13 11 15 13
REMARK SMILES IDX 17 15 4 17 3 18 18 19 33 20 19 21 21 22 32 23 22 24 25 25
REMARK SMILES IDX 24 26 23 27 2 28 1 29 20 30 26 32 27 33 31 34 28 35 30 36
REMARK SMILES IDX 29 37
REMARK H PARENT 13 12 15 14 17 16 20 31
REMARK Flexibility Score: inf
ROOT
ATOM      1  O   UNL     1       3.846   6.247  -2.954  1.00  0.00    -0.458 OA
ENDROOT
BRANCH   1   2
ATOM      2  C   UNL     1       4.407   6.404  -1.646  1.00  0.00     0.339 C 
ATOM      3  C   UNL     1       5.960   5.272  -0.213  1.00  0.00     0.199 C 
ATOM      4  C   UNL     1       5.818   6.521   0.690  1.00  0.00     0.180 C 
ATOM      5  O   UNL     1       4.915   5.158  -1.173  1.00  0.00    -0.328 OA
ATOM      6  C   UNL     1       5.896   7.816  -0.160  1.00  0.00     0.181 C 
ATOM      7  C   UNL     1       5.434   7.560  -1.619  1.00  0.00     0.214 C 
BRANCH   3   8
ATOM      8  C   UNL     1       5.975   4.022   0.611  1.00  0.00     0.073 C 
ATOM      9  O   UNL     1       7.072   3.530   0.988  1.00  0.00    -0.547 OA
ATOM     10  O   UNL     1       4.781   3.408   0.973  1.00  0.00    -0.547 OA
ENDBRANCH   3   8
BRANCH   4  11
ATOM     11  O   UNL     1       6.779   6.532   1.720  1.00  0.00    -0.387 OA
ATOM     12  H   UNL     1       6.337   6.864   2.545  1.00  0.00     0.211 HD
ENDBRANCH   4  11
BRANCH   6  13
ATOM     13  O   UNL     1       5.093   8.798   0.446  1.00  0.00    -0.387 OA
ATOM     14  H   UNL     1       5.442   8.943   1.362  1.00  0.00     0.211 HD
ENDBRANCH   6  13
BRANCH   7  15
ATOM     15  O   UNL     1       4.867   8.729  -2.160  1.00  0.00    -0.384 OA
ATOM     16  H   UNL     1       3.904   8.718  -1.920  1.00  0.00     0.211 HD
ENDBRANCH   7  15
ENDBRANCH   1   2
BRANCH   1  17
ATOM     17  C   UNL     1       4.575   5.928  -4.108  1.00  0.00     0.172 A 
ATOM     18  C   UNL     1       4.021   6.167  -5.387  1.00  0.00     0.205 A 
ATOM     19  C   UNL     1       5.846   5.335  -4.008  1.00  0.00     0.097 A 
ATOM     20  C   UNL     1       4.704   5.725  -6.527  1.00  0.00     0.188 A 
ATOM     21  C   UNL     1       6.535   4.902  -5.146  1.00  0.00     0.134 A 
ATOM     22  C   UNL     1       5.958   5.077  -6.420  1.00  0.00     0.111 A 
ATOM     23  O   UNL     1       4.144   5.906  -7.718  1.00  0.00    -0.452 OA
ATOM     24  C   UNL     1       6.564   4.624  -7.608  1.00  0.00     0.197 A 
ATOM     25  C   UNL     1       4.683   5.488  -8.861  1.00  0.00     0.138 A 
ATOM     26  C   UNL     1       5.920   4.818  -8.831  1.00  0.00     0.100 A 
ATOM     27  O   UNL     1       7.680   4.037  -7.595  1.00  0.00    -0.289 OA
BRANCH  18  28
ATOM     28  O   UNL     1       2.778   6.796  -5.593  1.00  0.00    -0.490 OA
ATOM     29  C   UNL     1       2.521   8.195  -5.553  1.00  0.00     0.278 C 
ENDBRANCH  18  28
BRANCH  21  30
ATOM     30  O   UNL     1       7.783   4.291  -4.998  1.00  0.00    -0.507 OA
ATOM     31  H   UNL     1       8.338   4.018  -5.798  1.00  0.00     0.293 HD
ENDBRANCH  21  30
BRANCH  25  32
ATOM     32  C   UNL     1       3.936   5.740 -10.125  1.00  0.00     0.017 A 
ATOM     33  C   UNL     1       2.527   5.766 -10.180  1.00  0.00     0.012 A 
ATOM     34  C   UNL     1       4.658   5.919 -11.325  1.00  0.00     0.012 A 
ATOM     35  C   UNL     1       1.869   5.974 -11.398  1.00  0.00     0.001 A 
ATOM     36  C   UNL     1       3.992   6.129 -12.536  1.00  0.00     0.001 A 
ATOM     37  C   UNL     1       2.599   6.162 -12.571  1.00  0.00     0.000 A 
ENDBRANCH  25  32
ENDBRANCH   1  17
TORSDOF 9
ENDMDL
MODEL 9
REMARK VINA RESULT:    -6.250      2.745      8.961
REMARK INTER + INTRA:          -9.459
REMARK INTER:                  -8.182
REMARK INTRA:                  -1.277
REMARK UNBOUND:                -0.651
REMARK SMILES COc1c(O[C@H]2O[C@H](C(=O)[O-])[C@@H](O)[C@H](O)[C@@H]2O)cc(O)c2c(=O)cc(-c3ccccc3)oc12
REMARK SMILES IDX 5 1 6 2 8 3 12 4 7 5 14 6 16 7 9 8 10 9 11 10 13 11 15 13
REMARK SMILES IDX 17 15 4 17 3 18 18 19 33 20 19 21 21 22 32 23 22 24 25 25
REMARK SMILES IDX 24 26 23 27 2 28 1 29 20 30 26 32 27 33 31 34 28 35 30 36
REMARK SMILES IDX 29 37
REMARK H PARENT 13 12 15 14 17 16 20 31
REMARK Flexibility Score: inf
ROOT
ATOM      1  O   UNL     1       4.596   5.026  -5.391  1.00  0.00    -0.458 OA
ENDROOT
BRANCH   1   2
ATOM      2  C   UNL     1       4.843   6.137  -4.521  1.00  0.00     0.339 C 
ATOM      3  C   UNL     1       3.633   7.492  -2.958  1.00  0.00     0.199 C 
ATOM      4  C   UNL     1       5.021   8.084  -2.615  1.00  0.00     0.180 C 
ATOM      5  O   UNL     1       3.617   6.791  -4.196  1.00  0.00    -0.328 OA
ATOM      6  C   UNL     1       6.071   6.953  -2.461  1.00  0.00     0.181 C 
ATOM      7  C   UNL     1       5.677   5.704  -3.293  1.00  0.00     0.214 C 
BRANCH   3   8
ATOM      8  C   UNL     1       2.597   8.572  -3.019  1.00  0.00     0.073 C 
ATOM      9  O   UNL     1       2.059   8.989  -1.959  1.00  0.00    -0.547 OA
ATOM     10  O   UNL     1       2.236   9.125  -4.242  1.00  0.00    -0.547 OA
ENDBRANCH   3   8
BRANCH   4  11
ATOM     11  O   UNL     1       4.974   8.892  -1.462  1.00  0.00    -0.387 OA
ATOM     12  H   UNL     1       4.022   8.991  -1.197  1.00  0.00     0.211 HD
ENDBRANCH   4  11
BRANCH   6  13
ATOM     13  O   UNL     1       7.322   7.444  -2.872  1.00  0.00    -0.387 OA
ATOM     14  H   UNL     1       7.841   6.676  -3.224  1.00  0.00     0.211 HD
ENDBRANCH   6  13
BRANCH   7  15
ATOM     15  O   UNL     1       6.831   5.013  -3.706  1.00  0.00    -0.384 OA
ATOM     16  H   UNL     1       6.590   4.051  -3.748  1.00  0.00     0.211 HD
ENDBRANCH   7  15
ENDBRANCH   1   2
BRANCH   1  17
ATOM     17  C   UNL     1       5.124   4.884  -6.682  1.00  0.00     0.172 A 
ATOM     18  C   UNL     1       4.449   5.444  -7.791  1.00  0.00     0.205 A 
ATOM     19  C   UNL     1       6.307   4.154  -6.892  1.00  0.00     0.097 A 
ATOM     20  C   UNL     1       4.917   5.182  -9.085  1.00  0.00     0.188 A 
ATOM     21  C   UNL     1       6.783   3.901  -8.183  1.00  0.00     0.134 A 
ATOM     22  C   UNL     1       6.077   4.400  -9.297  1.00  0.00     0.111 A 
ATOM     23  O   UNL     1       4.240   5.668 -10.120  1.00  0.00    -0.452 OA
ATOM     24  C   UNL     1       6.462   4.147 -10.628  1.00  0.00     0.197 A 
ATOM     25  C   UNL     1       4.569   5.446 -11.390  1.00  0.00     0.138 A 
ATOM     26  C   UNL     1       5.700   4.660 -11.678  1.00  0.00     0.100 A 
ATOM     27  O   UNL     1       7.483   3.458 -10.898  1.00  0.00    -0.289 OA
BRANCH  18  28
ATOM     28  O   UNL     1       3.284   6.227  -7.681  1.00  0.00    -0.490 OA
ATOM     29  C   UNL     1       3.228   7.644  -7.555  1.00  0.00     0.278 C 
ENDBRANCH  18  28
BRANCH  21  30
ATOM     30  O   UNL     1       7.947   3.146  -8.346  1.00  0.00    -0.507 OA
ATOM     31  H   UNL     1       8.138   2.645  -9.204  1.00  0.00     0.293 HD
ENDBRANCH  21  30
BRANCH  25  32
ATOM     32  C   UNL     1       3.708   6.035 -12.454  1.00  0.00     0.017 A 
ATOM     33  C   UNL     1       3.965   5.848 -13.827  1.00  0.00     0.012 A 
ATOM     34  C   UNL     1       2.614   6.845 -12.080  1.00  0.00     0.012 A 
ATOM     35  C   UNL     1       3.145   6.448 -14.791  1.00  0.00     0.001 A 
ATOM     36  C   UNL     1       1.798   7.438 -13.048  1.00  0.00     0.001 A 
ATOM     37  C   UNL     1       2.060   7.235 -14.402  1.00  0.00     0.000 A 
ENDBRANCH  25  32
ENDBRANCH   1  17
TORSDOF 9
ENDMDL
