MODEL 1
REMARK VINA RESULT:    -7.051      0.000      0.000
REMARK INTER + INTRA:          -8.604
REMARK INTER:                  -8.288
REMARK INTRA:                  -0.317
REMARK UNBOUND:                -0.317
REMARK SMILES O=c1cc(-c2ccc(O)c(O)c2)oc2cc(O)cc(O)c12
REMARK SMILES IDX 4 1 3 2 2 3 1 4 21 5 19 6 18 7 16 8 15 9 14 10 13 11 5 12
REMARK SMILES IDX 6 13 7 14 8 15 12 16 10 17 9 18 11 20 20 22 17 24
REMARK H PARENT 9 19 11 21 20 23 17 25
REMARK Flexibility Score: inf
ROOT
ATOM      1  C   UNL     1       8.826  24.320  40.737  1.00  0.00     0.138 A 
ATOM      2  C   UNL     1       8.394  23.321  39.855  1.00  0.00     0.100 A 
ATOM      3  C   UNL     1       8.960  23.232  38.582  1.00  0.00     0.197 A 
ATOM      4  O   UNL     1       8.596  22.287  37.835  1.00  0.00    -0.289 OA
ATOM      5  C   UNL     1       9.942  24.169  38.182  1.00  0.00     0.107 A 
ATOM      6  C   UNL     1      10.558  24.199  36.895  1.00  0.00     0.134 A 
ATOM      7  C   UNL     1      11.602  25.101  36.653  1.00  0.00     0.093 A 
ATOM      8  C   UNL     1      12.010  26.012  37.630  1.00  0.00     0.123 A 
ATOM      9  C   UNL     1      11.377  26.027  38.871  1.00  0.00     0.094 A 
ATOM     10  C   UNL     1      10.356  25.116  39.156  1.00  0.00     0.146 A 
ATOM     11  O   UNL     1       9.789  25.153  40.356  1.00  0.00    -0.456 OA
ENDROOT
BRANCH   1  12
ATOM     12  C   UNL     1       8.257  24.460  42.102  1.00  0.00     0.021 A 
ATOM     13  C   UNL     1       7.387  23.472  42.593  1.00  0.00     0.016 A 
ATOM     14  C   UNL     1       6.846  23.576  43.877  1.00  0.00     0.051 A 
ATOM     15  C   UNL     1       7.173  24.664  44.695  1.00  0.00     0.157 A 
ATOM     16  C   UNL     1       8.593  25.545  42.935  1.00  0.00     0.062 A 
ATOM     17  C   UNL     1       8.050  25.649  44.225  1.00  0.00     0.158 A 
BRANCH  15  18
ATOM     18  O   UNL     1       6.634  24.773  45.975  1.00  0.00    -0.504 OA
ATOM     19  H   UNL     1       7.076  25.339  46.690  1.00  0.00     0.293 HD
ENDBRANCH  15  18
BRANCH  17  20
ATOM     20  O   UNL     1       8.382  26.725  45.046  1.00  0.00    -0.504 OA
ATOM     21  H   UNL     1       7.752  27.507  45.177  1.00  0.00     0.293 HD
ENDBRANCH  17  20
ENDBRANCH   1  12
BRANCH   6  22
ATOM     22  O   UNL     1      10.171  23.392  35.823  1.00  0.00    -0.507 OA
ATOM     23  H   UNL     1      10.649  23.341  34.937  1.00  0.00     0.293 HD
ENDBRANCH   6  22
BRANCH   8  24
ATOM     24  O   UNL     1      13.039  26.917  37.374  1.00  0.00    -0.508 OA
ATOM     25  H   UNL     1      13.649  26.812  36.570  1.00  0.00     0.293 HD
ENDBRANCH   8  24
TORSDOF 5
ENDMDL
MODEL 2
REMARK VINA RESULT:    -6.982      2.473      7.159
REMARK INTER + INTRA:          -8.524
REMARK INTER:                  -8.249
REMARK INTRA:                  -0.274
REMARK UNBOUND:                -0.317
REMARK SMILES O=c1cc(-c2ccc(O)c(O)c2)oc2cc(O)cc(O)c12
REMARK SMILES IDX 4 1 3 2 2 3 1 4 21 5 19 6 18 7 16 8 15 9 14 10 13 11 5 12
REMARK SMILES IDX 6 13 7 14 8 15 12 16 10 17 9 18 11 20 20 22 17 24
REMARK H PARENT 9 19 11 21 20 23 17 25
REMARK Flexibility Score: inf
ROOT
ATOM      1  C   UNL     1      10.811  26.085  41.449  1.00  0.00     0.138 A 
ATOM      2  C   UNL     1      10.515  24.724  41.295  1.00  0.00     0.100 A 
ATOM      3  C   UNL     1       9.517  24.141  42.078  1.00  0.00     0.197 A 
ATOM      4  O   UNL     1       9.232  22.933  41.874  1.00  0.00    -0.289 OA
ATOM      5  C   UNL     1       8.835  24.921  43.042  1.00  0.00     0.107 A 
ATOM      6  C   UNL     1       7.829  24.424  43.924  1.00  0.00     0.134 A 
ATOM      7  C   UNL     1       7.140  25.315  44.756  1.00  0.00     0.093 A 
ATOM      8  C   UNL     1       7.463  26.674  44.781  1.00  0.00     0.123 A 
ATOM      9  C   UNL     1       8.481  27.160  43.963  1.00  0.00     0.094 A 
ATOM     10  C   UNL     1       9.163  26.302  43.096  1.00  0.00     0.146 A 
ATOM     11  O   UNL     1      10.116  26.807  42.322  1.00  0.00    -0.456 OA
ENDROOT
BRANCH   1  12
ATOM     12  C   UNL     1      11.863  26.755  40.642  1.00  0.00     0.021 A 
ATOM     13  C   UNL     1      12.832  27.543  41.287  1.00  0.00     0.016 A 
ATOM     14  C   UNL     1      13.836  28.177  40.551  1.00  0.00     0.051 A 
ATOM     15  C   UNL     1      13.896  28.025  39.161  1.00  0.00     0.157 A 
ATOM     16  C   UNL     1      11.937  26.595  39.245  1.00  0.00     0.062 A 
ATOM     17  C   UNL     1      12.947  27.231  38.506  1.00  0.00     0.158 A 
BRANCH  15  18
ATOM     18  O   UNL     1      14.895  28.657  38.424  1.00  0.00    -0.504 OA
ATOM     19  H   UNL     1      15.599  28.127  37.923  1.00  0.00     0.293 HD
ENDBRANCH  15  18
BRANCH  17  20
ATOM     20  O   UNL     1      13.015  27.073  37.124  1.00  0.00    -0.504 OA
ATOM     21  H   UNL     1      13.783  27.452  36.583  1.00  0.00     0.293 HD
ENDBRANCH  17  20
ENDBRANCH   1  12
BRANCH   6  22
ATOM     22  O   UNL     1       7.488  23.074  44.039  1.00  0.00    -0.507 OA
ATOM     23  H   UNL     1       7.647  22.506  44.857  1.00  0.00     0.293 HD
ENDBRANCH   6  22
BRANCH   8  24
ATOM     24  O   UNL     1       6.783  27.551  45.624  1.00  0.00    -0.508 OA
ATOM     25  H   UNL     1       5.770  27.572  45.661  1.00  0.00     0.293 HD
ENDBRANCH   8  24
TORSDOF 5
ENDMDL
MODEL 3
REMARK VINA RESULT:    -6.972      2.755      6.896
REMARK INTER + INTRA:          -8.512
REMARK INTER:                  -8.219
REMARK INTRA:                  -0.293
REMARK UNBOUND:                -0.317
REMARK SMILES O=c1cc(-c2ccc(O)c(O)c2)oc2cc(O)cc(O)c12
REMARK SMILES IDX 4 1 3 2 2 3 1 4 21 5 19 6 18 7 16 8 15 9 14 10 13 11 5 12
REMARK SMILES IDX 6 13 7 14 8 15 12 16 10 17 9 18 11 20 20 22 17 24
REMARK H PARENT 9 19 11 21 20 23 17 25
REMARK Flexibility Score: inf
ROOT
ATOM      1  C   UNL     1      10.813  25.655  40.347  1.00  0.00     0.138 A 
ATOM      2  C   UNL     1      10.357  24.928  41.455  1.00  0.00     0.100 A 
ATOM      3  C   UNL     1      10.336  25.529  42.714  1.00  0.00     0.197 A 
ATOM      4  O   UNL     1       9.864  24.873  43.677  1.00  0.00    -0.289 OA
ATOM      5  C   UNL     1      10.803  26.857  42.867  1.00  0.00     0.107 A 
ATOM      6  C   UNL     1      10.866  27.556  44.110  1.00  0.00     0.134 A 
ATOM      7  C   UNL     1      11.238  28.906  44.121  1.00  0.00     0.093 A 
ATOM      8  C   UNL     1      11.606  29.564  42.945  1.00  0.00     0.123 A 
ATOM      9  C   UNL     1      11.600  28.873  41.735  1.00  0.00     0.094 A 
ATOM     10  C   UNL     1      11.201  27.535  41.685  1.00  0.00     0.146 A 
ATOM     11  O   UNL     1      11.194  26.918  40.509  1.00  0.00    -0.456 OA
ENDROOT
BRANCH   1  12
ATOM     12  C   UNL     1      10.857  25.064  38.985  1.00  0.00     0.021 A 
ATOM     13  C   UNL     1       9.758  24.322  38.517  1.00  0.00     0.016 A 
ATOM     14  C   UNL     1       9.772  23.763  37.237  1.00  0.00     0.051 A 
ATOM     15  C   UNL     1      10.878  23.944  36.399  1.00  0.00     0.157 A 
ATOM     16  C   UNL     1      11.962  25.254  38.132  1.00  0.00     0.062 A 
ATOM     17  C   UNL     1      11.974  24.693  36.845  1.00  0.00     0.158 A 
BRANCH  15  18
ATOM     18  O   UNL     1      10.896  23.386  35.122  1.00  0.00    -0.504 OA
ATOM     19  H   UNL     1      10.347  22.566  34.895  1.00  0.00     0.293 HD
ENDBRANCH  15  18
BRANCH  17  20
ATOM     20  O   UNL     1      13.070  24.880  36.005  1.00  0.00    -0.504 OA
ATOM     21  H   UNL     1      13.648  24.104  35.705  1.00  0.00     0.293 HD
ENDBRANCH  17  20
ENDBRANCH   1  12
BRANCH   6  22
ATOM     22  O   UNL     1      10.601  26.971  45.351  1.00  0.00    -0.507 OA
ATOM     23  H   UNL     1       9.736  26.519  45.602  1.00  0.00     0.293 HD
ENDBRANCH   6  22
BRANCH   8  24
ATOM     24  O   UNL     1      11.989  30.903  42.969  1.00  0.00    -0.508 OA
ATOM     25  H   UNL     1      12.925  31.182  43.244  1.00  0.00     0.293 HD
ENDBRANCH   8  24
TORSDOF 5
ENDMDL
MODEL 4
REMARK VINA RESULT:    -6.945      2.843      4.463
REMARK INTER + INTRA:          -8.479
REMARK INTER:                  -8.167
REMARK INTRA:                  -0.312
REMARK UNBOUND:                -0.317
REMARK SMILES O=c1cc(-c2ccc(O)c(O)c2)oc2cc(O)cc(O)c12
REMARK SMILES IDX 4 1 3 2 2 3 1 4 21 5 19 6 18 7 16 8 15 9 14 10 13 11 5 12
REMARK SMILES IDX 6 13 7 14 8 15 12 16 10 17 9 18 11 20 20 22 17 24
REMARK H PARENT 9 19 11 21 20 23 17 25
REMARK Flexibility Score: inf
ROOT
ATOM      1  C   UNL     1       9.787  24.571  38.960  1.00  0.00     0.138 A 
ATOM      2  C   UNL     1      10.568  24.592  37.797  1.00  0.00     0.100 A 
ATOM      3  C   UNL     1      11.583  25.542  37.664  1.00  0.00     0.197 A 
ATOM      4  O   UNL     1      12.307  25.496  36.637  1.00  0.00    -0.289 OA
ATOM      5  C   UNL     1      11.795  26.493  38.690  1.00  0.00     0.107 A 
ATOM      6  C   UNL     1      12.773  27.532  38.645  1.00  0.00     0.134 A 
ATOM      7  C   UNL     1      12.968  28.343  39.770  1.00  0.00     0.093 A 
ATOM      8  C   UNL     1      12.182  28.191  40.914  1.00  0.00     0.123 A 
ATOM      9  C   UNL     1      11.188  27.216  40.947  1.00  0.00     0.094 A 
ATOM     10  C   UNL     1      10.991  26.368  39.854  1.00  0.00     0.146 A 
ATOM     11  O   UNL     1      10.043  25.441  39.933  1.00  0.00    -0.456 OA
ENDROOT
BRANCH   1  12
ATOM     12  C   UNL     1       8.695  23.583  39.153  1.00  0.00     0.021 A 
ATOM     13  C   UNL     1       8.695  22.396  38.400  1.00  0.00     0.016 A 
ATOM     14  C   UNL     1       7.683  21.448  38.569  1.00  0.00     0.051 A 
ATOM     15  C   UNL     1       6.661  21.664  39.500  1.00  0.00     0.157 A 
ATOM     16  C   UNL     1       7.671  23.788  40.098  1.00  0.00     0.062 A 
ATOM     17  C   UNL     1       6.656  22.834  40.269  1.00  0.00     0.158 A 
BRANCH  15  18
ATOM     18  O   UNL     1       5.649  20.721  39.670  1.00  0.00    -0.504 OA
ATOM     19  H   UNL     1       5.273  20.201  38.887  1.00  0.00     0.293 HD
ENDBRANCH  15  18
BRANCH  17  20
ATOM     20  O   UNL     1       5.643  23.042  41.203  1.00  0.00    -0.504 OA
ATOM     21  H   UNL     1       4.673  22.841  40.988  1.00  0.00     0.293 HD
ENDBRANCH  17  20
ENDBRANCH   1  12
BRANCH   6  22
ATOM     22  O   UNL     1      13.552  27.823  37.523  1.00  0.00    -0.507 OA
ATOM     23  H   UNL     1      14.541  27.640  37.444  1.00  0.00     0.293 HD
ENDBRANCH   6  22
BRANCH   8  24
ATOM     24  O   UNL     1      12.373  29.014  42.023  1.00  0.00    -0.508 OA
ATOM     25  H   UNL     1      12.124  29.996  42.004  1.00  0.00     0.293 HD
ENDBRANCH   8  24
TORSDOF 5
ENDMDL
MODEL 5
REMARK VINA RESULT:    -6.927      2.751      4.739
REMARK INTER + INTRA:          -8.459
REMARK INTER:                  -8.172
REMARK INTRA:                  -0.287
REMARK UNBOUND:                -0.317
REMARK SMILES O=c1cc(-c2ccc(O)c(O)c2)oc2cc(O)cc(O)c12
REMARK SMILES IDX 4 1 3 2 2 3 1 4 21 5 19 6 18 7 16 8 15 9 14 10 13 11 5 12
REMARK SMILES IDX 6 13 7 14 8 15 12 16 10 17 9 18 11 20 20 22 17 24
REMARK H PARENT 9 19 11 21 20 23 17 25
REMARK Flexibility Score: inf
ROOT
ATOM      1  C   UNL     1       9.851  24.864  39.972  1.00  0.00     0.138 A 
ATOM      2  C   UNL     1      10.367  25.297  41.201  1.00  0.00     0.100 A 
ATOM      3  C   UNL     1      11.402  26.234  41.223  1.00  0.00     0.197 A 
ATOM      4  O   UNL     1      11.803  26.649  42.341  1.00  0.00    -0.289 OA
ATOM      5  C   UNL     1      11.942  26.714  40.006  1.00  0.00     0.107 A 
ATOM      6  C   UNL     1      13.026  27.638  39.908  1.00  0.00     0.134 A 
ATOM      7  C   UNL     1      13.398  28.131  38.651  1.00  0.00     0.093 A 
ATOM      8  C   UNL     1      12.767  27.688  37.486  1.00  0.00     0.123 A 
ATOM      9  C   UNL     1      11.745  26.745  37.568  1.00  0.00     0.094 A 
ATOM     10  C   UNL     1      11.326  26.260  38.810  1.00  0.00     0.146 A 
ATOM     11  O   UNL     1      10.338  25.373  38.845  1.00  0.00    -0.456 OA
ENDROOT
BRANCH   1  12
ATOM     12  C   UNL     1       8.750  23.870  39.891  1.00  0.00     0.021 A 
ATOM     13  C   UNL     1       7.585  24.065  40.653  1.00  0.00     0.016 A 
ATOM     14  C   UNL     1       6.532  23.149  40.588  1.00  0.00     0.051 A 
ATOM     15  C   UNL     1       6.621  22.030  39.752  1.00  0.00     0.157 A 
ATOM     16  C   UNL     1       8.827  22.749  39.041  1.00  0.00     0.062 A 
ATOM     17  C   UNL     1       7.769  21.830  38.975  1.00  0.00     0.158 A 
BRANCH  15  18
ATOM     18  O   UNL     1       5.574  21.113  39.685  1.00  0.00    -0.504 OA
ATOM     19  H   UNL     1       5.096  20.793  40.520  1.00  0.00     0.293 HD
ENDBRANCH  15  18
BRANCH  17  20
ATOM     20  O   UNL     1       7.850  20.720  38.137  1.00  0.00    -0.504 OA
ATOM     21  H   UNL     1       7.900  20.818  37.129  1.00  0.00     0.293 HD
ENDBRANCH  17  20
ENDBRANCH   1  12
BRANCH   6  22
ATOM     22  O   UNL     1      13.778  28.080  40.999  1.00  0.00    -0.507 OA
ATOM     23  H   UNL     1      13.922  29.046  41.246  1.00  0.00     0.293 HD
ENDBRANCH   6  22
BRANCH   8  24
ATOM     24  O   UNL     1      13.155  28.173  36.238  1.00  0.00    -0.508 OA
ATOM     25  H   UNL     1      12.549  28.097  35.428  1.00  0.00     0.293 HD
ENDBRANCH   8  24
TORSDOF 5
ENDMDL
MODEL 6
REMARK VINA RESULT:    -6.860      2.536      7.432
REMARK INTER + INTRA:          -8.380
REMARK INTER:                  -8.078
REMARK INTRA:                  -0.302
REMARK UNBOUND:                -0.317
REMARK SMILES O=c1cc(-c2ccc(O)c(O)c2)oc2cc(O)cc(O)c12
REMARK SMILES IDX 4 1 3 2 2 3 1 4 21 5 19 6 18 7 16 8 15 9 14 10 13 11 5 12
REMARK SMILES IDX 6 13 7 14 8 15 12 16 10 17 9 18 11 20 20 22 17 24
REMARK H PARENT 9 19 11 21 20 23 17 25
REMARK Flexibility Score: inf
ROOT
ATOM      1  C   UNL     1      10.721  26.935  41.749  1.00  0.00     0.138 A 
ATOM      2  C   UNL     1      10.587  27.474  43.035  1.00  0.00     0.100 A 
ATOM      3  C   UNL     1       9.572  27.010  43.875  1.00  0.00     0.197 A 
ATOM      4  O   UNL     1       9.515  27.468  45.045  1.00  0.00    -0.289 OA
ATOM      5  C   UNL     1       8.672  26.022  43.410  1.00  0.00     0.107 A 
ATOM      6  C   UNL     1       7.576  25.505  44.164  1.00  0.00     0.134 A 
ATOM      7  C   UNL     1       6.821  24.446  43.643  1.00  0.00     0.093 A 
ATOM      8  C   UNL     1       7.086  23.928  42.373  1.00  0.00     0.123 A 
ATOM      9  C   UNL     1       8.119  24.464  41.607  1.00  0.00     0.094 A 
ATOM     10  C   UNL     1       8.912  25.497  42.113  1.00  0.00     0.146 A 
ATOM     11  O   UNL     1       9.896  25.970  41.357  1.00  0.00    -0.456 OA
ENDROOT
BRANCH   1  12
ATOM     12  C   UNL     1      11.782  27.393  40.815  1.00  0.00     0.021 A 
ATOM     13  C   UNL     1      13.038  27.767  41.324  1.00  0.00     0.016 A 
ATOM     14  C   UNL     1      14.054  28.193  40.465  1.00  0.00     0.051 A 
ATOM     15  C   UNL     1      13.837  28.242  39.084  1.00  0.00     0.157 A 
ATOM     16  C   UNL     1      11.574  27.431  39.422  1.00  0.00     0.062 A 
ATOM     17  C   UNL     1      12.596  27.858  38.560  1.00  0.00     0.158 A 
BRANCH  15  18
ATOM     18  O   UNL     1      14.847  28.668  38.224  1.00  0.00    -0.504 OA
ATOM     19  H   UNL     1      15.166  28.091  37.454  1.00  0.00     0.293 HD
ENDBRANCH  15  18
BRANCH  17  20
ATOM     20  O   UNL     1      12.386  27.897  37.183  1.00  0.00    -0.504 OA
ATOM     21  H   UNL     1      11.900  27.152  36.698  1.00  0.00     0.293 HD
ENDBRANCH  17  20
ENDBRANCH   1  12
BRANCH   6  22
ATOM     22  O   UNL     1       7.174  26.005  45.405  1.00  0.00    -0.507 OA
ATOM     23  H   UNL     1       6.904  26.961  45.581  1.00  0.00     0.293 HD
ENDBRANCH   6  22
BRANCH   8  24
ATOM     24  O   UNL     1       6.319  22.884  41.857  1.00  0.00    -0.508 OA
ATOM     25  H   UNL     1       5.400  22.669  42.226  1.00  0.00     0.293 HD
ENDBRANCH   8  24
TORSDOF 5
ENDMDL
MODEL 7
REMARK VINA RESULT:    -6.831      2.333      6.549
REMARK INTER + INTRA:          -8.346
REMARK INTER:                  -8.063
REMARK INTRA:                  -0.283
REMARK UNBOUND:                -0.317
REMARK SMILES O=c1cc(-c2ccc(O)c(O)c2)oc2cc(O)cc(O)c12
REMARK SMILES IDX 4 1 3 2 2 3 1 4 21 5 19 6 18 7 16 8 15 9 14 10 13 11 5 12
REMARK SMILES IDX 6 13 7 14 8 15 12 16 10 17 9 18 11 20 20 22 17 24
REMARK H PARENT 9 19 11 21 20 23 17 25
REMARK Flexibility Score: inf
ROOT
ATOM      1  C   UNL     1      10.206  25.903  39.835  1.00  0.00     0.138 A 
ATOM      2  C   UNL     1       9.342  26.359  40.839  1.00  0.00     0.100 A 
ATOM      3  C   UNL     1       8.211  25.610  41.169  1.00  0.00     0.197 A 
ATOM      4  O   UNL     1       7.488  26.014  42.116  1.00  0.00    -0.289 OA
ATOM      5  C   UNL     1       7.930  24.414  40.466  1.00  0.00     0.107 A 
ATOM      6  C   UNL     1       6.785  23.592  40.689  1.00  0.00     0.134 A 
ATOM      7  C   UNL     1       6.673  22.370  40.014  1.00  0.00     0.093 A 
ATOM      8  C   UNL     1       7.632  21.970  39.081  1.00  0.00     0.123 A 
ATOM      9  C   UNL     1       8.726  22.792  38.817  1.00  0.00     0.094 A 
ATOM     10  C   UNL     1       8.885  24.001  39.499  1.00  0.00     0.146 A 
ATOM     11  O   UNL     1       9.949  24.748  39.229  1.00  0.00    -0.456 OA
ENDROOT
BRANCH   1  12
ATOM     12  C   UNL     1      11.423  26.660  39.444  1.00  0.00     0.021 A 
ATOM     13  C   UNL     1      12.365  27.011  40.428  1.00  0.00     0.016 A 
ATOM     14  C   UNL     1      13.521  27.715  40.084  1.00  0.00     0.051 A 
ATOM     15  C   UNL     1      13.762  28.072  38.753  1.00  0.00     0.157 A 
ATOM     16  C   UNL     1      11.678  27.009  38.104  1.00  0.00     0.062 A 
ATOM     17  C   UNL     1      12.841  27.716  37.759  1.00  0.00     0.158 A 
BRANCH  15  18
ATOM     18  O   UNL     1      14.913  28.776  38.406  1.00  0.00    -0.504 OA
ATOM     19  H   UNL     1      15.435  29.308  39.093  1.00  0.00     0.293 HD
ENDBRANCH  15  18
BRANCH  17  20
ATOM     20  O   UNL     1      13.088  28.062  36.433  1.00  0.00    -0.504 OA
ATOM     21  H   UNL     1      13.967  27.839  35.980  1.00  0.00     0.293 HD
ENDBRANCH  17  20
ENDBRANCH   1  12
BRANCH   6  22
ATOM     22  O   UNL     1       5.728  23.937  41.535  1.00  0.00    -0.507 OA
ATOM     23  H   UNL     1       4.752  23.792  41.327  1.00  0.00     0.293 HD
ENDBRANCH   6  22
BRANCH   8  24
ATOM     24  O   UNL     1       7.504  20.760  38.402  1.00  0.00    -0.508 OA
ATOM     25  H   UNL     1       6.636  20.496  37.949  1.00  0.00     0.293 HD
ENDBRANCH   8  24
TORSDOF 5
ENDMDL
MODEL 8
REMARK VINA RESULT:    -6.803      9.436     11.156
REMARK INTER + INTRA:          -8.313
REMARK INTER:                  -8.041
REMARK INTRA:                  -0.271
REMARK UNBOUND:                -0.317
REMARK SMILES O=c1cc(-c2ccc(O)c(O)c2)oc2cc(O)cc(O)c12
REMARK SMILES IDX 4 1 3 2 2 3 1 4 21 5 19 6 18 7 16 8 15 9 14 10 13 11 5 12
REMARK SMILES IDX 6 13 7 14 8 15 12 16 10 17 9 18 11 20 20 22 17 24
REMARK H PARENT 9 19 11 21 20 23 17 25
REMARK Flexibility Score: inf
ROOT
ATOM      1  C   UNL     1      16.945  18.539  40.153  1.00  0.00     0.138 A 
ATOM      2  C   UNL     1      16.525  19.428  41.151  1.00  0.00     0.100 A 
ATOM      3  C   UNL     1      17.336  20.510  41.498  1.00  0.00     0.197 A 
ATOM      4  O   UNL     1      16.904  21.325  42.353  1.00  0.00    -0.289 OA
ATOM      5  C   UNL     1      18.588  20.682  40.861  1.00  0.00     0.107 A 
ATOM      6  C   UNL     1      19.515  21.725  41.162  1.00  0.00     0.134 A 
ATOM      7  C   UNL     1      20.671  21.864  40.385  1.00  0.00     0.093 A 
ATOM      8  C   UNL     1      20.963  20.963  39.358  1.00  0.00     0.123 A 
ATOM      9  C   UNL     1      20.091  19.909  39.093  1.00  0.00     0.094 A 
ATOM     10  C   UNL     1      18.911  19.764  39.827  1.00  0.00     0.146 A 
ATOM     11  O   UNL     1      18.099  18.755  39.531  1.00  0.00    -0.456 OA
ENDROOT
BRANCH   1  12
ATOM     12  C   UNL     1      16.121  17.371  39.746  1.00  0.00     0.021 A 
ATOM     13  C   UNL     1      16.692  16.087  39.752  1.00  0.00     0.016 A 
ATOM     14  C   UNL     1      15.936  14.971  39.382  1.00  0.00     0.051 A 
ATOM     15  C   UNL     1      14.595  15.120  39.009  1.00  0.00     0.157 A 
ATOM     16  C   UNL     1      14.768  17.512  39.383  1.00  0.00     0.062 A 
ATOM     17  C   UNL     1      14.008  16.391  39.012  1.00  0.00     0.158 A 
BRANCH  15  18
ATOM     18  O   UNL     1      13.838  14.011  38.637  1.00  0.00    -0.504 OA
ATOM     19  H   UNL     1      13.109  14.078  37.936  1.00  0.00     0.293 HD
ENDBRANCH  15  18
BRANCH  17  20
ATOM     20  O   UNL     1      12.670  16.535  38.651  1.00  0.00    -0.504 OA
ATOM     21  H   UNL     1      12.372  16.478  37.684  1.00  0.00     0.293 HD
ENDBRANCH  17  20
ENDBRANCH   1  12
BRANCH   6  22
ATOM     22  O   UNL     1      19.361  22.626  42.219  1.00  0.00    -0.507 OA
ATOM     23  H   UNL     1      18.864  23.502  42.162  1.00  0.00     0.293 HD
ENDBRANCH   6  22
BRANCH   8  24
ATOM     24  O   UNL     1      22.125  21.100  38.601  1.00  0.00    -0.508 OA
ATOM     25  H   UNL     1      22.341  20.462  37.842  1.00  0.00     0.293 HD
ENDBRANCH   8  24
TORSDOF 5
ENDMDL
MODEL 9
REMARK VINA RESULT:    -6.650      1.278      2.918
REMARK INTER + INTRA:          -8.133
REMARK INTER:                  -7.839
REMARK INTRA:                  -0.294
REMARK UNBOUND:                -0.317
REMARK SMILES O=c1cc(-c2ccc(O)c(O)c2)oc2cc(O)cc(O)c12
REMARK SMILES IDX 4 1 3 2 2 3 1 4 21 5 19 6 18 7 16 8 15 9 14 10 13 11 5 12
REMARK SMILES IDX 6 13 7 14 8 15 12 16 10 17 9 18 11 20 20 22 17 24
REMARK H PARENT 9 19 11 21 20 23 17 25
REMARK Flexibility Score: inf
ROOT
ATOM      1  C   UNL     1       9.964  25.779  41.149  1.00  0.00     0.138 A 
ATOM      2  C   UNL     1      10.757  26.932  41.069  1.00  0.00     0.100 A 
ATOM      3  C   UNL     1      11.533  27.157  39.930  1.00  0.00     0.197 A 
ATOM      4  O   UNL     1      12.186  28.230  39.861  1.00  0.00    -0.289 OA
ATOM      5  C   UNL     1      11.536  26.207  38.882  1.00  0.00     0.107 A 
ATOM      6  C   UNL     1      12.320  26.312  37.693  1.00  0.00     0.134 A 
ATOM      7  C   UNL     1      12.153  25.368  36.673  1.00  0.00     0.093 A 
ATOM      8  C   UNL     1      11.277  24.290  36.823  1.00  0.00     0.123 A 
ATOM      9  C   UNL     1      10.549  24.149  38.002  1.00  0.00     0.094 A 
ATOM     10  C   UNL     1      10.666  25.093  39.025  1.00  0.00     0.146 A 
ATOM     11  O   UNL     1       9.943  24.930  40.127  1.00  0.00    -0.456 OA
ENDROOT
BRANCH   1  12
ATOM     12  C   UNL     1       9.120  25.490  42.337  1.00  0.00     0.021 A 
ATOM     13  C   UNL     1       8.608  24.193  42.522  1.00  0.00     0.016 A 
ATOM     14  C   UNL     1       7.819  23.894  43.636  1.00  0.00     0.051 A 
ATOM     15  C   UNL     1       7.536  24.881  44.587  1.00  0.00     0.157 A 
ATOM     16  C   UNL     1       8.843  26.475  43.305  1.00  0.00     0.062 A 
ATOM     17  C   UNL     1       8.052  26.173  44.424  1.00  0.00     0.158 A 
BRANCH  15  18
ATOM     18  O   UNL     1       6.748  24.587  45.697  1.00  0.00    -0.504 OA
ATOM     19  H   UNL     1       6.749  25.180  46.519  1.00  0.00     0.293 HD
ENDBRANCH  15  18
BRANCH  17  20
ATOM     20  O   UNL     1       7.778  27.151  45.378  1.00  0.00    -0.504 OA
ATOM     21  H   UNL     1       8.515  27.700  45.803  1.00  0.00     0.293 HD
ENDBRANCH  17  20
ENDBRANCH   1  12
BRANCH   6  22
ATOM     22  O   UNL     1      13.284  27.300  37.478  1.00  0.00    -0.507 OA
ATOM     23  H   UNL     1      13.094  28.289  37.427  1.00  0.00     0.293 HD
ENDBRANCH   6  22
BRANCH   8  24
ATOM     24  O   UNL     1      11.130  23.346  35.808  1.00  0.00    -0.508 OA
ATOM     25  H   UNL     1      11.573  22.436  35.863  1.00  0.00     0.293 HD
ENDBRANCH   8  24
TORSDOF 5
ENDMDL
