MODEL 1
REMARK VINA RESULT:    39.971      0.000      0.000
REMARK INTER + INTRA:          45.769
REMARK INTER:                  45.813
REMARK INTRA:                  -0.044
REMARK UNBOUND:                -0.044
REMARK SMILES CC1(C)CC[C@]23CO[C@@]4(C=C[C@H]5[C@@]6(C)CC[C@@H](O)[C@](C)(CO)[C@H]6CC[C@@]5(C)[C@@]4(C)C[C@H]2O)[C@H]3C1
REMARK SMILES IDX 1 1 2 2 4 3 5 4 6 5 7 6 8 7 9 8 33 9 34 10 10 11 11 12 12 13
REMARK SMILES IDX 13 14 15 15 16 16 17 17 19 18 23 19 24 20 25 21 26 22 28 23
REMARK SMILES IDX 30 24 31 25 29 26 27 27 20 28 14 29 3 30 32 31 21 33 22 34
REMARK SMILES IDX 18 36
REMARK H PARENT 32 32 22 35 18 37
REMARK Flexibility Score: inf
ROOT
ATOM      1  C   UNL     1     -43.540 -71.039 160.675  1.00  0.00     0.011 C 
ATOM      2  C   UNL     1     -42.033 -70.976 161.020  1.00  0.00    -0.035 C 
ATOM      3  C   UNL     1     -41.428 -69.600 160.656  1.00  0.00     0.007 C 
ATOM      4  C   UNL     1     -41.397 -69.347 159.143  1.00  0.00     0.013 C 
ATOM      5  C   UNL     1     -40.773 -70.504 158.297  1.00  0.00     0.026 C 
ATOM      6  C   UNL     1     -39.256 -70.619 158.510  1.00  0.00     0.171 C 
ATOM      7  O   UNL     1     -38.882 -71.963 158.306  1.00  0.00    -0.369 OA
ATOM      8  C   UNL     1     -40.060 -72.715 158.043  1.00  0.00     0.096 C 
ATOM      9  C   UNL     1     -41.202 -71.898 158.733  1.00  0.00     0.037 C 
ATOM     10  C   UNL     1     -41.245 -72.080 160.280  1.00  0.00     0.014 C 
ATOM     11  C   UNL     1     -39.823 -74.064 158.687  1.00  0.00     0.005 C 
ATOM     12  C   UNL     1     -39.668 -75.219 158.031  1.00  0.00    -0.024 C 
ATOM     13  C   UNL     1     -39.950 -75.441 156.549  1.00  0.00     0.024 C 
ATOM     14  C   UNL     1     -40.472 -76.943 156.186  1.00  0.00    -0.022 C 
ATOM     15  C   UNL     1     -40.011 -77.972 157.276  1.00  0.00     0.010 C 
ATOM     16  C   UNL     1     -40.571 -79.388 157.132  1.00  0.00     0.033 C 
ATOM     17  C   UNL     1     -42.101 -79.397 157.179  1.00  0.00     0.123 C 
ATOM     18  C   UNL     1     -42.749 -78.454 156.108  1.00  0.00     0.020 C 
ATOM     19  C   UNL     1     -42.058 -77.003 156.048  1.00  0.00     0.006 C 
ATOM     20  C   UNL     1     -42.678 -75.927 156.969  1.00  0.00     0.005 C 
ATOM     21  C   UNL     1     -42.325 -74.498 156.505  1.00  0.00     0.008 C 
ATOM     22  C   UNL     1     -40.853 -74.270 155.993  1.00  0.00    -0.017 C 
ATOM     23  C   UNL     1     -40.262 -72.825 156.454  1.00  0.00     0.009 C 
ATOM     24  C   UNL     1     -41.195 -71.650 155.967  1.00  0.00     0.043 C 
ATOM     25  C   UNL     1     -41.060 -70.313 156.751  1.00  0.00     0.124 C 
ATOM     26  C   UNL     1     -38.875 -72.582 155.756  1.00  0.00     0.015 C 
ATOM     27  C   UNL     1     -40.868 -74.325 154.424  1.00  0.00     0.013 C 
ATOM     28  C   UNL     1     -44.276 -78.369 156.397  1.00  0.00     0.017 C 
ATOM     29  C   UNL     1     -39.794 -77.354 154.835  1.00  0.00     0.012 C 
ATOM     30  C   UNL     1     -41.883 -71.193 162.541  1.00  0.00     0.011 C 
ENDROOT
BRANCH  25  31
ATOM     31  O   UNL     1     -42.237 -69.569 156.541  1.00  0.00    -0.392 OA
ATOM     32  H   UNL     1     -43.001 -70.198 156.624  1.00  0.00     0.210 HD
ENDBRANCH  25  31
BRANCH  18  33
ATOM     33  C   UNL     1     -42.643 -79.166 154.715  1.00  0.00     0.165 C 
BRANCH  33  34
ATOM     34  O   UNL     1     -43.832 -79.839 154.389  1.00  0.00    -0.396 OA
ATOM     35  H   UNL     1     -43.653 -80.330 153.546  1.00  0.00     0.210 HD
ENDBRANCH  33  34
ENDBRANCH  18  33
BRANCH  17  36
ATOM     36  O   UNL     1     -42.558 -79.156 158.490  1.00  0.00    -0.392 OA
ATOM     37  H   UNL     1     -43.171 -78.382 158.474  1.00  0.00     0.210 HD
ENDBRANCH  17  36
TORSDOF 4
ENDMDL
