MODEL 1
REMARK VINA RESULT:    -5.368      0.000      0.000
REMARK INTER + INTRA:          -8.182
REMARK INTER:                  -7.251
REMARK INTRA:                  -0.931
REMARK UNBOUND:                -0.931
REMARK SMILES CC(=O)CCC=C(C)CCC=C(C)C
REMARK SMILES IDX 7 1 6 2 8 3 9 4 10 5 11 6 13 7 12 8 14 9 5 10 4 11 2 12 3 13
REMARK SMILES IDX 1 14
REMARK H PARENT
REMARK Flexibility Score: inf
ROOT
ATOM      1  C   UNL     1       1.296 -21.282  -6.781  1.00  0.00    -0.077 C 
ATOM      2  C   UNL     1       1.192 -20.569  -5.635  1.00  0.00    -0.028 C 
ATOM      3  C   UNL     1       0.530 -22.566  -6.994  1.00  0.00     0.039 C 
ENDROOT
BRANCH   1   4
ATOM      4  C   UNL     1       2.162 -20.755  -7.905  1.00  0.00     0.034 C 
BRANCH   4   5
ATOM      5  C   UNL     1       3.316 -19.892  -7.377  1.00  0.00     0.032 C 
BRANCH   5   6
ATOM      6  C   UNL     1       4.655 -20.544  -7.637  1.00  0.00    -0.028 C 
ATOM      7  C   UNL     1       6.606 -21.971  -7.198  1.00  0.00     0.039 C 
ATOM      8  C   UNL     1       5.307 -21.343  -6.762  1.00  0.00    -0.080 C 
ATOM      9  C   UNL     1       4.774 -21.624  -5.378  1.00  0.00     0.039 C 
ENDBRANCH   5   6
ENDBRANCH   4   5
ENDBRANCH   1   4
BRANCH   2  10
ATOM     10  C   UNL     1       0.362 -20.977  -4.446  1.00  0.00     0.035 C 
BRANCH  10  11
ATOM     11  C   UNL     1       0.462 -19.936  -3.326  1.00  0.00     0.079 C 
BRANCH  11  12
ATOM     12  C   UNL     1       1.615 -20.246  -2.411  1.00  0.00     0.130 C 
ATOM     13  O   UNL     1       1.482 -21.084  -1.532  1.00  0.00    -0.300 OA
ATOM     14  C   UNL     1       2.931 -19.552  -2.587  1.00  0.00     0.087 C 
ENDBRANCH  11  12
ENDBRANCH  10  11
ENDBRANCH   2  10
TORSDOF 6
ENDMDL
MODEL 2
REMARK VINA RESULT:    -5.009      1.478      3.583
REMARK INTER + INTRA:          -7.698
REMARK INTER:                  -6.703
REMARK INTRA:                  -0.995
REMARK UNBOUND:                -0.931
REMARK SMILES CC(=O)CCC=C(C)CCC=C(C)C
REMARK SMILES IDX 7 1 6 2 8 3 9 4 10 5 11 6 13 7 12 8 14 9 5 10 4 11 2 12 3 13
REMARK SMILES IDX 1 14
REMARK H PARENT
REMARK Flexibility Score: inf
ROOT
ATOM      1  C   UNL     1       4.041 -20.647  -6.189  1.00  0.00    -0.077 C 
ATOM      2  C   UNL     1       3.543 -19.944  -5.145  1.00  0.00    -0.028 C 
ATOM      3  C   UNL     1       5.087 -21.720  -6.003  1.00  0.00     0.039 C 
ENDROOT
BRANCH   1   4
ATOM      4  C   UNL     1       3.500 -20.390  -7.579  1.00  0.00     0.034 C 
BRANCH   4   5
ATOM      5  C   UNL     1       1.965 -20.392  -7.602  1.00  0.00     0.032 C 
BRANCH   5   6
ATOM      6  C   UNL     1       1.415 -21.795  -7.483  1.00  0.00    -0.028 C 
ATOM      7  C   UNL     1       0.122 -23.651  -6.524  1.00  0.00     0.039 C 
ATOM      8  C   UNL     1       0.648 -22.240  -6.463  1.00  0.00    -0.080 C 
ATOM      9  C   UNL     1       0.302 -21.369  -5.279  1.00  0.00     0.039 C 
ENDBRANCH   5   6
ENDBRANCH   4   5
ENDBRANCH   1   4
BRANCH   2  10
ATOM     10  C   UNL     1       3.989 -20.106  -3.715  1.00  0.00     0.035 C 
BRANCH  10  11
ATOM     11  C   UNL     1       2.793 -20.051  -2.760  1.00  0.00     0.079 C 
BRANCH  11  12
ATOM     12  C   UNL     1       2.342 -18.631  -2.552  1.00  0.00     0.130 C 
ATOM     13  O   UNL     1       1.361 -18.213  -3.148  1.00  0.00    -0.300 OA
ATOM     14  C   UNL     1       3.073 -17.734  -1.600  1.00  0.00     0.087 C 
ENDBRANCH  11  12
ENDBRANCH  10  11
ENDBRANCH   2  10
TORSDOF 6
ENDMDL
MODEL 3
REMARK VINA RESULT:    -4.728     11.275     12.849
REMARK INTER + INTRA:          -7.318
REMARK INTER:                  -6.492
REMARK INTRA:                  -0.825
REMARK UNBOUND:                -0.931
REMARK SMILES CC(=O)CCC=C(C)CCC=C(C)C
REMARK SMILES IDX 7 1 6 2 8 3 9 4 10 5 11 6 13 7 12 8 14 9 5 10 4 11 2 12 3 13
REMARK SMILES IDX 1 14
REMARK H PARENT
REMARK Flexibility Score: inf
ROOT
ATOM      1  C   UNL     1      -5.842 -27.581  -2.483  1.00  0.00    -0.077 C 
ATOM      2  C   UNL     1      -6.721 -26.617  -2.845  1.00  0.00    -0.028 C 
ATOM      3  C   UNL     1      -5.371 -27.737  -1.057  1.00  0.00     0.039 C 
ENDROOT
BRANCH   1   4
ATOM      4  C   UNL     1      -5.355 -28.566  -3.524  1.00  0.00     0.034 C 
BRANCH   4   5
ATOM      5  C   UNL     1      -6.455 -29.556  -3.930  1.00  0.00     0.032 C 
BRANCH   5   6
ATOM      6  C   UNL     1      -6.922 -30.375  -2.748  1.00  0.00    -0.028 C 
ATOM      7  C   UNL     1      -8.487 -31.236  -1.061  1.00  0.00     0.039 C 
ATOM      8  C   UNL     1      -8.155 -30.303  -2.197  1.00  0.00    -0.080 C 
ATOM      9  C   UNL     1      -9.199 -29.329  -2.688  1.00  0.00     0.039 C 
ENDBRANCH   5   6
ENDBRANCH   4   5
ENDBRANCH   1   4
BRANCH   2  10
ATOM     10  C   UNL     1      -7.286 -25.580  -1.908  1.00  0.00     0.035 C 
BRANCH  10  11
ATOM     11  C   UNL     1      -7.961 -24.448  -2.690  1.00  0.00     0.079 C 
BRANCH  11  12
ATOM     12  C   UNL     1      -7.962 -23.175  -1.889  1.00  0.00     0.130 C 
ATOM     13  O   UNL     1      -6.975 -22.454  -1.895  1.00  0.00    -0.300 OA
ATOM     14  C   UNL     1      -9.174 -22.772  -1.105  1.00  0.00     0.087 C 
ENDBRANCH  11  12
ENDBRANCH  10  11
ENDBRANCH   2  10
TORSDOF 6
ENDMDL
MODEL 4
REMARK VINA RESULT:    -4.722      2.855      5.596
REMARK INTER + INTRA:          -7.310
REMARK INTER:                  -6.210
REMARK INTRA:                  -1.100
REMARK UNBOUND:                -0.931
REMARK SMILES CC(=O)CCC=C(C)CCC=C(C)C
REMARK SMILES IDX 7 1 6 2 8 3 9 4 10 5 11 6 13 7 12 8 14 9 5 10 4 11 2 12 3 13
REMARK SMILES IDX 1 14
REMARK H PARENT
REMARK Flexibility Score: inf
ROOT
ATOM      1  C   UNL     1       3.753 -20.227  -5.806  1.00  0.00    -0.077 C 
ATOM      2  C   UNL     1       4.460 -21.381  -5.767  1.00  0.00    -0.028 C 
ATOM      3  C   UNL     1       3.947 -19.208  -6.903  1.00  0.00     0.039 C 
ENDROOT
BRANCH   1   4
ATOM      4  C   UNL     1       2.698 -19.971  -4.750  1.00  0.00     0.034 C 
BRANCH   4   5
ATOM      5  C   UNL     1       1.285 -19.967  -5.347  1.00  0.00     0.032 C 
BRANCH   5   6
ATOM      6  C   UNL     1       0.728 -21.369  -5.452  1.00  0.00    -0.028 C 
ATOM      7  C   UNL     1       0.167 -23.513  -6.511  1.00  0.00     0.039 C 
ATOM      8  C   UNL     1       0.695 -22.104  -6.586  1.00  0.00    -0.080 C 
ATOM      9  C   UNL     1       1.174 -21.559  -7.910  1.00  0.00     0.039 C 
ENDBRANCH   5   6
ENDBRANCH   4   5
ENDBRANCH   1   4
BRANCH   2  10
ATOM     10  C   UNL     1       5.530 -21.761  -6.758  1.00  0.00     0.035 C 
BRANCH  10  11
ATOM     11  C   UNL     1       6.911 -21.312  -6.267  1.00  0.00     0.079 C 
BRANCH  11  12
ATOM     12  C   UNL     1       7.514 -20.310  -7.214  1.00  0.00     0.130 C 
ATOM     13  O   UNL     1       7.713 -20.620  -8.379  1.00  0.00    -0.300 OA
ATOM     14  C   UNL     1       7.848 -18.927  -6.743  1.00  0.00     0.087 C 
ENDBRANCH  11  12
ENDBRANCH  10  11
ENDBRANCH   2  10
TORSDOF 6
ENDMDL
MODEL 5
REMARK VINA RESULT:    -4.689      2.234      3.991
REMARK INTER + INTRA:          -7.266
REMARK INTER:                  -6.447
REMARK INTRA:                  -0.819
REMARK UNBOUND:                -0.931
REMARK SMILES CC(=O)CCC=C(C)CCC=C(C)C
REMARK SMILES IDX 7 1 6 2 8 3 9 4 10 5 11 6 13 7 12 8 14 9 5 10 4 11 2 12 3 13
REMARK SMILES IDX 1 14
REMARK H PARENT
REMARK Flexibility Score: inf
ROOT
ATOM      1  C   UNL     1       4.085 -20.997  -6.114  1.00  0.00    -0.077 C 
ATOM      2  C   UNL     1       3.404 -21.258  -7.254  1.00  0.00    -0.028 C 
ATOM      3  C   UNL     1       3.623 -19.950  -5.129  1.00  0.00     0.039 C 
ENDROOT
BRANCH   1   4
ATOM      4  C   UNL     1       5.319 -21.811  -5.787  1.00  0.00     0.034 C 
BRANCH   4   5
ATOM      5  C   UNL     1       6.579 -20.937  -5.727  1.00  0.00     0.032 C 
BRANCH   5   6
ATOM      6  C   UNL     1       6.784 -20.177  -7.017  1.00  0.00    -0.028 C 
ATOM      7  C   UNL     1       7.452 -19.812  -9.353  1.00  0.00     0.039 C 
ATOM      8  C   UNL     1       7.383 -20.678  -8.121  1.00  0.00    -0.080 C 
ATOM      9  C   UNL     1       7.972 -22.067  -8.156  1.00  0.00     0.039 C 
ENDBRANCH   5   6
ENDBRANCH   4   5
ENDBRANCH   1   4
BRANCH   2  10
ATOM     10  C   UNL     1       2.161 -20.527  -7.693  1.00  0.00     0.035 C 
BRANCH  10  11
ATOM     11  C   UNL     1       1.004 -21.505  -7.920  1.00  0.00     0.079 C 
BRANCH  11  12
ATOM     12  C   UNL     1       0.532 -22.085  -6.615  1.00  0.00     0.130 C 
ATOM     13  O   UNL     1       0.400 -21.359  -5.642  1.00  0.00    -0.300 OA
ATOM     14  C   UNL     1       0.199 -23.542  -6.509  1.00  0.00     0.087 C 
ENDBRANCH  11  12
ENDBRANCH  10  11
ENDBRANCH   2  10
TORSDOF 6
ENDMDL
MODEL 6
REMARK VINA RESULT:    -4.658     11.159     12.605
REMARK INTER + INTRA:          -7.223
REMARK INTER:                  -6.298
REMARK INTRA:                  -0.926
REMARK UNBOUND:                -0.931
REMARK SMILES CC(=O)CCC=C(C)CCC=C(C)C
REMARK SMILES IDX 7 1 6 2 8 3 9 4 10 5 11 6 13 7 12 8 14 9 5 10 4 11 2 12 3 13
REMARK SMILES IDX 1 14
REMARK H PARENT
REMARK Flexibility Score: inf
ROOT
ATOM      1  C   UNL     1      -8.185 -26.522  -1.068  1.00  0.00    -0.077 C 
ATOM      2  C   UNL     1      -7.383 -25.537  -1.536  1.00  0.00    -0.028 C 
ATOM      3  C   UNL     1      -9.635 -26.634  -1.477  1.00  0.00     0.039 C 
ENDROOT
BRANCH   1   4
ATOM      4  C   UNL     1      -7.604 -27.575  -0.149  1.00  0.00     0.034 C 
BRANCH   4   5
ATOM      5  C   UNL     1      -6.334 -28.205  -0.736  1.00  0.00     0.032 C 
BRANCH   5   6
ATOM      6  C   UNL     1      -6.666 -29.211  -1.815  1.00  0.00    -0.028 C 
ATOM      7  C   UNL     1      -6.619 -30.247  -4.042  1.00  0.00     0.039 C 
ATOM      8  C   UNL     1      -6.257 -29.127  -3.101  1.00  0.00    -0.080 C 
ATOM      9  C   UNL     1      -5.453 -27.957  -3.614  1.00  0.00     0.039 C 
ENDBRANCH   5   6
ENDBRANCH   4   5
ENDBRANCH   1   4
BRANCH   2  10
ATOM     10  C   UNL     1      -7.834 -24.434  -2.459  1.00  0.00     0.035 C 
BRANCH  10  11
ATOM     11  C   UNL     1      -7.587 -23.060  -1.828  1.00  0.00     0.079 C 
BRANCH  11  12
ATOM     12  C   UNL     1      -8.856 -22.508  -1.239  1.00  0.00     0.130 C 
ATOM     13  O   UNL     1      -9.825 -23.237  -1.096  1.00  0.00    -0.300 OA
ATOM     14  C   UNL     1      -8.931 -21.075  -0.806  1.00  0.00     0.087 C 
ENDBRANCH  11  12
ENDBRANCH  10  11
ENDBRANCH   2  10
TORSDOF 6
ENDMDL
MODEL 7
REMARK VINA RESULT:    -4.642      2.642      4.643
REMARK INTER + INTRA:          -7.202
REMARK INTER:                  -6.605
REMARK INTRA:                  -0.596
REMARK UNBOUND:                -0.931
REMARK SMILES CC(=O)CCC=C(C)CCC=C(C)C
REMARK SMILES IDX 7 1 6 2 8 3 9 4 10 5 11 6 13 7 12 8 14 9 5 10 4 11 2 12 3 13
REMARK SMILES IDX 1 14
REMARK H PARENT
REMARK Flexibility Score: inf
ROOT
ATOM      1  C   UNL     1       1.475 -19.487  -2.907  1.00  0.00    -0.077 C 
ATOM      2  C   UNL     1       2.045 -18.267  -3.046  1.00  0.00    -0.028 C 
ATOM      3  C   UNL     1       1.996 -20.504  -1.920  1.00  0.00     0.039 C 
ENDROOT
BRANCH   1   4
ATOM      4  C   UNL     1       0.246 -19.826  -3.724  1.00  0.00     0.034 C 
BRANCH   4   5
ATOM      5  C   UNL     1       0.469 -21.065  -4.600  1.00  0.00     0.032 C 
BRANCH   5   6
ATOM      6  C   UNL     1       1.230 -20.719  -5.860  1.00  0.00    -0.028 C 
ATOM      7  C   UNL     1       1.984 -20.940  -8.187  1.00  0.00     0.039 C 
ATOM      8  C   UNL     1       1.224 -21.456  -6.993  1.00  0.00    -0.080 C 
ATOM      9  C   UNL     1       0.481 -22.766  -7.095  1.00  0.00     0.039 C 
ENDBRANCH   5   6
ENDBRANCH   4   5
ENDBRANCH   1   4
BRANCH   2  10
ATOM     10  C   UNL     1       3.264 -17.803  -2.291  1.00  0.00     0.035 C 
BRANCH  10  11
ATOM     11  C   UNL     1       2.869 -16.887  -1.127  1.00  0.00     0.079 C 
BRANCH  11  12
ATOM     12  C   UNL     1       2.207 -15.635  -1.634  1.00  0.00     0.130 C 
ATOM     13  O   UNL     1       1.077 -15.355  -1.263  1.00  0.00    -0.300 OA
ATOM     14  C   UNL     1       2.933 -14.719  -2.571  1.00  0.00     0.087 C 
ENDBRANCH  11  12
ENDBRANCH  10  11
ENDBRANCH   2  10
TORSDOF 6
ENDMDL
MODEL 8
REMARK VINA RESULT:    -4.610     11.460     13.697
REMARK INTER + INTRA:          -7.158
REMARK INTER:                  -5.777
REMARK INTRA:                  -1.381
REMARK UNBOUND:                -0.931
REMARK SMILES CC(=O)CCC=C(C)CCC=C(C)C
REMARK SMILES IDX 7 1 6 2 8 3 9 4 10 5 11 6 13 7 12 8 14 9 5 10 4 11 2 12 3 13
REMARK SMILES IDX 1 14
REMARK H PARENT
REMARK Flexibility Score: inf
ROOT
ATOM      1  C   UNL     1      -6.348 -29.513  -2.834  1.00  0.00    -0.077 C 
ATOM      2  C   UNL     1      -6.939 -29.780  -1.645  1.00  0.00    -0.028 C 
ATOM      3  C   UNL     1      -6.864 -30.092  -4.130  1.00  0.00     0.039 C 
ENDROOT
BRANCH   1   4
ATOM      4  C   UNL     1      -5.169 -28.565  -2.877  1.00  0.00     0.034 C 
BRANCH   4   5
ATOM      5  C   UNL     1      -5.529 -27.237  -3.556  1.00  0.00     0.032 C 
BRANCH   5   6
ATOM      6  C   UNL     1      -6.247 -26.309  -2.603  1.00  0.00    -0.028 C 
ATOM      7  C   UNL     1      -8.149 -25.143  -1.573  1.00  0.00     0.039 C 
ATOM      8  C   UNL     1      -7.572 -26.042  -2.637  1.00  0.00    -0.080 C 
ATOM      9  C   UNL     1      -8.482 -26.618  -3.695  1.00  0.00     0.039 C 
ENDBRANCH   5   6
ENDBRANCH   4   5
ENDBRANCH   1   4
BRANCH   2  10
ATOM     10  C   UNL     1      -8.120 -30.698  -1.465  1.00  0.00     0.035 C 
BRANCH  10  11
ATOM     11  C   UNL     1      -9.209 -30.028  -0.620  1.00  0.00     0.079 C 
BRANCH  11  12
ATOM     12  C   UNL     1     -10.100 -29.174  -1.479  1.00  0.00     0.130 C 
ATOM     13  O   UNL     1     -10.376 -29.534  -2.613  1.00  0.00    -0.300 OA
ATOM     14  C   UNL     1     -10.670 -27.895  -0.944  1.00  0.00     0.087 C 
ENDBRANCH  11  12
ENDBRANCH  10  11
ENDBRANCH   2  10
TORSDOF 6
ENDMDL
MODEL 9
REMARK VINA RESULT:    -4.590     11.043     13.190
REMARK INTER + INTRA:          -7.131
REMARK INTER:                  -6.372
REMARK INTRA:                  -0.759
REMARK UNBOUND:                -0.931
REMARK SMILES CC(=O)CCC=C(C)CCC=C(C)C
REMARK SMILES IDX 7 1 6 2 8 3 9 4 10 5 11 6 13 7 12 8 14 9 5 10 4 11 2 12 3 13
REMARK SMILES IDX 1 14
REMARK H PARENT
REMARK Flexibility Score: inf
ROOT
ATOM      1  C   UNL     1      -7.838 -26.300  -2.408  1.00  0.00    -0.077 C 
ATOM      2  C   UNL     1      -6.522 -26.570  -2.248  1.00  0.00    -0.028 C 
ATOM      3  C   UNL     1      -8.547 -26.535  -3.721  1.00  0.00     0.039 C 
ENDROOT
BRANCH   1   4
ATOM      4  C   UNL     1      -8.640 -25.799  -1.226  1.00  0.00     0.034 C 
BRANCH   4   5
ATOM      5  C   UNL     1      -9.710 -24.785  -1.652  1.00  0.00     0.032 C 
BRANCH   5   6
ATOM      6  C   UNL     1      -9.788 -23.627  -0.683  1.00  0.00    -0.028 C 
ATOM      7  C   UNL     1      -9.177 -21.477   0.336  1.00  0.00     0.039 C 
ATOM      8  C   UNL     1      -8.924 -22.588  -0.650  1.00  0.00    -0.080 C 
ATOM      9  C   UNL     1      -7.728 -22.508  -1.568  1.00  0.00     0.039 C 
ENDBRANCH   5   6
ENDBRANCH   4   5
ENDBRANCH   1   4
BRANCH   2  10
ATOM     10  C   UNL     1      -5.614 -27.078  -3.339  1.00  0.00     0.035 C 
BRANCH  10  11
ATOM     11  C   UNL     1      -5.230 -28.541  -3.093  1.00  0.00     0.079 C 
BRANCH  11  12
ATOM     12  C   UNL     1      -6.394 -29.452  -3.372  1.00  0.00     0.130 C 
ATOM     13  O   UNL     1      -6.808 -29.574  -4.515  1.00  0.00    -0.300 OA
ATOM     14  C   UNL     1      -7.034 -30.227  -2.260  1.00  0.00     0.087 C 
ENDBRANCH  11  12
ENDBRANCH  10  11
ENDBRANCH   2  10
TORSDOF 6
ENDMDL
