MODEL 1
REMARK VINA RESULT:    -6.181      0.000      0.000
REMARK INTER + INTRA:          -7.385
REMARK INTER:                  -7.084
REMARK INTRA:                  -0.301
REMARK UNBOUND:                -0.301
REMARK SMILES O=C1C[C@H](c2ccc(O)cc2)Oc2cc(O)cc(O)c21
REMARK SMILES IDX 3 1 4 2 12 3 13 4 14 5 15 6 17 7 18 8 20 9 2 10 1 11 5 12
REMARK SMILES IDX 6 13 11 14 7 15 10 16 8 17 9 18 19 20 16 22
REMARK H PARENT 9 19 19 21 16 23
REMARK Flexibility Score: inf
ROOT
ATOM      1  C   UNL     1      29.103 -92.595  36.712  1.00  0.00     0.131 C 
ATOM      2  C   UNL     1      29.978 -91.975  37.811  1.00  0.00     0.211 C 
ATOM      3  O   UNL     1      31.157 -92.758  38.018  1.00  0.00    -0.484 OA
ATOM      4  C   UNL     1      31.150 -94.158  37.990  1.00  0.00     0.138 A 
ATOM      5  C   UNL     1      32.264 -94.852  38.470  1.00  0.00     0.093 A 
ATOM      6  C   UNL     1      32.279 -96.249  38.469  1.00  0.00     0.123 A 
ATOM      7  C   UNL     1      31.188 -96.954  37.958  1.00  0.00     0.093 A 
ATOM      8  C   UNL     1      30.077 -96.280  37.435  1.00  0.00     0.133 A 
ATOM      9  C   UNL     1      30.037 -94.862  37.478  1.00  0.00     0.102 A 
ATOM     10  C   UNL     1      28.885 -94.048  37.019  1.00  0.00     0.174 C 
ATOM     11  O   UNL     1      27.725 -94.529  36.932  1.00  0.00    -0.294 OA
ENDROOT
BRANCH   2  12
ATOM     12  C   UNL     1      30.352 -90.556  37.459  1.00  0.00    -0.007 A 
ATOM     13  C   UNL     1      31.494 -90.298  36.681  1.00  0.00     0.011 A 
ATOM     14  C   UNL     1      29.599 -89.475  37.951  1.00  0.00     0.011 A 
ATOM     15  C   UNL     1      31.860 -88.983  36.379  1.00  0.00     0.046 A 
ATOM     16  C   UNL     1      29.967 -88.161  37.646  1.00  0.00     0.046 A 
ATOM     17  C   UNL     1      31.099 -87.912  36.858  1.00  0.00     0.115 A 
BRANCH  17  18
ATOM     18  O   UNL     1      31.475 -86.608  36.549  1.00  0.00    -0.508 OA
ATOM     19  H   UNL     1      32.248 -86.413  35.924  1.00  0.00     0.293 HD
ENDBRANCH  17  18
ENDBRANCH   2  12
BRANCH   8  20
ATOM     20  O   UNL     1      29.069 -97.056  36.858  1.00  0.00    -0.507 OA
ATOM     21  H   UNL     1      28.136 -96.718  36.669  1.00  0.00     0.293 HD
ENDBRANCH   8  20
BRANCH   6  22
ATOM     22  O   UNL     1      33.377 -96.947  38.965  1.00  0.00    -0.508 OA
ATOM     23  H   UNL     1      34.158 -97.202  38.370  1.00  0.00     0.293 HD
ENDBRANCH   6  22
TORSDOF 4
ENDMDL
MODEL 2
REMARK VINA RESULT:    -5.375      1.402      2.952
REMARK INTER + INTRA:          -6.461
REMARK INTER:                  -6.160
REMARK INTRA:                  -0.301
REMARK UNBOUND:                -0.301
REMARK SMILES O=C1C[C@H](c2ccc(O)cc2)Oc2cc(O)cc(O)c21
REMARK SMILES IDX 3 1 4 2 12 3 13 4 14 5 15 6 17 7 18 8 20 9 2 10 1 11 5 12
REMARK SMILES IDX 6 13 11 14 7 15 10 16 8 17 9 18 19 20 16 22
REMARK H PARENT 9 19 19 21 16 23
REMARK Flexibility Score: inf
ROOT
ATOM      1  C   UNL     1      31.536 -92.929  37.977  1.00  0.00     0.131 C 
ATOM      2  C   UNL     1      30.788 -92.375  36.755  1.00  0.00     0.211 C 
ATOM      3  O   UNL     1      29.430 -92.829  36.748  1.00  0.00    -0.484 OA
ATOM      4  C   UNL     1      29.065 -94.128  37.125  1.00  0.00     0.138 A 
ATOM      5  C   UNL     1      27.777 -94.582  36.831  1.00  0.00     0.093 A 
ATOM      6  C   UNL     1      27.389 -95.878  37.182  1.00  0.00     0.123 A 
ATOM      7  C   UNL     1      28.284 -96.712  37.855  1.00  0.00     0.093 A 
ATOM      8  C   UNL     1      29.567 -96.264  38.195  1.00  0.00     0.133 A 
ATOM      9  C   UNL     1      29.981 -94.966  37.799  1.00  0.00     0.102 A 
ATOM     10  C   UNL     1      31.337 -94.415  38.043  1.00  0.00     0.174 C 
ATOM     11  O   UNL     1      32.330 -95.161  38.250  1.00  0.00    -0.294 OA
ENDROOT
BRANCH   2  12
ATOM     12  C   UNL     1      30.830 -90.867  36.741  1.00  0.00    -0.007 A 
ATOM     13  C   UNL     1      31.815 -90.193  36.000  1.00  0.00     0.011 A 
ATOM     14  C   UNL     1      29.922 -90.119  37.513  1.00  0.00     0.011 A 
ATOM     15  C   UNL     1      31.875 -88.796  36.011  1.00  0.00     0.046 A 
ATOM     16  C   UNL     1      29.985 -88.723  37.521  1.00  0.00     0.046 A 
ATOM     17  C   UNL     1      30.961 -88.058  36.768  1.00  0.00     0.115 A 
BRANCH  17  18
ATOM     18  O   UNL     1      31.033 -86.667  36.768  1.00  0.00    -0.508 OA
ATOM     19  H   UNL     1      30.326 -86.101  36.314  1.00  0.00     0.293 HD
ENDBRANCH  17  18
ENDBRANCH   2  12
BRANCH   8  20
ATOM     20  O   UNL     1      30.367 -97.125  38.950  1.00  0.00    -0.507 OA
ATOM     21  H   UNL     1      31.139 -97.655  38.571  1.00  0.00     0.293 HD
ENDBRANCH   8  20
BRANCH   6  22
ATOM     22  O   UNL     1      26.114 -96.345  36.872  1.00  0.00    -0.508 OA
ATOM     23  H   UNL     1      25.810 -96.462  35.912  1.00  0.00     0.293 HD
ENDBRANCH   6  22
TORSDOF 4
ENDMDL
MODEL 3
REMARK VINA RESULT:    -5.344     15.612     17.378
REMARK INTER + INTRA:          -6.426
REMARK INTER:                  -6.136
REMARK INTRA:                  -0.289
REMARK UNBOUND:                -0.301
REMARK SMILES O=C1C[C@H](c2ccc(O)cc2)Oc2cc(O)cc(O)c21
REMARK SMILES IDX 3 1 4 2 12 3 13 4 14 5 15 6 17 7 18 8 20 9 2 10 1 11 5 12
REMARK SMILES IDX 6 13 11 14 7 15 10 16 8 17 9 18 19 20 16 22
REMARK H PARENT 9 19 19 21 16 23
REMARK Flexibility Score: inf
ROOT
ATOM      1  C   UNL     1      38.415 -77.465  36.613  1.00  0.00     0.131 C 
ATOM      2  C   UNL     1      39.934 -77.475  36.386  1.00  0.00     0.211 C 
ATOM      3  O   UNL     1      40.508 -78.693  36.870  1.00  0.00    -0.484 OA
ATOM      4  C   UNL     1      40.084 -79.311  38.053  1.00  0.00     0.138 A 
ATOM      5  C   UNL     1      40.865 -80.331  38.603  1.00  0.00     0.093 A 
ATOM      6  C   UNL     1      40.476 -80.955  39.790  1.00  0.00     0.123 A 
ATOM      7  C   UNL     1      39.285 -80.578  40.414  1.00  0.00     0.093 A 
ATOM      8  C   UNL     1      38.466 -79.586  39.861  1.00  0.00     0.133 A 
ATOM      9  C   UNL     1      38.882 -78.916  38.680  1.00  0.00     0.102 A 
ATOM     10  C   UNL     1      38.130 -77.805  38.047  1.00  0.00     0.174 C 
ATOM     11  O   UNL     1      37.303 -77.109  38.693  1.00  0.00    -0.294 OA
ENDROOT
BRANCH   2  12
ATOM     12  C   UNL     1      40.256 -77.294  34.923  1.00  0.00    -0.007 A 
ATOM     13  C   UNL     1      39.255 -77.464  33.951  1.00  0.00     0.011 A 
ATOM     14  C   UNL     1      41.571 -77.011  34.511  1.00  0.00     0.011 A 
ATOM     15  C   UNL     1      39.560 -77.328  32.594  1.00  0.00     0.046 A 
ATOM     16  C   UNL     1      41.871 -76.875  33.153  1.00  0.00     0.046 A 
ATOM     17  C   UNL     1      40.865 -77.032  32.190  1.00  0.00     0.115 A 
BRANCH  17  18
ATOM     18  O   UNL     1      41.153 -76.898  30.834  1.00  0.00    -0.508 OA
ATOM     19  H   UNL     1      41.607 -76.071  30.468  1.00  0.00     0.293 HD
ENDBRANCH  17  18
ENDBRANCH   2  12
BRANCH   8  20
ATOM     20  O   UNL     1      37.247 -79.333  40.495  1.00  0.00    -0.507 OA
ATOM     21  H   UNL     1      36.537 -78.718  40.125  1.00  0.00     0.293 HD
ENDBRANCH   8  20
BRANCH   6  22
ATOM     22  O   UNL     1      41.261 -81.958  40.355  1.00  0.00    -0.508 OA
ATOM     23  H   UNL     1      41.975 -82.438  39.819  1.00  0.00     0.293 HD
ENDBRANCH   6  22
TORSDOF 4
ENDMDL
MODEL 4
REMARK VINA RESULT:    -5.293     15.370     16.991
REMARK INTER + INTRA:          -6.368
REMARK INTER:                  -6.047
REMARK INTRA:                  -0.320
REMARK UNBOUND:                -0.301
REMARK SMILES O=C1C[C@H](c2ccc(O)cc2)Oc2cc(O)cc(O)c21
REMARK SMILES IDX 3 1 4 2 12 3 13 4 14 5 15 6 17 7 18 8 20 9 2 10 1 11 5 12
REMARK SMILES IDX 6 13 11 14 7 15 10 16 8 17 9 18 19 20 16 22
REMARK H PARENT 9 19 19 21 16 23
REMARK Flexibility Score: inf
ROOT
ATOM      1  C   UNL     1      35.513 -77.615  33.618  1.00  0.00     0.131 C 
ATOM      2  C   UNL     1      36.946 -77.088  33.779  1.00  0.00     0.211 C 
ATOM      3  O   UNL     1      37.597 -77.725  34.882  1.00  0.00    -0.484 OA
ATOM      4  C   UNL     1      36.936 -78.016  36.083  1.00  0.00     0.138 A 
ATOM      5  C   UNL     1      37.692 -78.378  37.201  1.00  0.00     0.093 A 
ATOM      6  C   UNL     1      37.062 -78.660  38.417  1.00  0.00     0.123 A 
ATOM      7  C   UNL     1      35.669 -78.606  38.505  1.00  0.00     0.093 A 
ATOM      8  C   UNL     1      34.890 -78.284  37.388  1.00  0.00     0.133 A 
ATOM      9  C   UNL     1      35.528 -77.951  36.164  1.00  0.00     0.102 A 
ATOM     10  C   UNL     1      34.807 -77.528  34.938  1.00  0.00     0.174 C 
ATOM     11  O   UNL     1      33.643 -77.049  34.985  1.00  0.00    -0.294 OA
ENDROOT
BRANCH   2  12
ATOM     12  C   UNL     1      37.740 -77.305  32.514  1.00  0.00    -0.007 A 
ATOM     13  C   UNL     1      37.138 -77.117  31.258  1.00  0.00     0.011 A 
ATOM     14  C   UNL     1      39.073 -77.752  32.574  1.00  0.00     0.011 A 
ATOM     15  C   UNL     1      37.863 -77.347  30.085  1.00  0.00     0.046 A 
ATOM     16  C   UNL     1      39.795 -77.981  31.400  1.00  0.00     0.046 A 
ATOM     17  C   UNL     1      39.191 -77.778  30.151  1.00  0.00     0.115 A 
BRANCH  17  18
ATOM     18  O   UNL     1      39.901 -78.002  28.975  1.00  0.00    -0.508 OA
ATOM     19  H   UNL     1      39.429 -78.191  28.099  1.00  0.00     0.293 HD
ENDBRANCH  17  18
ENDBRANCH   2  12
BRANCH   8  20
ATOM     20  O   UNL     1      33.502 -78.344  37.534  1.00  0.00    -0.507 OA
ATOM     21  H   UNL     1      32.854 -77.776  37.008  1.00  0.00     0.293 HD
ENDBRANCH   8  20
BRANCH   6  22
ATOM     22  O   UNL     1      37.810 -79.001  39.541  1.00  0.00    -0.508 OA
ATOM     23  H   UNL     1      38.712 -79.457  39.460  1.00  0.00     0.293 HD
ENDBRANCH   6  22
TORSDOF 4
ENDMDL
MODEL 5
REMARK VINA RESULT:    -5.291      9.542     11.007
REMARK INTER + INTRA:          -6.366
REMARK INTER:                  -6.065
REMARK INTRA:                  -0.300
REMARK UNBOUND:                -0.301
REMARK SMILES O=C1C[C@H](c2ccc(O)cc2)Oc2cc(O)cc(O)c21
REMARK SMILES IDX 3 1 4 2 12 3 13 4 14 5 15 6 17 7 18 8 20 9 2 10 1 11 5 12
REMARK SMILES IDX 6 13 11 14 7 15 10 16 8 17 9 18 19 20 16 22
REMARK H PARENT 9 19 19 21 16 23
REMARK Flexibility Score: inf
ROOT
ATOM      1  C   UNL     1      38.021 -96.365  30.091  1.00  0.00     0.131 C 
ATOM      2  C   UNL     1      37.609 -95.112  30.877  1.00  0.00     0.211 C 
ATOM      3  O   UNL     1      36.195 -94.908  30.796  1.00  0.00    -0.484 OA
ATOM      4  C   UNL     1      35.465 -95.135  29.622  1.00  0.00     0.138 A 
ATOM      5  C   UNL     1      34.156 -94.656  29.535  1.00  0.00     0.093 A 
ATOM      6  C   UNL     1      33.408 -94.854  28.371  1.00  0.00     0.123 A 
ATOM      7  C   UNL     1      33.963 -95.560  27.302  1.00  0.00     0.093 A 
ATOM      8  C   UNL     1      35.259 -96.083  27.382  1.00  0.00     0.133 A 
ATOM      9  C   UNL     1      36.039 -95.843  28.543  1.00  0.00     0.102 A 
ATOM     10  C   UNL     1      37.445 -96.288  28.708  1.00  0.00     0.174 C 
ATOM     11  O   UNL     1      38.179 -96.551  27.719  1.00  0.00    -0.294 OA
ENDROOT
BRANCH   2  12
ATOM     12  C   UNL     1      38.035 -95.223  32.321  1.00  0.00    -0.007 A 
ATOM     13  C   UNL     1      37.201 -95.857  33.258  1.00  0.00     0.011 A 
ATOM     14  C   UNL     1      39.240 -94.644  32.757  1.00  0.00     0.011 A 
ATOM     15  C   UNL     1      37.579 -95.934  34.601  1.00  0.00     0.046 A 
ATOM     16  C   UNL     1      39.615 -94.723  34.101  1.00  0.00     0.046 A 
ATOM     17  C   UNL     1      38.786 -95.370  35.027  1.00  0.00     0.115 A 
BRANCH  17  18
ATOM     18  O   UNL     1      39.149 -95.455  36.369  1.00  0.00    -0.508 OA
ATOM     19  H   UNL     1      40.020 -95.886  36.655  1.00  0.00     0.293 HD
ENDBRANCH  17  18
ENDBRANCH   2  12
BRANCH   8  20
ATOM     20  O   UNL     1      35.707 -96.856  26.307  1.00  0.00    -0.507 OA
ATOM     21  H   UNL     1      35.193 -96.976  25.446  1.00  0.00     0.293 HD
ENDBRANCH   8  20
BRANCH   6  22
ATOM     22  O   UNL     1      32.110 -94.361  28.269  1.00  0.00    -0.508 OA
ATOM     23  H   UNL     1      31.385 -94.870  27.775  1.00  0.00     0.293 HD
ENDBRANCH   6  22
TORSDOF 4
ENDMDL
MODEL 6
REMARK VINA RESULT:    -5.276      8.164     10.546
REMARK INTER + INTRA:          -6.348
REMARK INTER:                  -6.052
REMARK INTRA:                  -0.296
REMARK UNBOUND:                -0.301
REMARK SMILES O=C1C[C@H](c2ccc(O)cc2)Oc2cc(O)cc(O)c21
REMARK SMILES IDX 3 1 4 2 12 3 13 4 14 5 15 6 17 7 18 8 20 9 2 10 1 11 5 12
REMARK SMILES IDX 6 13 11 14 7 15 10 16 8 17 9 18 19 20 16 22
REMARK H PARENT 9 19 19 21 16 23
REMARK Flexibility Score: inf
ROOT
ATOM      1  C   UNL     1      40.650 -94.812  35.594  1.00  0.00     0.131 C 
ATOM      2  C   UNL     1      39.925 -95.950  34.860  1.00  0.00     0.211 C 
ATOM      3  O   UNL     1      38.587 -96.092  35.345  1.00  0.00    -0.484 OA
ATOM      4  C   UNL     1      38.257 -95.960  36.701  1.00  0.00     0.138 A 
ATOM      5  C   UNL     1      36.997 -96.381  37.135  1.00  0.00     0.093 A 
ATOM      6  C   UNL     1      36.645 -96.275  38.484  1.00  0.00     0.123 A 
ATOM      7  C   UNL     1      37.546 -95.720  39.394  1.00  0.00     0.093 A 
ATOM      8  C   UNL     1      38.798 -95.255  38.974  1.00  0.00     0.133 A 
ATOM      9  C   UNL     1      39.178 -95.404  37.615  1.00  0.00     0.102 A 
ATOM     10  C   UNL     1      40.503 -95.012  37.074  1.00  0.00     0.174 C 
ATOM     11  O   UNL     1      41.515 -94.896  37.815  1.00  0.00    -0.294 OA
ENDROOT
BRANCH   2  12
ATOM     12  C   UNL     1      39.913 -95.702  33.371  1.00  0.00    -0.007 A 
ATOM     13  C   UNL     1      39.026 -94.762  32.818  1.00  0.00     0.011 A 
ATOM     14  C   UNL     1      40.744 -96.446  32.515  1.00  0.00     0.011 A 
ATOM     15  C   UNL     1      38.992 -94.553  31.436  1.00  0.00     0.046 A 
ATOM     16  C   UNL     1      40.707 -96.234  31.134  1.00  0.00     0.046 A 
ATOM     17  C   UNL     1      39.831 -95.285  30.591  1.00  0.00     0.115 A 
BRANCH  17  18
ATOM     18  O   UNL     1      39.786 -95.065  29.217  1.00  0.00    -0.508 OA
ATOM     19  H   UNL     1      40.535 -95.368  28.607  1.00  0.00     0.293 HD
ENDBRANCH  17  18
ENDBRANCH   2  12
BRANCH   8  20
ATOM     20  O   UNL     1      39.603 -94.628  39.929  1.00  0.00    -0.507 OA
ATOM     21  H   UNL     1      39.243 -94.098  40.709  1.00  0.00     0.293 HD
ENDBRANCH   8  20
BRANCH   6  22
ATOM     22  O   UNL     1      35.400 -96.713  38.928  1.00  0.00    -0.508 OA
ATOM     23  H   UNL     1      34.540 -96.402  38.488  1.00  0.00     0.293 HD
ENDBRANCH   6  22
TORSDOF 4
ENDMDL
MODEL 7
REMARK VINA RESULT:    -5.269     15.809     17.441
REMARK INTER + INTRA:          -6.340
REMARK INTER:                  -6.028
REMARK INTRA:                  -0.312
REMARK UNBOUND:                -0.301
REMARK SMILES O=C1C[C@H](c2ccc(O)cc2)Oc2cc(O)cc(O)c21
REMARK SMILES IDX 3 1 4 2 12 3 13 4 14 5 15 6 17 7 18 8 20 9 2 10 1 11 5 12
REMARK SMILES IDX 6 13 11 14 7 15 10 16 8 17 9 18 19 20 16 22
REMARK H PARENT 9 19 19 21 16 23
REMARK Flexibility Score: inf
ROOT
ATOM      1  C   UNL     1      37.063 -77.579  35.206  1.00  0.00     0.131 C 
ATOM      2  C   UNL     1      38.484 -77.006  35.314  1.00  0.00     0.211 C 
ATOM      3  O   UNL     1      39.230 -77.694  36.323  1.00  0.00    -0.484 OA
ATOM      4  C   UNL     1      38.662 -78.098  37.539  1.00  0.00     0.138 A 
ATOM      5  C   UNL     1      39.504 -78.508  38.576  1.00  0.00     0.093 A 
ATOM      6  C   UNL     1      38.967 -78.902  39.805  1.00  0.00     0.123 A 
ATOM      7  C   UNL     1      37.583 -78.912  39.986  1.00  0.00     0.093 A 
ATOM      8  C   UNL     1      36.719 -78.543  38.948  1.00  0.00     0.133 A 
ATOM      9  C   UNL     1      37.261 -78.097  37.714  1.00  0.00     0.102 A 
ATOM     10  C   UNL     1      36.444 -77.616  36.572  1.00  0.00     0.174 C 
ATOM     11  O   UNL     1      35.269 -77.190  36.729  1.00  0.00    -0.294 OA
ENDROOT
BRANCH   2  12
ATOM     12  C   UNL     1      39.199 -77.099  33.988  1.00  0.00    -0.007 A 
ATOM     13  C   UNL     1      38.470 -77.290  32.802  1.00  0.00     0.011 A 
ATOM     14  C   UNL     1      40.604 -77.053  33.928  1.00  0.00     0.011 A 
ATOM     15  C   UNL     1      39.132 -77.408  31.577  1.00  0.00     0.046 A 
ATOM     16  C   UNL     1      41.263 -77.169  32.701  1.00  0.00     0.046 A 
ATOM     17  C   UNL     1      40.528 -77.346  31.522  1.00  0.00     0.115 A 
BRANCH  17  18
ATOM     18  O   UNL     1      41.174 -77.463  30.294  1.00  0.00    -0.508 OA
ATOM     19  H   UNL     1      41.214 -78.346  29.798  1.00  0.00     0.293 HD
ENDBRANCH  17  18
ENDBRANCH   2  12
BRANCH   8  20
ATOM     20  O   UNL     1      35.347 -78.670  39.179  1.00  0.00    -0.507 OA
ATOM     21  H   UNL     1      34.949 -79.232  39.917  1.00  0.00     0.293 HD
ENDBRANCH   8  20
BRANCH   6  22
ATOM     22  O   UNL     1      39.801 -79.292  40.850  1.00  0.00    -0.508 OA
ATOM     23  H   UNL     1      40.373 -80.128  40.790  1.00  0.00     0.293 HD
ENDBRANCH   6  22
TORSDOF 4
ENDMDL
MODEL 8
REMARK VINA RESULT:    -5.229     15.382     16.969
REMARK INTER + INTRA:          -6.294
REMARK INTER:                  -6.000
REMARK INTRA:                  -0.294
REMARK UNBOUND:                -0.301
REMARK SMILES O=C1C[C@H](c2ccc(O)cc2)Oc2cc(O)cc(O)c21
REMARK SMILES IDX 3 1 4 2 12 3 13 4 14 5 15 6 17 7 18 8 20 9 2 10 1 11 5 12
REMARK SMILES IDX 6 13 11 14 7 15 10 16 8 17 9 18 19 20 16 22
REMARK H PARENT 9 19 19 21 16 23
REMARK Flexibility Score: inf
ROOT
ATOM      1  C   UNL     1      35.544 -78.027  38.275  1.00  0.00     0.131 C 
ATOM      2  C   UNL     1      36.932 -78.626  38.004  1.00  0.00     0.211 C 
ATOM      3  O   UNL     1      37.496 -78.071  36.812  1.00  0.00    -0.484 OA
ATOM      4  C   UNL     1      36.732 -77.808  35.667  1.00  0.00     0.138 A 
ATOM      5  C   UNL     1      37.388 -77.532  34.464  1.00  0.00     0.093 A 
ATOM      6  C   UNL     1      36.654 -77.280  33.302  1.00  0.00     0.123 A 
ATOM      7  C   UNL     1      35.259 -77.274  33.351  1.00  0.00     0.093 A 
ATOM      8  C   UNL     1      34.580 -77.508  34.553  1.00  0.00     0.133 A 
ATOM      9  C   UNL     1      35.321 -77.812  35.726  1.00  0.00     0.102 A 
ATOM     10  C   UNL     1      34.708 -78.144  37.035  1.00  0.00     0.174 C 
ATOM     11  O   UNL     1      33.526 -78.571  37.126  1.00  0.00    -0.294 OA
ENDROOT
BRANCH   2  12
ATOM     12  C   UNL     1      37.855 -78.386  39.174  1.00  0.00    -0.007 A 
ATOM     13  C   UNL     1      38.348 -77.096  39.433  1.00  0.00     0.011 A 
ATOM     14  C   UNL     1      38.277 -79.457  39.982  1.00  0.00     0.011 A 
ATOM     15  C   UNL     1      39.228 -76.877  40.497  1.00  0.00     0.046 A 
ATOM     16  C   UNL     1      39.156 -79.234  41.046  1.00  0.00     0.046 A 
ATOM     17  C   UNL     1      39.633 -77.943  41.307  1.00  0.00     0.115 A 
BRANCH  17  18
ATOM     18  O   UNL     1      40.508 -77.710  42.364  1.00  0.00    -0.508 OA
ATOM     19  H   UNL     1      41.369 -78.234  42.465  1.00  0.00     0.293 HD
ENDBRANCH  17  18
ENDBRANCH   2  12
BRANCH   8  20
ATOM     20  O   UNL     1      33.188 -77.392  34.538  1.00  0.00    -0.507 OA
ATOM     21  H   UNL     1      32.587 -77.898  33.904  1.00  0.00     0.293 HD
ENDBRANCH   8  20
BRANCH   6  22
ATOM     22  O   UNL     1      37.301 -77.027  32.095  1.00  0.00    -0.508 OA
ATOM     23  H   UNL     1      38.257 -77.323  31.933  1.00  0.00     0.293 HD
ENDBRANCH   6  22
TORSDOF 4
ENDMDL
MODEL 9
REMARK VINA RESULT:    -5.210      9.097     11.295
REMARK INTER + INTRA:          -6.273
REMARK INTER:                  -5.956
REMARK INTRA:                  -0.317
REMARK UNBOUND:                -0.301
REMARK SMILES O=C1C[C@H](c2ccc(O)cc2)Oc2cc(O)cc(O)c21
REMARK SMILES IDX 3 1 4 2 12 3 13 4 14 5 15 6 17 7 18 8 20 9 2 10 1 11 5 12
REMARK SMILES IDX 6 13 11 14 7 15 10 16 8 17 9 18 19 20 16 22
REMARK H PARENT 9 19 19 21 16 23
REMARK Flexibility Score: inf
ROOT
ATOM      1  C   UNL     1      41.382 -95.814  34.927  1.00  0.00     0.131 C 
ATOM      2  C   UNL     1      40.455 -94.801  35.614  1.00  0.00     0.211 C 
ATOM      3  O   UNL     1      39.133 -94.881  35.072  1.00  0.00    -0.484 OA
ATOM      4  C   UNL     1      38.885 -95.077  33.707  1.00  0.00     0.138 A 
ATOM      5  C   UNL     1      37.594 -94.868  33.216  1.00  0.00     0.093 A 
ATOM      6  C   UNL     1      37.321 -95.042  31.857  1.00  0.00     0.123 A 
ATOM      7  C   UNL     1      38.336 -95.454  30.992  1.00  0.00     0.093 A 
ATOM      8  C   UNL     1      39.628 -95.707  31.469  1.00  0.00     0.133 A 
ATOM      9  C   UNL     1      39.922 -95.487  32.840  1.00  0.00     0.102 A 
ATOM     10  C   UNL     1      41.268 -95.655  33.439  1.00  0.00     0.174 C 
ATOM     11  O   UNL     1      42.316 -95.614  32.742  1.00  0.00    -0.294 OA
ENDROOT
BRANCH   2  12
ATOM     12  C   UNL     1      40.420 -95.034  37.104  1.00  0.00    -0.007 A 
ATOM     13  C   UNL     1      41.517 -95.623  37.755  1.00  0.00     0.011 A 
ATOM     14  C   UNL     1      39.270 -94.718  37.850  1.00  0.00     0.011 A 
ATOM     15  C   UNL     1      41.474 -95.868  39.131  1.00  0.00     0.046 A 
ATOM     16  C   UNL     1      39.230 -94.964  39.225  1.00  0.00     0.046 A 
ATOM     17  C   UNL     1      40.334 -95.538  39.869  1.00  0.00     0.115 A 
BRANCH  17  18
ATOM     18  O   UNL     1      40.306 -95.787  41.239  1.00  0.00    -0.508 OA
ATOM     19  H   UNL     1      40.067 -96.700  41.607  1.00  0.00     0.293 HD
ENDBRANCH  17  18
ENDBRANCH   2  12
BRANCH   8  20
ATOM     20  O   UNL     1      40.562 -96.206  30.558  1.00  0.00    -0.507 OA
ATOM     21  H   UNL     1      40.592 -97.167  30.250  1.00  0.00     0.293 HD
ENDBRANCH   8  20
BRANCH   6  22
ATOM     22  O   UNL     1      36.041 -94.814  31.356  1.00  0.00    -0.508 OA
ATOM     23  H   UNL     1      35.355 -94.278  31.876  1.00  0.00     0.293 HD
ENDBRANCH   6  22
TORSDOF 4
ENDMDL
