MODEL 1
REMARK VINA RESULT:    -3.926      0.000      0.000
REMARK INTER + INTRA:          -6.281
REMARK INTER:                  -5.992
REMARK INTRA:                  -0.289
REMARK UNBOUND:                -0.289
REMARK SMILES O=C([O-])CCCCCCCCC(=O)[O-]
REMARK SMILES IDX 7 1 6 2 5 3 4 4 2 5 1 6 3 7 8 8 9 9 10 10 11 11 12 12 13 13
REMARK SMILES IDX 14 14
REMARK H PARENT
REMARK Flexibility Score: inf
ROOT
ATOM      1  C   UNL     1     149.497 132.881 163.172  1.00  0.00     0.000 C 
ENDROOT
BRANCH   1   2
ATOM      2  C   UNL     1     148.095 132.621 163.751  1.00  0.00     0.000 C 
BRANCH   2   3
ATOM      3  C   UNL     1     147.010 132.283 162.708  1.00  0.00     0.006 C 
BRANCH   3   4
ATOM      4  C   UNL     1     147.190 132.981 161.352  1.00  0.00     0.053 C 
BRANCH   4   5
ATOM      5  C   UNL     1     145.891 133.141 160.626  1.00  0.00     0.041 C 
ATOM      6  O   UNL     1     145.249 134.222 160.705  1.00  0.00    -0.550 OA
ATOM      7  O   UNL     1     145.372 132.084 159.888  1.00  0.00    -0.550 OA
ENDBRANCH   4   5
ENDBRANCH   3   4
ENDBRANCH   2   3
ENDBRANCH   1   2
BRANCH   1   8
ATOM      8  C   UNL     1     150.555 131.902 163.702  1.00  0.00     0.000 C 
BRANCH   8   9
ATOM      9  C   UNL     1     151.160 132.407 165.017  1.00  0.00     0.000 C 
BRANCH   9  10
ATOM     10  C   UNL     1     152.546 133.021 164.786  1.00  0.00     0.006 C 
BRANCH  10  11
ATOM     11  C   UNL     1     153.639 131.951 164.847  1.00  0.00     0.053 C 
BRANCH  11  12
ATOM     12  C   UNL     1     154.516 132.163 166.040  1.00  0.00     0.041 C 
ATOM     13  O   UNL     1     155.765 132.033 165.939  1.00  0.00    -0.550 OA
ATOM     14  O   UNL     1     153.951 132.454 167.275  1.00  0.00    -0.550 OA
ENDBRANCH  11  12
ENDBRANCH  10  11
ENDBRANCH   9  10
ENDBRANCH   8   9
ENDBRANCH   1   8
TORSDOF 9
ENDMDL
MODEL 2
REMARK VINA RESULT:    -3.864      1.036      7.949
REMARK INTER + INTRA:          -6.186
REMARK INTER:                  -5.784
REMARK INTRA:                  -0.401
REMARK UNBOUND:                -0.289
REMARK SMILES O=C([O-])CCCCCCCCC(=O)[O-]
REMARK SMILES IDX 7 1 6 2 5 3 4 4 2 5 1 6 3 7 8 8 9 9 10 10 11 11 12 12 13 13
REMARK SMILES IDX 14 14
REMARK H PARENT
REMARK Flexibility Score: inf
ROOT
ATOM      1  C   UNL     1     150.369 133.928 164.150  1.00  0.00     0.000 C 
ENDROOT
BRANCH   1   2
ATOM      2  C   UNL     1     150.894 133.049 165.298  1.00  0.00     0.000 C 
BRANCH   2   3
ATOM      3  C   UNL     1     151.796 131.875 164.863  1.00  0.00     0.006 C 
BRANCH   3   4
ATOM      4  C   UNL     1     153.112 132.298 164.193  1.00  0.00     0.053 C 
BRANCH   4   5
ATOM      5  C   UNL     1     154.127 132.760 165.192  1.00  0.00     0.041 C 
ATOM      6  O   UNL     1     154.562 133.942 165.154  1.00  0.00    -0.550 OA
ATOM      7  O   UNL     1     154.619 131.875 166.144  1.00  0.00    -0.550 OA
ENDBRANCH   4   5
ENDBRANCH   3   4
ENDBRANCH   2   3
ENDBRANCH   1   2
BRANCH   1   8
ATOM      8  C   UNL     1     149.804 133.110 162.979  1.00  0.00     0.000 C 
BRANCH   8   9
ATOM      9  C   UNL     1     148.406 132.573 163.309  1.00  0.00     0.000 C 
BRANCH   9  10
ATOM     10  C   UNL     1     147.322 133.373 162.578  1.00  0.00     0.006 C 
BRANCH  10  11
ATOM     11  C   UNL     1     147.273 133.004 161.093  1.00  0.00     0.053 C 
BRANCH  11  12
ATOM     12  C   UNL     1     145.897 133.214 160.545  1.00  0.00     0.041 C 
ATOM     13  O   UNL     1     145.203 134.192 160.933  1.00  0.00    -0.550 OA
ATOM     14  O   UNL     1     145.360 132.303 159.645  1.00  0.00    -0.550 OA
ENDBRANCH  11  12
ENDBRANCH  10  11
ENDBRANCH   9  10
ENDBRANCH   8   9
ENDBRANCH   1   8
TORSDOF 9
ENDMDL
MODEL 3
REMARK VINA RESULT:    -3.844      1.315      1.784
REMARK INTER + INTRA:          -6.156
REMARK INTER:                  -5.795
REMARK INTRA:                  -0.361
REMARK UNBOUND:                -0.289
REMARK SMILES O=C([O-])CCCCCCCCC(=O)[O-]
REMARK SMILES IDX 7 1 6 2 5 3 4 4 2 5 1 6 3 7 8 8 9 9 10 10 11 11 12 12 13 13
REMARK SMILES IDX 14 14
REMARK H PARENT
REMARK Flexibility Score: inf
ROOT
ATOM      1  C   UNL     1     150.614 132.726 164.902  1.00  0.00     0.000 C 
ENDROOT
BRANCH   1   2
ATOM      2  C   UNL     1     149.145 133.031 164.557  1.00  0.00     0.000 C 
BRANCH   2   3
ATOM      3  C   UNL     1     148.575 132.230 163.368  1.00  0.00     0.006 C 
BRANCH   3   4
ATOM      4  C   UNL     1     147.048 132.309 163.221  1.00  0.00     0.053 C 
BRANCH   4   5
ATOM      5  C   UNL     1     146.641 132.985 161.949  1.00  0.00     0.041 C 
ATOM      6  O   UNL     1     145.428 133.247 161.730  1.00  0.00    -0.550 OA
ATOM      7  O   UNL     1     147.596 133.296 160.990  1.00  0.00    -0.550 OA
ENDBRANCH   4   5
ENDBRANCH   3   4
ENDBRANCH   2   3
ENDBRANCH   1   2
BRANCH   1   8
ATOM      8  C   UNL     1     151.351 131.980 163.780  1.00  0.00     0.000 C 
BRANCH   8   9
ATOM      9  C   UNL     1     152.850 131.875 164.083  1.00  0.00     0.000 C 
BRANCH   9  10
ATOM     10  C   UNL     1     153.109 131.875 165.594  1.00  0.00     0.006 C 
BRANCH  10  11
ATOM     11  C   UNL     1     154.610 131.887 165.895  1.00  0.00     0.053 C 
BRANCH  11  12
ATOM     12  C   UNL     1     154.918 132.856 166.993  1.00  0.00     0.041 C 
ATOM     13  O   UNL     1     154.776 134.093 166.803  1.00  0.00    -0.550 OA
ATOM     14  O   UNL     1     155.407 132.397 168.208  1.00  0.00    -0.550 OA
ENDBRANCH  11  12
ENDBRANCH  10  11
ENDBRANCH   9  10
ENDBRANCH   8   9
ENDBRANCH   1   8
TORSDOF 9
ENDMDL
MODEL 4
REMARK VINA RESULT:    -3.836      4.187      6.719
REMARK INTER + INTRA:          -6.144
REMARK INTER:                  -5.740
REMARK INTRA:                  -0.405
REMARK UNBOUND:                -0.289
REMARK SMILES O=C([O-])CCCCCCCCC(=O)[O-]
REMARK SMILES IDX 7 1 6 2 5 3 4 4 2 5 1 6 3 7 8 8 9 9 10 10 11 11 12 12 13 13
REMARK SMILES IDX 14 14
REMARK H PARENT
REMARK Flexibility Score: inf
ROOT
ATOM      1  C   UNL     1     155.556 132.423 167.050  1.00  0.00     0.000 C 
ENDROOT
BRANCH   1   2
ATOM      2  C   UNL     1     154.562 131.876 166.010  1.00  0.00     0.000 C 
BRANCH   2   3
ATOM      3  C   UNL     1     154.072 132.906 164.971  1.00  0.00     0.006 C 
BRANCH   3   4
ATOM      4  C   UNL     1     153.045 132.359 163.968  1.00  0.00     0.053 C 
BRANCH   4   5
ATOM      5  C   UNL     1     151.638 132.596 164.421  1.00  0.00     0.041 C 
ATOM      6  O   UNL     1     151.398 133.423 165.341  1.00  0.00    -0.550 OA
ATOM      7  O   UNL     1     150.594 131.877 163.851  1.00  0.00    -0.550 OA
ENDBRANCH   4   5
ENDBRANCH   3   4
ENDBRANCH   2   3
ENDBRANCH   1   2
BRANCH   1   8
ATOM      8  C   UNL     1     157.021 132.282 166.611  1.00  0.00     0.000 C 
BRANCH   8   9
ATOM      9  C   UNL     1     157.960 132.280 167.823  1.00  0.00     0.000 C 
BRANCH   9  10
ATOM     10  C   UNL     1     157.472 133.256 168.900  1.00  0.00     0.006 C 
BRANCH  10  11
ATOM     11  C   UNL     1     157.903 132.796 170.295  1.00  0.00     0.053 C 
BRANCH  11  12
ATOM     12  C   UNL     1     156.710 132.604 171.176  1.00  0.00     0.041 C 
ATOM     13  O   UNL     1     155.553 132.575 170.678  1.00  0.00    -0.550 OA
ATOM     14  O   UNL     1     156.870 132.508 172.552  1.00  0.00    -0.550 OA
ENDBRANCH  11  12
ENDBRANCH  10  11
ENDBRANCH   9  10
ENDBRANCH   8   9
ENDBRANCH   1   8
TORSDOF 9
ENDMDL
MODEL 5
REMARK VINA RESULT:    -3.789      1.976      8.585
REMARK INTER + INTRA:          -6.072
REMARK INTER:                  -5.659
REMARK INTRA:                  -0.414
REMARK UNBOUND:                -0.289
REMARK SMILES O=C([O-])CCCCCCCCC(=O)[O-]
REMARK SMILES IDX 7 1 6 2 5 3 4 4 2 5 1 6 3 7 8 8 9 9 10 10 11 11 12 12 13 13
REMARK SMILES IDX 14 14
REMARK H PARENT
REMARK Flexibility Score: inf
ROOT
ATOM      1  C   UNL     1     153.055 133.760 165.657  1.00  0.00     0.000 C 
ENDROOT
BRANCH   1   2
ATOM      2  C   UNL     1     154.175 133.080 164.850  1.00  0.00     0.000 C 
BRANCH   2   3
ATOM      3  C   UNL     1     155.056 132.101 165.653  1.00  0.00     0.006 C 
BRANCH   3   4
ATOM      4  C   UNL     1     155.254 132.484 167.127  1.00  0.00     0.053 C 
BRANCH   4   5
ATOM      5  C   UNL     1     156.679 132.824 167.433  1.00  0.00     0.041 C 
ATOM      6  O   UNL     1     157.610 132.078 167.028  1.00  0.00    -0.550 OA
ATOM      7  O   UNL     1     156.979 133.947 168.193  1.00  0.00    -0.550 OA
ENDBRANCH   4   5
ENDBRANCH   3   4
ENDBRANCH   2   3
ENDBRANCH   1   2
BRANCH   1   8
ATOM      8  C   UNL     1     151.683 133.101 165.452  1.00  0.00     0.000 C 
BRANCH   8   9
ATOM      9  C   UNL     1     151.632 132.342 164.120  1.00  0.00     0.000 C 
BRANCH   9  10
ATOM     10  C   UNL     1     150.185 132.047 163.710  1.00  0.00     0.006 C 
BRANCH  10  11
ATOM     11  C   UNL     1     149.482 133.315 163.218  1.00  0.00     0.053 C 
BRANCH  11  12
ATOM     12  C   UNL     1     148.161 132.979 162.604  1.00  0.00     0.041 C 
ATOM     13  O   UNL     1     147.854 133.437 161.471  1.00  0.00    -0.550 OA
ATOM     14  O   UNL     1     147.247 132.201 163.302  1.00  0.00    -0.550 OA
ENDBRANCH  11  12
ENDBRANCH  10  11
ENDBRANCH   9  10
ENDBRANCH   8   9
ENDBRANCH   1   8
TORSDOF 9
ENDMDL
MODEL 6
REMARK VINA RESULT:    -3.735      3.770      8.903
REMARK INTER + INTRA:          -5.989
REMARK INTER:                  -5.460
REMARK INTRA:                  -0.529
REMARK UNBOUND:                -0.289
REMARK SMILES O=C([O-])CCCCCCCCC(=O)[O-]
REMARK SMILES IDX 7 1 6 2 5 3 4 4 2 5 1 6 3 7 8 8 9 9 10 10 11 11 12 12 13 13
REMARK SMILES IDX 14 14
REMARK H PARENT
REMARK Flexibility Score: inf
ROOT
ATOM      1  C   UNL     1     155.644 132.246 167.138  1.00  0.00     0.000 C 
ENDROOT
BRANCH   1   2
ATOM      2  C   UNL     1     157.169 132.340 167.314  1.00  0.00     0.000 C 
BRANCH   2   3
ATOM      3  C   UNL     1     157.682 133.691 167.855  1.00  0.00     0.006 C 
BRANCH   3   4
ATOM      4  C   UNL     1     156.609 134.551 168.541  1.00  0.00     0.053 C 
BRANCH   4   5
ATOM      5  C   UNL     1     156.478 135.899 167.904  1.00  0.00     0.041 C 
ATOM      6  O   UNL     1     155.951 136.013 166.765  1.00  0.00    -0.550 OA
ATOM      7  O   UNL     1     156.969 137.025 168.552  1.00  0.00    -0.550 OA
ENDBRANCH   4   5
ENDBRANCH   3   4
ENDBRANCH   2   3
ENDBRANCH   1   2
BRANCH   1   8
ATOM      8  C   UNL     1     155.220 132.069 165.673  1.00  0.00     0.000 C 
BRANCH   8   9
ATOM      9  C   UNL     1     154.194 133.134 165.265  1.00  0.00     0.000 C 
BRANCH   9  10
ATOM     10  C   UNL     1     153.319 132.642 164.106  1.00  0.00     0.006 C 
BRANCH  10  11
ATOM     11  C   UNL     1     152.100 131.875 164.626  1.00  0.00     0.053 C 
BRANCH  11  12
ATOM     12  C   UNL     1     150.856 132.688 164.452  1.00  0.00     0.041 C 
ATOM     13  O   UNL     1     150.773 133.836 164.965  1.00  0.00    -0.550 OA
ATOM     14  O   UNL     1     149.770 132.159 163.768  1.00  0.00    -0.550 OA
ENDBRANCH  11  12
ENDBRANCH  10  11
ENDBRANCH   9  10
ENDBRANCH   8   9
ENDBRANCH   1   8
TORSDOF 9
ENDMDL
MODEL 7
REMARK VINA RESULT:    -3.719      3.098      8.907
REMARK INTER + INTRA:          -5.966
REMARK INTER:                  -5.502
REMARK INTRA:                  -0.463
REMARK UNBOUND:                -0.289
REMARK SMILES O=C([O-])CCCCCCCCC(=O)[O-]
REMARK SMILES IDX 7 1 6 2 5 3 4 4 2 5 1 6 3 7 8 8 9 9 10 10 11 11 12 12 13 13
REMARK SMILES IDX 14 14
REMARK H PARENT
REMARK Flexibility Score: inf
ROOT
ATOM      1  C   UNL     1     154.300 133.235 166.211  1.00  0.00     0.000 C 
ENDROOT
BRANCH   1   2
ATOM      2  C   UNL     1     155.211 132.063 166.616  1.00  0.00     0.000 C 
BRANCH   2   3
ATOM      3  C   UNL     1     156.676 132.183 166.147  1.00  0.00     0.006 C 
BRANCH   3   4
ATOM      4  C   UNL     1     157.711 132.186 167.282  1.00  0.00     0.053 C 
BRANCH   4   5
ATOM      5  C   UNL     1     157.522 133.345 168.210  1.00  0.00     0.041 C 
ATOM      6  O   UNL     1     157.354 134.506 167.748  1.00  0.00    -0.550 OA
ATOM      7  O   UNL     1     157.565 133.151 169.585  1.00  0.00    -0.550 OA
ENDBRANCH   4   5
ENDBRANCH   3   4
ENDBRANCH   2   3
ENDBRANCH   1   2
BRANCH   1   8
ATOM      8  C   UNL     1     152.827 133.002 166.575  1.00  0.00     0.000 C 
BRANCH   8   9
ATOM      9  C   UNL     1     152.223 131.875 165.728  1.00  0.00     0.000 C 
BRANCH   9  10
ATOM     10  C   UNL     1     152.334 132.189 164.232  1.00  0.00     0.006 C 
BRANCH  10  11
ATOM     11  C   UNL     1     151.013 131.909 163.512  1.00  0.00     0.053 C 
BRANCH  11  12
ATOM     12  C   UNL     1     150.233 133.173 163.334  1.00  0.00     0.041 C 
ATOM     13  O   UNL     1     149.162 133.168 162.670  1.00  0.00    -0.550 OA
ATOM     14  O   UNL     1     150.715 134.366 163.856  1.00  0.00    -0.550 OA
ENDBRANCH  11  12
ENDBRANCH  10  11
ENDBRANCH   9  10
ENDBRANCH   8   9
ENDBRANCH   1   8
TORSDOF 9
ENDMDL
MODEL 8
REMARK VINA RESULT:    -3.714      5.733      9.498
REMARK INTER + INTRA:          -5.957
REMARK INTER:                  -5.335
REMARK INTRA:                  -0.621
REMARK UNBOUND:                -0.289
REMARK SMILES O=C([O-])CCCCCCCCC(=O)[O-]
REMARK SMILES IDX 7 1 6 2 5 3 4 4 2 5 1 6 3 7 8 8 9 9 10 10 11 11 12 12 13 13
REMARK SMILES IDX 14 14
REMARK H PARENT
REMARK Flexibility Score: inf
ROOT
ATOM      1  C   UNL     1     156.851 133.574 168.879  1.00  0.00     0.000 C 
ENDROOT
BRANCH   1   2
ATOM      2  C   UNL     1     156.679 135.103 168.858  1.00  0.00     0.000 C 
BRANCH   2   3
ATOM      3  C   UNL     1     156.924 135.770 167.489  1.00  0.00     0.006 C 
BRANCH   3   4
ATOM      4  C   UNL     1     156.123 137.060 167.255  1.00  0.00     0.053 C 
BRANCH   4   5
ATOM      5  C   UNL     1     156.955 138.284 167.478  1.00  0.00     0.041 C 
ATOM      6  O   UNL     1     157.180 139.079 166.527  1.00  0.00    -0.550 OA
ATOM      7  O   UNL     1     157.511 138.530 168.727  1.00  0.00    -0.550 OA
ENDBRANCH   4   5
ENDBRANCH   3   4
ENDBRANCH   2   3
ENDBRANCH   1   2
BRANCH   1   8
ATOM      8  C   UNL     1     157.765 133.059 167.758  1.00  0.00     0.000 C 
BRANCH   8   9
ATOM      9  C   UNL     1     156.990 132.165 166.783  1.00  0.00     0.000 C 
BRANCH   9  10
ATOM     10  C   UNL     1     155.477 132.310 166.987  1.00  0.00     0.006 C 
BRANCH  10  11
ATOM     11  C   UNL     1     154.711 131.893 165.728  1.00  0.00     0.053 C 
BRANCH  11  12
ATOM     12  C   UNL     1     153.993 133.066 165.139  1.00  0.00     0.041 C 
ATOM     13  O   UNL     1     153.028 132.886 164.349  1.00  0.00    -0.550 OA
ATOM     14  O   UNL     1     154.422 134.356 165.420  1.00  0.00    -0.550 OA
ENDBRANCH  11  12
ENDBRANCH  10  11
ENDBRANCH   9  10
ENDBRANCH   8   9
ENDBRANCH   1   8
TORSDOF 9
ENDMDL
MODEL 9
REMARK VINA RESULT:    -3.656      3.970      8.128
REMARK INTER + INTRA:          -5.869
REMARK INTER:                  -5.148
REMARK INTRA:                  -0.721
REMARK UNBOUND:                -0.289
REMARK SMILES O=C([O-])CCCCCCCCC(=O)[O-]
REMARK SMILES IDX 7 1 6 2 5 3 4 4 2 5 1 6 3 7 8 8 9 9 10 10 11 11 12 12 13 13
REMARK SMILES IDX 14 14
REMARK H PARENT
REMARK Flexibility Score: inf
ROOT
ATOM      1  C   UNL     1     153.944 132.905 164.599  1.00  0.00     0.000 C 
ENDROOT
BRANCH   1   2
ATOM      2  C   UNL     1     154.805 132.259 165.698  1.00  0.00     0.000 C 
BRANCH   2   3
ATOM      3  C   UNL     1     154.442 132.673 167.139  1.00  0.00     0.006 C 
BRANCH   3   4
ATOM      4  C   UNL     1     155.614 132.625 168.131  1.00  0.00     0.053 C 
BRANCH   4   5
ATOM      5  C   UNL     1     156.724 133.548 167.733  1.00  0.00     0.041 C 
ATOM      6  O   UNL     1     156.492 134.771 167.539  1.00  0.00    -0.550 OA
ATOM      7  O   UNL     1     158.007 133.052 167.543  1.00  0.00    -0.550 OA
ENDBRANCH   4   5
ENDBRANCH   3   4
ENDBRANCH   2   3
ENDBRANCH   1   2
BRANCH   1   8
ATOM      8  C   UNL     1     153.192 131.875 163.744  1.00  0.00     0.000 C 
BRANCH   8   9
ATOM      9  C   UNL     1     151.686 132.165 163.732  1.00  0.00     0.000 C 
BRANCH   9  10
ATOM     10  C   UNL     1     151.130 132.252 165.159  1.00  0.00     0.006 C 
BRANCH  10  11
ATOM     11  C   UNL     1     150.109 133.386 165.282  1.00  0.00     0.053 C 
BRANCH  11  12
ATOM     12  C   UNL     1     150.795 134.715 165.267  1.00  0.00     0.041 C 
ATOM     13  O   UNL     1     150.624 135.505 164.301  1.00  0.00    -0.550 OA
ATOM     14  O   UNL     1     151.663 135.061 166.294  1.00  0.00    -0.550 OA
ENDBRANCH  11  12
ENDBRANCH  10  11
ENDBRANCH   9  10
ENDBRANCH   8   9
ENDBRANCH   1   8
TORSDOF 9
ENDMDL
