MODEL 1
REMARK VINA RESULT:    -4.712      0.000      0.000
REMARK INTER + INTRA:          -7.165
REMARK INTER:                  -6.916
REMARK INTRA:                  -0.249
REMARK UNBOUND:                -0.249
REMARK SMILES O=C([O-])CCCCCCCC(=O)[O-]
REMARK SMILES IDX 7 1 6 2 5 3 4 4 2 5 1 6 3 7 8 8 9 9 10 10 11 11 12 12 13 13
REMARK H PARENT
REMARK Flexibility Score: inf
ROOT
ATOM      1  C   UNL     1       4.158 -36.287  19.507  1.00  0.00     0.000 C 
ENDROOT
BRANCH   1   2
ATOM      2  C   UNL     1       3.096 -37.398  19.464  1.00  0.00     0.000 C 
BRANCH   2   3
ATOM      3  C   UNL     1       2.304 -37.411  18.145  1.00  0.00     0.006 C 
BRANCH   3   4
ATOM      4  C   UNL     1       3.223 -37.340  16.917  1.00  0.00     0.053 C 
BRANCH   4   5
ATOM      5  C   UNL     1       2.632 -36.500  15.827  1.00  0.00     0.041 C 
ATOM      6  O   UNL     1       1.647 -35.752  16.065  1.00  0.00    -0.550 OA
ATOM      7  O   UNL     1       3.188 -36.521  14.553  1.00  0.00    -0.550 OA
ENDBRANCH   4   5
ENDBRANCH   3   4
ENDBRANCH   2   3
ENDBRANCH   1   2
BRANCH   1   8
ATOM      8  C   UNL     1       5.367 -36.658  20.384  1.00  0.00     0.000 C 
BRANCH   8   9
ATOM      9  C   UNL     1       5.652 -35.609  21.469  1.00  0.00     0.006 C 
BRANCH   9  10
ATOM     10  C   UNL     1       6.124 -36.234  22.788  1.00  0.00     0.053 C 
BRANCH  10  11
ATOM     11  C   UNL     1       5.751 -35.359  23.943  1.00  0.00     0.041 C 
ATOM     12  O   UNL     1       5.378 -35.870  25.032  1.00  0.00    -0.550 OA
ATOM     13  O   UNL     1       5.768 -33.977  23.801  1.00  0.00    -0.550 OA
ENDBRANCH  10  11
ENDBRANCH   9  10
ENDBRANCH   8   9
ENDBRANCH   1   8
TORSDOF 8
ENDMDL
MODEL 2
REMARK VINA RESULT:    -4.699      0.819      7.564
REMARK INTER + INTRA:          -7.145
REMARK INTER:                  -6.956
REMARK INTRA:                  -0.189
REMARK UNBOUND:                -0.249
REMARK SMILES O=C([O-])CCCCCCCC(=O)[O-]
REMARK SMILES IDX 7 1 6 2 5 3 4 4 2 5 1 6 3 7 8 8 9 9 10 10 11 11 12 12 13 13
REMARK H PARENT
REMARK Flexibility Score: inf
ROOT
ATOM      1  C   UNL     1       4.313 -36.273  19.361  1.00  0.00     0.000 C 
ENDROOT
BRANCH   1   2
ATOM      2  C   UNL     1       5.362 -36.666  20.414  1.00  0.00     0.000 C 
BRANCH   2   3
ATOM      3  C   UNL     1       5.529 -35.600  21.511  1.00  0.00     0.006 C 
BRANCH   3   4
ATOM      4  C   UNL     1       6.082 -36.193  22.815  1.00  0.00     0.053 C 
BRANCH   4   5
ATOM      5  C   UNL     1       5.815 -35.303  23.990  1.00  0.00     0.041 C 
ATOM      6  O   UNL     1       5.669 -35.796  25.139  1.00  0.00    -0.550 OA
ATOM      7  O   UNL     1       5.758 -33.925  23.820  1.00  0.00    -0.550 OA
ENDBRANCH   4   5
ENDBRANCH   3   4
ENDBRANCH   2   3
ENDBRANCH   1   2
BRANCH   1   8
ATOM      8  C   UNL     1       3.769 -37.486  18.587  1.00  0.00     0.000 C 
BRANCH   8   9
ATOM      9  C   UNL     1       2.663 -37.103  17.591  1.00  0.00     0.006 C 
BRANCH   9  10
ATOM     10  C   UNL     1       3.166 -36.178  16.475  1.00  0.00     0.053 C 
BRANCH  10  11
ATOM     11  C   UNL     1       3.122 -36.881  15.156  1.00  0.00     0.041 C 
ATOM     12  O   UNL     1       2.389 -36.445  14.228  1.00  0.00    -0.550 OA
ATOM     13  O   UNL     1       3.853 -38.047  14.965  1.00  0.00    -0.550 OA
ENDBRANCH  10  11
ENDBRANCH   9  10
ENDBRANCH   8   9
ENDBRANCH   1   8
TORSDOF 8
ENDMDL
MODEL 3
REMARK VINA RESULT:    -4.493      1.133      1.568
REMARK INTER + INTRA:          -6.843
REMARK INTER:                  -6.573
REMARK INTRA:                  -0.270
REMARK UNBOUND:                -0.249
REMARK SMILES O=C([O-])CCCCCCCC(=O)[O-]
REMARK SMILES IDX 7 1 6 2 5 3 4 4 2 5 1 6 3 7 8 8 9 9 10 10 11 11 12 12 13 13
REMARK H PARENT
REMARK Flexibility Score: inf
ROOT
ATOM      1  C   UNL     1       3.330 -37.407  19.701  1.00  0.00     0.000 C 
ENDROOT
BRANCH   1   2
ATOM      2  C   UNL     1       2.719 -37.514  18.294  1.00  0.00     0.000 C 
BRANCH   2   3
ATOM      3  C   UNL     1       3.235 -36.424  17.339  1.00  0.00     0.006 C 
BRANCH   3   4
ATOM      4  C   UNL     1       2.504 -36.444  15.988  1.00  0.00     0.053 C 
BRANCH   4   5
ATOM      5  C   UNL     1       3.360 -37.015  14.900  1.00  0.00     0.041 C 
ATOM      6  O   UNL     1       3.662 -36.315  13.897  1.00  0.00    -0.550 OA
ATOM      7  O   UNL     1       3.850 -38.311  15.006  1.00  0.00    -0.550 OA
ENDBRANCH   4   5
ENDBRANCH   3   4
ENDBRANCH   2   3
ENDBRANCH   1   2
BRANCH   1   8
ATOM      8  C   UNL     1       4.434 -36.339  19.785  1.00  0.00     0.000 C 
BRANCH   8   9
ATOM      9  C   UNL     1       5.441 -36.620  20.911  1.00  0.00     0.006 C 
BRANCH   9  10
ATOM     10  C   UNL     1       6.089 -35.342  21.460  1.00  0.00     0.053 C 
BRANCH  10  11
ATOM     11  C   UNL     1       6.012 -35.318  22.954  1.00  0.00     0.041 C 
ATOM     12  O   UNL     1       6.125 -36.386  23.612  1.00  0.00    -0.550 OA
ATOM     13  O   UNL     1       5.767 -34.123  23.618  1.00  0.00    -0.550 OA
ENDBRANCH  10  11
ENDBRANCH   9  10
ENDBRANCH   8   9
ENDBRANCH   1   8
TORSDOF 8
ENDMDL
MODEL 4
REMARK VINA RESULT:    -3.340      2.484      3.079
REMARK INTER + INTRA:          -5.152
REMARK INTER:                  -4.848
REMARK INTRA:                  -0.304
REMARK UNBOUND:                -0.249
REMARK SMILES O=C([O-])CCCCCCCC(=O)[O-]
REMARK SMILES IDX 7 1 6 2 5 3 4 4 2 5 1 6 3 7 8 8 9 9 10 10 11 11 12 12 13 13
REMARK H PARENT
REMARK Flexibility Score: inf
ROOT
ATOM      1  C   UNL     1       3.999 -36.601  20.116  1.00  0.00     0.000 C 
ENDROOT
BRANCH   1   2
ATOM      2  C   UNL     1       4.248 -36.161  18.663  1.00  0.00     0.000 C 
BRANCH   2   3
ATOM      3  C   UNL     1       3.371 -36.923  17.655  1.00  0.00     0.006 C 
BRANCH   3   4
ATOM      4  C   UNL     1       3.060 -36.082  16.408  1.00  0.00     0.053 C 
BRANCH   4   5
ATOM      5  C   UNL     1       3.057 -36.913  15.162  1.00  0.00     0.041 C 
ATOM      6  O   UNL     1       3.710 -37.990  15.116  1.00  0.00    -0.550 OA
ATOM      7  O   UNL     1       2.310 -36.514  14.060  1.00  0.00    -0.550 OA
ENDBRANCH   4   5
ENDBRANCH   3   4
ENDBRANCH   2   3
ENDBRANCH   1   2
BRANCH   1   8
ATOM      8  C   UNL     1       5.083 -36.092  21.081  1.00  0.00     0.000 C 
BRANCH   8   9
ATOM      9  C   UNL     1       5.778 -37.232  21.842  1.00  0.00     0.006 C 
BRANCH   9  10
ATOM     10  C   UNL     1       5.662 -38.582  21.121  1.00  0.00     0.053 C 
BRANCH  10  11
ATOM     11  C   UNL     1       5.671 -39.704  22.110  1.00  0.00     0.041 C 
ATOM     12  O   UNL     1       5.311 -39.503  23.301  1.00  0.00    -0.550 OA
ATOM     13  O   UNL     1       6.124 -40.961  21.731  1.00  0.00    -0.550 OA
ENDBRANCH  10  11
ENDBRANCH   9  10
ENDBRANCH   8   9
ENDBRANCH   1   8
TORSDOF 8
ENDMDL
MODEL 5
REMARK VINA RESULT:    -3.242      2.108      2.974
REMARK INTER + INTRA:          -5.007
REMARK INTER:                  -4.556
REMARK INTRA:                  -0.451
REMARK UNBOUND:                -0.249
REMARK SMILES O=C([O-])CCCCCCCC(=O)[O-]
REMARK SMILES IDX 7 1 6 2 5 3 4 4 2 5 1 6 3 7 8 8 9 9 10 10 11 11 12 12 13 13
REMARK H PARENT
REMARK Flexibility Score: inf
ROOT
ATOM      1  C   UNL     1       2.430 -37.853  18.308  1.00  0.00     0.000 C 
ENDROOT
BRANCH   1   2
ATOM      2  C   UNL     1       1.574 -36.941  17.414  1.00  0.00     0.000 C 
BRANCH   2   3
ATOM      3  C   UNL     1       2.423 -36.000  16.541  1.00  0.00     0.006 C 
BRANCH   3   4
ATOM      4  C   UNL     1       3.688 -36.689  16.009  1.00  0.00     0.053 C 
BRANCH   4   5
ATOM      5  C   UNL     1       3.491 -37.226  14.625  1.00  0.00     0.041 C 
ATOM      6  O   UNL     1       2.606 -36.737  13.875  1.00  0.00    -0.550 OA
ATOM      7  O   UNL     1       4.306 -38.248  14.152  1.00  0.00    -0.550 OA
ENDBRANCH   4   5
ENDBRANCH   3   4
ENDBRANCH   2   3
ENDBRANCH   1   2
BRANCH   1   8
ATOM      8  C   UNL     1       2.949 -37.132  19.564  1.00  0.00     0.000 C 
BRANCH   8   9
ATOM      9  C   UNL     1       4.105 -37.884  20.241  1.00  0.00     0.006 C 
BRANCH   9  10
ATOM     10  C   UNL     1       5.468 -37.226  19.989  1.00  0.00     0.053 C 
BRANCH  10  11
ATOM     11  C   UNL     1       5.378 -35.746  20.190  1.00  0.00     0.041 C 
ATOM     12  O   UNL     1       5.674 -34.959  19.252  1.00  0.00    -0.550 OA
ATOM     13  O   UNL     1       5.012 -35.234  21.428  1.00  0.00    -0.550 OA
ENDBRANCH  10  11
ENDBRANCH   9  10
ENDBRANCH   8   9
ENDBRANCH   1   8
TORSDOF 8
ENDMDL
MODEL 6
REMARK VINA RESULT:    -3.224      1.871      6.746
REMARK INTER + INTRA:          -4.981
REMARK INTER:                  -4.679
REMARK INTRA:                  -0.302
REMARK UNBOUND:                -0.249
REMARK SMILES O=C([O-])CCCCCCCC(=O)[O-]
REMARK SMILES IDX 7 1 6 2 5 3 4 4 2 5 1 6 3 7 8 8 9 9 10 10 11 11 12 12 13 13
REMARK H PARENT
REMARK Flexibility Score: inf
ROOT
ATOM      1  C   UNL     1       4.366 -36.038  19.598  1.00  0.00     0.000 C 
ENDROOT
BRANCH   1   2
ATOM      2  C   UNL     1       5.762 -35.474  19.909  1.00  0.00     0.000 C 
BRANCH   2   3
ATOM      3  C   UNL     1       5.919 -35.061  21.383  1.00  0.00     0.006 C 
BRANCH   3   4
ATOM      4  C   UNL     1       6.044 -36.275  22.314  1.00  0.00     0.053 C 
BRANCH   4   5
ATOM      5  C   UNL     1       6.025 -35.875  23.758  1.00  0.00     0.041 C 
ATOM      6  O   UNL     1       5.972 -36.754  24.658  1.00  0.00    -0.550 OA
ATOM      7  O   UNL     1       6.096 -34.533  24.110  1.00  0.00    -0.550 OA
ENDBRANCH   4   5
ENDBRANCH   3   4
ENDBRANCH   2   3
ENDBRANCH   1   2
BRANCH   1   8
ATOM      8  C   UNL     1       4.130 -36.230  18.090  1.00  0.00     0.000 C 
BRANCH   8   9
ATOM      9  C   UNL     1       2.930 -37.144  17.793  1.00  0.00     0.006 C 
BRANCH   9  10
ATOM     10  C   UNL     1       2.365 -37.809  19.055  1.00  0.00     0.053 C 
BRANCH  10  11
ATOM     11  C   UNL     1       0.894 -37.559  19.163  1.00  0.00     0.041 C 
ATOM     12  O   UNL     1       0.149 -37.710  18.158  1.00  0.00    -0.550 OA
ATOM     13  O   UNL     1       0.352 -37.111  20.360  1.00  0.00    -0.550 OA
ENDBRANCH  10  11
ENDBRANCH   9  10
ENDBRANCH   8   9
ENDBRANCH   1   8
TORSDOF 8
ENDMDL
MODEL 7
REMARK VINA RESULT:    -3.043      2.418      6.819
REMARK INTER + INTRA:          -4.715
REMARK INTER:                  -4.347
REMARK INTRA:                  -0.367
REMARK UNBOUND:                -0.249
REMARK SMILES O=C([O-])CCCCCCCC(=O)[O-]
REMARK SMILES IDX 7 1 6 2 5 3 4 4 2 5 1 6 3 7 8 8 9 9 10 10 11 11 12 12 13 13
REMARK H PARENT
REMARK Flexibility Score: inf
ROOT
ATOM      1  C   UNL     1       4.389 -35.616  19.532  1.00  0.00     0.000 C 
ENDROOT
BRANCH   1   2
ATOM      2  C   UNL     1       4.574 -35.564  21.058  1.00  0.00     0.000 C 
BRANCH   2   3
ATOM      3  C   UNL     1       5.934 -36.124  21.510  1.00  0.00     0.006 C 
BRANCH   3   4
ATOM      4  C   UNL     1       5.782 -37.371  22.392  1.00  0.00     0.053 C 
BRANCH   4   5
ATOM      5  C   UNL     1       5.670 -38.622  21.575  1.00  0.00     0.041 C 
ATOM      6  O   UNL     1       5.892 -38.591  20.335  1.00  0.00    -0.550 OA
ATOM      7  O   UNL     1       5.350 -39.827  22.186  1.00  0.00    -0.550 OA
ENDBRANCH   4   5
ENDBRANCH   3   4
ENDBRANCH   2   3
ENDBRANCH   1   2
BRANCH   1   8
ATOM      8  C   UNL     1       3.280 -36.592  19.104  1.00  0.00     0.000 C 
BRANCH   8   9
ATOM      9  C   UNL     1       3.627 -37.351  17.814  1.00  0.00     0.006 C 
BRANCH   9  10
ATOM     10  C   UNL     1       2.501 -37.297  16.773  1.00  0.00     0.053 C 
BRANCH  10  11
ATOM     11  C   UNL     1       3.071 -37.244  15.391  1.00  0.00     0.041 C 
ATOM     12  O   UNL     1       3.867 -38.137  14.998  1.00  0.00    -0.550 OA
ATOM     13  O   UNL     1       2.762 -36.180  14.553  1.00  0.00    -0.550 OA
ENDBRANCH  10  11
ENDBRANCH   9  10
ENDBRANCH   8   9
ENDBRANCH   1   8
TORSDOF 8
ENDMDL
MODEL 8
REMARK VINA RESULT:    -2.854      1.674      2.663
REMARK INTER + INTRA:          -4.438
REMARK INTER:                  -4.214
REMARK INTRA:                  -0.224
REMARK UNBOUND:                -0.249
REMARK SMILES O=C([O-])CCCCCCCC(=O)[O-]
REMARK SMILES IDX 7 1 6 2 5 3 4 4 2 5 1 6 3 7 8 8 9 9 10 10 11 11 12 12 13 13
REMARK H PARENT
REMARK Flexibility Score: inf
ROOT
ATOM      1  C   UNL     1       4.722 -35.329  21.642  1.00  0.00     0.000 C 
ENDROOT
BRANCH   1   2
ATOM      2  C   UNL     1       4.809 -35.586  20.128  1.00  0.00     0.000 C 
BRANCH   2   3
ATOM      3  C   UNL     1       4.045 -36.851  19.697  1.00  0.00     0.006 C 
BRANCH   3   4
ATOM      4  C   UNL     1       3.730 -36.853  18.195  1.00  0.00     0.053 C 
BRANCH   4   5
ATOM      5  C   UNL     1       2.301 -37.215  17.925  1.00  0.00     0.041 C 
ATOM      6  O   UNL     1       1.748 -36.856  16.852  1.00  0.00    -0.550 OA
ATOM      7  O   UNL     1       1.589 -37.974  18.846  1.00  0.00    -0.550 OA
ENDBRANCH   4   5
ENDBRANCH   3   4
ENDBRANCH   2   3
ENDBRANCH   1   2
BRANCH   1   8
ATOM      8  C   UNL     1       6.077 -34.928  22.251  1.00  0.00     0.000 C 
BRANCH   8   9
ATOM      9  C   UNL     1       6.125 -35.139  23.772  1.00  0.00     0.006 C 
BRANCH   9  10
ATOM     10  C   UNL     1       6.110 -36.622  24.165  1.00  0.00     0.053 C 
BRANCH  10  11
ATOM     11  C   UNL     1       5.562 -36.790  25.547  1.00  0.00     0.041 C 
ATOM     12  O   UNL     1       5.936 -36.026  26.475  1.00  0.00    -0.550 OA
ATOM     13  O   UNL     1       4.674 -37.823  25.821  1.00  0.00    -0.550 OA
ENDBRANCH  10  11
ENDBRANCH   9  10
ENDBRANCH   8   9
ENDBRANCH   1   8
TORSDOF 8
ENDMDL
MODEL 9
REMARK VINA RESULT:    -2.712      1.285      6.778
REMARK INTER + INTRA:          -4.230
REMARK INTER:                  -3.911
REMARK INTRA:                  -0.319
REMARK UNBOUND:                -0.249
REMARK SMILES O=C([O-])CCCCCCCC(=O)[O-]
REMARK SMILES IDX 7 1 6 2 5 3 4 4 2 5 1 6 3 7 8 8 9 9 10 10 11 11 12 12 13 13
REMARK H PARENT
REMARK Flexibility Score: inf
ROOT
ATOM      1  C   UNL     1       4.313 -37.819  19.273  1.00  0.00     0.000 C 
ENDROOT
BRANCH   1   2
ATOM      2  C   UNL     1       5.410 -37.563  20.320  1.00  0.00     0.000 C 
BRANCH   2   3
ATOM      3  C   UNL     1       5.669 -36.065  20.553  1.00  0.00     0.006 C 
BRANCH   3   4
ATOM      4  C   UNL     1       6.125 -35.773  21.990  1.00  0.00     0.053 C 
BRANCH   4   5
ATOM      5  C   UNL     1       5.138 -34.919  22.726  1.00  0.00     0.041 C 
ATOM      6  O   UNL     1       5.466 -34.358  23.805  1.00  0.00    -0.550 OA
ATOM      7  O   UNL     1       3.866 -34.718  22.205  1.00  0.00    -0.550 OA
ENDBRANCH   4   5
ENDBRANCH   3   4
ENDBRANCH   2   3
ENDBRANCH   1   2
BRANCH   1   8
ATOM      8  C   UNL     1       3.536 -36.542  18.908  1.00  0.00     0.000 C 
BRANCH   8   9
ATOM      9  C   UNL     1       3.896 -36.011  17.511  1.00  0.00     0.006 C 
BRANCH   9  10
ATOM     10  C   UNL     1       3.465 -36.961  16.387  1.00  0.00     0.053 C 
BRANCH  10  11
ATOM     11  C   UNL     1       2.013 -36.778  16.078  1.00  0.00     0.041 C 
ATOM     12  O   UNL     1       1.138 -37.364  16.768  1.00  0.00    -0.550 OA
ATOM     13  O   UNL     1       1.626 -35.998  14.995  1.00  0.00    -0.550 OA
ENDBRANCH  10  11
ENDBRANCH   9  10
ENDBRANCH   8   9
ENDBRANCH   1   8
TORSDOF 8
ENDMDL
