MODEL 1
REMARK VINA RESULT:    -4.418      0.000      0.000
REMARK INTER + INTRA:          -6.082
REMARK INTER:                  -6.742
REMARK INTRA:                   0.661
REMARK UNBOUND:                 0.661
REMARK SMILES CC1=CCC[C@@H](C)C(=O)C[C@@H](C(C)C)C(=O)C1
REMARK SMILES IDX 8 1 9 2 6 3 7 4 5 5 4 6 3 7 2 8 1 9 10 11 11 12 15 13 16 14
REMARK SMILES IDX 17 15 12 17 13 18 14 19
REMARK H PARENT
REMARK Flexibility Score: 70.00
ROOT
ATOM      1  C   UNL     1      13.749 -32.015 -30.394  1.00  0.00     0.136 C 
ATOM      2  O   UNL     1      14.620 -31.157 -30.385  1.00  0.00    -0.299 OA
ENDROOT
BRANCH   1   3
ATOM      3  C   UNL     1      13.587 -32.854 -31.660  1.00  0.00     0.053 C 
ATOM      4  C   UNL     1      14.742 -32.739 -32.668  1.00  0.00     0.016 C 
BRANCH   3   5
ATOM      5  C   UNL     1      12.214 -32.634 -32.348  1.00  0.00     0.015 C 
BRANCH   5   6
ATOM      6  C   UNL     1      11.351 -33.901 -32.522  1.00  0.00     0.028 C 
BRANCH   6   7
ATOM      7  C   UNL     1      12.073 -35.134 -32.033  1.00  0.00    -0.028 C 
ATOM      8  C   UNL     1      11.838 -35.768 -30.860  1.00  0.00    -0.070 CG0
ATOM      9  C   UNL     1      12.646 -37.004 -30.546  1.00  0.00     0.039 C 
ATOM     10  G   UNL     1      10.792 -35.304 -29.864  1.00  0.00     0.000 G0
ENDBRANCH   6   7
ENDBRANCH   5   6
ENDBRANCH   3   5
ENDBRANCH   1   3
BRANCH   1  11
ATOM     11  C   UNL     1      12.851 -32.117 -29.174  1.00  0.00     0.087 C 
BRANCH  11  12
ATOM     12  C   UNL     1      12.524 -33.587 -28.811  1.00  0.00     0.066 C 
BRANCH  12  13
ATOM     13  C   UNL     1      11.119 -33.951 -29.259  1.00  0.00     0.140 C 
ATOM     14  O   UNL     1      10.201 -33.168 -29.068  1.00  0.00    -0.299 OA
BRANCH  13  15
ATOM     15  C   UNL     1      10.799 -35.300 -29.850  1.00  0.00     0.106 CG0
ATOM     16  G   UNL     1      11.839 -35.762 -30.854  1.00  0.00     0.000 G0
ENDBRANCH  13  15
ENDBRANCH  12  13
BRANCH  12  17
ATOM     17  C   UNL     1      12.732 -33.924 -27.301  1.00  0.00    -0.006 C 
ATOM     18  C   UNL     1      13.793 -33.014 -26.661  1.00  0.00     0.008 C 
ATOM     19  C   UNL     1      11.440 -33.882 -26.464  1.00  0.00     0.008 C 
ENDBRANCH  12  17
ENDBRANCH  11  12
ENDBRANCH   1  11
TORSDOF 1
ENDMDL
MODEL 2
REMARK VINA RESULT:    -4.416      2.071      4.500
REMARK INTER + INTRA:          -6.079
REMARK INTER:                  -6.215
REMARK INTRA:                   0.135
REMARK UNBOUND:                 0.661
REMARK SMILES CC1=CCC[C@@H](C)C(=O)C[C@@H](C(C)C)C(=O)C1
REMARK SMILES IDX 8 1 9 2 6 3 7 4 5 5 4 6 3 7 2 8 1 9 10 11 11 12 15 13 16 14
REMARK SMILES IDX 17 15 12 17 13 18 14 19
REMARK H PARENT
REMARK Flexibility Score: 70.00
ROOT
ATOM      1  C   UNL     1      13.173 -36.182 -30.873  1.00  0.00     0.136 C 
ATOM      2  O   UNL     1      12.440 -37.150 -31.018  1.00  0.00    -0.299 OA
ENDROOT
BRANCH   1   3
ATOM      3  C   UNL     1      13.846 -35.994 -29.516  1.00  0.00     0.053 C 
ATOM      4  C   UNL     1      13.917 -37.258 -28.644  1.00  0.00     0.016 C 
BRANCH   3   5
ATOM      5  C   UNL     1      13.264 -34.794 -28.724  1.00  0.00     0.015 C 
BRANCH   5   6
ATOM      6  C   UNL     1      11.750 -34.869 -28.429  1.00  0.00     0.028 C 
BRANCH   6   7
ATOM      7  C   UNL     1      11.099 -33.510 -28.531  1.00  0.00    -0.028 C 
ATOM      8  C   UNL     1      10.494 -33.009 -29.634  1.00  0.00    -0.070 CG0
ATOM      9  C   UNL     1       9.877 -31.635 -29.544  1.00  0.00     0.039 C 
ATOM     10  G   UNL     1      10.394 -33.774 -30.940  1.00  0.00     0.000 G0
ENDBRANCH   6   7
ENDBRANCH   5   6
ENDBRANCH   3   5
ENDBRANCH   1   3
BRANCH   1  11
ATOM     11  C   UNL     1      13.285 -35.207 -32.032  1.00  0.00     0.087 C 
BRANCH  11  12
ATOM     12  C   UNL     1      12.960 -33.754 -31.605  1.00  0.00     0.066 C 
BRANCH  12  13
ATOM     13  C   UNL     1      11.509 -33.418 -31.907  1.00  0.00     0.140 C 
ATOM     14  O   UNL     1      11.231 -32.780 -32.911  1.00  0.00    -0.299 OA
BRANCH  13  15
ATOM     15  C   UNL     1      10.398 -33.766 -30.949  1.00  0.00     0.106 CG0
ATOM     16  G   UNL     1      10.500 -33.015 -29.634  1.00  0.00     0.000 G0
ENDBRANCH  13  15
ENDBRANCH  12  13
BRANCH  12  17
ATOM     17  C   UNL     1      13.917 -32.687 -32.224  1.00  0.00    -0.006 C 
ATOM     18  C   UNL     1      14.318 -31.623 -31.188  1.00  0.00     0.008 C 
ATOM     19  C   UNL     1      15.180 -33.277 -32.878  1.00  0.00     0.008 C 
ENDBRANCH  12  17
ENDBRANCH  11  12
ENDBRANCH   1  11
TORSDOF 1
ENDMDL
MODEL 3
REMARK VINA RESULT:    -4.213      1.627      4.405
REMARK INTER + INTRA:          -5.769
REMARK INTER:                  -6.106
REMARK INTRA:                   0.338
REMARK UNBOUND:                 0.661
REMARK SMILES CC1=CCC[C@@H](C)C(=O)C[C@@H](C(C)C)C(=O)C1
REMARK SMILES IDX 8 1 9 2 6 3 7 4 5 5 4 6 3 7 2 8 1 9 10 11 11 12 15 13 16 14
REMARK SMILES IDX 17 15 12 17 13 18 14 19
REMARK H PARENT
REMARK Flexibility Score: 70.00
ROOT
ATOM      1  C   UNL     1      11.066 -33.464 -28.803  1.00  0.00     0.136 C 
ATOM      2  O   UNL     1       9.875 -33.299 -28.581  1.00  0.00    -0.299 OA
ENDROOT
BRANCH   1   3
ATOM      3  C   UNL     1      11.879 -34.255 -27.780  1.00  0.00     0.053 C 
ATOM      4  C   UNL     1      11.647 -33.854 -26.314  1.00  0.00     0.016 C 
BRANCH   3   5
ATOM      5  C   UNL     1      13.391 -34.292 -28.122  1.00  0.00     0.015 C 
BRANCH   5   6
ATOM      6  C   UNL     1      13.974 -35.695 -28.395  1.00  0.00     0.028 C 
BRANCH   6   7
ATOM      7  C   UNL     1      13.099 -36.484 -29.340  1.00  0.00    -0.028 C 
ATOM      8  C   UNL     1      13.056 -36.329 -30.684  1.00  0.00    -0.070 CG0
ATOM      9  C   UNL     1      12.131 -37.225 -31.473  1.00  0.00     0.039 C 
ATOM     10  G   UNL     1      13.905 -35.315 -31.427  1.00  0.00     0.000 G0
ENDBRANCH   6   7
ENDBRANCH   5   6
ENDBRANCH   3   5
ENDBRANCH   1   3
BRANCH   1  11
ATOM     11  C   UNL     1      11.651 -32.797 -30.035  1.00  0.00     0.087 C 
BRANCH  11  12
ATOM     12  C   UNL     1      11.751 -33.773 -31.234  1.00  0.00     0.066 C 
BRANCH  12  13
ATOM     13  C   UNL     1      13.202 -33.986 -31.633  1.00  0.00     0.140 C 
ATOM     14  O   UNL     1      13.820 -33.082 -32.175  1.00  0.00    -0.299 OA
BRANCH  13  15
ATOM     15  C   UNL     1      13.882 -35.321 -31.466  1.00  0.00     0.106 CG0
ATOM     16  G   UNL     1      13.056 -36.303 -30.657  1.00  0.00     0.000 G0
ENDBRANCH  13  15
ENDBRANCH  12  13
BRANCH  12  17
ATOM     17  C   UNL     1      10.893 -33.346 -32.467  1.00  0.00    -0.006 C 
ATOM     18  C   UNL     1      10.027 -34.508 -32.980  1.00  0.00     0.008 C 
ATOM     19  C   UNL     1      10.010 -32.109 -32.221  1.00  0.00     0.008 C 
ENDBRANCH  12  17
ENDBRANCH  11  12
ENDBRANCH   1  11
TORSDOF 1
ENDMDL
MODEL 4
REMARK VINA RESULT:    -4.053      1.998      3.513
REMARK INTER + INTRA:          -5.524
REMARK INTER:                  -6.559
REMARK INTRA:                   1.034
REMARK UNBOUND:                 0.661
REMARK SMILES CC1=CCC[C@@H](C)C(=O)C[C@@H](C(C)C)C(=O)C1
REMARK SMILES IDX 8 1 9 2 6 3 7 4 5 5 4 6 3 7 2 8 1 9 10 11 11 12 15 13 16 14
REMARK SMILES IDX 17 15 12 17 13 18 14 19
REMARK H PARENT
REMARK Flexibility Score: 70.00
ROOT
ATOM      1  C   UNL     1      13.110 -36.294 -29.337  1.00  0.00     0.136 C 
ATOM      2  O   UNL     1      13.474 -37.343 -28.825  1.00  0.00    -0.299 OA
ENDROOT
BRANCH   1   3
ATOM      3  C   UNL     1      12.574 -36.345 -30.765  1.00  0.00     0.053 C 
ATOM      4  C   UNL     1      12.474 -37.754 -31.372  1.00  0.00     0.016 C 
BRANCH   3   5
ATOM      5  C   UNL     1      13.322 -35.374 -31.716  1.00  0.00     0.015 C 
BRANCH   5   6
ATOM      6  C   UNL     1      12.694 -33.971 -31.857  1.00  0.00     0.028 C 
BRANCH   6   7
ATOM      7  C   UNL     1      13.409 -32.956 -30.997  1.00  0.00    -0.028 C 
ATOM      8  C   UNL     1      12.862 -32.285 -29.955  1.00  0.00    -0.070 CG0
ATOM      9  C   UNL     1      13.738 -31.321 -29.193  1.00  0.00     0.039 C 
ATOM     10  G   UNL     1      11.423 -32.475 -29.514  1.00  0.00     0.000 G0
ENDBRANCH   6   7
ENDBRANCH   5   6
ENDBRANCH   3   5
ENDBRANCH   1   3
BRANCH   1  11
ATOM     11  C   UNL     1      13.300 -35.018 -28.534  1.00  0.00     0.087 C 
BRANCH  11  12
ATOM     12  C   UNL     1      11.971 -34.510 -27.924  1.00  0.00     0.066 C 
BRANCH  12  13
ATOM     13  C   UNL     1      11.110 -33.848 -28.987  1.00  0.00     0.140 C 
ATOM     14  O   UNL     1      10.200 -34.477 -29.506  1.00  0.00    -0.299 OA
BRANCH  13  15
ATOM     15  C   UNL     1      11.404 -32.460 -29.495  1.00  0.00     0.106 CG0
ATOM     16  G   UNL     1      12.843 -32.293 -29.947  1.00  0.00     0.000 G0
ENDBRANCH  13  15
ENDBRANCH  12  13
BRANCH  12  17
ATOM     17  C   UNL     1      12.163 -33.564 -26.696  1.00  0.00    -0.006 C 
ATOM     18  C   UNL     1      11.259 -33.975 -25.522  1.00  0.00     0.008 C 
ATOM     19  C   UNL     1      13.620 -33.446 -26.214  1.00  0.00     0.008 C 
ENDBRANCH  12  17
ENDBRANCH  11  12
ENDBRANCH   1  11
TORSDOF 1
ENDMDL
MODEL 5
REMARK VINA RESULT:    -3.598      1.561      3.337
REMARK INTER + INTRA:          -4.831
REMARK INTER:                  -5.072
REMARK INTRA:                   0.242
REMARK UNBOUND:                 0.661
REMARK SMILES CC1=CCC[C@@H](C)C(=O)C[C@@H](C(C)C)C(=O)C1
REMARK SMILES IDX 8 1 9 2 6 3 7 4 5 5 4 6 3 7 2 8 1 9 10 11 11 12 15 13 16 14
REMARK SMILES IDX 17 15 12 17 13 18 14 19
REMARK H PARENT
REMARK Flexibility Score: 70.00
ROOT
ATOM      1  C   UNL     1      12.687 -32.826 -28.975  1.00  0.00     0.136 C 
ATOM      2  O   UNL     1      11.610 -32.260 -29.097  1.00  0.00    -0.299 OA
ENDROOT
BRANCH   1   3
ATOM      3  C   UNL     1      13.948 -32.043 -29.331  1.00  0.00     0.053 C 
ATOM      4  C   UNL     1      14.262 -30.858 -28.403  1.00  0.00     0.016 C 
BRANCH   3   5
ATOM      5  C   UNL     1      13.982 -31.615 -30.822  1.00  0.00     0.015 C 
BRANCH   5   6
ATOM      6  C   UNL     1      13.638 -32.726 -31.837  1.00  0.00     0.028 C 
BRANCH   6   7
ATOM      7  C   UNL     1      12.269 -32.519 -32.441  1.00  0.00    -0.028 C 
ATOM      8  C   UNL     1      11.312 -33.470 -32.558  1.00  0.00    -0.070 CG0
ATOM      9  C   UNL     1       9.990 -33.074 -33.170  1.00  0.00     0.039 C 
ATOM     10  G   UNL     1      11.503 -34.898 -32.084  1.00  0.00     0.000 G0
ENDBRANCH   6   7
ENDBRANCH   5   6
ENDBRANCH   3   5
ENDBRANCH   1   3
BRANCH   1  11
ATOM     11  C   UNL     1      12.670 -34.286 -28.557  1.00  0.00     0.087 C 
BRANCH  11  12
ATOM     12  C   UNL     1      12.691 -35.242 -29.776  1.00  0.00     0.066 C 
BRANCH  12  13
ATOM     13  C   UNL     1      11.427 -35.084 -30.604  1.00  0.00     0.140 C 
ATOM     14  O   UNL     1      10.334 -35.172 -30.063  1.00  0.00    -0.299 OA
BRANCH  13  15
ATOM     15  C   UNL     1      11.474 -34.918 -32.101  1.00  0.00     0.106 CG0
ATOM     16  G   UNL     1      11.286 -33.477 -32.537  1.00  0.00     0.000 G0
ENDBRANCH  13  15
ENDBRANCH  12  13
BRANCH  12  17
ATOM     17  C   UNL     1      12.925 -36.738 -29.398  1.00  0.00    -0.006 C 
ATOM     18  C   UNL     1      12.878 -37.647 -30.638  1.00  0.00     0.008 C 
ATOM     19  C   UNL     1      14.227 -36.994 -28.616  1.00  0.00     0.008 C 
ENDBRANCH  12  17
ENDBRANCH  11  12
ENDBRANCH   1  11
TORSDOF 1
ENDMDL
MODEL 6
REMARK VINA RESULT:    -3.577      1.685      2.218
REMARK INTER + INTRA:          -4.798
REMARK INTER:                  -5.483
REMARK INTRA:                   0.685
REMARK UNBOUND:                 0.661
REMARK SMILES CC1=CCC[C@@H](C)C(=O)C[C@@H](C(C)C)C(=O)C1
REMARK SMILES IDX 8 1 9 2 6 3 7 4 5 5 4 6 3 7 2 8 1 9 10 11 11 12 15 13 16 14
REMARK SMILES IDX 17 15 12 17 13 18 14 19
REMARK H PARENT
REMARK Flexibility Score: 70.00
ROOT
ATOM      1  C   UNL     1      12.084 -32.778 -31.600  1.00  0.00     0.136 C 
ATOM      2  O   UNL     1      11.261 -32.921 -32.493  1.00  0.00    -0.299 OA
ENDROOT
BRANCH   1   3
ATOM      3  C   UNL     1      13.562 -32.864 -31.972  1.00  0.00     0.053 C 
ATOM      4  C   UNL     1      13.999 -31.935 -33.116  1.00  0.00     0.016 C 
BRANCH   3   5
ATOM      5  C   UNL     1      14.030 -34.322 -32.219  1.00  0.00     0.015 C 
BRANCH   5   6
ATOM      6  C   UNL     1      13.050 -35.419 -31.752  1.00  0.00     0.028 C 
BRANCH   6   7
ATOM      7  C   UNL     1      13.624 -36.225 -30.611  1.00  0.00    -0.028 C 
ATOM      8  C   UNL     1      13.047 -36.390 -29.397  1.00  0.00    -0.070 CG0
ATOM      9  C   UNL     1      13.760 -37.251 -28.383  1.00  0.00     0.039 C 
ATOM     10  G   UNL     1      11.715 -35.767 -29.024  1.00  0.00     0.000 G0
ENDBRANCH   6   7
ENDBRANCH   5   6
ENDBRANCH   3   5
ENDBRANCH   1   3
BRANCH   1  11
ATOM     11  C   UNL     1      11.562 -32.608 -30.184  1.00  0.00     0.087 C 
BRANCH  11  12
ATOM     12  C   UNL     1      12.506 -33.244 -29.134  1.00  0.00     0.066 C 
BRANCH  12  13
ATOM     13  C   UNL     1      11.815 -34.390 -28.415  1.00  0.00     0.140 C 
ATOM     14  O   UNL     1      11.410 -34.232 -27.273  1.00  0.00    -0.299 OA
BRANCH  13  15
ATOM     15  C   UNL     1      11.697 -35.759 -29.034  1.00  0.00     0.106 CG0
ATOM     16  G   UNL     1      13.044 -36.360 -29.391  1.00  0.00     0.000 G0
ENDBRANCH  13  15
ENDBRANCH  12  13
BRANCH  12  17
ATOM     17  C   UNL     1      13.091 -32.219 -28.112  1.00  0.00    -0.006 C 
ATOM     18  C   UNL     1      13.888 -32.923 -27.001  1.00  0.00     0.008 C 
ATOM     19  C   UNL     1      13.955 -31.116 -28.750  1.00  0.00     0.008 C 
ENDBRANCH  12  17
ENDBRANCH  11  12
ENDBRANCH   1  11
TORSDOF 1
ENDMDL
MODEL 7
REMARK VINA RESULT:    -3.472      1.584      3.840
REMARK INTER + INTRA:          -4.638
REMARK INTER:                  -4.993
REMARK INTRA:                   0.354
REMARK UNBOUND:                 0.661
REMARK SMILES CC1=CCC[C@@H](C)C(=O)C[C@@H](C(C)C)C(=O)C1
REMARK SMILES IDX 8 1 9 2 6 3 7 4 5 5 4 6 3 7 2 8 1 9 10 11 11 12 15 13 16 14
REMARK SMILES IDX 17 15 12 17 13 18 14 19
REMARK H PARENT
REMARK Flexibility Score: 70.00
ROOT
ATOM      1  C   UNL     1      11.719 -32.447 -29.253  1.00  0.00     0.136 C 
ATOM      2  O   UNL     1      11.054 -31.567 -29.782  1.00  0.00    -0.299 OA
ENDROOT
BRANCH   1   3
ATOM      3  C   UNL     1      11.033 -33.334 -28.217  1.00  0.00     0.053 C 
ATOM      4  C   UNL     1      11.967 -33.927 -27.149  1.00  0.00     0.016 C 
BRANCH   3   5
ATOM      5  C   UNL     1      10.151 -34.432 -28.866  1.00  0.00     0.015 C 
BRANCH   5   6
ATOM      6  C   UNL     1      10.231 -34.523 -30.405  1.00  0.00     0.028 C 
BRANCH   6   7
ATOM      7  C   UNL     1      10.765 -35.863 -30.853  1.00  0.00    -0.028 C 
ATOM      8  C   UNL     1      12.066 -36.238 -30.827  1.00  0.00    -0.070 CG0
ATOM      9  C   UNL     1      12.412 -37.630 -31.296  1.00  0.00     0.039 C 
ATOM     10  G   UNL     1      13.177 -35.333 -30.330  1.00  0.00     0.000 G0
ENDBRANCH   6   7
ENDBRANCH   5   6
ENDBRANCH   3   5
ENDBRANCH   1   3
BRANCH   1  11
ATOM     11  C   UNL     1      13.192 -32.527 -29.614  1.00  0.00     0.087 C 
BRANCH  11  12
ATOM     12  C   UNL     1      13.409 -32.822 -31.119  1.00  0.00     0.066 C 
BRANCH  12  13
ATOM     13  C   UNL     1      13.621 -34.310 -31.349  1.00  0.00     0.140 C 
ATOM     14  O   UNL     1      14.072 -34.699 -32.416  1.00  0.00    -0.299 OA
BRANCH  13  15
ATOM     15  C   UNL     1      13.200 -35.338 -30.330  1.00  0.00     0.106 CG0
ATOM     16  G   UNL     1      12.075 -36.227 -30.825  1.00  0.00     0.000 G0
ENDBRANCH  13  15
ENDBRANCH  12  13
BRANCH  12  17
ATOM     17  C   UNL     1      14.562 -31.991 -31.764  1.00  0.00    -0.006 C 
ATOM     18  C   UNL     1      14.170 -31.472 -33.158  1.00  0.00     0.008 C 
ATOM     19  C   UNL     1      15.057 -30.820 -30.895  1.00  0.00     0.008 C 
ENDBRANCH  12  17
ENDBRANCH  11  12
ENDBRANCH   1  11
TORSDOF 1
ENDMDL
MODEL 8
REMARK VINA RESULT:    -3.459      1.649      3.618
REMARK INTER + INTRA:          -4.618
REMARK INTER:                  -5.297
REMARK INTRA:                   0.679
REMARK UNBOUND:                 0.661
REMARK SMILES CC1=CCC[C@@H](C)C(=O)C[C@@H](C(C)C)C(=O)C1
REMARK SMILES IDX 8 1 9 2 6 3 7 4 5 5 4 6 3 7 2 8 1 9 10 11 11 12 15 13 16 14
REMARK SMILES IDX 17 15 12 17 13 18 14 19
REMARK H PARENT
REMARK Flexibility Score: 70.00
ROOT
ATOM      1  C   UNL     1      13.251 -32.891 -31.903  1.00  0.00     0.136 C 
ATOM      2  O   UNL     1      12.426 -32.826 -32.803  1.00  0.00    -0.299 OA
ENDROOT
BRANCH   1   3
ATOM      3  C   UNL     1      14.190 -31.703 -31.709  1.00  0.00     0.053 C 
ATOM      4  C   UNL     1      15.357 -31.627 -32.707  1.00  0.00     0.016 C 
BRANCH   3   5
ATOM      5  C   UNL     1      14.689 -31.572 -30.247  1.00  0.00     0.015 C 
BRANCH   5   6
ATOM      6  C   UNL     1      13.633 -31.095 -29.227  1.00  0.00     0.028 C 
BRANCH   6   7
ATOM      7  C   UNL     1      13.268 -32.191 -28.254  1.00  0.00    -0.028 C 
ATOM      8  C   UNL     1      12.207 -33.024 -28.372  1.00  0.00    -0.070 CG0
ATOM      9  C   UNL     1      12.011 -34.078 -27.310  1.00  0.00     0.039 C 
ATOM     10  G   UNL     1      11.227 -32.955 -29.528  1.00  0.00     0.000 G0
ENDBRANCH   6   7
ENDBRANCH   5   6
ENDBRANCH   3   5
ENDBRANCH   1   3
BRANCH   1  11
ATOM     11  C   UNL     1      13.324 -34.184 -31.109  1.00  0.00     0.087 C 
BRANCH  11  12
ATOM     12  C   UNL     1      11.982 -34.955 -31.125  1.00  0.00     0.066 C 
BRANCH  12  13
ATOM     13  C   UNL     1      10.978 -34.305 -30.187  1.00  0.00     0.140 C 
ATOM     14  O   UNL     1       9.896 -34.839 -29.994  1.00  0.00    -0.299 OA
BRANCH  13  15
ATOM     15  C   UNL     1      11.238 -32.962 -29.554  1.00  0.00     0.106 CG0
ATOM     16  G   UNL     1      12.202 -33.041 -28.385  1.00  0.00     0.000 G0
ENDBRANCH  13  15
ENDBRANCH  12  13
BRANCH  12  17
ATOM     17  C   UNL     1      12.127 -36.478 -30.815  1.00  0.00    -0.006 C 
ATOM     18  C   UNL     1      12.526 -37.273 -32.069  1.00  0.00     0.008 C 
ATOM     19  C   UNL     1      13.101 -36.797 -29.665  1.00  0.00     0.008 C 
ENDBRANCH  12  17
ENDBRANCH  11  12
ENDBRANCH   1  11
TORSDOF 1
ENDMDL
MODEL 9
REMARK VINA RESULT:    -3.190      1.932      4.107
REMARK INTER + INTRA:          -4.208
REMARK INTER:                  -5.445
REMARK INTRA:                   1.237
REMARK UNBOUND:                 0.661
REMARK SMILES CC1=CCC[C@@H](C)C(=O)C[C@@H](C(C)C)C(=O)C1
REMARK SMILES IDX 8 1 9 2 6 3 7 4 5 5 4 6 3 7 2 8 1 9 10 11 11 12 15 13 16 14
REMARK SMILES IDX 17 15 12 17 13 18 14 19
REMARK H PARENT
REMARK Flexibility Score: 70.00
ROOT
ATOM      1  C   UNL     1      12.040 -34.296 -27.698  1.00  0.00     0.136 C 
ATOM      2  O   UNL     1      11.202 -34.127 -26.824  1.00  0.00    -0.299 OA
ENDROOT
BRANCH   1   3
ATOM      3  C   UNL     1      13.228 -33.338 -27.743  1.00  0.00     0.053 C 
ATOM      4  C   UNL     1      13.974 -33.164 -26.410  1.00  0.00     0.016 C 
BRANCH   3   5
ATOM      5  C   UNL     1      12.862 -31.966 -28.367  1.00  0.00     0.015 C 
BRANCH   5   6
ATOM      6  C   UNL     1      12.423 -32.008 -29.846  1.00  0.00     0.028 C 
BRANCH   6   7
ATOM      7  C   UNL     1      13.599 -32.236 -30.766  1.00  0.00    -0.028 C 
ATOM      8  C   UNL     1      13.605 -33.056 -31.844  1.00  0.00    -0.070 CG0
ATOM      9  C   UNL     1      14.870 -33.142 -32.663  1.00  0.00     0.039 C 
ATOM     10  G   UNL     1      12.397 -33.869 -32.271  1.00  0.00     0.000 G0
ENDBRANCH   6   7
ENDBRANCH   5   6
ENDBRANCH   3   5
ENDBRANCH   1   3
BRANCH   1  11
ATOM     11  C   UNL     1      11.785 -35.397 -28.713  1.00  0.00     0.087 C 
BRANCH  11  12
ATOM     12  C   UNL     1      12.628 -35.212 -29.999  1.00  0.00     0.066 C 
BRANCH  12  13
ATOM     13  C   UNL     1      11.777 -34.646 -31.123  1.00  0.00     0.140 C 
ATOM     14  O   UNL     1      10.578 -34.881 -31.152  1.00  0.00    -0.299 OA
BRANCH  13  15
ATOM     15  C   UNL     1      12.384 -33.874 -32.266  1.00  0.00     0.106 CG0
ATOM     16  G   UNL     1      13.593 -33.059 -31.847  1.00  0.00     0.000 G0
ENDBRANCH  13  15
ENDBRANCH  12  13
BRANCH  12  17
ATOM     17  C   UNL     1      13.366 -36.509 -30.460  1.00  0.00    -0.006 C 
ATOM     18  C   UNL     1      13.958 -37.275 -29.265  1.00  0.00     0.008 C 
ATOM     19  C   UNL     1      12.500 -37.458 -31.308  1.00  0.00     0.008 C 
ENDBRANCH  12  17
ENDBRANCH  11  12
ENDBRANCH   1  11
TORSDOF 1
ENDMDL
