MODEL 1
REMARK VINA RESULT:    -4.046      0.000      0.000
REMARK INTER + INTRA:          -5.636
REMARK INTER:                  -5.229
REMARK INTRA:                  -0.408
REMARK UNBOUND:                -0.408
REMARK SMILES CCO[C@@H]1O[C@H](CO)[C@@H](O)[C@H](O)[C@H]1O
REMARK SMILES IDX 4 1 13 2 11 3 9 4 6 5 5 6 3 7 2 8 1 9 14 10 12 12 7 14 8 15
REMARK SMILES IDX 10 17
REMARK H PARENT 14 11 12 13 8 16 10 18
REMARK Flexibility Score: inf
ROOT
ATOM      1  C   UNL     1      21.242  26.421  30.756  1.00  0.00     0.281 C 
ATOM      2  C   UNL     1      21.543  26.884  32.195  1.00  0.00     0.202 C 
ATOM      3  C   UNL     1      21.198  25.766  33.196  1.00  0.00     0.179 C 
ATOM      4  C   UNL     1      19.768  25.251  32.940  1.00  0.00     0.177 C 
ATOM      5  C   UNL     1      19.591  24.921  31.439  1.00  0.00     0.178 C 
ATOM      6  O   UNL     1      19.874  26.065  30.650  1.00  0.00    -0.341 OA
ENDROOT
BRANCH   1   7
ATOM      7  O   UNL     1      21.519  27.493  29.875  1.00  0.00    -0.350 OA
BRANCH   7   8
ATOM      8  C   UNL     1      20.539  28.512  29.977  1.00  0.00     0.160 C 
ATOM      9  C   UNL     1      21.220  29.872  30.039  1.00  0.00     0.035 C 
ENDBRANCH   7   8
ENDBRANCH   1   7
BRANCH   2  10
ATOM     10  O   UNL     1      22.886  27.280  32.329  1.00  0.00    -0.385 OA
ATOM     11  H   UNL     1      23.445  26.459  32.324  1.00  0.00     0.211 HD
ENDBRANCH   2  10
BRANCH   3  12
ATOM     12  O   UNL     1      21.304  26.271  34.503  1.00  0.00    -0.387 OA
ATOM     13  H   UNL     1      20.509  26.845  34.657  1.00  0.00     0.211 HD
ENDBRANCH   3  12
BRANCH   5  14
ATOM     14  C   UNL     1      18.152  24.472  31.146  1.00  0.00     0.191 C 
BRANCH  14  15
ATOM     15  O   UNL     1      17.903  23.220  31.726  1.00  0.00    -0.394 OA
ATOM     16  H   UNL     1      18.587  22.596  31.368  1.00  0.00     0.210 HD
ENDBRANCH  14  15
ENDBRANCH   5  14
BRANCH   4  17
ATOM     17  O   UNL     1      19.538  24.096  33.706  1.00  0.00    -0.387 OA
ATOM     18  H   UNL     1      19.296  24.399  34.621  1.00  0.00     0.211 HD
ENDBRANCH   4  17
TORSDOF 7
ENDMDL
MODEL 2
REMARK VINA RESULT:    -4.042      2.144      3.680
REMARK INTER + INTRA:          -5.631
REMARK INTER:                  -5.295
REMARK INTRA:                  -0.337
REMARK UNBOUND:                -0.408
REMARK SMILES CCO[C@@H]1O[C@H](CO)[C@@H](O)[C@H](O)[C@H]1O
REMARK SMILES IDX 4 1 13 2 11 3 9 4 6 5 5 6 3 7 2 8 1 9 14 10 12 12 7 14 8 15
REMARK SMILES IDX 10 17
REMARK H PARENT 14 11 12 13 8 16 10 18
REMARK Flexibility Score: inf
ROOT
ATOM      1  C   UNL     1      21.995  27.150  31.442  1.00  0.00     0.281 C 
ATOM      2  C   UNL     1      20.543  26.655  31.304  1.00  0.00     0.202 C 
ATOM      3  C   UNL     1      19.674  27.235  32.435  1.00  0.00     0.179 C 
ATOM      4  C   UNL     1      20.344  26.981  33.799  1.00  0.00     0.177 C 
ATOM      5  C   UNL     1      21.821  27.438  33.751  1.00  0.00     0.178 C 
ATOM      6  O   UNL     1      22.508  26.766  32.708  1.00  0.00    -0.341 OA
ENDROOT
BRANCH   1   7
ATOM      7  O   UNL     1      22.770  26.551  30.420  1.00  0.00    -0.350 OA
BRANCH   7   8
ATOM      8  C   UNL     1      24.020  27.203  30.270  1.00  0.00     0.160 C 
ATOM      9  C   UNL     1      23.818  28.711  30.322  1.00  0.00     0.035 C 
ENDBRANCH   7   8
ENDBRANCH   1   7
BRANCH   2  10
ATOM     10  O   UNL     1      20.013  26.988  30.044  1.00  0.00    -0.385 OA
ATOM     11  H   UNL     1      19.378  27.741  30.173  1.00  0.00     0.211 HD
ENDBRANCH   2  10
BRANCH   3  12
ATOM     12  O   UNL     1      18.407  26.630  32.398  1.00  0.00    -0.387 OA
ATOM     13  H   UNL     1      18.221  26.406  31.449  1.00  0.00     0.211 HD
ENDBRANCH   3  12
BRANCH   5  14
ATOM     14  C   UNL     1      22.531  27.130  35.077  1.00  0.00     0.191 C 
BRANCH  14  15
ATOM     15  O   UNL     1      21.721  26.323  35.889  1.00  0.00    -0.394 OA
ATOM     16  H   UNL     1      22.193  25.457  35.996  1.00  0.00     0.210 HD
ENDBRANCH  14  15
ENDBRANCH   5  14
BRANCH   4  17
ATOM     17  O   UNL     1      19.663  27.693  34.801  1.00  0.00    -0.387 OA
ATOM     18  H   UNL     1      19.678  27.130  35.618  1.00  0.00     0.211 HD
ENDBRANCH   4  17
TORSDOF 7
ENDMDL
MODEL 3
REMARK VINA RESULT:    -3.981      1.428      4.297
REMARK INTER + INTRA:          -5.552
REMARK INTER:                  -5.196
REMARK INTRA:                  -0.355
REMARK UNBOUND:                -0.408
REMARK SMILES CCO[C@@H]1O[C@H](CO)[C@@H](O)[C@H](O)[C@H]1O
REMARK SMILES IDX 4 1 13 2 11 3 9 4 6 5 5 6 3 7 2 8 1 9 14 10 12 12 7 14 8 15
REMARK SMILES IDX 10 17
REMARK H PARENT 14 11 12 13 8 16 10 18
REMARK Flexibility Score: inf
ROOT
ATOM      1  C   UNL     1      20.000  25.184  31.414  1.00  0.00     0.281 C 
ATOM      2  C   UNL     1      20.432  24.884  32.862  1.00  0.00     0.202 C 
ATOM      3  C   UNL     1      21.048  26.140  33.504  1.00  0.00     0.179 C 
ATOM      4  C   UNL     1      22.139  26.722  32.583  1.00  0.00     0.177 C 
ATOM      5  C   UNL     1      21.587  26.873  31.147  1.00  0.00     0.178 C 
ATOM      6  O   UNL     1      21.123  25.623  30.666  1.00  0.00    -0.341 OA
ENDROOT
BRANCH   1   7
ATOM      7  O   UNL     1      19.492  23.992  30.844  1.00  0.00    -0.350 OA
BRANCH   7   8
ATOM      8  C   UNL     1      18.375  24.254  30.012  1.00  0.00     0.160 C 
ATOM      9  C   UNL     1      17.463  23.035  29.984  1.00  0.00     0.035 C 
ENDBRANCH   7   8
ENDBRANCH   1   7
BRANCH   2  10
ATOM     10  O   UNL     1      19.349  24.412  33.625  1.00  0.00    -0.385 OA
ATOM     11  H   UNL     1      18.697  25.155  33.718  1.00  0.00     0.211 HD
ENDBRANCH   2  10
BRANCH   3  12
ATOM     12  O   UNL     1      21.599  25.797  34.750  1.00  0.00    -0.387 OA
ATOM     13  H   UNL     1      22.580  25.722  34.622  1.00  0.00     0.211 HD
ENDBRANCH   3  12
BRANCH   5  14
ATOM     14  C   UNL     1      22.677  27.385  30.195  1.00  0.00     0.191 C 
BRANCH  14  15
ATOM     15  O   UNL     1      23.946  27.215  30.768  1.00  0.00    -0.394 OA
ATOM     16  H   UNL     1      23.838  27.339  31.746  1.00  0.00     0.210 HD
ENDBRANCH  14  15
ENDBRANCH   5  14
BRANCH   4  17
ATOM     17  O   UNL     1      22.546  27.977  33.067  1.00  0.00    -0.387 OA
ATOM     18  H   UNL     1      21.790  28.342  33.598  1.00  0.00     0.211 HD
ENDBRANCH   4  17
TORSDOF 7
ENDMDL
MODEL 4
REMARK VINA RESULT:    -3.941     12.846     14.864
REMARK INTER + INTRA:          -5.501
REMARK INTER:                  -5.081
REMARK INTRA:                  -0.420
REMARK UNBOUND:                -0.408
REMARK SMILES CCO[C@@H]1O[C@H](CO)[C@@H](O)[C@H](O)[C@H]1O
REMARK SMILES IDX 4 1 13 2 11 3 9 4 6 5 5 6 3 7 2 8 1 9 14 10 12 12 7 14 8 15
REMARK SMILES IDX 10 17
REMARK H PARENT 14 11 12 13 8 16 10 18
REMARK Flexibility Score: inf
ROOT
ATOM      1  C   UNL     1      18.478  26.571  45.584  1.00  0.00     0.281 C 
ATOM      2  C   UNL     1      17.416  26.661  44.472  1.00  0.00     0.202 C 
ATOM      3  C   UNL     1      16.741  28.045  44.493  1.00  0.00     0.179 C 
ATOM      4  C   UNL     1      16.253  28.373  45.918  1.00  0.00     0.177 C 
ATOM      5  C   UNL     1      17.399  28.141  46.930  1.00  0.00     0.178 C 
ATOM      6  O   UNL     1      17.868  26.806  46.842  1.00  0.00    -0.341 OA
ENDROOT
BRANCH   1   7
ATOM      7  O   UNL     1      19.033  25.269  45.566  1.00  0.00    -0.350 OA
BRANCH   7   8
ATOM      8  C   UNL     1      20.449  25.311  45.613  1.00  0.00     0.160 C 
ATOM      9  C   UNL     1      20.933  26.696  45.208  1.00  0.00     0.035 C 
ENDBRANCH   7   8
ENDBRANCH   1   7
BRANCH   2  10
ATOM     10  O   UNL     1      17.980  26.398  43.211  1.00  0.00    -0.385 OA
ATOM     11  H   UNL     1      17.653  25.509  42.912  1.00  0.00     0.211 HD
ENDBRANCH   2  10
BRANCH   3  12
ATOM     12  O   UNL     1      15.658  28.041  43.599  1.00  0.00    -0.387 OA
ATOM     13  H   UNL     1      15.039  27.325  43.897  1.00  0.00     0.211 HD
ENDBRANCH   3  12
BRANCH   5  14
ATOM     14  C   UNL     1      16.918  28.393  48.366  1.00  0.00     0.191 C 
BRANCH  14  15
ATOM     15  O   UNL     1      15.553  28.092  48.484  1.00  0.00    -0.394 OA
ATOM     16  H   UNL     1      15.430  27.659  49.368  1.00  0.00     0.210 HD
ENDBRANCH  14  15
ENDBRANCH   5  14
BRANCH   4  17
ATOM     17  O   UNL     1      15.835  29.713  45.977  1.00  0.00    -0.387 OA
ATOM     18  H   UNL     1      16.147  30.151  45.143  1.00  0.00     0.211 HD
ENDBRANCH   4  17
TORSDOF 7
ENDMDL
MODEL 5
REMARK VINA RESULT:    -3.831     12.519     14.324
REMARK INTER + INTRA:          -5.358
REMARK INTER:                  -4.920
REMARK INTRA:                  -0.438
REMARK UNBOUND:                -0.408
REMARK SMILES CCO[C@@H]1O[C@H](CO)[C@@H](O)[C@H](O)[C@H]1O
REMARK SMILES IDX 4 1 13 2 11 3 9 4 6 5 5 6 3 7 2 8 1 9 14 10 12 12 7 14 8 15
REMARK SMILES IDX 10 17
REMARK H PARENT 14 11 12 13 8 16 10 18
REMARK Flexibility Score: inf
ROOT
ATOM      1  C   UNL     1      19.664  27.442  44.248  1.00  0.00     0.281 C 
ATOM      2  C   UNL     1      18.266  26.807  44.378  1.00  0.00     0.202 C 
ATOM      3  C   UNL     1      17.190  27.904  44.469  1.00  0.00     0.179 C 
ATOM      4  C   UNL     1      17.568  28.925  45.560  1.00  0.00     0.177 C 
ATOM      5  C   UNL     1      19.027  29.396  45.353  1.00  0.00     0.178 C 
ATOM      6  O   UNL     1      19.906  28.284  45.364  1.00  0.00    -0.341 OA
ENDROOT
BRANCH   1   7
ATOM      7  O   UNL     1      20.625  26.404  44.224  1.00  0.00    -0.350 OA
BRANCH   7   8
ATOM      8  C   UNL     1      21.325  26.320  45.454  1.00  0.00     0.160 C 
ATOM      9  C   UNL     1      21.299  24.885  45.959  1.00  0.00     0.035 C 
ENDBRANCH   7   8
ENDBRANCH   1   7
BRANCH   2  10
ATOM     10  O   UNL     1      18.005  25.937  43.304  1.00  0.00    -0.385 OA
ATOM     11  H   UNL     1      17.330  26.372  42.720  1.00  0.00     0.211 HD
ENDBRANCH   2  10
BRANCH   3  12
ATOM     12  O   UNL     1      15.952  27.311  44.770  1.00  0.00    -0.387 OA
ATOM     13  H   UNL     1      15.930  26.435  44.303  1.00  0.00     0.211 HD
ENDBRANCH   3  12
BRANCH   5  14
ATOM     14  C   UNL     1      19.451  30.361  46.469  1.00  0.00     0.191 C 
BRANCH  14  15
ATOM     15  O   UNL     1      18.717  30.111  47.638  1.00  0.00    -0.394 OA
ATOM     16  H   UNL     1      19.169  29.361  48.105  1.00  0.00     0.210 HD
ENDBRANCH  14  15
ENDBRANCH   5  14
BRANCH   4  17
ATOM     17  O   UNL     1      16.702  30.030  45.493  1.00  0.00    -0.387 OA
ATOM     18  H   UNL     1      16.880  30.586  46.296  1.00  0.00     0.211 HD
ENDBRANCH   4  17
TORSDOF 7
ENDMDL
MODEL 6
REMARK VINA RESULT:    -3.813     13.059     14.095
REMARK INTER + INTRA:          -5.335
REMARK INTER:                  -4.925
REMARK INTRA:                  -0.410
REMARK UNBOUND:                -0.408
REMARK SMILES CCO[C@@H]1O[C@H](CO)[C@@H](O)[C@H](O)[C@H]1O
REMARK SMILES IDX 4 1 13 2 11 3 9 4 6 5 5 6 3 7 2 8 1 9 14 10 12 12 7 14 8 15
REMARK SMILES IDX 10 17
REMARK H PARENT 14 11 12 13 8 16 10 18
REMARK Flexibility Score: inf
ROOT
ATOM      1  C   UNL     1      18.753  27.531  44.466  1.00  0.00     0.281 C 
ATOM      2  C   UNL     1      18.644  26.542  45.642  1.00  0.00     0.202 C 
ATOM      3  C   UNL     1      17.178  26.117  45.845  1.00  0.00     0.179 C 
ATOM      4  C   UNL     1      16.273  27.362  45.927  1.00  0.00     0.177 C 
ATOM      5  C   UNL     1      16.567  28.303  44.735  1.00  0.00     0.178 C 
ATOM      6  O   UNL     1      17.938  28.664  44.723  1.00  0.00    -0.341 OA
ENDROOT
BRANCH   1   7
ATOM      7  O   UNL     1      20.102  27.939  44.350  1.00  0.00    -0.350 OA
BRANCH   7   8
ATOM      8  C   UNL     1      20.232  29.343  44.497  1.00  0.00     0.160 C 
ATOM      9  C   UNL     1      21.394  29.654  45.430  1.00  0.00     0.035 C 
ENDBRANCH   7   8
ENDBRANCH   1   7
BRANCH   2  10
ATOM     10  O   UNL     1      19.467  25.420  45.437  1.00  0.00    -0.385 OA
ATOM     11  H   UNL     1      19.685  25.378  44.470  1.00  0.00     0.211 HD
ENDBRANCH   2  10
BRANCH   3  12
ATOM     12  O   UNL     1      17.076  25.365  47.027  1.00  0.00    -0.387 OA
ATOM     13  H   UNL     1      17.524  25.889  47.742  1.00  0.00     0.211 HD
ENDBRANCH   3  12
BRANCH   5  14
ATOM     14  C   UNL     1      15.728  29.585  44.833  1.00  0.00     0.191 C 
BRANCH  14  15
ATOM     15  O   UNL     1      14.438  29.364  44.329  1.00  0.00    -0.394 OA
ATOM     16  H   UNL     1      13.869  29.105  45.099  1.00  0.00     0.210 HD
ENDBRANCH  14  15
ENDBRANCH   5  14
BRANCH   4  17
ATOM     17  O   UNL     1      14.924  26.969  45.896  1.00  0.00    -0.387 OA
ATOM     18  H   UNL     1      14.899  26.003  46.125  1.00  0.00     0.211 HD
ENDBRANCH   4  17
TORSDOF 7
ENDMDL
MODEL 7
REMARK VINA RESULT:    -3.767     12.793     13.911
REMARK INTER + INTRA:          -5.276
REMARK INTER:                  -4.857
REMARK INTRA:                  -0.419
REMARK UNBOUND:                -0.408
REMARK SMILES CCO[C@@H]1O[C@H](CO)[C@@H](O)[C@H](O)[C@H]1O
REMARK SMILES IDX 4 1 13 2 11 3 9 4 6 5 5 6 3 7 2 8 1 9 14 10 12 12 7 14 8 15
REMARK SMILES IDX 10 17
REMARK H PARENT 14 11 12 13 8 16 10 18
REMARK Flexibility Score: inf
ROOT
ATOM      1  C   UNL     1      19.135  29.013  45.882  1.00  0.00     0.281 C 
ATOM      2  C   UNL     1      17.692  28.856  45.367  1.00  0.00     0.202 C 
ATOM      3  C   UNL     1      17.183  27.429  45.642  1.00  0.00     0.179 C 
ATOM      4  C   UNL     1      18.200  26.395  45.120  1.00  0.00     0.177 C 
ATOM      5  C   UNL     1      19.614  26.742  45.641  1.00  0.00     0.178 C 
ATOM      6  O   UNL     1      19.971  28.057  45.249  1.00  0.00    -0.341 OA
ENDROOT
BRANCH   1   7
ATOM      7  O   UNL     1      19.584  30.316  45.560  1.00  0.00    -0.350 OA
BRANCH   7   8
ATOM      8  C   UNL     1      19.914  30.425  44.186  1.00  0.00     0.160 C 
ATOM      9  C   UNL     1      19.939  31.892  43.782  1.00  0.00     0.035 C 
ENDBRANCH   7   8
ENDBRANCH   1   7
BRANCH   2  10
ATOM     10  O   UNL     1      16.840  29.812  45.948  1.00  0.00    -0.385 OA
ATOM     11  H   UNL     1      17.134  30.708  45.637  1.00  0.00     0.211 HD
ENDBRANCH   2  10
BRANCH   3  12
ATOM     12  O   UNL     1      15.943  27.253  45.006  1.00  0.00    -0.387 OA
ATOM     13  H   UNL     1      15.966  27.792  44.173  1.00  0.00     0.211 HD
ENDBRANCH   3  12
BRANCH   5  14
ATOM     14  C   UNL     1      20.657  25.767  45.077  1.00  0.00     0.191 C 
BRANCH  14  15
ATOM     15  O   UNL     1      20.308  25.377  43.776  1.00  0.00    -0.394 OA
ATOM     16  H   UNL     1      21.068  25.625  43.188  1.00  0.00     0.210 HD
ENDBRANCH  14  15
ENDBRANCH   5  14
BRANCH   4  17
ATOM     17  O   UNL     1      17.837  25.111  45.561  1.00  0.00    -0.387 OA
ATOM     18  H   UNL     1      17.272  24.710  44.850  1.00  0.00     0.211 HD
ENDBRANCH   4  17
TORSDOF 7
ENDMDL
MODEL 8
REMARK VINA RESULT:    -3.747     13.397     14.563
REMARK INTER + INTRA:          -5.250
REMARK INTER:                  -4.813
REMARK INTRA:                  -0.438
REMARK UNBOUND:                -0.408
REMARK SMILES CCO[C@@H]1O[C@H](CO)[C@@H](O)[C@H](O)[C@H]1O
REMARK SMILES IDX 4 1 13 2 11 3 9 4 6 5 5 6 3 7 2 8 1 9 14 10 12 12 7 14 8 15
REMARK SMILES IDX 10 17
REMARK H PARENT 14 11 12 13 8 16 10 18
REMARK Flexibility Score: inf
ROOT
ATOM      1  C   UNL     1      17.676  27.339  45.613  1.00  0.00     0.281 C 
ATOM      2  C   UNL     1      18.504  26.065  45.361  1.00  0.00     0.202 C 
ATOM      3  C   UNL     1      19.995  26.339  45.632  1.00  0.00     0.179 C 
ATOM      4  C   UNL     1      20.449  27.599  44.869  1.00  0.00     0.177 C 
ATOM      5  C   UNL     1      19.466  28.760  45.144  1.00  0.00     0.178 C 
ATOM      6  O   UNL     1      18.148  28.385  44.779  1.00  0.00    -0.341 OA
ENDROOT
BRANCH   1   7
ATOM      7  O   UNL     1      16.324  27.062  45.299  1.00  0.00    -0.350 OA
BRANCH   7   8
ATOM      8  C   UNL     1      15.445  27.623  46.259  1.00  0.00     0.160 C 
ATOM      9  C   UNL     1      16.104  27.598  47.631  1.00  0.00     0.035 C 
ENDBRANCH   7   8
ENDBRANCH   1   7
BRANCH   2  10
ATOM     10  O   UNL     1      18.040  24.996  46.147  1.00  0.00    -0.385 OA
ATOM     11  H   UNL     1      18.776  24.728  46.758  1.00  0.00     0.211 HD
ENDBRANCH   2  10
BRANCH   3  12
ATOM     12  O   UNL     1      20.749  25.226  45.222  1.00  0.00    -0.387 OA
ATOM     13  H   UNL     1      20.159  24.432  45.302  1.00  0.00     0.211 HD
ENDBRANCH   3  12
BRANCH   5  14
ATOM     14  C   UNL     1      19.856  30.008  44.339  1.00  0.00     0.191 C 
BRANCH  14  15
ATOM     15  O   UNL     1      20.865  30.722  45.002  1.00  0.00    -0.394 OA
ATOM     16  H   UNL     1      20.579  30.811  45.948  1.00  0.00     0.210 HD
ENDBRANCH  14  15
ENDBRANCH   5  14
BRANCH   4  17
ATOM     17  O   UNL     1      21.740  27.964  45.285  1.00  0.00    -0.387 OA
ATOM     18  H   UNL     1      22.306  27.152  45.220  1.00  0.00     0.211 HD
ENDBRANCH   4  17
TORSDOF 7
ENDMDL
MODEL 9
REMARK VINA RESULT:    -3.745      1.620      3.479
REMARK INTER + INTRA:          -5.247
REMARK INTER:                  -4.952
REMARK INTRA:                  -0.295
REMARK UNBOUND:                -0.408
REMARK SMILES CCO[C@@H]1O[C@H](CO)[C@@H](O)[C@H](O)[C@H]1O
REMARK SMILES IDX 4 1 13 2 11 3 9 4 6 5 5 6 3 7 2 8 1 9 14 10 12 12 7 14 8 15
REMARK SMILES IDX 10 17
REMARK H PARENT 14 11 12 13 8 16 10 18
REMARK Flexibility Score: inf
ROOT
ATOM      1  C   UNL     1      20.924  28.449  31.864  1.00  0.00     0.281 C 
ATOM      2  C   UNL     1      20.511  27.279  30.950  1.00  0.00     0.202 C 
ATOM      3  C   UNL     1      19.992  26.102  31.797  1.00  0.00     0.179 C 
ATOM      4  C   UNL     1      21.005  25.764  32.908  1.00  0.00     0.177 C 
ATOM      5  C   UNL     1      21.395  27.051  33.671  1.00  0.00     0.178 C 
ATOM      6  O   UNL     1      21.922  28.013  32.772  1.00  0.00    -0.341 OA
ENDROOT
BRANCH   1   7
ATOM      7  O   UNL     1      21.446  29.486  31.054  1.00  0.00    -0.350 OA
BRANCH   7   8
ATOM      8  C   UNL     1      22.479  29.010  30.208  1.00  0.00     0.160 C 
ATOM      9  C   UNL     1      23.696  29.916  30.328  1.00  0.00     0.035 C 
ENDBRANCH   7   8
ENDBRANCH   1   7
BRANCH   2  10
ATOM     10  O   UNL     1      19.546  27.686  30.012  1.00  0.00    -0.385 OA
ATOM     11  H   UNL     1      19.248  26.879  29.516  1.00  0.00     0.211 HD
ENDBRANCH   2  10
BRANCH   3  12
ATOM     12  O   UNL     1      19.797  24.988  30.964  1.00  0.00    -0.387 OA
ATOM     13  H   UNL     1      19.675  24.201  31.556  1.00  0.00     0.211 HD
ENDBRANCH   3  12
BRANCH   5  14
ATOM     14  C   UNL     1      22.458  26.751  34.738  1.00  0.00     0.191 C 
BRANCH  14  15
ATOM     15  O   UNL     1      21.847  26.437  35.961  1.00  0.00    -0.394 OA
ATOM     16  H   UNL     1      21.552  25.491  35.900  1.00  0.00     0.210 HD
ENDBRANCH  14  15
ENDBRANCH   5  14
BRANCH   4  17
ATOM     17  O   UNL     1      20.435  24.841  33.801  1.00  0.00    -0.387 OA
ATOM     18  H   UNL     1      19.599  25.250  34.146  1.00  0.00     0.211 HD
ENDBRANCH   4  17
TORSDOF 7
ENDMDL
