MODEL 1
REMARK VINA RESULT:    -1.332      0.000      0.000
REMARK INTER + INTRA:          -2.350
REMARK INTER:                  -2.111
REMARK INTRA:                  -0.239
REMARK UNBOUND:                -0.239
REMARK SMILES CCCCCCCCCCCC(=O)[O-]
REMARK SMILES IDX 7 1 8 2 9 3 10 4 11 5 12 6 13 7 14 8 6 9 5 10 4 11 3 12 2 13
REMARK SMILES IDX 1 14
REMARK H PARENT
REMARK Flexibility Score: inf
ROOT
ATOM      1  C   UNL     1      89.510  18.119 121.125  1.00  0.00     0.000 C 
ENDROOT
BRANCH   1   2
ATOM      2  C   UNL     1      90.651  17.811 120.131  1.00  0.00     0.000 C 
BRANCH   2   3
ATOM      3  C   UNL     1      92.041  17.762 120.787  1.00  0.00     0.000 C 
BRANCH   3   4
ATOM      4  C   UNL     1      93.085  17.041 119.921  1.00  0.00     0.006 C 
BRANCH   4   5
ATOM      5  C   UNL     1      93.342  15.604 120.396  1.00  0.00     0.053 C 
BRANCH   5   6
ATOM      6  C   UNL     1      94.774  15.204 120.214  1.00  0.00     0.041 C 
ATOM      7  O   UNL     1      95.061  14.111 119.659  1.00  0.00    -0.550 OA
ATOM      8  O   UNL     1      95.793  16.053 120.629  1.00  0.00    -0.550 OA
ENDBRANCH   5   6
ENDBRANCH   4   5
ENDBRANCH   3   4
ENDBRANCH   2   3
ENDBRANCH   1   2
BRANCH   1   9
ATOM      9  C   UNL     1      88.249  18.643 120.415  1.00  0.00     0.000 C 
BRANCH   9  10
ATOM     10  C   UNL     1      86.948  18.152 121.071  1.00  0.00    -0.000 C 
BRANCH  10  11
ATOM     11  C   UNL     1      85.979  17.516 120.059  1.00  0.00    -0.000 C 
BRANCH  11  12
ATOM     12  C   UNL     1      84.780  16.824 120.732  1.00  0.00    -0.000 C 
BRANCH  12  13
ATOM     13  C   UNL     1      83.621  17.761 121.119  1.00  0.00    -0.003 C 
ATOM     14  C   UNL     1      82.431  17.667 120.167  1.00  0.00     0.004 C 
ENDBRANCH  12  13
ENDBRANCH  11  12
ENDBRANCH  10  11
ENDBRANCH   9  10
ENDBRANCH   1   9
TORSDOF 10
ENDMDL
MODEL 2
REMARK VINA RESULT:    -1.321      4.301      8.516
REMARK INTER + INTRA:          -2.331
REMARK INTER:                  -1.996
REMARK INTRA:                  -0.335
REMARK UNBOUND:                -0.239
REMARK SMILES CCCCCCCCCCCC(=O)[O-]
REMARK SMILES IDX 7 1 8 2 9 3 10 4 11 5 12 6 13 7 14 8 6 9 5 10 4 11 3 12 2 13
REMARK SMILES IDX 1 14
REMARK H PARENT
REMARK Flexibility Score: inf
ROOT
ATOM      1  C   UNL     1      89.959  17.911 120.392  1.00  0.00     0.000 C 
ENDROOT
BRANCH   1   2
ATOM      2  C   UNL     1      89.507  19.192 121.125  1.00  0.00     0.000 C 
BRANCH   2   3
ATOM      3  C   UNL     1      87.996  19.462 121.018  1.00  0.00     0.000 C 
BRANCH   3   4
ATOM      4  C   UNL     1      87.168  18.175 120.884  1.00  0.00     0.006 C 
BRANCH   4   5
ATOM      5  C   UNL     1      85.663  18.435 121.032  1.00  0.00     0.053 C 
BRANCH   5   6
ATOM      6  C   UNL     1      84.846  17.264 120.580  1.00  0.00     0.041 C 
ATOM      7  O   UNL     1      85.411  16.249 120.091  1.00  0.00    -0.550 OA
ATOM      8  O   UNL     1      83.465  17.279 120.726  1.00  0.00    -0.550 OA
ENDBRANCH   5   6
ENDBRANCH   4   5
ENDBRANCH   3   4
ENDBRANCH   2   3
ENDBRANCH   1   2
BRANCH   1   9
ATOM      9  C   UNL     1      91.443  17.968 119.987  1.00  0.00     0.000 C 
BRANCH   9  10
ATOM     10  C   UNL     1      92.353  17.176 120.939  1.00  0.00    -0.000 C 
BRANCH  10  11
ATOM     11  C   UNL     1      92.918  15.900 120.293  1.00  0.00    -0.000 C 
BRANCH  11  12
ATOM     12  C   UNL     1      94.376  16.060 119.827  1.00  0.00    -0.000 C 
BRANCH  12  13
ATOM     13  C   UNL     1      95.422  16.081 120.957  1.00  0.00    -0.003 C 
ATOM     14  C   UNL     1      96.705  16.815 120.572  1.00  0.00     0.004 C 
ENDBRANCH  12  13
ENDBRANCH  11  12
ENDBRANCH  10  11
ENDBRANCH   9  10
ENDBRANCH   1   9
TORSDOF 10
ENDMDL
MODEL 3
REMARK VINA RESULT:    -0.891      4.358      8.444
REMARK INTER + INTRA:          -1.650
REMARK INTER:                  -1.370
REMARK INTRA:                  -0.280
REMARK UNBOUND:                -0.239
REMARK SMILES CCCCCCCCCCCC(=O)[O-]
REMARK SMILES IDX 7 1 8 2 9 3 10 4 11 5 12 6 13 7 14 8 6 9 5 10 4 11 3 12 2 13
REMARK SMILES IDX 1 14
REMARK H PARENT
REMARK Flexibility Score: inf
ROOT
ATOM      1  C   UNL     1      90.908  18.055 119.911  1.00  0.00     0.000 C 
ENDROOT
BRANCH   1   2
ATOM      2  C   UNL     1      89.937  18.137 121.107  1.00  0.00     0.000 C 
BRANCH   2   3
ATOM      3  C   UNL     1      88.588  18.789 120.762  1.00  0.00     0.000 C 
BRANCH   3   4
ATOM      4  C   UNL     1      87.403  17.820 120.897  1.00  0.00     0.006 C 
BRANCH   4   5
ATOM      5  C   UNL     1      86.059  18.556 120.983  1.00  0.00     0.053 C 
BRANCH   5   6
ATOM      6  C   UNL     1      84.901  17.625 120.791  1.00  0.00     0.041 C 
ATOM      7  O   UNL     1      83.721  18.064 120.836  1.00  0.00    -0.550 OA
ATOM      8  O   UNL     1      85.124  16.278 120.533  1.00  0.00    -0.550 OA
ENDBRANCH   5   6
ENDBRANCH   4   5
ENDBRANCH   3   4
ENDBRANCH   2   3
ENDBRANCH   1   2
BRANCH   1   9
ATOM      9  C   UNL     1      92.344  17.716 120.351  1.00  0.00     0.000 C 
BRANCH   9  10
ATOM     10  C   UNL     1      92.749  16.274 120.005  1.00  0.00    -0.000 C 
BRANCH  10  11
ATOM     11  C   UNL     1      93.563  15.603 121.125  1.00  0.00    -0.000 C 
BRANCH  11  12
ATOM     12  C   UNL     1      94.819  14.882 120.603  1.00  0.00    -0.000 C 
BRANCH  12  13
ATOM     13  C   UNL     1      94.579  13.458 120.072  1.00  0.00    -0.003 C 
ATOM     14  C   UNL     1      93.903  12.544 121.092  1.00  0.00     0.004 C 
ENDBRANCH  12  13
ENDBRANCH  11  12
ENDBRANCH  10  11
ENDBRANCH   9  10
ENDBRANCH   1   9
TORSDOF 10
ENDMDL
MODEL 4
REMARK VINA RESULT:    -0.307      3.994      8.614
REMARK INTER + INTRA:          -0.726
REMARK INTER:                  -0.108
REMARK INTRA:                  -0.617
REMARK UNBOUND:                -0.239
REMARK SMILES CCCCCCCCCCCC(=O)[O-]
REMARK SMILES IDX 7 1 8 2 9 3 10 4 11 5 12 6 13 7 14 8 6 9 5 10 4 11 3 12 2 13
REMARK SMILES IDX 1 14
REMARK H PARENT
REMARK Flexibility Score: inf
ROOT
ATOM      1  C   UNL     1      92.394  16.670 118.626  1.00  0.00     0.000 C 
ENDROOT
BRANCH   1   2
ATOM      2  C   UNL     1      92.033  17.469 119.896  1.00  0.00     0.000 C 
BRANCH   2   3
ATOM      3  C   UNL     1      90.767  18.329 119.743  1.00  0.00     0.000 C 
BRANCH   3   4
ATOM      4  C   UNL     1      89.676  17.974 120.765  1.00  0.00     0.006 C 
BRANCH   4   5
ATOM      5  C   UNL     1      88.802  19.183 121.125  1.00  0.00     0.053 C 
BRANCH   5   6
ATOM      6  C   UNL     1      87.357  18.940 120.812  1.00  0.00     0.041 C 
ATOM      7  O   UNL     1      86.980  17.812 120.396  1.00  0.00    -0.550 OA
ATOM      8  O   UNL     1      86.422  19.948 121.011  1.00  0.00    -0.550 OA
ENDBRANCH   5   6
ENDBRANCH   4   5
ENDBRANCH   3   4
ENDBRANCH   2   3
ENDBRANCH   1   2
BRANCH   1   9
ATOM      9  C   UNL     1      93.665  15.823 118.816  1.00  0.00     0.000 C 
BRANCH   9  10
ATOM     10  C   UNL     1      93.908  15.431 120.282  1.00  0.00    -0.000 C 
BRANCH  10  11
ATOM     11  C   UNL     1      95.404  15.311 120.623  1.00  0.00    -0.000 C 
BRANCH  11  12
ATOM     12  C   UNL     1      96.030  16.650 121.050  1.00  0.00    -0.000 C 
BRANCH  12  13
ATOM     13  C   UNL     1      97.285  17.063 120.261  1.00  0.00    -0.003 C 
ATOM     14  C   UNL     1      96.967  17.596 118.865  1.00  0.00     0.004 C 
ENDBRANCH  12  13
ENDBRANCH  11  12
ENDBRANCH  10  11
ENDBRANCH   9  10
ENDBRANCH   1   9
TORSDOF 10
ENDMDL
