MODEL 1
REMARK VINA RESULT:    -4.149      0.000      0.000
REMARK INTER + INTRA:          -4.991
REMARK INTER:                  -4.877
REMARK INTRA:                  -0.115
REMARK UNBOUND:                -0.115
REMARK SMILES CCCCC(=O)[O-]
REMARK SMILES IDX 4 1 5 2 6 3 7 4 3 5 2 6 1 7
REMARK H PARENT
REMARK Flexibility Score: inf
ROOT
ATOM      1  C   UNL     1      65.075 149.281   5.413  1.00  0.00     0.053 C 
ENDROOT
BRANCH   1   2
ATOM      2  C   UNL     1      63.687 148.984   5.883  1.00  0.00     0.041 C 
ATOM      3  O   UNL     1      63.133 149.727   6.735  1.00  0.00    -0.550 OA
ATOM      4  O   UNL     1      62.984 147.915   5.343  1.00  0.00    -0.550 OA
ENDBRANCH   1   2
BRANCH   1   5
ATOM      5  C   UNL     1      65.056 149.775   3.961  1.00  0.00     0.006 C 
BRANCH   5   6
ATOM      6  C   UNL     1      64.334 151.122   3.806  1.00  0.00    -0.003 C 
ATOM      7  C   UNL     1      65.047 152.261   4.534  1.00  0.00     0.004 C 
ENDBRANCH   5   6
ENDBRANCH   1   5
TORSDOF 3
ENDMDL
MODEL 2
REMARK VINA RESULT:    -4.144      0.064      1.224
REMARK INTER + INTRA:          -4.986
REMARK INTER:                  -4.858
REMARK INTRA:                  -0.128
REMARK UNBOUND:                -0.115
REMARK SMILES CCCCC(=O)[O-]
REMARK SMILES IDX 4 1 5 2 6 3 7 4 3 5 2 6 1 7
REMARK H PARENT
REMARK Flexibility Score: inf
ROOT
ATOM      1  C   UNL     1      65.061 149.254   5.382  1.00  0.00     0.053 C 
ENDROOT
BRANCH   1   2
ATOM      2  C   UNL     1      63.664 148.948   5.822  1.00  0.00     0.041 C 
ATOM      3  O   UNL     1      63.047 147.965   5.334  1.00  0.00    -0.550 OA
ATOM      4  O   UNL     1      63.061 149.719   6.807  1.00  0.00    -0.550 OA
ENDBRANCH   1   2
BRANCH   1   5
ATOM      5  C   UNL     1      65.065 149.795   3.947  1.00  0.00     0.006 C 
BRANCH   5   6
ATOM      6  C   UNL     1      64.350 151.150   3.825  1.00  0.00    -0.003 C 
ATOM      7  C   UNL     1      65.077 152.270   4.567  1.00  0.00     0.004 C 
ENDBRANCH   5   6
ENDBRANCH   1   5
TORSDOF 3
ENDMDL
MODEL 3
REMARK VINA RESULT:    -3.832      2.224      3.492
REMARK INTER + INTRA:          -4.618
REMARK INTER:                  -4.493
REMARK INTRA:                  -0.126
REMARK UNBOUND:                -0.115
REMARK SMILES CCCCC(=O)[O-]
REMARK SMILES IDX 4 1 5 2 6 3 7 4 3 5 2 6 1 7
REMARK H PARENT
REMARK Flexibility Score: inf
ROOT
ATOM      1  C   UNL     1      65.034 149.814   3.948  1.00  0.00     0.053 C 
ENDROOT
BRANCH   1   2
ATOM      2  C   UNL     1      64.568 151.235   3.921  1.00  0.00     0.041 C 
ATOM      3  O   UNL     1      63.529 151.549   3.283  1.00  0.00    -0.550 OA
ATOM      4  O   UNL     1      65.252 152.205   4.641  1.00  0.00    -0.550 OA
ENDBRANCH   1   2
BRANCH   1   5
ATOM      5  C   UNL     1      65.120 149.306   5.393  1.00  0.00     0.006 C 
BRANCH   5   6
ATOM      6  C   UNL     1      63.746 149.230   6.075  1.00  0.00    -0.003 C 
ATOM      7  C   UNL     1      62.836 148.172   5.452  1.00  0.00     0.004 C 
ENDBRANCH   5   6
ENDBRANCH   1   5
TORSDOF 3
ENDMDL
MODEL 4
REMARK VINA RESULT:    -3.823      1.746      2.965
REMARK INTER + INTRA:          -4.608
REMARK INTER:                  -4.486
REMARK INTRA:                  -0.122
REMARK UNBOUND:                -0.115
REMARK SMILES CCCCC(=O)[O-]
REMARK SMILES IDX 4 1 5 2 6 3 7 4 3 5 2 6 1 7
REMARK H PARENT
REMARK Flexibility Score: inf
ROOT
ATOM      1  C   UNL     1      63.558 151.576   3.587  1.00  0.00     0.053 C 
ENDROOT
BRANCH   1   2
ATOM      2  C   UNL     1      62.544 151.416   4.675  1.00  0.00     0.041 C 
ATOM      3  O   UNL     1      61.611 150.580   4.554  1.00  0.00    -0.550 OA
ATOM      4  O   UNL     1      62.658 152.153   5.846  1.00  0.00    -0.550 OA
ENDBRANCH   1   2
BRANCH   1   5
ATOM      5  C   UNL     1      64.942 151.129   4.074  1.00  0.00     0.006 C 
BRANCH   5   6
ATOM      6  C   UNL     1      65.059 149.602   4.198  1.00  0.00    -0.003 C 
ATOM      7  C   UNL     1      65.299 149.144   5.636  1.00  0.00     0.004 C 
ENDBRANCH   5   6
ENDBRANCH   1   5
TORSDOF 3
ENDMDL
MODEL 5
REMARK VINA RESULT:    -3.688      2.286      3.175
REMARK INTER + INTRA:          -4.449
REMARK INTER:                  -4.388
REMARK INTRA:                  -0.062
REMARK UNBOUND:                -0.115
REMARK SMILES CCCCC(=O)[O-]
REMARK SMILES IDX 4 1 5 2 6 3 7 4 3 5 2 6 1 7
REMARK H PARENT
REMARK Flexibility Score: inf
ROOT
ATOM      1  C   UNL     1      63.693 151.542   3.492  1.00  0.00     0.053 C 
ENDROOT
BRANCH   1   2
ATOM      2  C   UNL     1      62.255 151.599   3.900  1.00  0.00     0.041 C 
ATOM      3  O   UNL     1      61.945 151.725   5.113  1.00  0.00    -0.550 OA
ATOM      4  O   UNL     1      61.257 151.562   2.935  1.00  0.00    -0.550 OA
ENDBRANCH   1   2
BRANCH   1   5
ATOM      5  C   UNL     1      64.604 151.662   4.721  1.00  0.00     0.006 C 
BRANCH   5   6
ATOM      6  C   UNL     1      65.082 150.296   5.236  1.00  0.00    -0.003 C 
ATOM      7  C   UNL     1      65.138 149.237   4.137  1.00  0.00     0.004 C 
ENDBRANCH   5   6
ENDBRANCH   1   5
TORSDOF 3
ENDMDL
MODEL 6
REMARK VINA RESULT:    -3.681      1.904      2.587
REMARK INTER + INTRA:          -4.441
REMARK INTER:                  -4.361
REMARK INTRA:                  -0.079
REMARK UNBOUND:                -0.115
REMARK SMILES CCCCC(=O)[O-]
REMARK SMILES IDX 4 1 5 2 6 3 7 4 3 5 2 6 1 7
REMARK H PARENT
REMARK Flexibility Score: inf
ROOT
ATOM      1  C   UNL     1      64.681 151.229   4.794  1.00  0.00     0.053 C 
ENDROOT
BRANCH   1   2
ATOM      2  C   UNL     1      64.638 149.740   4.933  1.00  0.00     0.041 C 
ATOM      3  O   UNL     1      65.224 149.008   4.093  1.00  0.00    -0.550 OA
ATOM      4  O   UNL     1      63.993 149.161   6.018  1.00  0.00    -0.550 OA
ENDBRANCH   1   2
BRANCH   1   5
ATOM      5  C   UNL     1      63.915 151.673   3.542  1.00  0.00     0.006 C 
BRANCH   5   6
ATOM      6  C   UNL     1      62.394 151.508   3.690  1.00  0.00    -0.003 C 
ATOM      7  C   UNL     1      61.632 151.900   2.425  1.00  0.00     0.004 C 
ENDBRANCH   5   6
ENDBRANCH   1   5
TORSDOF 3
ENDMDL
MODEL 7
REMARK VINA RESULT:    -3.649      5.626      6.419
REMARK INTER + INTRA:          -4.404
REMARK INTER:                  -4.380
REMARK INTRA:                  -0.024
REMARK UNBOUND:                -0.115
REMARK SMILES CCCCC(=O)[O-]
REMARK SMILES IDX 4 1 5 2 6 3 7 4 3 5 2 6 1 7
REMARK H PARENT
REMARK Flexibility Score: inf
ROOT
ATOM      1  C   UNL     1      60.186 152.944   2.052  1.00  0.00     0.053 C 
ENDROOT
BRANCH   1   2
ATOM      2  C   UNL     1      60.076 153.818   0.843  1.00  0.00     0.041 C 
ATOM      3  O   UNL     1      58.989 154.394   0.574  1.00  0.00    -0.550 OA
ATOM      4  O   UNL     1      61.187 154.038   0.040  1.00  0.00    -0.550 OA
ENDBRANCH   1   2
BRANCH   1   5
ATOM      5  C   UNL     1      61.455 152.087   1.980  1.00  0.00     0.006 C 
BRANCH   5   6
ATOM      6  C   UNL     1      61.985 151.697   3.368  1.00  0.00    -0.003 C 
ATOM      7  C   UNL     1      63.510 151.626   3.419  1.00  0.00     0.004 C 
ENDBRANCH   5   6
ENDBRANCH   1   5
TORSDOF 3
ENDMDL
MODEL 8
REMARK VINA RESULT:    -3.494      4.398      5.178
REMARK INTER + INTRA:          -4.221
REMARK INTER:                  -4.179
REMARK INTRA:                  -0.042
REMARK UNBOUND:                -0.115
REMARK SMILES CCCCC(=O)[O-]
REMARK SMILES IDX 4 1 5 2 6 3 7 4 3 5 2 6 1 7
REMARK H PARENT
REMARK Flexibility Score: inf
ROOT
ATOM      1  C   UNL     1      61.343 151.982   2.112  1.00  0.00     0.053 C 
ENDROOT
BRANCH   1   2
ATOM      2  C   UNL     1      62.128 151.663   3.344  1.00  0.00     0.041 C 
ATOM      3  O   UNL     1      61.536 151.408   4.425  1.00  0.00    -0.550 OA
ATOM      4  O   UNL     1      63.515 151.597   3.287  1.00  0.00    -0.550 OA
ENDBRANCH   1   2
BRANCH   1   5
ATOM      5  C   UNL     1      60.062 152.743   2.475  1.00  0.00     0.006 C 
BRANCH   5   6
ATOM      6  C   UNL     1      59.592 153.679   1.350  1.00  0.00    -0.003 C 
ATOM      7  C   UNL     1      60.683 153.952   0.316  1.00  0.00     0.004 C 
ENDBRANCH   5   6
ENDBRANCH   1   5
TORSDOF 3
ENDMDL
MODEL 9
REMARK VINA RESULT:    -3.420      3.992      4.771
REMARK INTER + INTRA:          -4.134
REMARK INTER:                  -4.114
REMARK INTRA:                  -0.020
REMARK UNBOUND:                -0.115
REMARK SMILES CCCCC(=O)[O-]
REMARK SMILES IDX 4 1 5 2 6 3 7 4 3 5 2 6 1 7
REMARK H PARENT
REMARK Flexibility Score: inf
ROOT
ATOM      1  C   UNL     1      61.681 151.902   2.349  1.00  0.00     0.053 C 
ENDROOT
BRANCH   1   2
ATOM      2  C   UNL     1      60.416 152.673   2.562  1.00  0.00     0.041 C 
ATOM      3  O   UNL     1      59.831 153.212   1.586  1.00  0.00    -0.550 OA
ATOM      4  O   UNL     1      59.856 152.754   3.830  1.00  0.00    -0.550 OA
ENDBRANCH   1   2
BRANCH   1   5
ATOM      5  C   UNL     1      62.378 151.637   3.689  1.00  0.00     0.006 C 
BRANCH   5   6
ATOM      6  C   UNL     1      63.895 151.449   3.538  1.00  0.00    -0.003 C 
ATOM      7  C   UNL     1      64.697 152.323   4.501  1.00  0.00     0.004 C 
ENDBRANCH   5   6
ENDBRANCH   1   5
TORSDOF 3
ENDMDL
