MODEL 1
REMARK VINA RESULT:    -3.836      0.000      0.000
REMARK INTER + INTRA:          -4.794
REMARK INTER:                  -4.732
REMARK INTRA:                  -0.062
REMARK UNBOUND:                -0.062
REMARK SMILES CCCCCC(=O)[O-]
REMARK SMILES IDX 4 1 5 2 6 3 7 4 8 5 3 6 2 7 1 8
REMARK H PARENT
REMARK Flexibility Score: inf
ROOT
ATOM      1  C   UNL     1      36.726  23.694 222.978  1.00  0.00     0.006 C 
ENDROOT
BRANCH   1   2
ATOM      2  C   UNL     1      36.763  25.078 223.641  1.00  0.00     0.053 C 
BRANCH   2   3
ATOM      3  C   UNL     1      36.221  25.004 225.033  1.00  0.00     0.041 C 
ATOM      4  O   UNL     1      36.521  24.035 225.779  1.00  0.00    -0.550 OA
ATOM      5  O   UNL     1      35.426  26.031 225.524  1.00  0.00    -0.550 OA
ENDBRANCH   2   3
ENDBRANCH   1   2
BRANCH   1   6
ATOM      6  C   UNL     1      35.991  23.703 221.629  1.00  0.00     0.000 C 
BRANCH   6   7
ATOM      7  C   UNL     1      36.943  23.556 220.435  1.00  0.00    -0.003 C 
ATOM      8  C   UNL     1      36.242  23.905 219.125  1.00  0.00     0.004 C 
ENDBRANCH   6   7
ENDBRANCH   1   6
TORSDOF 4
ENDMDL
MODEL 2
REMARK VINA RESULT:    -3.503      2.663      3.330
REMARK INTER + INTRA:          -4.384
REMARK INTER:                  -4.225
REMARK INTRA:                  -0.159
REMARK UNBOUND:                -0.062
REMARK SMILES CCCCCC(=O)[O-]
REMARK SMILES IDX 4 1 5 2 6 3 7 4 8 5 3 6 2 7 1 8
REMARK H PARENT
REMARK Flexibility Score: inf
ROOT
ATOM      1  C   UNL     1      38.399  26.014 224.589  1.00  0.00     0.006 C 
ENDROOT
BRANCH   1   2
ATOM      2  C   UNL     1      37.124  25.488 223.915  1.00  0.00     0.053 C 
BRANCH   2   3
ATOM      3  C   UNL     1      36.178  24.947 224.939  1.00  0.00     0.041 C 
ATOM      4  O   UNL     1      36.198  23.723 225.237  1.00  0.00    -0.550 OA
ATOM      5  O   UNL     1      35.308  25.802 225.603  1.00  0.00    -0.550 OA
ENDBRANCH   2   3
ENDBRANCH   1   2
BRANCH   1   6
ATOM      6  C   UNL     1      39.531  24.975 224.605  1.00  0.00     0.000 C 
BRANCH   6   7
ATOM      7  C   UNL     1      39.564  24.117 223.333  1.00  0.00    -0.003 C 
ATOM      8  C   UNL     1      40.923  23.443 223.160  1.00  0.00     0.004 C 
ENDBRANCH   6   7
ENDBRANCH   1   6
TORSDOF 4
ENDMDL
MODEL 3
REMARK VINA RESULT:    -3.442      2.915      5.000
REMARK INTER + INTRA:          -4.309
REMARK INTER:                  -4.209
REMARK INTRA:                  -0.099
REMARK UNBOUND:                -0.062
REMARK SMILES CCCCCC(=O)[O-]
REMARK SMILES IDX 4 1 5 2 6 3 7 4 8 5 3 6 2 7 1 8
REMARK H PARENT
REMARK Flexibility Score: inf
ROOT
ATOM      1  C   UNL     1      38.765  25.524 224.628  1.00  0.00     0.006 C 
ENDROOT
BRANCH   1   2
ATOM      2  C   UNL     1      37.358  25.620 224.022  1.00  0.00     0.053 C 
BRANCH   2   3
ATOM      3  C   UNL     1      36.334  25.141 225.000  1.00  0.00     0.041 C 
ATOM      4  O   UNL     1      35.497  25.946 225.487  1.00  0.00    -0.550 OA
ATOM      5  O   UNL     1      36.271  23.795 225.337  1.00  0.00    -0.550 OA
ENDBRANCH   2   3
ENDBRANCH   1   2
BRANCH   1   6
ATOM      6  C   UNL     1      38.904  26.324 225.932  1.00  0.00     0.000 C 
BRANCH   6   7
ATOM      7  C   UNL     1      40.352  26.743 226.217  1.00  0.00    -0.003 C 
ATOM      8  C   UNL     1      40.467  28.257 226.375  1.00  0.00     0.004 C 
ENDBRANCH   6   7
ENDBRANCH   1   6
TORSDOF 4
ENDMDL
MODEL 4
REMARK VINA RESULT:    -3.400      2.815      3.876
REMARK INTER + INTRA:          -4.257
REMARK INTER:                  -4.156
REMARK INTRA:                  -0.101
REMARK UNBOUND:                -0.062
REMARK SMILES CCCCCC(=O)[O-]
REMARK SMILES IDX 4 1 5 2 6 3 7 4 8 5 3 6 2 7 1 8
REMARK H PARENT
REMARK Flexibility Score: inf
ROOT
ATOM      1  C   UNL     1      38.899  24.498 224.395  1.00  0.00     0.006 C 
ENDROOT
BRANCH   1   2
ATOM      2  C   UNL     1      37.769  25.507 224.155  1.00  0.00     0.053 C 
BRANCH   2   3
ATOM      3  C   UNL     1      36.544  25.110 224.915  1.00  0.00     0.041 C 
ATOM      4  O   UNL     1      35.783  25.991 225.396  1.00  0.00    -0.550 OA
ATOM      5  O   UNL     1      36.214  23.767 225.050  1.00  0.00    -0.550 OA
ENDBRANCH   2   3
ENDBRANCH   1   2
BRANCH   1   6
ATOM      6  C   UNL     1      39.657  24.139 223.107  1.00  0.00     0.000 C 
BRANCH   6   7
ATOM      7  C   UNL     1      41.005  23.461 223.383  1.00  0.00    -0.003 C 
ATOM      8  C   UNL     1      41.692  24.078 224.599  1.00  0.00     0.004 C 
ENDBRANCH   6   7
ENDBRANCH   1   6
TORSDOF 4
ENDMDL
MODEL 5
REMARK VINA RESULT:    -3.397      1.933      2.211
REMARK INTER + INTRA:          -4.253
REMARK INTER:                  -4.205
REMARK INTRA:                  -0.047
REMARK UNBOUND:                -0.062
REMARK SMILES CCCCCC(=O)[O-]
REMARK SMILES IDX 4 1 5 2 6 3 7 4 8 5 3 6 2 7 1 8
REMARK H PARENT
REMARK Flexibility Score: inf
ROOT
ATOM      1  C   UNL     1      36.013  23.166 222.865  1.00  0.00     0.006 C 
ENDROOT
BRANCH   1   2
ATOM      2  C   UNL     1      36.740  23.578 224.152  1.00  0.00     0.053 C 
BRANCH   2   3
ATOM      3  C   UNL     1      37.171  22.368 224.918  1.00  0.00     0.041 C 
ATOM      4  O   UNL     1      38.285  21.831 224.680  1.00  0.00    -0.550 OA
ATOM      5  O   UNL     1      36.366  21.862 225.930  1.00  0.00    -0.550 OA
ENDBRANCH   2   3
ENDBRANCH   1   2
BRANCH   1   6
ATOM      6  C   UNL     1      36.265  24.140 221.705  1.00  0.00     0.000 C 
BRANCH   6   7
ATOM      7  C   UNL     1      36.851  23.448 220.467  1.00  0.00    -0.003 C 
ATOM      8  C   UNL     1      36.246  24.011 219.184  1.00  0.00     0.004 C 
ENDBRANCH   6   7
ENDBRANCH   1   6
TORSDOF 4
ENDMDL
MODEL 6
REMARK VINA RESULT:    -3.297      2.809      4.705
REMARK INTER + INTRA:          -4.130
REMARK INTER:                  -3.977
REMARK INTRA:                  -0.153
REMARK UNBOUND:                -0.062
REMARK SMILES CCCCCC(=O)[O-]
REMARK SMILES IDX 4 1 5 2 6 3 7 4 8 5 3 6 2 7 1 8
REMARK H PARENT
REMARK Flexibility Score: inf
ROOT
ATOM      1  C   UNL     1      38.623  24.529 224.987  1.00  0.00     0.006 C 
ENDROOT
BRANCH   1   2
ATOM      2  C   UNL     1      37.689  25.174 223.955  1.00  0.00     0.053 C 
BRANCH   2   3
ATOM      3  C   UNL     1      36.268  25.092 224.415  1.00  0.00     0.041 C 
ATOM      4  O   UNL     1      35.501  24.209 223.948  1.00  0.00    -0.550 OA
ATOM      5  O   UNL     1      35.803  25.959 225.396  1.00  0.00    -0.550 OA
ENDBRANCH   2   3
ENDBRANCH   1   2
BRANCH   1   6
ATOM      6  C   UNL     1      39.774  25.457 225.406  1.00  0.00     0.000 C 
BRANCH   6   7
ATOM      7  C   UNL     1      39.307  26.607 226.308  1.00  0.00    -0.003 C 
ATOM      8  C   UNL     1      40.266  27.792 226.230  1.00  0.00     0.004 C 
ENDBRANCH   6   7
ENDBRANCH   1   6
TORSDOF 4
ENDMDL
MODEL 7
REMARK VINA RESULT:    -3.277      2.416      4.361
REMARK INTER + INTRA:          -4.106
REMARK INTER:                  -3.884
REMARK INTRA:                  -0.221
REMARK UNBOUND:                -0.062
REMARK SMILES CCCCCC(=O)[O-]
REMARK SMILES IDX 4 1 5 2 6 3 7 4 8 5 3 6 2 7 1 8
REMARK H PARENT
REMARK Flexibility Score: inf
ROOT
ATOM      1  C   UNL     1      38.789  24.524 223.900  1.00  0.00     0.006 C 
ENDROOT
BRANCH   1   2
ATOM      2  C   UNL     1      37.673  23.714 223.228  1.00  0.00     0.053 C 
BRANCH   2   3
ATOM      3  C   UNL     1      36.462  23.668 224.104  1.00  0.00     0.041 C 
ATOM      4  O   UNL     1      35.365  24.131 223.693  1.00  0.00    -0.550 OA
ATOM      5  O   UNL     1      36.530  23.068 225.354  1.00  0.00    -0.550 OA
ENDBRANCH   2   3
ENDBRANCH   1   2
BRANCH   1   6
ATOM      6  C   UNL     1      38.326  25.923 224.335  1.00  0.00     0.000 C 
BRANCH   6   7
ATOM      7  C   UNL     1      39.045  26.418 225.597  1.00  0.00    -0.003 C 
ATOM      8  C   UNL     1      38.439  25.798 226.854  1.00  0.00     0.004 C 
ENDBRANCH   6   7
ENDBRANCH   1   6
TORSDOF 4
ENDMDL
MODEL 8
REMARK VINA RESULT:    -3.264      2.587      3.223
REMARK INTER + INTRA:          -4.089
REMARK INTER:                  -3.872
REMARK INTRA:                  -0.217
REMARK UNBOUND:                -0.062
REMARK SMILES CCCCCC(=O)[O-]
REMARK SMILES IDX 4 1 5 2 6 3 7 4 8 5 3 6 2 7 1 8
REMARK H PARENT
REMARK Flexibility Score: inf
ROOT
ATOM      1  C   UNL     1      37.236  23.079 225.132  1.00  0.00     0.006 C 
ENDROOT
BRANCH   1   2
ATOM      2  C   UNL     1      36.334  23.853 224.162  1.00  0.00     0.053 C 
BRANCH   2   3
ATOM      3  C   UNL     1      36.431  25.323 224.419  1.00  0.00     0.041 C 
ATOM      4  O   UNL     1      37.148  26.049 223.680  1.00  0.00    -0.550 OA
ATOM      5  O   UNL     1      35.692  25.901 225.442  1.00  0.00    -0.550 OA
ENDBRANCH   2   3
ENDBRANCH   1   2
BRANCH   1   6
ATOM      6  C   UNL     1      38.491  22.513 224.449  1.00  0.00     0.000 C 
BRANCH   6   7
ATOM      7  C   UNL     1      39.625  23.543 224.351  1.00  0.00    -0.003 C 
ATOM      8  C   UNL     1      39.986  23.827 222.895  1.00  0.00     0.004 C 
ENDBRANCH   6   7
ENDBRANCH   1   6
TORSDOF 4
ENDMDL
MODEL 9
REMARK VINA RESULT:    -3.146      6.056      7.006
REMARK INTER + INTRA:          -3.943
REMARK INTER:                  -3.708
REMARK INTRA:                  -0.236
REMARK UNBOUND:                -0.062
REMARK SMILES CCCCCC(=O)[O-]
REMARK SMILES IDX 4 1 5 2 6 3 7 4 8 5 3 6 2 7 1 8
REMARK H PARENT
REMARK Flexibility Score: inf
ROOT
ATOM      1  C   UNL     1      37.839  18.506 227.402  1.00  0.00     0.006 C 
ENDROOT
BRANCH   1   2
ATOM      2  C   UNL     1      36.396  18.074 227.111  1.00  0.00     0.053 C 
BRANCH   2   3
ATOM      3  C   UNL     1      35.722  19.070 226.223  1.00  0.00     0.041 C 
ATOM      4  O   UNL     1      35.430  18.766 225.036  1.00  0.00    -0.550 OA
ATOM      5  O   UNL     1      35.369  20.318 226.720  1.00  0.00    -0.550 OA
ENDBRANCH   2   3
ENDBRANCH   1   2
BRANCH   1   6
ATOM      6  C   UNL     1      38.841  17.953 226.376  1.00  0.00     0.000 C 
BRANCH   6   7
ATOM      7  C   UNL     1      39.389  19.038 225.440  1.00  0.00    -0.003 C 
ATOM      8  C   UNL     1      39.159  20.432 226.019  1.00  0.00     0.004 C 
ENDBRANCH   6   7
ENDBRANCH   1   6
TORSDOF 4
ENDMDL
