MODEL 1
REMARK VINA RESULT:    -4.985      0.000      0.000
REMARK INTER + INTRA:          -5.789
REMARK INTER:                  -5.568
REMARK INTRA:                  -0.221
REMARK UNBOUND:                -0.221
REMARK SMILES O=C([O-])c1ccccc1C(=O)[O-]
REMARK SMILES IDX 4 1 9 2 5 3 8 4 6 5 7 6 2 7 1 8 3 9 10 10 11 11 12 12
REMARK H PARENT
REMARK Flexibility Score: inf
ROOT
ATOM      1  C   UNL     1     -34.234  43.337  40.575  1.00  0.00     0.006 A 
ATOM      2  C   UNL     1     -33.696  42.154  41.158  1.00  0.00     0.006 A 
ATOM      3  C   UNL     1     -35.246  44.036  41.258  1.00  0.00     0.010 A 
ATOM      4  C   UNL     1     -34.142  41.757  42.432  1.00  0.00     0.010 A 
ATOM      5  C   UNL     1     -35.689  43.609  42.510  1.00  0.00     0.001 A 
ATOM      6  C   UNL     1     -35.130  42.478  43.101  1.00  0.00     0.001 A 
ENDROOT
BRANCH   1   7
ATOM      7  C   UNL     1     -33.734  43.911  39.305  1.00  0.00     0.072 C 
ATOM      8  O   UNL     1     -32.756  44.705  39.298  1.00  0.00    -0.545 OA
ATOM      9  O   UNL     1     -34.383  43.630  38.108  1.00  0.00    -0.545 OA
ENDBRANCH   1   7
BRANCH   2  10
ATOM     10  C   UNL     1     -32.729  41.277  40.459  1.00  0.00     0.072 C 
ATOM     11  O   UNL     1     -31.488  41.449  40.594  1.00  0.00    -0.545 OA
ATOM     12  O   UNL     1     -33.183  40.294  39.589  1.00  0.00    -0.545 OA
ENDBRANCH   2  10
TORSDOF 2
ENDMDL
MODEL 2
REMARK VINA RESULT:    -4.980      0.074      2.878
REMARK INTER + INTRA:          -5.784
REMARK INTER:                  -5.562
REMARK INTRA:                  -0.222
REMARK UNBOUND:                -0.221
REMARK SMILES O=C([O-])c1ccccc1C(=O)[O-]
REMARK SMILES IDX 4 1 9 2 5 3 8 4 6 5 7 6 2 7 1 8 3 9 10 10 11 11 12 12
REMARK H PARENT
REMARK Flexibility Score: inf
ROOT
ATOM      1  C   UNL     1     -33.748  42.119  41.148  1.00  0.00     0.006 A 
ATOM      2  C   UNL     1     -34.244  43.320  40.567  1.00  0.00     0.006 A 
ATOM      3  C   UNL     1     -34.217  41.729  42.416  1.00  0.00     0.010 A 
ATOM      4  C   UNL     1     -35.239  44.048  41.246  1.00  0.00     0.010 A 
ATOM      5  C   UNL     1     -35.187  42.479  43.081  1.00  0.00     0.001 A 
ATOM      6  C   UNL     1     -35.705  43.630  42.492  1.00  0.00     0.001 A 
ENDROOT
BRANCH   1   7
ATOM      7  C   UNL     1     -32.804  41.214  40.452  1.00  0.00     0.072 C 
ATOM      8  O   UNL     1     -31.561  41.332  40.614  1.00  0.00    -0.545 OA
ATOM      9  O   UNL     1     -33.281  40.263  39.558  1.00  0.00    -0.545 OA
ENDBRANCH   1   7
BRANCH   2  10
ATOM     10  C   UNL     1     -33.715  43.884  39.303  1.00  0.00     0.072 C 
ATOM     11  O   UNL     1     -32.706  44.639  39.307  1.00  0.00    -0.545 OA
ATOM     12  O   UNL     1     -34.371  43.640  38.104  1.00  0.00    -0.545 OA
ENDBRANCH   2  10
TORSDOF 2
ENDMDL
MODEL 3
REMARK VINA RESULT:    -4.948      7.820      9.351
REMARK INTER + INTRA:          -5.748
REMARK INTER:                  -5.520
REMARK INTRA:                  -0.228
REMARK UNBOUND:                -0.221
REMARK SMILES O=C([O-])c1ccccc1C(=O)[O-]
REMARK SMILES IDX 4 1 9 2 5 3 8 4 6 5 7 6 2 7 1 8 3 9 10 10 11 11 12 12
REMARK H PARENT
REMARK Flexibility Score: inf
ROOT
ATOM      1  C   UNL     1     -38.789  38.053  46.621  1.00  0.00     0.006 A 
ATOM      2  C   UNL     1     -37.605  37.601  45.972  1.00  0.00     0.006 A 
ATOM      3  C   UNL     1     -39.575  39.040  45.998  1.00  0.00     0.010 A 
ATOM      4  C   UNL     1     -37.289  38.105  44.697  1.00  0.00     0.010 A 
ATOM      5  C   UNL     1     -39.230  39.542  44.743  1.00  0.00     0.001 A 
ATOM      6  C   UNL     1     -38.095  39.068  44.089  1.00  0.00     0.001 A 
ENDROOT
BRANCH   1   7
ATOM      7  C   UNL     1     -39.278  37.484  47.898  1.00  0.00     0.072 C 
ATOM      8  O   UNL     1     -38.996  38.031  48.997  1.00  0.00    -0.545 OA
ATOM      9  O   UNL     1     -40.002  36.297  47.901  1.00  0.00    -0.545 OA
ENDBRANCH   1   7
BRANCH   2  10
ATOM     10  C   UNL     1     -36.643  36.669  46.605  1.00  0.00     0.072 C 
ATOM     11  O   UNL     1     -36.757  35.423  46.451  1.00  0.00    -0.545 OA
ATOM     12  O   UNL     1     -35.642  37.157  47.434  1.00  0.00    -0.545 OA
ENDBRANCH   2  10
TORSDOF 2
ENDMDL
MODEL 4
REMARK VINA RESULT:    -4.911      7.812      9.459
REMARK INTER + INTRA:          -5.707
REMARK INTER:                  -5.484
REMARK INTRA:                  -0.223
REMARK UNBOUND:                -0.221
REMARK SMILES O=C([O-])c1ccccc1C(=O)[O-]
REMARK SMILES IDX 4 1 9 2 5 3 8 4 6 5 7 6 2 7 1 8 3 9 10 10 11 11 12 12
REMARK H PARENT
REMARK Flexibility Score: inf
ROOT
ATOM      1  C   UNL     1     -37.682  37.666  45.965  1.00  0.00     0.006 A 
ATOM      2  C   UNL     1     -38.863  38.107  46.627  1.00  0.00     0.006 A 
ATOM      3  C   UNL     1     -37.407  38.140  44.669  1.00  0.00     0.010 A 
ATOM      4  C   UNL     1     -39.687  39.055  45.993  1.00  0.00     0.010 A 
ATOM      5  C   UNL     1     -38.251  39.062  44.051  1.00  0.00     0.001 A 
ATOM      6  C   UNL     1     -39.383  39.528  44.716  1.00  0.00     0.001 A 
ENDROOT
BRANCH   1   7
ATOM      7  C   UNL     1     -36.683  36.778  46.603  1.00  0.00     0.072 C 
ATOM      8  O   UNL     1     -35.721  37.257  47.261  1.00  0.00    -0.545 OA
ATOM      9  O   UNL     1     -36.759  35.402  46.426  1.00  0.00    -0.545 OA
ENDBRANCH   1   7
BRANCH   2  10
ATOM     10  C   UNL     1     -39.309  37.566  47.931  1.00  0.00     0.072 C 
ATOM     11  O   UNL     1     -38.970  38.122  49.010  1.00  0.00    -0.545 OA
ATOM     12  O   UNL     1     -40.051  36.393  47.981  1.00  0.00    -0.545 OA
ENDBRANCH   2  10
TORSDOF 2
ENDMDL
MODEL 5
REMARK VINA RESULT:    -4.744      7.599      9.312
REMARK INTER + INTRA:          -5.520
REMARK INTER:                  -5.300
REMARK INTRA:                  -0.221
REMARK UNBOUND:                -0.221
REMARK SMILES O=C([O-])c1ccccc1C(=O)[O-]
REMARK SMILES IDX 4 1 9 2 5 3 8 4 6 5 7 6 2 7 1 8 3 9 10 10 11 11 12 12
REMARK H PARENT
REMARK Flexibility Score: inf
ROOT
ATOM      1  C   UNL     1     -38.198  36.988  46.703  1.00  0.00     0.006 A 
ATOM      2  C   UNL     1     -38.599  38.334  46.467  1.00  0.00     0.006 A 
ATOM      3  C   UNL     1     -39.069  36.128  47.398  1.00  0.00     0.010 A 
ATOM      4  C   UNL     1     -39.880  38.747  46.876  1.00  0.00     0.010 A 
ATOM      5  C   UNL     1     -40.325  36.567  47.814  1.00  0.00     0.001 A 
ATOM      6  C   UNL     1     -40.735  37.871  47.544  1.00  0.00     0.001 A 
ENDROOT
BRANCH   1   7
ATOM      7  C   UNL     1     -36.929  36.421  46.192  1.00  0.00     0.072 C 
ATOM      8  O   UNL     1     -35.890  36.423  46.903  1.00  0.00    -0.545 OA
ATOM      9  O   UNL     1     -36.855  35.938  44.891  1.00  0.00    -0.545 OA
ENDBRANCH   1   7
BRANCH   2  10
ATOM     10  C   UNL     1     -37.703  39.349  45.867  1.00  0.00     0.072 C 
ATOM     11  O   UNL     1     -37.068  40.159  46.594  1.00  0.00    -0.545 OA
ATOM     12  O   UNL     1     -37.606  39.464  44.486  1.00  0.00    -0.545 OA
ENDBRANCH   2  10
TORSDOF 2
ENDMDL
MODEL 6
REMARK VINA RESULT:    -4.731      7.607      8.882
REMARK INTER + INTRA:          -5.505
REMARK INTER:                  -5.282
REMARK INTRA:                  -0.224
REMARK UNBOUND:                -0.221
REMARK SMILES O=C([O-])c1ccccc1C(=O)[O-]
REMARK SMILES IDX 4 1 9 2 5 3 8 4 6 5 7 6 2 7 1 8 3 9 10 10 11 11 12 12
REMARK H PARENT
REMARK Flexibility Score: inf
ROOT
ATOM      1  C   UNL     1     -38.672  38.373  46.506  1.00  0.00     0.006 A 
ATOM      2  C   UNL     1     -38.229  37.031  46.678  1.00  0.00     0.006 A 
ATOM      3  C   UNL     1     -39.948  38.737  46.975  1.00  0.00     0.010 A 
ATOM      4  C   UNL     1     -39.052  36.123  47.370  1.00  0.00     0.010 A 
ATOM      5  C   UNL     1     -40.756  37.814  47.638  1.00  0.00     0.001 A 
ATOM      6  C   UNL     1     -40.304  36.512  47.845  1.00  0.00     0.001 A 
ENDROOT
BRANCH   1   7
ATOM      7  C   UNL     1     -37.824  39.434  45.915  1.00  0.00     0.072 C 
ATOM      8  O   UNL     1     -37.100  40.162  46.644  1.00  0.00    -0.545 OA
ATOM      9  O   UNL     1     -37.870  39.682  44.548  1.00  0.00    -0.545 OA
ENDBRANCH   1   7
BRANCH   2  10
ATOM     10  C   UNL     1     -36.964  36.518  46.103  1.00  0.00     0.072 C 
ATOM     11  O   UNL     1     -35.923  36.434  46.807  1.00  0.00    -0.545 OA
ATOM     12  O   UNL     1     -36.896  36.186  44.755  1.00  0.00    -0.545 OA
ENDBRANCH   2  10
TORSDOF 2
ENDMDL
MODEL 7
REMARK VINA RESULT:    -4.719      7.245      8.706
REMARK INTER + INTRA:          -5.492
REMARK INTER:                  -5.270
REMARK INTRA:                  -0.222
REMARK UNBOUND:                -0.221
REMARK SMILES O=C([O-])c1ccccc1C(=O)[O-]
REMARK SMILES IDX 4 1 9 2 5 3 8 4 6 5 7 6 2 7 1 8 3 9 10 10 11 11 12 12
REMARK H PARENT
REMARK Flexibility Score: inf
ROOT
ATOM      1  C   UNL     1     -37.190  37.207  44.972  1.00  0.00     0.006 A 
ATOM      2  C   UNL     1     -37.891  38.447  44.991  1.00  0.00     0.006 A 
ATOM      3  C   UNL     1     -36.779  36.673  43.737  1.00  0.00     0.010 A 
ATOM      4  C   UNL     1     -38.094  39.135  43.780  1.00  0.00     0.010 A 
ATOM      5  C   UNL     1     -37.012  37.363  42.547  1.00  0.00     0.001 A 
ATOM      6  C   UNL     1     -37.658  38.597  42.570  1.00  0.00     0.001 A 
ENDROOT
BRANCH   1   7
ATOM      7  C   UNL     1     -36.808  36.477  46.202  1.00  0.00     0.072 C 
ATOM      8  O   UNL     1     -37.463  35.471  46.584  1.00  0.00    -0.545 OA
ATOM      9  O   UNL     1     -35.758  36.936  46.989  1.00  0.00    -0.545 OA
ENDBRANCH   1   7
BRANCH   2  10
ATOM     10  C   UNL     1     -38.481  39.022  46.221  1.00  0.00     0.072 C 
ATOM     11  O   UNL     1     -37.832  39.841  46.925  1.00  0.00    -0.545 OA
ATOM     12  O   UNL     1     -39.736  38.610  46.650  1.00  0.00    -0.545 OA
ENDBRANCH   2  10
TORSDOF 2
ENDMDL
MODEL 8
REMARK VINA RESULT:    -4.716      2.445      3.972
REMARK INTER + INTRA:          -5.488
REMARK INTER:                  -5.271
REMARK INTRA:                  -0.218
REMARK UNBOUND:                -0.221
REMARK SMILES O=C([O-])c1ccccc1C(=O)[O-]
REMARK SMILES IDX 4 1 9 2 5 3 8 4 6 5 7 6 2 7 1 8 3 9 10 10 11 11 12 12
REMARK H PARENT
REMARK Flexibility Score: inf
ROOT
ATOM      1  C   UNL     1     -33.210  41.526  42.567  1.00  0.00     0.006 A 
ATOM      2  C   UNL     1     -32.702  41.544  41.237  1.00  0.00     0.006 A 
ATOM      3  C   UNL     1     -32.307  41.419  43.641  1.00  0.00     0.010 A 
ATOM      4  C   UNL     1     -31.309  41.522  41.037  1.00  0.00     0.010 A 
ATOM      5  C   UNL     1     -30.931  41.374  43.418  1.00  0.00     0.001 A 
ATOM      6  C   UNL     1     -30.432  41.437  42.118  1.00  0.00     0.001 A 
ENDROOT
BRANCH   1   7
ATOM      7  C   UNL     1     -34.647  41.684  42.885  1.00  0.00     0.072 C 
ATOM      8  O   UNL     1     -35.401  40.679  42.979  1.00  0.00    -0.545 OA
ATOM      9  O   UNL     1     -35.197  42.954  43.018  1.00  0.00    -0.545 OA
ENDBRANCH   1   7
BRANCH   2  10
ATOM     10  C   UNL     1     -33.573  41.519  40.039  1.00  0.00     0.072 C 
ATOM     11  O   UNL     1     -33.798  40.439  39.429  1.00  0.00    -0.545 OA
ATOM     12  O   UNL     1     -34.097  42.702  39.534  1.00  0.00    -0.545 OA
ENDBRANCH   2  10
TORSDOF 2
ENDMDL
MODEL 9
REMARK VINA RESULT:    -4.709      2.432      3.758
REMARK INTER + INTRA:          -5.481
REMARK INTER:                  -5.267
REMARK INTRA:                  -0.215
REMARK UNBOUND:                -0.221
REMARK SMILES O=C([O-])c1ccccc1C(=O)[O-]
REMARK SMILES IDX 4 1 9 2 5 3 8 4 6 5 7 6 2 7 1 8 3 9 10 10 11 11 12 12
REMARK H PARENT
REMARK Flexibility Score: inf
ROOT
ATOM      1  C   UNL     1     -32.743  41.492  41.240  1.00  0.00     0.006 A 
ATOM      2  C   UNL     1     -33.279  41.504  42.559  1.00  0.00     0.006 A 
ATOM      3  C   UNL     1     -31.346  41.474  41.070  1.00  0.00     0.010 A 
ATOM      4  C   UNL     1     -32.399  41.428  43.655  1.00  0.00     0.010 A 
ATOM      5  C   UNL     1     -30.493  41.423  42.171  1.00  0.00     0.001 A 
ATOM      6  C   UNL     1     -31.018  41.389  43.461  1.00  0.00     0.001 A 
ENDROOT
BRANCH   1   7
ATOM      7  C   UNL     1     -33.589  41.431  40.025  1.00  0.00     0.072 C 
ATOM      8  O   UNL     1     -33.773  40.340  39.423  1.00  0.00    -0.545 OA
ATOM      9  O   UNL     1     -34.136  42.594  39.497  1.00  0.00    -0.545 OA
ENDBRANCH   1   7
BRANCH   2  10
ATOM     10  C   UNL     1     -34.724  41.659  42.843  1.00  0.00     0.072 C 
ATOM     11  O   UNL     1     -35.474  40.651  42.938  1.00  0.00    -0.545 OA
ATOM     12  O   UNL     1     -35.283  42.927  42.939  1.00  0.00    -0.545 OA
ENDBRANCH   2  10
TORSDOF 2
ENDMDL
