MODEL 1
REMARK VINA RESULT:    -7.445      0.000      0.000
REMARK INTER + INTRA:          -8.927
REMARK INTER:                  -9.186
REMARK INTRA:                   0.259
REMARK UNBOUND:                 0.259
REMARK SMILES Oc1cc(O)c2cc(O)c(-c3cc(O)c(O)c(O)c3)[o+]c2c1
REMARK SMILES IDX 10 1 20 2 21 3 22 4 2 5 3 6 4 7 6 8 7 9 8 10 11 11 12 12
REMARK SMILES IDX 13 13 19 14 15 15 17 16 14 17 16 19 18 21 9 23 1 25 5 27
REMARK H PARENT 14 18 16 20 18 22 9 24 1 26 5 28
REMARK Flexibility Score: inf
ROOT
ATOM      1  C   UNL     1      -1.134  -0.151  27.339  1.00  0.00     0.402 A 
ATOM      2  O   UNL     1      -2.272   0.387  27.765  1.00  0.00    -0.202 OA
ATOM      3  C   UNL     1      -2.727   0.248  29.006  1.00  0.00     0.368 A 
ATOM      4  C   UNL     1      -3.938   0.849  29.359  1.00  0.00     0.162 A 
ATOM      5  C   UNL     1      -4.440   0.717  30.654  1.00  0.00     0.128 A 
ATOM      6  C   UNL     1      -3.728  -0.022  31.605  1.00  0.00     0.093 A 
ATOM      7  C   UNL     1      -2.513  -0.634  31.277  1.00  0.00     0.136 A 
ATOM      8  C   UNL     1      -1.997  -0.501  29.962  1.00  0.00     0.125 A 
ATOM      9  C   UNL     1      -0.781  -1.068  29.546  1.00  0.00     0.078 A 
ATOM     10  C   UNL     1      -0.335  -0.888  28.234  1.00  0.00     0.223 A 
ENDROOT
BRANCH   1  11
ATOM     11  C   UNL     1      -0.739   0.068  25.928  1.00  0.00     0.091 A 
ATOM     12  C   UNL     1      -1.731   0.269  24.958  1.00  0.00     0.068 A 
ATOM     13  C   UNL     1      -1.396   0.457  23.612  1.00  0.00     0.162 A 
ATOM     14  C   UNL     1       0.605   0.021  25.530  1.00  0.00     0.068 A 
ATOM     15  C   UNL     1      -0.036   0.432  23.221  1.00  0.00     0.200 A 
ATOM     16  C   UNL     1       0.956   0.208  24.187  1.00  0.00     0.162 A 
BRANCH  13  17
ATOM     17  O   UNL     1      -2.438   0.664  22.706  1.00  0.00    -0.504 OA
ATOM     18  H   UNL     1      -2.337   1.157  21.830  1.00  0.00     0.293 HD
ENDBRANCH  13  17
BRANCH  15  19
ATOM     19  O   UNL     1       0.368   0.621  21.897  1.00  0.00    -0.502 OA
ATOM     20  H   UNL     1      -0.205   0.405  21.095  1.00  0.00     0.293 HD
ENDBRANCH  15  19
BRANCH  16  21
ATOM     21  O   UNL     1       2.295   0.167  23.799  1.00  0.00    -0.504 OA
ATOM     22  H   UNL     1       2.573  -0.175  22.887  1.00  0.00     0.293 HD
ENDBRANCH  16  21
ENDBRANCH   1  11
BRANCH  10  23
ATOM     23  O   UNL     1       0.895  -1.409  27.835  1.00  0.00    -0.500 OA
ATOM     24  H   UNL     1       1.383  -2.106  28.387  1.00  0.00     0.294 HD
ENDBRANCH  10  23
BRANCH   5  25
ATOM     25  O   UNL     1      -5.649   1.325  30.987  1.00  0.00    -0.507 OA
ATOM     26  H   UNL     1      -5.875   1.565  31.945  1.00  0.00     0.293 HD
ENDBRANCH   5  25
BRANCH   7  27
ATOM     27  O   UNL     1      -1.864  -1.358  32.282  1.00  0.00    -0.507 OA
ATOM     28  H   UNL     1      -1.585  -0.973  33.173  1.00  0.00     0.293 HD
ENDBRANCH   7  27
TORSDOF 7
ENDMDL
MODEL 2
REMARK VINA RESULT:    -7.384      1.422      7.028
REMARK INTER + INTRA:          -8.852
REMARK INTER:                  -8.492
REMARK INTRA:                  -0.360
REMARK UNBOUND:                 0.259
REMARK SMILES Oc1cc(O)c2cc(O)c(-c3cc(O)c(O)c(O)c3)[o+]c2c1
REMARK SMILES IDX 10 1 20 2 21 3 22 4 2 5 3 6 4 7 6 8 7 9 8 10 11 11 12 12
REMARK SMILES IDX 13 13 19 14 15 15 17 16 14 17 16 19 18 21 9 23 1 25 5 27
REMARK H PARENT 14 18 16 20 18 22 9 24 1 26 5 28
REMARK Flexibility Score: inf
ROOT
ATOM      1  C   UNL     1      -1.401  -0.268  27.217  1.00  0.00     0.402 A 
ATOM      2  O   UNL     1      -1.881  -0.230  25.978  1.00  0.00    -0.202 OA
ATOM      3  C   UNL     1      -1.119  -0.050  24.904  1.00  0.00     0.368 A 
ATOM      4  C   UNL     1      -1.717  -0.022  23.642  1.00  0.00     0.162 A 
ATOM      5  C   UNL     1      -0.941   0.168  22.498  1.00  0.00     0.128 A 
ATOM      6  C   UNL     1       0.444   0.331  22.615  1.00  0.00     0.093 A 
ATOM      7  C   UNL     1       1.068   0.306  23.867  1.00  0.00     0.136 A 
ATOM      8  C   UNL     1       0.282   0.112  25.034  1.00  0.00     0.125 A 
ATOM      9  C   UNL     1       0.822   0.060  26.330  1.00  0.00     0.078 A 
ATOM     10  C   UNL     1      -0.015  -0.141  27.430  1.00  0.00     0.223 A 
ENDROOT
BRANCH   1  11
ATOM     11  C   UNL     1      -2.356  -0.464  28.333  1.00  0.00     0.091 A 
ATOM     12  C   UNL     1      -2.567  -1.753  28.841  1.00  0.00     0.068 A 
ATOM     13  C   UNL     1      -3.477  -1.978  29.881  1.00  0.00     0.162 A 
ATOM     14  C   UNL     1      -3.098   0.606  28.856  1.00  0.00     0.068 A 
ATOM     15  C   UNL     1      -4.205  -0.891  30.419  1.00  0.00     0.200 A 
ATOM     16  C   UNL     1      -4.012   0.395  29.896  1.00  0.00     0.162 A 
BRANCH  13  17
ATOM     17  O   UNL     1      -3.623  -3.288  30.343  1.00  0.00    -0.504 OA
ATOM     18  H   UNL     1      -4.384  -3.599  30.930  1.00  0.00     0.293 HD
ENDBRANCH  13  17
BRANCH  15  19
ATOM     19  O   UNL     1      -5.123  -1.045  31.461  1.00  0.00    -0.502 OA
ATOM     20  H   UNL     1      -5.405  -0.300  32.081  1.00  0.00     0.293 HD
ENDBRANCH  15  19
BRANCH  16  21
ATOM     21  O   UNL     1      -4.742   1.464  30.415  1.00  0.00    -0.504 OA
ATOM     22  H   UNL     1      -4.294   2.208  30.938  1.00  0.00     0.293 HD
ENDBRANCH  16  21
ENDBRANCH   1  11
BRANCH  10  23
ATOM     23  O   UNL     1       0.525  -0.242  28.712  1.00  0.00    -0.500 OA
ATOM     24  H   UNL     1       0.542  -1.123  29.215  1.00  0.00     0.294 HD
ENDBRANCH  10  23
BRANCH   5  25
ATOM     25  O   UNL     1      -1.555   0.192  21.247  1.00  0.00    -0.507 OA
ATOM     26  H   UNL     1      -1.839   1.062  20.814  1.00  0.00     0.293 HD
ENDBRANCH   5  25
BRANCH   7  27
ATOM     27  O   UNL     1       2.455   0.480  23.901  1.00  0.00    -0.507 OA
ATOM     28  H   UNL     1       3.119  -0.264  24.056  1.00  0.00     0.293 HD
ENDBRANCH   7  27
TORSDOF 7
ENDMDL
MODEL 3
REMARK VINA RESULT:    -7.338      4.993     10.963
REMARK INTER + INTRA:          -8.795
REMARK INTER:                  -8.986
REMARK INTRA:                   0.191
REMARK UNBOUND:                 0.259
REMARK SMILES Oc1cc(O)c2cc(O)c(-c3cc(O)c(O)c(O)c3)[o+]c2c1
REMARK SMILES IDX 10 1 20 2 21 3 22 4 2 5 3 6 4 7 6 8 7 9 8 10 11 11 12 12
REMARK SMILES IDX 13 13 19 14 15 15 17 16 14 17 16 19 18 21 9 23 1 25 5 27
REMARK H PARENT 14 18 16 20 18 22 9 24 1 26 5 28
REMARK Flexibility Score: inf
ROOT
ATOM      1  C   UNL     1       0.817   0.074  19.678  1.00  0.00     0.402 A 
ATOM      2  O   UNL     1       1.939   0.660  19.273  1.00  0.00    -0.202 OA
ATOM      3  C   UNL     1       2.381   0.605  18.021  1.00  0.00     0.368 A 
ATOM      4  C   UNL     1       3.575   1.252  17.691  1.00  0.00     0.162 A 
ATOM      5  C   UNL     1       4.064   1.207  16.385  1.00  0.00     0.128 A 
ATOM      6  C   UNL     1       3.356   0.510  15.400  1.00  0.00     0.093 A 
ATOM      7  C   UNL     1       2.158  -0.147  15.704  1.00  0.00     0.136 A 
ATOM      8  C   UNL     1       1.656  -0.102  17.031  1.00  0.00     0.125 A 
ATOM      9  C   UNL     1       0.457  -0.719  17.425  1.00  0.00     0.078 A 
ATOM     10  C   UNL     1       0.023  -0.626  18.750  1.00  0.00     0.223 A 
ENDROOT
BRANCH   1  11
ATOM     11  C   UNL     1       0.435   0.201  21.104  1.00  0.00     0.091 A 
ATOM     12  C   UNL     1       1.435   0.234  22.085  1.00  0.00     0.068 A 
ATOM     13  C   UNL     1       1.109   0.331  23.443  1.00  0.00     0.162 A 
ATOM     14  C   UNL     1      -0.911   0.231  21.499  1.00  0.00     0.068 A 
ATOM     15  C   UNL     1      -0.250   0.385  23.834  1.00  0.00     0.200 A 
ATOM     16  C   UNL     1      -1.252   0.328  22.854  1.00  0.00     0.162 A 
BRANCH  13  17
ATOM     17  O   UNL     1       2.160   0.372  24.362  1.00  0.00    -0.504 OA
ATOM     18  H   UNL     1       3.057   0.798  24.178  1.00  0.00     0.293 HD
ENDBRANCH  13  17
BRANCH  15  19
ATOM     19  O   UNL     1      -0.644   0.489  25.170  1.00  0.00    -0.502 OA
ATOM     20  H   UNL     1      -0.664   1.355  25.687  1.00  0.00     0.293 HD
ENDBRANCH  15  19
BRANCH  16  21
ATOM     21  O   UNL     1      -2.591   0.364  23.240  1.00  0.00    -0.504 OA
ATOM     22  H   UNL     1      -3.014   1.206  23.612  1.00  0.00     0.293 HD
ENDBRANCH  16  21
ENDBRANCH   1  11
BRANCH  10  23
ATOM     23  O   UNL     1      -1.191  -1.197  19.131  1.00  0.00    -0.500 OA
ATOM     24  H   UNL     1      -1.230  -2.024  19.716  1.00  0.00     0.294 HD
ENDBRANCH  10  23
BRANCH   5  25
ATOM     25  O   UNL     1       5.256   1.859  16.076  1.00  0.00    -0.507 OA
ATOM     26  H   UNL     1       5.335   2.868  16.123  1.00  0.00     0.293 HD
ENDBRANCH   5  25
BRANCH   7  27
ATOM     27  O   UNL     1       1.513  -0.824  14.665  1.00  0.00    -0.507 OA
ATOM     28  H   UNL     1       1.176  -1.773  14.725  1.00  0.00     0.293 HD
ENDBRANCH   7  27
TORSDOF 7
ENDMDL
MODEL 4
REMARK VINA RESULT:    -7.318      0.116      1.802
REMARK INTER + INTRA:          -8.770
REMARK INTER:                  -9.023
REMARK INTRA:                   0.253
REMARK UNBOUND:                 0.259
REMARK SMILES Oc1cc(O)c2cc(O)c(-c3cc(O)c(O)c(O)c3)[o+]c2c1
REMARK SMILES IDX 10 1 20 2 21 3 22 4 2 5 3 6 4 7 6 8 7 9 8 10 11 11 12 12
REMARK SMILES IDX 13 13 19 14 15 15 17 16 14 17 16 19 18 21 9 23 1 25 5 27
REMARK H PARENT 14 18 16 20 18 22 9 24 1 26 5 28
REMARK Flexibility Score: inf
ROOT
ATOM      1  C   UNL     1      -1.235  -0.197  27.379  1.00  0.00     0.402 A 
ATOM      2  O   UNL     1      -2.359   0.361  27.816  1.00  0.00    -0.202 OA
ATOM      3  C   UNL     1      -2.802   0.232  29.063  1.00  0.00     0.368 A 
ATOM      4  C   UNL     1      -3.999   0.855  29.428  1.00  0.00     0.162 A 
ATOM      5  C   UNL     1      -4.489   0.733  30.728  1.00  0.00     0.128 A 
ATOM      6  C   UNL     1      -3.779  -0.017  31.673  1.00  0.00     0.093 A 
ATOM      7  C   UNL     1      -2.579  -0.651  31.333  1.00  0.00     0.136 A 
ATOM      8  C   UNL     1      -2.075  -0.528  30.011  1.00  0.00     0.125 A 
ATOM      9  C   UNL     1      -0.874  -1.117  29.583  1.00  0.00     0.078 A 
ATOM     10  C   UNL     1      -0.439  -0.947  28.266  1.00  0.00     0.223 A 
ENDROOT
BRANCH   1  11
ATOM     11  C   UNL     1      -0.852   0.014  25.963  1.00  0.00     0.091 A 
ATOM     12  C   UNL     1       0.505   0.053  25.614  1.00  0.00     0.068 A 
ATOM     13  C   UNL     1       0.903   0.270  24.290  1.00  0.00     0.162 A 
ATOM     14  C   UNL     1      -1.819   0.233  24.970  1.00  0.00     0.068 A 
ATOM     15  C   UNL     1      -0.078   0.468  23.289  1.00  0.00     0.200 A 
ATOM     16  C   UNL     1      -1.435   0.452  23.641  1.00  0.00     0.162 A 
BRANCH  13  17
ATOM     17  O   UNL     1       2.272   0.283  24.017  1.00  0.00    -0.504 OA
ATOM     18  H   UNL     1       2.733  -0.372  23.402  1.00  0.00     0.293 HD
ENDBRANCH  13  17
BRANCH  15  19
ATOM     19  O   UNL     1       0.250   0.683  21.948  1.00  0.00    -0.502 OA
ATOM     20  H   UNL     1       0.464  -0.054  21.293  1.00  0.00     0.293 HD
ENDBRANCH  15  19
BRANCH  16  21
ATOM     21  O   UNL     1      -2.402   0.663  22.658  1.00  0.00    -0.504 OA
ATOM     22  H   UNL     1      -2.305   1.398  21.967  1.00  0.00     0.293 HD
ENDBRANCH  16  21
ENDBRANCH   1  11
BRANCH  10  23
ATOM     23  O   UNL     1       0.777  -1.490  27.854  1.00  0.00    -0.500 OA
ATOM     24  H   UNL     1       0.928  -2.492  27.817  1.00  0.00     0.294 HD
ENDBRANCH  10  23
BRANCH   5  25
ATOM     25  O   UNL     1      -5.683   1.362  31.074  1.00  0.00    -0.507 OA
ATOM     26  H   UNL     1      -5.963   2.238  30.647  1.00  0.00     0.293 HD
ENDBRANCH   5  25
BRANCH   7  27
ATOM     27  O   UNL     1      -1.931  -1.384  32.331  1.00  0.00    -0.507 OA
ATOM     28  H   UNL     1      -1.171  -1.033  32.895  1.00  0.00     0.293 HD
ENDBRANCH   7  27
TORSDOF 7
ENDMDL
MODEL 5
REMARK VINA RESULT:    -7.254      4.441      7.979
REMARK INTER + INTRA:          -8.691
REMARK INTER:                  -8.308
REMARK INTRA:                  -0.383
REMARK UNBOUND:                 0.259
REMARK SMILES Oc1cc(O)c2cc(O)c(-c3cc(O)c(O)c(O)c3)[o+]c2c1
REMARK SMILES IDX 10 1 20 2 21 3 22 4 2 5 3 6 4 7 6 8 7 9 8 10 11 11 12 12
REMARK SMILES IDX 13 13 19 14 15 15 17 16 14 17 16 19 18 21 9 23 1 25 5 27
REMARK H PARENT 14 18 16 20 18 22 9 24 1 26 5 28
REMARK Flexibility Score: inf
ROOT
ATOM      1  C   UNL     1       1.117   0.125  20.120  1.00  0.00     0.402 A 
ATOM      2  O   UNL     1       1.587  -0.028  21.354  1.00  0.00    -0.202 OA
ATOM      3  C   UNL     1       0.823   0.039  22.440  1.00  0.00     0.368 A 
ATOM      4  C   UNL     1       1.409  -0.131  23.697  1.00  0.00     0.162 A 
ATOM      5  C   UNL     1       0.632  -0.063  24.853  1.00  0.00     0.128 A 
ATOM      6  C   UNL     1      -0.743   0.178  24.755  1.00  0.00     0.093 A 
ATOM      7  C   UNL     1      -1.355   0.352  23.508  1.00  0.00     0.136 A 
ATOM      8  C   UNL     1      -0.568   0.281  22.329  1.00  0.00     0.125 A 
ATOM      9  C   UNL     1      -1.097   0.431  21.036  1.00  0.00     0.078 A 
ATOM     10  C   UNL     1      -0.259   0.343  19.921  1.00  0.00     0.223 A 
ENDROOT
BRANCH   1  11
ATOM     11  C   UNL     1       2.073   0.038  18.991  1.00  0.00     0.091 A 
ATOM     12  C   UNL     1       2.347  -1.210  18.414  1.00  0.00     0.068 A 
ATOM     13  C   UNL     1       3.259  -1.332  17.360  1.00  0.00     0.162 A 
ATOM     14  C   UNL     1       2.755   1.171  18.523  1.00  0.00     0.068 A 
ATOM     15  C   UNL     1       3.927  -0.182  16.877  1.00  0.00     0.200 A 
ATOM     16  C   UNL     1       3.671   1.064  17.469  1.00  0.00     0.162 A 
BRANCH  13  17
ATOM     17  O   UNL     1       3.471  -2.606  16.828  1.00  0.00    -0.504 OA
ATOM     18  H   UNL     1       2.907  -3.413  17.051  1.00  0.00     0.293 HD
ENDBRANCH  13  17
BRANCH  15  19
ATOM     19  O   UNL     1       4.844  -0.232  15.824  1.00  0.00    -0.502 OA
ATOM     20  H   UNL     1       5.791  -0.568  15.914  1.00  0.00     0.293 HD
ENDBRANCH  15  19
BRANCH  16  21
ATOM     21  O   UNL     1       4.340   2.195  17.004  1.00  0.00    -0.504 OA
ATOM     22  H   UNL     1       4.333   3.066  17.522  1.00  0.00     0.293 HD
ENDBRANCH  16  21
ENDBRANCH   1  11
BRANCH  10  23
ATOM     23  O   UNL     1      -0.791   0.442  18.636  1.00  0.00    -0.500 OA
ATOM     24  H   UNL     1      -1.691   0.877  18.464  1.00  0.00     0.294 HD
ENDBRANCH  10  23
BRANCH   5  25
ATOM     25  O   UNL     1       1.235  -0.237  26.097  1.00  0.00    -0.507 OA
ATOM     26  H   UNL     1       1.536  -1.150  26.417  1.00  0.00     0.293 HD
ENDBRANCH   5  25
BRANCH   7  27
ATOM     27  O   UNL     1      -2.732   0.592  23.495  1.00  0.00    -0.507 OA
ATOM     28  H   UNL     1      -3.219   1.160  24.172  1.00  0.00     0.293 HD
ENDBRANCH   7  27
TORSDOF 7
ENDMDL
MODEL 6
REMARK VINA RESULT:    -6.855      2.164      7.342
REMARK INTER + INTRA:          -8.199
REMARK INTER:                  -7.849
REMARK INTRA:                  -0.350
REMARK UNBOUND:                 0.259
REMARK SMILES Oc1cc(O)c2cc(O)c(-c3cc(O)c(O)c(O)c3)[o+]c2c1
REMARK SMILES IDX 10 1 20 2 21 3 22 4 2 5 3 6 4 7 6 8 7 9 8 10 11 11 12 12
REMARK SMILES IDX 13 13 19 14 15 15 17 16 14 17 16 19 18 21 9 23 1 25 5 27
REMARK H PARENT 14 18 16 20 18 22 9 24 1 26 5 28
REMARK Flexibility Score: inf
ROOT
ATOM      1  C   UNL     1      -1.430  -1.860  27.970  1.00  0.00     0.402 A 
ATOM      2  O   UNL     1      -1.082  -0.883  27.139  1.00  0.00    -0.202 OA
ATOM      3  C   UNL     1      -0.721  -1.091  25.877  1.00  0.00     0.368 A 
ATOM      4  C   UNL     1      -0.369   0.002  25.081  1.00  0.00     0.162 A 
ATOM      5  C   UNL     1       0.017  -0.188  23.754  1.00  0.00     0.128 A 
ATOM      6  C   UNL     1       0.054  -1.480  23.217  1.00  0.00     0.093 A 
ATOM      7  C   UNL     1      -0.293  -2.591  23.993  1.00  0.00     0.136 A 
ATOM      8  C   UNL     1      -0.689  -2.402  25.343  1.00  0.00     0.125 A 
ATOM      9  C   UNL     1      -1.067  -3.455  26.193  1.00  0.00     0.078 A 
ATOM     10  C   UNL     1      -1.450  -3.190  27.510  1.00  0.00     0.223 A 
ENDROOT
BRANCH   1  11
ATOM     11  C   UNL     1      -1.804  -1.500  29.358  1.00  0.00     0.091 A 
ATOM     12  C   UNL     1      -0.881  -1.696  30.394  1.00  0.00     0.068 A 
ATOM     13  C   UNL     1      -1.208  -1.387  31.720  1.00  0.00     0.162 A 
ATOM     14  C   UNL     1      -3.087  -1.022  29.668  1.00  0.00     0.068 A 
ATOM     15  C   UNL     1      -2.495  -0.883  32.022  1.00  0.00     0.200 A 
ATOM     16  C   UNL     1      -3.428  -0.709  30.989  1.00  0.00     0.162 A 
BRANCH  13  17
ATOM     17  O   UNL     1      -0.232  -1.596  32.696  1.00  0.00    -0.504 OA
ATOM     18  H   UNL     1      -0.422  -1.964  33.617  1.00  0.00     0.293 HD
ENDBRANCH  13  17
BRANCH  15  19
ATOM     19  O   UNL     1      -2.885  -0.548  33.321  1.00  0.00    -0.502 OA
ATOM     20  H   UNL     1      -2.290  -0.641  34.131  1.00  0.00     0.293 HD
ENDBRANCH  15  19
BRANCH  16  21
ATOM     21  O   UNL     1      -4.702  -0.228  31.289  1.00  0.00    -0.504 OA
ATOM     22  H   UNL     1      -5.334   0.090  30.563  1.00  0.00     0.293 HD
ENDBRANCH  16  21
ENDBRANCH   1  11
BRANCH  10  23
ATOM     23  O   UNL     1      -1.872  -4.229  28.339  1.00  0.00    -0.500 OA
ATOM     24  H   UNL     1      -2.650  -4.829  28.087  1.00  0.00     0.294 HD
ENDBRANCH  10  23
BRANCH   5  25
ATOM     25  O   UNL     1       0.363   0.915  22.975  1.00  0.00    -0.507 OA
ATOM     26  H   UNL     1       0.943   0.820  22.150  1.00  0.00     0.293 HD
ENDBRANCH   5  25
BRANCH   7  27
ATOM     27  O   UNL     1      -0.228  -3.848  23.385  1.00  0.00    -0.507 OA
ATOM     28  H   UNL     1      -0.983  -4.518  23.377  1.00  0.00     0.293 HD
ENDBRANCH   7  27
TORSDOF 7
ENDMDL
MODEL 7
REMARK VINA RESULT:    -6.848      5.698      9.045
REMARK INTER + INTRA:          -8.190
REMARK INTER:                  -8.063
REMARK INTRA:                  -0.127
REMARK UNBOUND:                 0.259
REMARK SMILES Oc1cc(O)c2cc(O)c(-c3cc(O)c(O)c(O)c3)[o+]c2c1
REMARK SMILES IDX 10 1 20 2 21 3 22 4 2 5 3 6 4 7 6 8 7 9 8 10 11 11 12 12
REMARK SMILES IDX 13 13 19 14 15 15 17 16 14 17 16 19 18 21 9 23 1 25 5 27
REMARK H PARENT 14 18 16 20 18 22 9 24 1 26 5 28
REMARK Flexibility Score: inf
ROOT
ATOM      1  C   UNL     1       1.493  -0.976  18.761  1.00  0.00     0.402 A 
ATOM      2  O   UNL     1       0.958  -0.199  19.697  1.00  0.00    -0.202 OA
ATOM      3  C   UNL     1       0.320  -0.672  20.763  1.00  0.00     0.368 A 
ATOM      4  C   UNL     1      -0.212   0.227  21.692  1.00  0.00     0.162 A 
ATOM      5  C   UNL     1      -0.889  -0.242  22.818  1.00  0.00     0.128 A 
ATOM      6  C   UNL     1      -1.039  -1.619  23.018  1.00  0.00     0.093 A 
ATOM      7  C   UNL     1      -0.516  -2.539  22.103  1.00  0.00     0.136 A 
ATOM      8  C   UNL     1       0.176  -2.067  20.957  1.00  0.00     0.125 A 
ATOM      9  C   UNL     1       0.745  -2.916  19.993  1.00  0.00     0.078 A 
ATOM     10  C   UNL     1       1.417  -2.376  18.893  1.00  0.00     0.223 A 
ENDROOT
BRANCH   1  11
ATOM     11  C   UNL     1       2.171  -0.328  17.615  1.00  0.00     0.091 A 
ATOM     12  C   UNL     1       1.772  -0.644  16.309  1.00  0.00     0.068 A 
ATOM     13  C   UNL     1       2.405  -0.067  15.202  1.00  0.00     0.162 A 
ATOM     14  C   UNL     1       3.247   0.553  17.806  1.00  0.00     0.068 A 
ATOM     15  C   UNL     1       3.473   0.839  15.402  1.00  0.00     0.200 A 
ATOM     16  C   UNL     1       3.890   1.137  16.707  1.00  0.00     0.162 A 
BRANCH  13  17
ATOM     17  O   UNL     1       1.943  -0.420  13.932  1.00  0.00    -0.504 OA
ATOM     18  H   UNL     1       2.368  -1.129  13.352  1.00  0.00     0.293 HD
ENDBRANCH  13  17
BRANCH  15  19
ATOM     19  O   UNL     1       4.144   1.455  14.342  1.00  0.00    -0.502 OA
ATOM     20  H   UNL     1       4.966   1.076  13.896  1.00  0.00     0.293 HD
ENDBRANCH  15  19
BRANCH  16  21
ATOM     21  O   UNL     1       4.954   2.017  16.904  1.00  0.00    -0.504 OA
ATOM     22  H   UNL     1       4.954   2.688  17.664  1.00  0.00     0.293 HD
ENDBRANCH  16  21
ENDBRANCH   1  11
BRANCH  10  23
ATOM     23  O   UNL     1       2.024  -3.218  17.961  1.00  0.00    -0.500 OA
ATOM     24  H   UNL     1       2.094  -4.218  18.113  1.00  0.00     0.294 HD
ENDBRANCH  10  23
BRANCH   5  25
ATOM     25  O   UNL     1      -1.412   0.669  23.734  1.00  0.00    -0.507 OA
ATOM     26  H   UNL     1      -2.250   0.466  24.264  1.00  0.00     0.293 HD
ENDBRANCH   5  25
BRANCH   7  27
ATOM     27  O   UNL     1      -0.710  -3.897  22.372  1.00  0.00    -0.507 OA
ATOM     28  H   UNL     1      -1.352  -4.492  21.870  1.00  0.00     0.293 HD
ENDBRANCH   7  27
TORSDOF 7
ENDMDL
MODEL 8
REMARK VINA RESULT:    -6.839      2.299      7.419
REMARK INTER + INTRA:          -8.179
REMARK INTER:                  -7.805
REMARK INTRA:                  -0.374
REMARK UNBOUND:                 0.259
REMARK SMILES Oc1cc(O)c2cc(O)c(-c3cc(O)c(O)c(O)c3)[o+]c2c1
REMARK SMILES IDX 10 1 20 2 21 3 22 4 2 5 3 6 4 7 6 8 7 9 8 10 11 11 12 12
REMARK SMILES IDX 13 13 19 14 15 15 17 16 14 17 16 19 18 21 9 23 1 25 5 27
REMARK H PARENT 14 18 16 20 18 22 9 24 1 26 5 28
REMARK Flexibility Score: inf
ROOT
ATOM      1  C   UNL     1      -0.765  -1.035  27.904  1.00  0.00     0.402 A 
ATOM      2  O   UNL     1      -1.003  -2.138  27.202  1.00  0.00    -0.202 OA
ATOM      3  C   UNL     1      -0.618  -2.299  25.940  1.00  0.00     0.368 A 
ATOM      4  C   UNL     1      -0.918  -3.495  25.283  1.00  0.00     0.162 A 
ATOM      5  C   UNL     1      -0.528  -3.689  23.958  1.00  0.00     0.128 A 
ATOM      6  C   UNL     1       0.168  -2.681  23.282  1.00  0.00     0.093 A 
ATOM      7  C   UNL     1       0.480  -1.473  23.916  1.00  0.00     0.136 A 
ATOM      8  C   UNL     1       0.087  -1.272  25.265  1.00  0.00     0.125 A 
ATOM      9  C   UNL     1       0.368  -0.100  25.986  1.00  0.00     0.078 A 
ATOM     10  C   UNL     1      -0.047   0.023  27.315  1.00  0.00     0.223 A 
ENDROOT
BRANCH   1  11
ATOM     11  C   UNL     1      -1.255  -0.973  29.301  1.00  0.00     0.091 A 
ATOM     12  C   UNL     1      -0.414  -1.380  30.345  1.00  0.00     0.068 A 
ATOM     13  C   UNL     1      -0.851  -1.355  31.675  1.00  0.00     0.162 A 
ATOM     14  C   UNL     1      -2.566  -0.571  29.598  1.00  0.00     0.068 A 
ATOM     15  C   UNL     1      -2.167  -0.926  31.969  1.00  0.00     0.200 A 
ATOM     16  C   UNL     1      -3.017  -0.541  30.923  1.00  0.00     0.162 A 
BRANCH  13  17
ATOM     17  O   UNL     1       0.048  -1.763  32.662  1.00  0.00    -0.504 OA
ATOM     18  H   UNL     1       0.321  -2.723  32.818  1.00  0.00     0.293 HD
ENDBRANCH  13  17
BRANCH  15  19
ATOM     19  O   UNL     1      -2.664  -0.870  33.274  1.00  0.00    -0.502 OA
ATOM     20  H   UNL     1      -2.094  -0.703  34.090  1.00  0.00     0.293 HD
ENDBRANCH  15  19
BRANCH  16  21
ATOM     21  O   UNL     1      -4.319  -0.133  31.212  1.00  0.00    -0.504 OA
ATOM     22  H   UNL     1      -5.056  -0.803  31.399  1.00  0.00     0.293 HD
ENDBRANCH  16  21
ENDBRANCH   1  11
BRANCH  10  23
ATOM     23  O   UNL     1       0.275   1.166  28.047  1.00  0.00    -0.500 OA
ATOM     24  H   UNL     1       1.102   1.715  27.840  1.00  0.00     0.294 HD
ENDBRANCH  10  23
BRANCH   5  25
ATOM     25  O   UNL     1      -0.835  -4.890  23.321  1.00  0.00    -0.507 OA
ATOM     26  H   UNL     1      -1.063  -5.726  23.846  1.00  0.00     0.293 HD
ENDBRANCH   5  25
BRANCH   7  27
ATOM     27  O   UNL     1       1.173  -0.515  23.172  1.00  0.00    -0.507 OA
ATOM     28  H   UNL     1       2.052  -0.102  23.450  1.00  0.00     0.293 HD
ENDBRANCH   7  27
TORSDOF 7
ENDMDL
MODEL 9
REMARK VINA RESULT:    -6.827      5.580      8.750
REMARK INTER + INTRA:          -8.164
REMARK INTER:                  -7.793
REMARK INTRA:                  -0.371
REMARK UNBOUND:                 0.259
REMARK SMILES Oc1cc(O)c2cc(O)c(-c3cc(O)c(O)c(O)c3)[o+]c2c1
REMARK SMILES IDX 10 1 20 2 21 3 22 4 2 5 3 6 4 7 6 8 7 9 8 10 11 11 12 12
REMARK SMILES IDX 13 13 19 14 15 15 17 16 14 17 16 19 18 21 9 23 1 25 5 27
REMARK H PARENT 14 18 16 20 18 22 9 24 1 26 5 28
REMARK Flexibility Score: inf
ROOT
ATOM      1  C   UNL     1       0.405  -0.808  19.246  1.00  0.00     0.402 A 
ATOM      2  O   UNL     1       0.668  -1.954  19.866  1.00  0.00    -0.202 OA
ATOM      3  C   UNL     1       0.303  -2.208  21.119  1.00  0.00     0.368 A 
ATOM      4  C   UNL     1       0.629  -3.443  21.686  1.00  0.00     0.162 A 
ATOM      5  C   UNL     1       0.261  -3.735  22.999  1.00  0.00     0.128 A 
ATOM      6  C   UNL     1      -0.438  -2.786  23.754  1.00  0.00     0.093 A 
ATOM      7  C   UNL     1      -0.776  -1.542  23.210  1.00  0.00     0.136 A 
ATOM      8  C   UNL     1      -0.405  -1.242  21.873  1.00  0.00     0.125 A 
ATOM      9  C   UNL     1      -0.713  -0.026  21.240  1.00  0.00     0.078 A 
ATOM     10  C   UNL     1      -0.319   0.195  19.918  1.00  0.00     0.223 A 
ENDROOT
BRANCH   1  11
ATOM     11  C   UNL     1       0.874  -0.642  17.851  1.00  0.00     0.091 A 
ATOM     12  C   UNL     1       0.015  -0.966  16.792  1.00  0.00     0.068 A 
ATOM     13  C   UNL     1       0.432  -0.841  15.461  1.00  0.00     0.162 A 
ATOM     14  C   UNL     1       2.182  -0.221  17.565  1.00  0.00     0.068 A 
ATOM     15  C   UNL     1       1.745  -0.394  15.180  1.00  0.00     0.200 A 
ATOM     16  C   UNL     1       2.613  -0.092  16.239  1.00  0.00     0.162 A 
BRANCH  13  17
ATOM     17  O   UNL     1      -0.483  -1.170  14.459  1.00  0.00    -0.504 OA
ATOM     18  H   UNL     1      -1.463  -1.350  14.625  1.00  0.00     0.293 HD
ENDBRANCH  13  17
BRANCH  15  19
ATOM     19  O   UNL     1       2.223  -0.240  13.876  1.00  0.00    -0.502 OA
ATOM     20  H   UNL     1       3.080   0.236  13.640  1.00  0.00     0.293 HD
ENDBRANCH  15  19
BRANCH  16  21
ATOM     21  O   UNL     1       3.912   0.334  15.962  1.00  0.00    -0.504 OA
ATOM     22  H   UNL     1       4.100   1.047  15.267  1.00  0.00     0.293 HD
ENDBRANCH  16  21
ENDBRANCH   1  11
BRANCH  10  23
ATOM     23  O   UNL     1      -0.667   1.382  19.272  1.00  0.00    -0.500 OA
ATOM     24  H   UNL     1      -0.981   1.392  18.308  1.00  0.00     0.294 HD
ENDBRANCH  10  23
BRANCH   5  25
ATOM     25  O   UNL     1       0.593  -4.973  23.546  1.00  0.00    -0.507 OA
ATOM     26  H   UNL     1       1.377  -5.512  23.199  1.00  0.00     0.293 HD
ENDBRANCH   5  25
BRANCH   7  27
ATOM     27  O   UNL     1      -1.472  -0.648  24.029  1.00  0.00    -0.507 OA
ATOM     28  H   UNL     1      -1.615   0.328  23.815  1.00  0.00     0.293 HD
ENDBRANCH   7  27
TORSDOF 7
ENDMDL
