MODEL 1
REMARK VINA RESULT:    -2.899      0.000      0.000
REMARK INTER + INTRA:          -3.245
REMARK INTER:                  -3.238
REMARK INTRA:                  -0.007
REMARK UNBOUND:                -0.007
REMARK SMILES CCCC(=O)[O-]
REMARK SMILES IDX 3 1 4 2 5 3 6 4 2 5 1 6
REMARK H PARENT
REMARK Flexibility Score: inf
ROOT
ATOM      1  C   UNL     1       6.142   9.418  34.018  1.00  0.00     0.052 C 
ENDROOT
BRANCH   1   2
ATOM      2  C   UNL     1       7.086   8.365  33.532  1.00  0.00     0.041 C 
ATOM      3  O   UNL     1       8.288   8.654  33.290  1.00  0.00    -0.550 OA
ATOM      4  O   UNL     1       6.628   7.074  33.301  1.00  0.00    -0.550 OA
ENDBRANCH   1   2
BRANCH   1   5
ATOM      5  C   UNL     1       6.058  10.569  33.011  1.00  0.00     0.003 C 
ATOM      6  C   UNL     1       5.091  11.649  33.488  1.00  0.00     0.004 C 
ENDBRANCH   1   5
TORSDOF 2
ENDMDL
MODEL 2
REMARK VINA RESULT:    -2.867      0.972      1.628
REMARK INTER + INTRA:          -3.209
REMARK INTER:                  -3.194
REMARK INTRA:                  -0.015
REMARK UNBOUND:                -0.007
REMARK SMILES CCCC(=O)[O-]
REMARK SMILES IDX 3 1 4 2 5 3 6 4 2 5 1 6
REMARK H PARENT
REMARK Flexibility Score: inf
ROOT
ATOM      1  C   UNL     1       7.203   9.040  33.293  1.00  0.00     0.052 C 
ENDROOT
BRANCH   1   2
ATOM      2  C   UNL     1       7.176   7.560  33.505  1.00  0.00     0.041 C 
ATOM      3  O   UNL     1       6.127   6.905  33.268  1.00  0.00    -0.550 OA
ATOM      4  O   UNL     1       8.295   6.909  34.010  1.00  0.00    -0.550 OA
ENDBRANCH   1   2
BRANCH   1   5
ATOM      5  C   UNL     1       5.998   9.701  33.968  1.00  0.00     0.003 C 
ATOM      6  C   UNL     1       5.618  11.001  33.267  1.00  0.00     0.004 C 
ENDBRANCH   1   5
TORSDOF 2
ENDMDL
MODEL 3
REMARK VINA RESULT:    -2.832      1.114      1.503
REMARK INTER + INTRA:          -3.171
REMARK INTER:                  -3.159
REMARK INTRA:                  -0.012
REMARK UNBOUND:                -0.007
REMARK SMILES CCCC(=O)[O-]
REMARK SMILES IDX 3 1 4 2 5 3 6 4 2 5 1 6
REMARK H PARENT
REMARK Flexibility Score: inf
ROOT
ATOM      1  C   UNL     1       7.558   8.712  33.373  1.00  0.00     0.052 C 
ENDROOT
BRANCH   1   2
ATOM      2  C   UNL     1       7.572   7.262  33.737  1.00  0.00     0.041 C 
ATOM      3  O   UNL     1       8.644   6.710  34.100  1.00  0.00    -0.550 OA
ATOM      4  O   UNL     1       6.411   6.506  33.629  1.00  0.00    -0.550 OA
ENDBRANCH   1   2
BRANCH   1   5
ATOM      5  C   UNL     1       6.247   9.365  33.821  1.00  0.00     0.003 C 
ATOM      6  C   UNL     1       5.988  10.661  33.060  1.00  0.00     0.004 C 
ENDBRANCH   1   5
TORSDOF 2
ENDMDL
MODEL 4
REMARK VINA RESULT:    -2.523      2.159      3.545
REMARK INTER + INTRA:          -2.825
REMARK INTER:                  -2.789
REMARK INTRA:                  -0.036
REMARK UNBOUND:                -0.007
REMARK SMILES CCCC(=O)[O-]
REMARK SMILES IDX 3 1 4 2 5 3 6 4 2 5 1 6
REMARK H PARENT
REMARK Flexibility Score: inf
ROOT
ATOM      1  C   UNL     1       7.074   9.107  33.306  1.00  0.00     0.052 C 
ENDROOT
BRANCH   1   2
ATOM      2  C   UNL     1       5.931   9.898  33.856  1.00  0.00     0.041 C 
ATOM      3  O   UNL     1       5.237   9.438  34.801  1.00  0.00    -0.550 OA
ATOM      4  O   UNL     1       5.599  11.125  33.294  1.00  0.00    -0.550 OA
ENDBRANCH   1   2
BRANCH   1   5
ATOM      5  C   UNL     1       6.771   7.608  33.374  1.00  0.00     0.003 C 
ATOM      6  C   UNL     1       7.864   6.857  34.129  1.00  0.00     0.004 C 
ENDBRANCH   1   5
TORSDOF 2
ENDMDL
MODEL 5
REMARK VINA RESULT:    -2.479      2.466      3.389
REMARK INTER + INTRA:          -2.776
REMARK INTER:                  -2.741
REMARK INTRA:                  -0.035
REMARK UNBOUND:                -0.007
REMARK SMILES CCCC(=O)[O-]
REMARK SMILES IDX 3 1 4 2 5 3 6 4 2 5 1 6
REMARK H PARENT
REMARK Flexibility Score: inf
ROOT
ATOM      1  C   UNL     1       6.648   9.830  32.980  1.00  0.00     0.052 C 
ENDROOT
BRANCH   1   2
ATOM      2  C   UNL     1       5.603  10.545  33.775  1.00  0.00     0.041 C 
ATOM      3  O   UNL     1       4.878  11.417  33.229  1.00  0.00    -0.550 OA
ATOM      4  O   UNL     1       5.462  10.283  35.133  1.00  0.00    -0.550 OA
ENDBRANCH   1   2
BRANCH   1   5
ATOM      5  C   UNL     1       7.247   8.678  33.793  1.00  0.00     0.003 C 
ATOM      6  C   UNL     1       6.544   7.360  33.483  1.00  0.00     0.004 C 
ENDBRANCH   1   5
TORSDOF 2
ENDMDL
MODEL 6
REMARK VINA RESULT:    -2.471      1.832      3.364
REMARK INTER + INTRA:          -2.767
REMARK INTER:                  -2.729
REMARK INTRA:                  -0.038
REMARK UNBOUND:                -0.007
REMARK SMILES CCCC(=O)[O-]
REMARK SMILES IDX 3 1 4 2 5 3 6 4 2 5 1 6
REMARK H PARENT
REMARK Flexibility Score: inf
ROOT
ATOM      1  C   UNL     1       5.985   8.117  34.176  1.00  0.00     0.052 C 
ENDROOT
BRANCH   1   2
ATOM      2  C   UNL     1       6.876   9.058  33.429  1.00  0.00     0.041 C 
ATOM      3  O   UNL     1       6.398  10.090  32.889  1.00  0.00    -0.550 OA
ATOM      4  O   UNL     1       8.228   8.770  33.288  1.00  0.00    -0.550 OA
ENDBRANCH   1   2
BRANCH   1   5
ATOM      5  C   UNL     1       6.229   6.675  33.724  1.00  0.00     0.003 C 
ATOM      6  C   UNL     1       6.723   5.811  34.880  1.00  0.00     0.004 C 
ENDBRANCH   1   5
TORSDOF 2
ENDMDL
MODEL 7
REMARK VINA RESULT:    -2.242      2.448      4.278
REMARK INTER + INTRA:          -2.511
REMARK INTER:                  -2.480
REMARK INTRA:                  -0.032
REMARK UNBOUND:                -0.007
REMARK SMILES CCCC(=O)[O-]
REMARK SMILES IDX 3 1 4 2 5 3 6 4 2 5 1 6
REMARK H PARENT
REMARK Flexibility Score: inf
ROOT
ATOM      1  C   UNL     1       7.598   7.343  35.262  1.00  0.00     0.052 C 
ENDROOT
BRANCH   1   2
ATOM      2  C   UNL     1       7.403   7.761  33.839  1.00  0.00     0.041 C 
ATOM      3  O   UNL     1       6.475   7.260  33.152  1.00  0.00    -0.550 OA
ATOM      4  O   UNL     1       8.278   8.670  33.255  1.00  0.00    -0.550 OA
ENDBRANCH   1   2
BRANCH   1   5
ATOM      5  C   UNL     1       7.770   5.825  35.356  1.00  0.00     0.003 C 
ATOM      6  C   UNL     1       9.238   5.446  35.527  1.00  0.00     0.004 C 
ENDBRANCH   1   5
TORSDOF 2
ENDMDL
MODEL 8
REMARK VINA RESULT:    -2.235     10.414     11.076
REMARK INTER + INTRA:          -2.503
REMARK INTER:                  -2.451
REMARK INTRA:                  -0.052
REMARK UNBOUND:                -0.007
REMARK SMILES CCCC(=O)[O-]
REMARK SMILES IDX 3 1 4 2 5 3 6 4 2 5 1 6
REMARK H PARENT
REMARK Flexibility Score: inf
ROOT
ATOM      1  C   UNL     1       7.411  20.425  32.567  1.00  0.00     0.052 C 
ENDROOT
BRANCH   1   2
ATOM      2  C   UNL     1       7.068  19.997  33.958  1.00  0.00     0.041 C 
ATOM      3  O   UNL     1       7.000  20.847  34.884  1.00  0.00    -0.550 OA
ATOM      4  O   UNL     1       6.872  18.651  34.243  1.00  0.00    -0.550 OA
ENDBRANCH   1   2
BRANCH   1   5
ATOM      5  C   UNL     1       6.214  21.117  31.909  1.00  0.00     0.003 C 
ATOM      6  C   UNL     1       5.084  20.129  31.641  1.00  0.00     0.004 C 
ENDBRANCH   1   5
TORSDOF 2
ENDMDL
MODEL 9
REMARK VINA RESULT:    -2.138      3.109      3.607
REMARK INTER + INTRA:          -2.395
REMARK INTER:                  -2.340
REMARK INTRA:                  -0.055
REMARK UNBOUND:                -0.007
REMARK SMILES CCCC(=O)[O-]
REMARK SMILES IDX 3 1 4 2 5 3 6 4 2 5 1 6
REMARK H PARENT
REMARK Flexibility Score: inf
ROOT
ATOM      1  C   UNL     1       6.736   7.351  35.114  1.00  0.00     0.052 C 
ENDROOT
BRANCH   1   2
ATOM      2  C   UNL     1       7.547   7.703  36.320  1.00  0.00     0.041 C 
ATOM      3  O   UNL     1       8.277   6.835  36.869  1.00  0.00    -0.550 OA
ATOM      4  O   UNL     1       7.461   8.976  36.869  1.00  0.00    -0.550 OA
ENDBRANCH   1   2
BRANCH   1   5
ATOM      5  C   UNL     1       7.624   7.298  33.868  1.00  0.00     0.003 C 
ATOM      6  C   UNL     1       7.929   8.699  33.348  1.00  0.00     0.004 C 
ENDBRANCH   1   5
TORSDOF 2
ENDMDL
