MODEL 1
REMARK VINA RESULT:    -2.861      0.000      0.000
REMARK INTER + INTRA:          -5.010
REMARK INTER:                  -4.367
REMARK INTRA:                  -0.643
REMARK UNBOUND:                -0.643
REMARK SMILES CC1=CCC[C@H](C)C(=O)C[C@H](C(C)C)C(=O)C1
REMARK SMILES IDX 8 1 9 2 6 3 7 4 5 5 4 6 3 7 2 8 1 9 10 11 11 12 15 13 16 14
REMARK SMILES IDX 17 15 12 17 13 18 14 19
REMARK H PARENT
REMARK Flexibility Score: 70.00
ROOT
ATOM      1  C   UNL     1      -7.373 -14.169  -4.115  1.00  0.00     0.136 C 
ATOM      2  O   UNL     1      -6.254 -13.728  -3.895  1.00  0.00    -0.299 OA
ENDROOT
BRANCH   1   3
ATOM      3  C   UNL     1      -8.452 -14.026  -3.033  1.00  0.00     0.053 C 
ATOM      4  C   UNL     1      -7.977 -14.612  -1.698  1.00  0.00     0.016 C 
BRANCH   3   5
ATOM      5  C   UNL     1      -8.728 -12.539  -2.961  1.00  0.00     0.015 C 
BRANCH   5   6
ATOM      6  C   UNL     1      -9.586 -11.710  -3.870  1.00  0.00     0.028 C 
BRANCH   6   7
ATOM      7  C   UNL     1      -8.676 -10.736  -4.631  1.00  0.00    -0.028 C 
ATOM      8  C   UNL     1      -8.427 -10.619  -5.988  1.00  0.00    -0.070 CG0
ATOM      9  C   UNL     1      -7.527  -9.471  -6.386  1.00  0.00     0.039 C 
ATOM     10  G   UNL     1      -8.944 -11.526  -7.144  1.00  0.00     0.000 G0
ENDBRANCH   6   7
ENDBRANCH   5   6
ENDBRANCH   3   5
ENDBRANCH   1   3
BRANCH   1  11
ATOM     11  C   UNL     1      -7.647 -14.862  -5.462  1.00  0.00     0.087 C 
BRANCH  11  12
ATOM     12  C   UNL     1      -8.721 -14.162  -6.379  1.00  0.00     0.066 C 
BRANCH  12  13
ATOM     13  C   UNL     1      -8.293 -12.926  -7.217  1.00  0.00     0.140 C 
ATOM     14  O   UNL     1      -7.300 -13.047  -7.921  1.00  0.00    -0.299 OA
BRANCH  13  15
ATOM     15  C   UNL     1      -8.934 -11.532  -7.154  1.00  0.00     0.106 CG0
ATOM     16  G   UNL     1      -8.415 -10.635  -5.992  1.00  0.00     0.000 G0
ENDBRANCH  13  15
ENDBRANCH  12  13
BRANCH  12  17
ATOM     17  C   UNL     1      -9.502 -15.210  -7.233  1.00  0.00    -0.006 C 
ATOM     18  C   UNL     1      -9.250 -16.648  -6.751  1.00  0.00     0.008 C 
ATOM     19  C   UNL     1     -11.012 -14.940  -7.330  1.00  0.00     0.008 C 
ENDBRANCH  12  17
ENDBRANCH  11  12
ENDBRANCH   1  11
TORSDOF 1
ENDMDL
MODEL 2
REMARK VINA RESULT:    -2.849      2.958      5.683
REMARK INTER + INTRA:          -4.992
REMARK INTER:                  -4.481
REMARK INTRA:                  -0.511
REMARK UNBOUND:                -0.643
REMARK SMILES CC1=CCC[C@H](C)C(=O)C[C@H](C(C)C)C(=O)C1
REMARK SMILES IDX 8 1 9 2 6 3 7 4 5 5 4 6 3 7 2 8 1 9 10 11 11 12 15 13 16 14
REMARK SMILES IDX 17 15 12 17 13 18 14 19
REMARK H PARENT
REMARK Flexibility Score: 70.00
ROOT
ATOM      1  C   UNL     1      -7.735 -13.772  -2.824  1.00  0.00     0.136 C 
ATOM      2  O   UNL     1      -6.578 -13.581  -3.166  1.00  0.00    -0.299 OA
ENDROOT
BRANCH   1   3
ATOM      3  C   UNL     1      -8.869 -13.268  -3.728  1.00  0.00     0.053 C 
ATOM      4  C   UNL     1      -9.125 -11.773  -3.512  1.00  0.00     0.016 C 
BRANCH   3   5
ATOM      5  C   UNL     1      -8.411 -13.594  -5.134  1.00  0.00     0.015 C 
BRANCH   5   6
ATOM      6  C   UNL     1      -8.704 -14.820  -5.945  1.00  0.00     0.028 C 
BRANCH   6   7
ATOM      7  C   UNL     1      -7.490 -15.754  -5.857  1.00  0.00    -0.028 C 
ATOM      8  C   UNL     1      -7.270 -16.864  -5.057  1.00  0.00    -0.070 CG0
ATOM      9  C   UNL     1      -5.972 -17.599  -5.310  1.00  0.00     0.039 C 
ATOM     10  G   UNL     1      -8.180 -17.434  -3.930  1.00  0.00     0.000 G0
ENDBRANCH   6   7
ENDBRANCH   5   6
ENDBRANCH   3   5
ENDBRANCH   1   3
BRANCH   1  11
ATOM     11  C   UNL     1      -8.007 -14.496  -1.492  1.00  0.00     0.087 C 
BRANCH  11  12
ATOM     12  C   UNL     1      -8.580 -15.959  -1.620  1.00  0.00     0.066 C 
BRANCH  12  13
ATOM     13  C   UNL     1      -7.802 -16.991  -2.483  1.00  0.00     0.140 C 
ATOM     14  O   UNL     1      -6.749 -17.415  -2.028  1.00  0.00    -0.299 OA
BRANCH  13  15
ATOM     15  C   UNL     1      -8.177 -17.440  -3.902  1.00  0.00     0.106 CG0
ATOM     16  G   UNL     1      -7.254 -16.875  -5.022  1.00  0.00     0.000 G0
ENDBRANCH  13  15
ENDBRANCH  12  13
BRANCH  12  17
ATOM     17  C   UNL     1      -8.971 -16.536  -0.223  1.00  0.00    -0.006 C 
ATOM     18  C   UNL     1      -8.205 -15.847   0.918  1.00  0.00     0.008 C 
ATOM     19  C   UNL     1     -10.481 -16.515   0.064  1.00  0.00     0.008 C 
ENDBRANCH  12  17
ENDBRANCH  11  12
ENDBRANCH   1  11
TORSDOF 1
ENDMDL
MODEL 3
REMARK VINA RESULT:    -2.814     15.120     16.714
REMARK INTER + INTRA:          -4.938
REMARK INTER:                  -4.845
REMARK INTRA:                  -0.093
REMARK UNBOUND:                -0.643
REMARK SMILES CC1=CCC[C@H](C)C(=O)C[C@H](C(C)C)C(=O)C1
REMARK SMILES IDX 8 1 9 2 6 3 7 4 5 5 4 6 3 7 2 8 1 9 10 11 11 12 15 13 16 14
REMARK SMILES IDX 17 15 12 17 13 18 14 19
REMARK H PARENT
REMARK Flexibility Score: 70.00
ROOT
ATOM      1  C   UNL     1     -24.766  -7.683  -7.689  1.00  0.00     0.136 C 
ATOM      2  O   UNL     1     -25.871  -7.979  -8.119  1.00  0.00    -0.299 OA
ENDROOT
BRANCH   1   3
ATOM      3  C   UNL     1     -24.649  -6.544  -6.667  1.00  0.00     0.053 C 
ATOM      4  C   UNL     1     -25.889  -5.643  -6.699  1.00  0.00     0.016 C 
BRANCH   3   5
ATOM      5  C   UNL     1     -24.457  -7.241  -5.337  1.00  0.00     0.015 C 
BRANCH   5   6
ATOM      6  C   UNL     1     -25.456  -8.041  -4.555  1.00  0.00     0.028 C 
BRANCH   6   7
ATOM      7  C   UNL     1     -24.786  -9.352  -4.122  1.00  0.00    -0.028 C 
ATOM      8  C   UNL     1     -24.696 -10.569  -4.775  1.00  0.00    -0.070 CG0
ATOM      9  C   UNL     1     -23.873 -11.625  -4.071  1.00  0.00     0.039 C 
ATOM     10  G   UNL     1     -25.344 -10.986  -6.128  1.00  0.00     0.000 G0
ENDBRANCH   6   7
ENDBRANCH   5   6
ENDBRANCH   3   5
ENDBRANCH   1   3
BRANCH   1  11
ATOM     11  C   UNL     1     -23.537  -8.455  -8.203  1.00  0.00     0.087 C 
BRANCH  11  12
ATOM     12  C   UNL     1     -23.252  -9.830  -7.488  1.00  0.00     0.066 C 
BRANCH  12  13
ATOM     13  C   UNL     1     -24.413 -10.854  -7.351  1.00  0.00     0.140 C 
ATOM     14  O   UNL     1     -24.680 -11.527  -8.337  1.00  0.00    -0.299 OA
BRANCH  13  15
ATOM     15  C   UNL     1     -25.328 -11.016  -6.129  1.00  0.00     0.106 CG0
ATOM     16  G   UNL     1     -24.690 -10.568  -4.781  1.00  0.00     0.000 G0
ENDBRANCH  13  15
ENDBRANCH  12  13
BRANCH  12  17
ATOM     17  C   UNL     1     -21.947 -10.490  -8.034  1.00  0.00    -0.006 C 
ATOM     18  C   UNL     1     -21.644 -11.827  -7.337  1.00  0.00     0.008 C 
ATOM     19  C   UNL     1     -21.927 -10.671  -9.560  1.00  0.00     0.008 C 
ENDBRANCH  12  17
ENDBRANCH  11  12
ENDBRANCH   1  11
TORSDOF 1
ENDMDL
MODEL 4
REMARK VINA RESULT:    -2.801      2.002      4.457
REMARK INTER + INTRA:          -4.918
REMARK INTER:                  -4.597
REMARK INTRA:                  -0.321
REMARK UNBOUND:                -0.643
REMARK SMILES CC1=CCC[C@H](C)C(=O)C[C@H](C(C)C)C(=O)C1
REMARK SMILES IDX 8 1 9 2 6 3 7 4 5 5 4 6 3 7 2 8 1 9 10 11 11 12 15 13 16 14
REMARK SMILES IDX 17 15 12 17 13 18 14 19
REMARK H PARENT
REMARK Flexibility Score: 70.00
ROOT
ATOM      1  C   UNL     1      -9.106 -11.692  -3.958  1.00  0.00     0.136 C 
ATOM      2  O   UNL     1     -10.115 -11.621  -3.272  1.00  0.00    -0.299 OA
ENDROOT
BRANCH   1   3
ATOM      3  C   UNL     1      -9.026 -10.862  -5.247  1.00  0.00     0.053 C 
ATOM      4  C   UNL     1      -7.588 -10.795  -5.772  1.00  0.00     0.016 C 
BRANCH   3   5
ATOM      5  C   UNL     1      -9.976 -11.549  -6.205  1.00  0.00     0.015 C 
BRANCH   5   6
ATOM      6  C   UNL     1     -10.742 -12.821  -5.999  1.00  0.00     0.028 C 
BRANCH   6   7
ATOM      7  C   UNL     1     -10.261 -13.844  -7.037  1.00  0.00    -0.028 C 
ATOM      8  C   UNL     1      -9.086 -14.575  -7.095  1.00  0.00    -0.070 CG0
ATOM      9  C   UNL     1      -8.992 -15.565  -8.235  1.00  0.00     0.039 C 
ATOM     10  G   UNL     1      -7.854 -14.494  -6.146  1.00  0.00     0.000 G0
ENDBRANCH   6   7
ENDBRANCH   5   6
ENDBRANCH   3   5
ENDBRANCH   1   3
BRANCH   1  11
ATOM     11  C   UNL     1      -7.965 -12.623  -3.508  1.00  0.00     0.087 C 
BRANCH  11  12
ATOM     12  C   UNL     1      -8.328 -14.155  -3.439  1.00  0.00     0.066 C 
BRANCH  12  13
ATOM     13  C   UNL     1      -8.142 -15.024  -4.714  1.00  0.00     0.140 C 
ATOM     14  O   UNL     1      -8.124 -16.238  -4.563  1.00  0.00    -0.299 OA
BRANCH  13  15
ATOM     15  C   UNL     1      -7.864 -14.495  -6.128  1.00  0.00     0.106 CG0
ATOM     16  G   UNL     1      -9.075 -14.590  -7.102  1.00  0.00     0.000 G0
ENDBRANCH  13  15
ENDBRANCH  12  13
BRANCH  12  17
ATOM     17  C   UNL     1      -7.705 -14.826  -2.174  1.00  0.00    -0.006 C 
ATOM     18  C   UNL     1      -6.905 -13.823  -1.327  1.00  0.00     0.008 C 
ATOM     19  C   UNL     1      -8.722 -15.571  -1.294  1.00  0.00     0.008 C 
ENDBRANCH  12  17
ENDBRANCH  11  12
ENDBRANCH   1  11
TORSDOF 1
ENDMDL
MODEL 5
REMARK VINA RESULT:    -2.587      2.498      5.255
REMARK INTER + INTRA:          -4.592
REMARK INTER:                  -4.202
REMARK INTRA:                  -0.390
REMARK UNBOUND:                -0.643
REMARK SMILES CC1=CCC[C@H](C)C(=O)C[C@H](C(C)C)C(=O)C1
REMARK SMILES IDX 8 1 9 2 6 3 7 4 5 5 4 6 3 7 2 8 1 9 10 11 11 12 15 13 16 14
REMARK SMILES IDX 17 15 12 17 13 18 14 19
REMARK H PARENT
REMARK Flexibility Score: 70.00
ROOT
ATOM      1  C   UNL     1      -8.491 -12.671  -4.423  1.00  0.00     0.136 C 
ATOM      2  O   UNL     1      -7.508 -12.136  -4.914  1.00  0.00    -0.299 OA
ENDROOT
BRANCH   1   3
ATOM      3  C   UNL     1      -9.747 -12.850  -5.288  1.00  0.00     0.053 C 
ATOM      4  C   UNL     1     -10.324 -11.495  -5.711  1.00  0.00     0.016 C 
BRANCH   3   5
ATOM      5  C   UNL     1      -9.288 -13.691  -6.460  1.00  0.00     0.015 C 
BRANCH   5   6
ATOM      6  C   UNL     1      -9.584 -15.134  -6.740  1.00  0.00     0.028 C 
BRANCH   6   7
ATOM      7  C   UNL     1      -8.249 -15.881  -6.865  1.00  0.00    -0.028 C 
ATOM      8  C   UNL     1      -7.529 -16.590  -5.918  1.00  0.00    -0.070 CG0
ATOM      9  C   UNL     1      -6.282 -17.277  -6.431  1.00  0.00     0.039 C 
ATOM     10  G   UNL     1      -7.834 -16.755  -4.400  1.00  0.00     0.000 G0
ENDBRANCH   6   7
ENDBRANCH   5   6
ENDBRANCH   3   5
ENDBRANCH   1   3
BRANCH   1  11
ATOM     11  C   UNL     1      -8.433 -13.128  -2.954  1.00  0.00     0.087 C 
BRANCH  11  12
ATOM     12  C   UNL     1      -8.472 -14.687  -2.727  1.00  0.00     0.066 C 
BRANCH  12  13
ATOM     13  C   UNL     1      -7.464 -15.579  -3.504  1.00  0.00     0.140 C 
ATOM     14  O   UNL     1      -6.288 -15.243  -3.476  1.00  0.00    -0.299 OA
BRANCH  13  15
ATOM     15  C   UNL     1      -7.824 -16.775  -4.396  1.00  0.00     0.106 CG0
ATOM     16  G   UNL     1      -7.528 -16.563  -5.910  1.00  0.00     0.000 G0
ENDBRANCH  13  15
ENDBRANCH  12  13
BRANCH  12  17
ATOM     17  C   UNL     1      -8.513 -15.035  -1.205  1.00  0.00    -0.006 C 
ATOM     18  C   UNL     1      -8.713 -16.541  -0.965  1.00  0.00     0.008 C 
ATOM     19  C   UNL     1      -7.298 -14.529  -0.413  1.00  0.00     0.008 C 
ENDBRANCH  12  17
ENDBRANCH  11  12
ENDBRANCH   1  11
TORSDOF 1
ENDMDL
MODEL 6
REMARK VINA RESULT:    -2.573      1.576      3.804
REMARK INTER + INTRA:          -4.570
REMARK INTER:                  -3.750
REMARK INTRA:                  -0.821
REMARK UNBOUND:                -0.643
REMARK SMILES CC1=CCC[C@H](C)C(=O)C[C@H](C(C)C)C(=O)C1
REMARK SMILES IDX 8 1 9 2 6 3 7 4 5 5 4 6 3 7 2 8 1 9 10 11 11 12 15 13 16 14
REMARK SMILES IDX 17 15 12 17 13 18 14 19
REMARK H PARENT
REMARK Flexibility Score: 70.00
ROOT
ATOM      1  C   UNL     1      -7.044 -12.792  -4.928  1.00  0.00     0.136 C 
ATOM      2  O   UNL     1      -6.070 -13.519  -5.045  1.00  0.00    -0.299 OA
ENDROOT
BRANCH   1   3
ATOM      3  C   UNL     1      -8.354 -13.388  -4.395  1.00  0.00     0.053 C 
ATOM      4  C   UNL     1      -8.151 -14.027  -3.017  1.00  0.00     0.016 C 
BRANCH   3   5
ATOM      5  C   UNL     1      -9.323 -12.225  -4.372  1.00  0.00     0.015 C 
BRANCH   5   6
ATOM      6  C   UNL     1     -10.498 -11.978  -5.270  1.00  0.00     0.028 C 
BRANCH   6   7
ATOM      7  C   UNL     1     -10.538 -13.092  -6.325  1.00  0.00    -0.028 C 
ATOM      8  C   UNL     1      -9.906 -13.184  -7.553  1.00  0.00    -0.070 CG0
ATOM      9  C   UNL     1     -10.112 -14.486  -8.294  1.00  0.00     0.039 C 
ATOM     10  G   UNL     1      -9.027 -12.114  -8.266  1.00  0.00     0.000 G0
ENDBRANCH   6   7
ENDBRANCH   5   6
ENDBRANCH   3   5
ENDBRANCH   1   3
BRANCH   1  11
ATOM     11  C   UNL     1      -6.921 -11.312  -5.336  1.00  0.00     0.087 C 
BRANCH  11  12
ATOM     12  C   UNL     1      -6.922 -11.035  -6.887  1.00  0.00     0.066 C 
BRANCH  12  13
ATOM     13  C   UNL     1      -7.562 -12.089  -7.833  1.00  0.00     0.140 C 
ATOM     14  O   UNL     1      -6.811 -12.913  -8.337  1.00  0.00    -0.299 OA
BRANCH  13  15
ATOM     15  C   UNL     1      -9.030 -12.120  -8.281  1.00  0.00     0.106 CG0
ATOM     16  G   UNL     1      -9.905 -13.182  -7.552  1.00  0.00     0.000 G0
ENDBRANCH  13  15
ENDBRANCH  12  13
BRANCH  12  17
ATOM     17  C   UNL     1      -7.415  -9.587  -7.201  1.00  0.00    -0.006 C 
ATOM     18  C   UNL     1      -7.811  -8.826  -5.926  1.00  0.00     0.008 C 
ATOM     19  C   UNL     1      -6.425  -8.753  -8.031  1.00  0.00     0.008 C 
ENDBRANCH  12  17
ENDBRANCH  11  12
ENDBRANCH   1  11
TORSDOF 1
ENDMDL
MODEL 7
REMARK VINA RESULT:    -2.539      2.183      4.353
REMARK INTER + INTRA:          -4.518
REMARK INTER:                  -3.916
REMARK INTRA:                  -0.602
REMARK UNBOUND:                -0.643
REMARK SMILES CC1=CCC[C@H](C)C(=O)C[C@H](C(C)C)C(=O)C1
REMARK SMILES IDX 8 1 9 2 6 3 7 4 5 5 4 6 3 7 2 8 1 9 10 11 11 12 15 13 16 14
REMARK SMILES IDX 17 15 12 17 13 18 14 19
REMARK H PARENT
REMARK Flexibility Score: 70.00
ROOT
ATOM      1  C   UNL     1     -10.369 -13.972  -6.759  1.00  0.00     0.136 C 
ATOM      2  O   UNL     1     -11.521 -14.286  -7.018  1.00  0.00    -0.299 OA
ENDROOT
BRANCH   1   3
ATOM      3  C   UNL     1      -9.232 -14.914  -7.180  1.00  0.00     0.053 C 
ATOM      4  C   UNL     1      -9.688 -16.377  -7.155  1.00  0.00     0.016 C 
BRANCH   3   5
ATOM      5  C   UNL     1      -8.833 -14.441  -8.562  1.00  0.00     0.015 C 
BRANCH   5   6
ATOM      6  C   UNL     1      -7.468 -14.072  -9.059  1.00  0.00     0.028 C 
BRANCH   6   7
ATOM      7  C   UNL     1      -7.480 -12.584  -9.432  1.00  0.00    -0.028 C 
ATOM      8  C   UNL     1      -7.114 -11.472  -8.692  1.00  0.00    -0.070 CG0
ATOM      9  C   UNL     1      -7.177 -10.153  -9.428  1.00  0.00     0.039 C 
ATOM     10  G   UNL     1      -6.662 -11.414  -7.203  1.00  0.00     0.000 G0
ENDBRANCH   6   7
ENDBRANCH   5   6
ENDBRANCH   3   5
ENDBRANCH   1   3
BRANCH   1  11
ATOM     11  C   UNL     1     -10.107 -12.654  -6.008  1.00  0.00     0.087 C 
BRANCH  11  12
ATOM     12  C   UNL     1      -8.618 -12.418  -5.551  1.00  0.00     0.066 C 
BRANCH  12  13
ATOM     13  C   UNL     1      -7.820 -11.246  -6.189  1.00  0.00     0.140 C 
ATOM     14  O   UNL     1      -8.201 -10.111  -5.938  1.00  0.00    -0.299 OA
BRANCH  13  15
ATOM     15  C   UNL     1      -6.668 -11.387  -7.194  1.00  0.00     0.106 CG0
ATOM     16  G   UNL     1      -7.118 -11.464  -8.683  1.00  0.00     0.000 G0
ENDBRANCH  13  15
ENDBRANCH  12  13
BRANCH  12  17
ATOM     17  C   UNL     1      -8.496 -12.433  -3.994  1.00  0.00    -0.006 C 
ATOM     18  C   UNL     1      -9.595 -11.592  -3.324  1.00  0.00     0.008 C 
ATOM     19  C   UNL     1      -8.459 -13.842  -3.382  1.00  0.00     0.008 C 
ENDBRANCH  12  17
ENDBRANCH  11  12
ENDBRANCH   1  11
TORSDOF 1
ENDMDL
MODEL 8
REMARK VINA RESULT:    -2.526      2.351      5.384
REMARK INTER + INTRA:          -4.499
REMARK INTER:                  -3.875
REMARK INTRA:                  -0.624
REMARK UNBOUND:                -0.643
REMARK SMILES CC1=CCC[C@H](C)C(=O)C[C@H](C(C)C)C(=O)C1
REMARK SMILES IDX 8 1 9 2 6 3 7 4 5 5 4 6 3 7 2 8 1 9 10 11 11 12 15 13 16 14
REMARK SMILES IDX 17 15 12 17 13 18 14 19
REMARK H PARENT
REMARK Flexibility Score: 70.00
ROOT
ATOM      1  C   UNL     1     -10.535 -14.059  -7.549  1.00  0.00     0.136 C 
ATOM      2  O   UNL     1     -10.025 -13.999  -8.658  1.00  0.00    -0.299 OA
ENDROOT
BRANCH   1   3
ATOM      3  C   UNL     1     -11.591 -15.139  -7.276  1.00  0.00     0.053 C 
ATOM      4  C   UNL     1     -12.896 -14.836  -8.019  1.00  0.00     0.016 C 
BRANCH   3   5
ATOM      5  C   UNL     1     -10.941 -16.432  -7.722  1.00  0.00     0.015 C 
BRANCH   5   6
ATOM      6  C   UNL     1      -9.967 -17.289  -6.970  1.00  0.00     0.028 C 
BRANCH   6   7
ATOM      7  C   UNL     1      -8.582 -17.109  -7.604  1.00  0.00    -0.028 C 
ATOM      8  C   UNL     1      -7.456 -16.459  -7.126  1.00  0.00    -0.070 CG0
ATOM      9  C   UNL     1      -6.226 -16.563  -8.000  1.00  0.00     0.039 C 
ATOM     10  G   UNL     1      -7.306 -15.630  -5.816  1.00  0.00     0.000 G0
ENDBRANCH   6   7
ENDBRANCH   5   6
ENDBRANCH   3   5
ENDBRANCH   1   3
BRANCH   1  11
ATOM     11  C   UNL     1     -10.107 -13.038  -6.479  1.00  0.00     0.087 C 
BRANCH  11  12
ATOM     12  C   UNL     1      -9.070 -13.564  -5.415  1.00  0.00     0.066 C 
BRANCH  12  13
ATOM     13  C   UNL     1      -7.724 -14.156  -5.918  1.00  0.00     0.140 C 
ATOM     14  O   UNL     1      -6.983 -13.407  -6.539  1.00  0.00    -0.299 OA
BRANCH  13  15
ATOM     15  C   UNL     1      -7.290 -15.625  -5.805  1.00  0.00     0.106 CG0
ATOM     16  G   UNL     1      -7.474 -16.454  -7.110  1.00  0.00     0.000 G0
ENDBRANCH  13  15
ENDBRANCH  12  13
BRANCH  12  17
ATOM     17  C   UNL     1      -8.864 -12.527  -4.267  1.00  0.00    -0.006 C 
ATOM     18  C   UNL     1     -10.104 -11.641  -4.063  1.00  0.00     0.008 C 
ATOM     19  C   UNL     1      -8.431 -13.149  -2.930  1.00  0.00     0.008 C 
ENDBRANCH  12  17
ENDBRANCH  11  12
ENDBRANCH   1  11
TORSDOF 1
ENDMDL
MODEL 9
REMARK VINA RESULT:    -2.374      2.332      3.512
REMARK INTER + INTRA:          -4.266
REMARK INTER:                  -3.950
REMARK INTRA:                  -0.317
REMARK UNBOUND:                -0.643
REMARK SMILES CC1=CCC[C@H](C)C(=O)C[C@H](C(C)C)C(=O)C1
REMARK SMILES IDX 8 1 9 2 6 3 7 4 5 5 4 6 3 7 2 8 1 9 10 11 11 12 15 13 16 14
REMARK SMILES IDX 17 15 12 17 13 18 14 19
REMARK H PARENT
REMARK Flexibility Score: 70.00
ROOT
ATOM      1  C   UNL     1      -9.879 -12.281  -5.412  1.00  0.00     0.136 C 
ATOM      2  O   UNL     1     -10.607 -11.396  -5.834  1.00  0.00    -0.299 OA
ENDROOT
BRANCH   1   3
ATOM      3  C   UNL     1      -8.812 -11.928  -4.367  1.00  0.00     0.053 C 
ATOM      4  C   UNL     1      -9.445 -11.306  -3.118  1.00  0.00     0.016 C 
BRANCH   3   5
ATOM      5  C   UNL     1      -8.105 -13.237  -4.084  1.00  0.00     0.015 C 
BRANCH   5   6
ATOM      6  C   UNL     1      -6.719 -13.648  -4.483  1.00  0.00     0.028 C 
BRANCH   6   7
ATOM      7  C   UNL     1      -6.827 -14.894  -5.373  1.00  0.00    -0.028 C 
ATOM      8  C   UNL     1      -7.065 -15.004  -6.733  1.00  0.00    -0.070 CG0
ATOM      9  C   UNL     1      -7.015 -16.410  -7.288  1.00  0.00     0.039 C 
ATOM     10  G   UNL     1      -7.388 -13.870  -7.749  1.00  0.00     0.000 G0
ENDBRANCH   6   7
ENDBRANCH   5   6
ENDBRANCH   3   5
ENDBRANCH   1   3
BRANCH   1  11
ATOM     11  C   UNL     1     -10.052 -13.710  -5.959  1.00  0.00     0.087 C 
BRANCH  11  12
ATOM     12  C   UNL     1     -10.136 -13.830  -7.528  1.00  0.00     0.066 C 
BRANCH  12  13
ATOM     13  C   UNL     1      -8.814 -13.925  -8.340  1.00  0.00     0.140 C 
ATOM     14  O   UNL     1      -8.911 -14.150  -9.538  1.00  0.00    -0.299 OA
BRANCH  13  15
ATOM     15  C   UNL     1      -7.395 -13.875  -7.755  1.00  0.00     0.106 CG0
ATOM     16  G   UNL     1      -7.079 -15.007  -6.733  1.00  0.00     0.000 G0
ENDBRANCH  13  15
ENDBRANCH  12  13
BRANCH  12  17
ATOM     17  C   UNL     1     -11.169 -14.919  -7.957  1.00  0.00    -0.006 C 
ATOM     18  C   UNL     1     -10.717 -16.331  -7.550  1.00  0.00     0.008 C 
ATOM     19  C   UNL     1     -12.599 -14.657  -7.461  1.00  0.00     0.008 C 
ENDBRANCH  12  17
ENDBRANCH  11  12
ENDBRANCH   1  11
TORSDOF 1
ENDMDL
