MODEL 1
REMARK VINA RESULT:    -6.493      0.000      0.000
REMARK INTER + INTRA:          -7.274
REMARK INTER:                  -7.062
REMARK INTRA:                  -0.212
REMARK UNBOUND:                -0.212
REMARK SMILES C=C1C[C@]2(O)O[C@]3(C[C@H]2C(C)C)[C@H](C)CC[C@@H]13
REMARK SMILES IDX 14 1 13 2 15 3 16 4 17 5 7 6 8 7 9 8 4 9 6 10 3 11 2 12 1 13
REMARK SMILES IDX 10 14 11 15 12 16 5 17
REMARK H PARENT 5 18
REMARK Flexibility Score: inf
ROOT
ATOM      1  C   UNL     1     -45.220  33.820  -1.049  1.00  0.00     0.011 C 
ATOM      2  C   UNL     1     -44.756  35.038  -1.866  1.00  0.00     0.019 C 
ATOM      3  C   UNL     1     -45.920  35.655  -2.686  1.00  0.00     0.007 C 
ATOM      4  C   UNL     1     -45.672  35.315  -4.168  1.00  0.00     0.011 C 
ATOM      5  C   UNL     1     -44.566  34.273  -4.128  1.00  0.00     0.047 C 
ATOM      6  C   UNL     1     -43.702  34.680  -2.934  1.00  0.00     0.081 C 
ATOM      7  C   UNL     1     -42.754  35.872  -3.226  1.00  0.00     0.046 C 
ATOM      8  C   UNL     1     -41.415  35.216  -3.595  1.00  0.00     0.054 C 
ATOM      9  C   UNL     1     -41.824  33.713  -3.596  1.00  0.00     0.173 C 
ATOM     10  O   UNL     1     -42.860  33.595  -2.634  1.00  0.00    -0.342 OA
ATOM     11  C   UNL     1     -42.374  33.310  -5.017  1.00  0.00     0.096 C 
ATOM     12  C   UNL     1     -43.680  34.028  -5.321  1.00  0.00    -0.066 C 
ATOM     13  C   UNL     1     -44.096  34.214  -6.580  1.00  0.00     0.008 C 
ENDROOT
BRANCH   8  14
ATOM     14  C   UNL     1     -40.262  35.658  -2.621  1.00  0.00    -0.009 C 
ATOM     15  C   UNL     1     -38.909  35.871  -3.335  1.00  0.00     0.008 C 
ATOM     16  C   UNL     1     -40.624  36.984  -1.913  1.00  0.00     0.008 C 
ENDBRANCH   8  14
BRANCH   9  17
ATOM     17  O   UNL     1     -40.780  32.848  -3.232  1.00  0.00    -0.365 OA
ATOM     18  H   UNL     1     -41.064  32.355  -2.417  1.00  0.00     0.214 HD
ENDBRANCH   9  17
TORSDOF 2
ENDMDL
MODEL 2
REMARK VINA RESULT:    -6.355      1.505      4.031
REMARK INTER + INTRA:          -7.124
REMARK INTER:                  -6.873
REMARK INTRA:                  -0.251
REMARK UNBOUND:                -0.212
REMARK SMILES C=C1C[C@]2(O)O[C@]3(C[C@H]2C(C)C)[C@H](C)CC[C@@H]13
REMARK SMILES IDX 14 1 13 2 15 3 16 4 17 5 7 6 8 7 9 8 4 9 6 10 3 11 2 12 1 13
REMARK SMILES IDX 10 14 11 15 12 16 5 17
REMARK H PARENT 5 18
REMARK Flexibility Score: inf
ROOT
ATOM      1  C   UNL     1     -39.677  36.032  -2.535  1.00  0.00     0.011 C 
ATOM      2  C   UNL     1     -41.100  36.560  -2.783  1.00  0.00     0.019 C 
ATOM      3  C   UNL     1     -41.716  37.174  -1.498  1.00  0.00     0.007 C 
ATOM      4  C   UNL     1     -42.803  36.204  -0.997  1.00  0.00     0.011 C 
ATOM      5  C   UNL     1     -42.574  34.941  -1.812  1.00  0.00     0.047 C 
ATOM      6  C   UNL     1     -42.094  35.447  -3.173  1.00  0.00     0.081 C 
ATOM      7  C   UNL     1     -43.234  35.987  -4.076  1.00  0.00     0.046 C 
ATOM      8  C   UNL     1     -43.604  34.800  -4.978  1.00  0.00     0.054 C 
ATOM      9  C   UNL     1     -42.705  33.684  -4.366  1.00  0.00     0.173 C 
ATOM     10  O   UNL     1     -41.556  34.348  -3.865  1.00  0.00    -0.342 OA
ATOM     11  C   UNL     1     -43.465  32.977  -3.181  1.00  0.00     0.096 C 
ATOM     12  C   UNL     1     -43.676  33.934  -2.018  1.00  0.00    -0.066 C 
ATOM     13  C   UNL     1     -44.651  33.738  -1.122  1.00  0.00     0.008 C 
ENDROOT
BRANCH   8  14
ATOM     14  C   UNL     1     -43.406  35.142  -6.501  1.00  0.00    -0.009 C 
ATOM     15  C   UNL     1     -44.721  35.104  -7.309  1.00  0.00     0.008 C 
ATOM     16  C   UNL     1     -42.802  36.555  -6.669  1.00  0.00     0.008 C 
ENDBRANCH   8  14
BRANCH   9  17
ATOM     17  O   UNL     1     -42.290  32.724  -5.300  1.00  0.00    -0.365 OA
ATOM     18  H   UNL     1     -42.932  31.967  -5.265  1.00  0.00     0.214 HD
ENDBRANCH   9  17
TORSDOF 2
ENDMDL
MODEL 3
REMARK VINA RESULT:    -6.332      1.764      4.183
REMARK INTER + INTRA:          -7.099
REMARK INTER:                  -6.848
REMARK INTRA:                  -0.252
REMARK UNBOUND:                -0.212
REMARK SMILES C=C1C[C@]2(O)O[C@]3(C[C@H]2C(C)C)[C@H](C)CC[C@@H]13
REMARK SMILES IDX 14 1 13 2 15 3 16 4 17 5 7 6 8 7 9 8 4 9 6 10 3 11 2 12 1 13
REMARK SMILES IDX 10 14 11 15 12 16 5 17
REMARK H PARENT 5 18
REMARK Flexibility Score: inf
ROOT
ATOM      1  C   UNL     1     -44.915  34.333  -1.262  1.00  0.00     0.011 C 
ATOM      2  C   UNL     1     -44.173  33.539  -2.351  1.00  0.00     0.019 C 
ATOM      3  C   UNL     1     -43.184  32.512  -1.738  1.00  0.00     0.007 C 
ATOM      4  C   UNL     1     -41.757  33.039  -1.986  1.00  0.00     0.011 C 
ATOM      5  C   UNL     1     -41.969  34.472  -2.449  1.00  0.00     0.047 C 
ATOM      6  C   UNL     1     -43.277  34.429  -3.237  1.00  0.00     0.081 C 
ATOM      7  C   UNL     1     -43.126  33.845  -4.667  1.00  0.00     0.046 C 
ATOM      8  C   UNL     1     -42.966  35.078  -5.569  1.00  0.00     0.054 C 
ATOM      9  C   UNL     1     -42.910  36.210  -4.500  1.00  0.00     0.173 C 
ATOM     10  O   UNL     1     -43.705  35.756  -3.417  1.00  0.00    -0.342 OA
ATOM     11  C   UNL     1     -41.424  36.413  -4.016  1.00  0.00     0.096 C 
ATOM     12  C   UNL     1     -40.924  35.192  -3.260  1.00  0.00    -0.066 C 
ATOM     13  C   UNL     1     -39.616  34.928  -3.151  1.00  0.00     0.008 C 
ENDROOT
BRANCH   8  14
ATOM     14  C   UNL     1     -44.101  35.157  -6.655  1.00  0.00    -0.009 C 
ATOM     15  C   UNL     1     -43.593  34.888  -8.088  1.00  0.00     0.008 C 
ATOM     16  C   UNL     1     -45.213  34.124  -6.358  1.00  0.00     0.008 C 
ENDBRANCH   8  14
BRANCH   9  17
ATOM     17  O   UNL     1     -43.431  37.433  -4.951  1.00  0.00    -0.365 OA
ATOM     18  H   UNL     1     -43.500  38.041  -4.168  1.00  0.00     0.214 HD
ENDBRANCH   9  17
TORSDOF 2
ENDMDL
MODEL 4
REMARK VINA RESULT:    -5.996      2.087      3.853
REMARK INTER + INTRA:          -6.734
REMARK INTER:                  -6.486
REMARK INTRA:                  -0.248
REMARK UNBOUND:                -0.212
REMARK SMILES C=C1C[C@]2(O)O[C@]3(C[C@H]2C(C)C)[C@H](C)CC[C@@H]13
REMARK SMILES IDX 14 1 13 2 15 3 16 4 17 5 7 6 8 7 9 8 4 9 6 10 3 11 2 12 1 13
REMARK SMILES IDX 10 14 11 15 12 16 5 17
REMARK H PARENT 5 18
REMARK Flexibility Score: inf
ROOT
ATOM      1  C   UNL     1     -44.672  34.301  -4.355  1.00  0.00     0.011 C 
ATOM      2  C   UNL     1     -44.119  35.647  -3.859  1.00  0.00     0.019 C 
ATOM      3  C   UNL     1     -43.427  36.439  -5.001  1.00  0.00     0.007 C 
ATOM      4  C   UNL     1     -41.909  36.396  -4.740  1.00  0.00     0.011 C 
ATOM      5  C   UNL     1     -41.751  35.344  -3.653  1.00  0.00     0.047 C 
ATOM      6  C   UNL     1     -43.011  35.488  -2.798  1.00  0.00     0.081 C 
ATOM      7  C   UNL     1     -42.971  36.696  -1.826  1.00  0.00     0.046 C 
ATOM      8  C   UNL     1     -42.491  36.100  -0.494  1.00  0.00     0.054 C 
ATOM      9  C   UNL     1     -42.186  34.635  -0.928  1.00  0.00     0.173 C 
ATOM     10  O   UNL     1     -43.096  34.349  -1.979  1.00  0.00    -0.342 OA
ATOM     11  C   UNL     1     -40.709  34.535  -1.467  1.00  0.00     0.096 C 
ATOM     12  C   UNL     1     -40.542  35.324  -2.756  1.00  0.00    -0.066 C 
ATOM     13  C   UNL     1     -39.341  35.766  -3.152  1.00  0.00     0.008 C 
ENDROOT
BRANCH   8  14
ATOM     14  C   UNL     1     -43.544  36.316   0.655  1.00  0.00    -0.009 C 
ATOM     15  C   UNL     1     -42.987  37.118   1.850  1.00  0.00     0.008 C 
ATOM     16  C   UNL     1     -44.781  37.077   0.124  1.00  0.00     0.008 C 
ENDBRANCH   8  14
BRANCH   9  17
ATOM     17  O   UNL     1     -42.381  33.695   0.095  1.00  0.00    -0.365 OA
ATOM     18  H   UNL     1     -42.504  34.192   0.946  1.00  0.00     0.214 HD
ENDBRANCH   9  17
TORSDOF 2
ENDMDL
MODEL 5
REMARK VINA RESULT:    -5.819      2.352      4.653
REMARK INTER + INTRA:          -6.541
REMARK INTER:                  -6.321
REMARK INTRA:                  -0.219
REMARK UNBOUND:                -0.212
REMARK SMILES C=C1C[C@]2(O)O[C@]3(C[C@H]2C(C)C)[C@H](C)CC[C@@H]13
REMARK SMILES IDX 14 1 13 2 15 3 16 4 17 5 7 6 8 7 9 8 4 9 6 10 3 11 2 12 1 13
REMARK SMILES IDX 10 14 11 15 12 16 5 17
REMARK H PARENT 5 18
REMARK Flexibility Score: inf
ROOT
ATOM      1  C   UNL     1     -46.394  36.431  -2.690  1.00  0.00     0.011 C 
ATOM      2  C   UNL     1     -45.607  35.246  -3.274  1.00  0.00     0.019 C 
ATOM      3  C   UNL     1     -44.817  34.486  -2.176  1.00  0.00     0.007 C 
ATOM      4  C   UNL     1     -43.322  34.807  -2.376  1.00  0.00     0.011 C 
ATOM      5  C   UNL     1     -43.322  35.962  -3.365  1.00  0.00     0.047 C 
ATOM      6  C   UNL     1     -44.518  35.683  -4.276  1.00  0.00     0.081 C 
ATOM      7  C   UNL     1     -44.249  34.590  -5.343  1.00  0.00     0.046 C 
ATOM      8  C   UNL     1     -43.847  35.374  -6.601  1.00  0.00     0.054 C 
ATOM      9  C   UNL     1     -43.809  36.825  -6.036  1.00  0.00     0.173 C 
ATOM     10  O   UNL     1     -44.778  36.860  -5.000  1.00  0.00    -0.342 OA
ATOM     11  C   UNL     1     -42.384  37.125  -5.435  1.00  0.00     0.096 C 
ATOM     12  C   UNL     1     -42.114  36.265  -4.211  1.00  0.00    -0.066 C 
ATOM     13  C   UNL     1     -40.865  35.999  -3.807  1.00  0.00     0.008 C 
ENDROOT
BRANCH   8  14
ATOM     14  C   UNL     1     -44.821  35.085  -7.803  1.00  0.00    -0.009 C 
ATOM     15  C   UNL     1     -44.092  34.933  -9.155  1.00  0.00     0.008 C 
ATOM     16  C   UNL     1     -45.618  33.783  -7.558  1.00  0.00     0.008 C 
ENDBRANCH   8  14
BRANCH   9  17
ATOM     17  O   UNL     1     -44.138  37.805  -6.984  1.00  0.00    -0.365 OA
ATOM     18  H   UNL     1     -44.518  37.345  -7.778  1.00  0.00     0.214 HD
ENDBRANCH   9  17
TORSDOF 2
ENDMDL
MODEL 6
REMARK VINA RESULT:    -5.816      2.149      4.578
REMARK INTER + INTRA:          -6.538
REMARK INTER:                  -6.291
REMARK INTRA:                  -0.247
REMARK UNBOUND:                -0.212
REMARK SMILES C=C1C[C@]2(O)O[C@]3(C[C@H]2C(C)C)[C@H](C)CC[C@@H]13
REMARK SMILES IDX 14 1 13 2 15 3 16 4 17 5 7 6 8 7 9 8 4 9 6 10 3 11 2 12 1 13
REMARK SMILES IDX 10 14 11 15 12 16 5 17
REMARK H PARENT 5 18
REMARK Flexibility Score: inf
ROOT
ATOM      1  C   UNL     1     -42.368  36.440  -5.128  1.00  0.00     0.011 C 
ATOM      2  C   UNL     1     -41.857  36.541  -3.682  1.00  0.00     0.019 C 
ATOM      3  C   UNL     1     -40.399  36.024  -3.552  1.00  0.00     0.007 C 
ATOM      4  C   UNL     1     -40.452  34.674  -2.809  1.00  0.00     0.011 C 
ATOM      5  C   UNL     1     -41.928  34.311  -2.808  1.00  0.00     0.047 C 
ATOM      6  C   UNL     1     -42.651  35.654  -2.700  1.00  0.00     0.081 C 
ATOM      7  C   UNL     1     -42.655  36.247  -1.267  1.00  0.00     0.046 C 
ATOM      8  C   UNL     1     -44.003  35.809  -0.675  1.00  0.00     0.054 C 
ATOM      9  C   UNL     1     -44.535  34.895  -1.819  1.00  0.00     0.173 C 
ATOM     10  O   UNL     1     -44.002  35.432  -3.019  1.00  0.00    -0.342 OA
ATOM     11  C   UNL     1     -44.006  33.425  -1.618  1.00  0.00     0.096 C 
ATOM     12  C   UNL     1     -42.497  33.358  -1.790  1.00  0.00    -0.066 C 
ATOM     13  C   UNL     1     -41.776  32.371  -1.242  1.00  0.00     0.008 C 
ENDROOT
BRANCH   8  14
ATOM     14  C   UNL     1     -44.885  37.043  -0.257  1.00  0.00    -0.009 C 
ATOM     15  C   UNL     1     -44.865  37.319   1.262  1.00  0.00     0.008 C 
ATOM     16  C   UNL     1     -44.397  38.327  -0.967  1.00  0.00     0.008 C 
ENDBRANCH   8  14
BRANCH   9  17
ATOM     17  O   UNL     1     -45.934  34.884  -1.923  1.00  0.00    -0.365 OA
ATOM     18  H   UNL     1     -46.307  34.866  -1.002  1.00  0.00     0.214 HD
ENDBRANCH   9  17
TORSDOF 2
ENDMDL
MODEL 7
REMARK VINA RESULT:    -5.732      1.878      3.815
REMARK INTER + INTRA:          -6.447
REMARK INTER:                  -6.222
REMARK INTRA:                  -0.224
REMARK UNBOUND:                -0.212
REMARK SMILES C=C1C[C@]2(O)O[C@]3(C[C@H]2C(C)C)[C@H](C)CC[C@@H]13
REMARK SMILES IDX 14 1 13 2 15 3 16 4 17 5 7 6 8 7 9 8 4 9 6 10 3 11 2 12 1 13
REMARK SMILES IDX 10 14 11 15 12 16 5 17
REMARK H PARENT 5 18
REMARK Flexibility Score: inf
ROOT
ATOM      1  C   UNL     1     -45.179  37.081  -1.350  1.00  0.00     0.011 C 
ATOM      2  C   UNL     1     -45.388  35.752  -2.094  1.00  0.00     0.019 C 
ATOM      3  C   UNL     1     -45.612  34.573  -1.110  1.00  0.00     0.007 C 
ATOM      4  C   UNL     1     -44.341  33.701  -1.135  1.00  0.00     0.011 C 
ATOM      5  C   UNL     1     -43.325  34.553  -1.880  1.00  0.00     0.047 C 
ATOM      6  C   UNL     1     -44.153  35.320  -2.911  1.00  0.00     0.081 C 
ATOM      7  C   UNL     1     -44.551  34.472  -4.147  1.00  0.00     0.046 C 
ATOM      8  C   UNL     1     -43.480  34.799  -5.198  1.00  0.00     0.054 C 
ATOM      9  C   UNL     1     -42.523  35.700  -4.361  1.00  0.00     0.173 C 
ATOM     10  O   UNL     1     -43.346  36.357  -3.411  1.00  0.00    -0.342 OA
ATOM     11  C   UNL     1     -41.466  34.803  -3.613  1.00  0.00     0.096 C 
ATOM     12  C   UNL     1     -42.135  33.931  -2.562  1.00  0.00    -0.066 C 
ATOM     13  C   UNL     1     -41.564  32.800  -2.128  1.00  0.00     0.008 C 
ENDROOT
BRANCH   8  14
ATOM     14  C   UNL     1     -44.111  35.418  -6.500  1.00  0.00    -0.009 C 
ATOM     15  C   UNL     1     -43.518  34.836  -7.801  1.00  0.00     0.008 C 
ATOM     16  C   UNL     1     -45.637  35.171  -6.537  1.00  0.00     0.008 C 
ENDBRANCH   8  14
BRANCH   9  17
ATOM     17  O   UNL     1     -41.860  36.674  -5.123  1.00  0.00    -0.365 OA
ATOM     18  H   UNL     1     -42.470  36.954  -5.856  1.00  0.00     0.214 HD
ENDBRANCH   9  17
TORSDOF 2
ENDMDL
MODEL 8
REMARK VINA RESULT:    -5.709      2.119      5.119
REMARK INTER + INTRA:          -6.421
REMARK INTER:                  -6.285
REMARK INTRA:                  -0.136
REMARK UNBOUND:                -0.212
REMARK SMILES C=C1C[C@]2(O)O[C@]3(C[C@H]2C(C)C)[C@H](C)CC[C@@H]13
REMARK SMILES IDX 14 1 13 2 15 3 16 4 17 5 7 6 8 7 9 8 4 9 6 10 3 11 2 12 1 13
REMARK SMILES IDX 10 14 11 15 12 16 5 17
REMARK H PARENT 5 18
REMARK Flexibility Score: inf
ROOT
ATOM      1  C   UNL     1     -43.067  32.702  -2.727  1.00  0.00     0.011 C 
ATOM      2  C   UNL     1     -42.655  33.338  -4.066  1.00  0.00     0.019 C 
ATOM      3  C   UNL     1     -41.349  34.165  -3.930  1.00  0.00     0.007 C 
ATOM      4  C   UNL     1     -41.734  35.655  -4.023  1.00  0.00     0.011 C 
ATOM      5  C   UNL     1     -43.250  35.652  -3.900  1.00  0.00     0.047 C 
ATOM      6  C   UNL     1     -43.685  34.359  -4.589  1.00  0.00     0.081 C 
ATOM      7  C   UNL     1     -43.674  34.442  -6.138  1.00  0.00     0.046 C 
ATOM      8  C   UNL     1     -45.123  34.784  -6.515  1.00  0.00     0.054 C 
ATOM      9  C   UNL     1     -45.746  34.987  -5.101  1.00  0.00     0.173 C 
ATOM     10  O   UNL     1     -45.026  34.124  -4.236  1.00  0.00    -0.342 OA
ATOM     11  C   UNL     1     -45.549  36.481  -4.641  1.00  0.00     0.096 C 
ATOM     12  C   UNL     1     -44.077  36.797  -4.424  1.00  0.00    -0.066 C 
ATOM     13  C   UNL     1     -43.619  38.053  -4.480  1.00  0.00     0.008 C 
ENDROOT
BRANCH   8  14
ATOM     14  C   UNL     1     -45.760  33.683  -7.441  1.00  0.00    -0.009 C 
ATOM     15  C   UNL     1     -46.884  34.227  -8.350  1.00  0.00     0.008 C 
ATOM     16  C   UNL     1     -44.686  33.055  -8.359  1.00  0.00     0.008 C 
ENDBRANCH   8  14
BRANCH   9  17
ATOM     17  O   UNL     1     -47.106  34.648  -5.034  1.00  0.00    -0.365 OA
ATOM     18  H   UNL     1     -47.168  33.681  -4.816  1.00  0.00     0.214 HD
ENDBRANCH   9  17
TORSDOF 2
ENDMDL
MODEL 9
REMARK VINA RESULT:    -5.668      2.104      3.345
REMARK INTER + INTRA:          -6.377
REMARK INTER:                  -6.127
REMARK INTRA:                  -0.250
REMARK UNBOUND:                -0.212
REMARK SMILES C=C1C[C@]2(O)O[C@]3(C[C@H]2C(C)C)[C@H](C)CC[C@@H]13
REMARK SMILES IDX 14 1 13 2 15 3 16 4 17 5 7 6 8 7 9 8 4 9 6 10 3 11 2 12 1 13
REMARK SMILES IDX 10 14 11 15 12 16 5 17
REMARK H PARENT 5 18
REMARK Flexibility Score: inf
ROOT
ATOM      1  C   UNL     1     -42.781  37.469   0.334  1.00  0.00     0.011 C 
ATOM      2  C   UNL     1     -43.766  36.939  -0.721  1.00  0.00     0.019 C 
ATOM      3  C   UNL     1     -44.915  36.122  -0.074  1.00  0.00     0.007 C 
ATOM      4  C   UNL     1     -44.677  34.638  -0.416  1.00  0.00     0.011 C 
ATOM      5  C   UNL     1     -43.263  34.611  -0.973  1.00  0.00     0.047 C 
ATOM      6  C   UNL     1     -43.116  35.945  -1.705  1.00  0.00     0.081 C 
ATOM      7  C   UNL     1     -43.809  35.976  -3.093  1.00  0.00     0.046 C 
ATOM      8  C   UNL     1     -42.688  35.642  -4.088  1.00  0.00     0.054 C 
ATOM      9  C   UNL     1     -41.518  35.327  -3.109  1.00  0.00     0.173 C 
ATOM     10  O   UNL     1     -41.747  36.134  -1.965  1.00  0.00    -0.342 OA
ATOM     11  C   UNL     1     -41.561  33.807  -2.699  1.00  0.00     0.096 C 
ATOM     12  C   UNL     1     -42.801  33.496  -1.875  1.00  0.00    -0.066 C 
ATOM     13  C   UNL     1     -43.293  32.254  -1.798  1.00  0.00     0.008 C 
ENDROOT
BRANCH   8  14
ATOM     14  C   UNL     1     -42.473  36.799  -5.133  1.00  0.00    -0.009 C 
ATOM     15  C   UNL     1     -42.744  36.364  -6.589  1.00  0.00     0.008 C 
ATOM     16  C   UNL     1     -43.408  37.992  -4.825  1.00  0.00     0.008 C 
ENDBRANCH   8  14
BRANCH   9  17
ATOM     17  O   UNL     1     -40.253  35.641  -3.627  1.00  0.00    -0.365 OA
ATOM     18  H   UNL     1     -40.256  35.416  -4.594  1.00  0.00     0.214 HD
ENDBRANCH   9  17
TORSDOF 2
ENDMDL
