MODEL 1
REMARK VINA RESULT:     0.156      0.000      0.000
REMARK INTER + INTRA:           0.829
REMARK INTER:                   0.220
REMARK INTRA:                   0.609
REMARK UNBOUND:                 0.609
REMARK SMILES CC1=CCC(=C(C)C)C(=O)CC(C)=CCC1
REMARK SMILES IDX 12 1 14 2 13 3 15 4 16 5 2 6 1 7 3 8 11 10 9 11 10 12 5 13
REMARK SMILES IDX 6 14 7 15 8 16 4 17
REMARK H PARENT
REMARK Flexibility Score: 60.00
ROOT
ATOM      1  C   UNL     1      87.975  30.611  64.165  1.00  0.00    -0.070 C 
ATOM      2  C   UNL     1      87.949  31.929  63.854  1.00  0.00    -0.027 C 
ATOM      3  C   UNL     1      88.124  29.631  63.026  1.00  0.00     0.039 C 
ENDROOT
BRANCH   2   4
ATOM      4  C   UNL     1      87.912  33.078  64.832  1.00  0.00     0.032 C 
BRANCH   4   5
ATOM      5  C   UNL     1      86.479  33.549  65.141  1.00  0.00     0.034 C 
BRANCH   5   6
ATOM      6  C   UNL     1      85.495  33.133  64.066  1.00  0.00    -0.077 C 
ATOM      7  C   UNL     1      85.518  33.870  62.751  1.00  0.00     0.039 C 
ATOM      8  C   UNL     1      84.577  32.154  64.227  1.00  0.00    -0.023 CG0
ATOM      9  G   UNL     1      84.375  31.331  65.477  1.00  0.00     0.000 G0
ENDBRANCH   5   6
ENDBRANCH   4   5
ENDBRANCH   2   4
BRANCH   1  10
ATOM     10  C   UNL     1      87.931  30.078  65.587  1.00  0.00     0.111 C 
BRANCH  10  11
ATOM     11  C   UNL     1      86.594  30.341  66.237  1.00  0.00     0.163 C 
ATOM     12  O   UNL     1      86.582  30.693  67.448  1.00  0.00    -0.294 OA
BRANCH  11  13
ATOM     13  C   UNL     1      85.304  30.144  65.504  1.00  0.00    -0.002 C 
ATOM     14  C   UNL     1      84.966  28.940  64.953  1.00  0.00    -0.069 C 
ATOM     15  C   UNL     1      83.677  28.760  64.182  1.00  0.00     0.039 C 
ATOM     16  C   UNL     1      85.845  27.719  65.115  1.00  0.00     0.039 C 
BRANCH  13  17
ATOM     17  C   UNL     1      84.348  31.323  65.464  1.00  0.00     0.066 CG0
ATOM     18  G   UNL     1      84.601  32.147  64.224  1.00  0.00     0.000 G0
ENDBRANCH  13  17
ENDBRANCH  11  13
ENDBRANCH  10  11
ENDBRANCH   1  10
TORSDOF 0
ENDMDL
MODEL 2
REMARK VINA RESULT:     0.438     15.775     17.364
REMARK INTER + INTRA:           1.226
REMARK INTER:                  -1.541
REMARK INTRA:                   2.767
REMARK UNBOUND:                 0.609
REMARK SMILES CC1=CCC(=C(C)C)C(=O)CC(C)=CCC1
REMARK SMILES IDX 12 1 14 2 13 3 15 4 16 5 2 6 1 7 3 8 11 10 9 11 10 12 5 13
REMARK SMILES IDX 6 14 7 15 8 16 4 17
REMARK H PARENT
REMARK Flexibility Score: 60.00
ROOT
ATOM      1  C   UNL     1      73.852  33.420  53.781  1.00  0.00    -0.070 C 
ATOM      2  C   UNL     1      73.502  34.613  54.317  1.00  0.00    -0.027 C 
ATOM      3  C   UNL     1      73.542  32.180  54.584  1.00  0.00     0.039 C 
ENDROOT
BRANCH   2   4
ATOM      4  C   UNL     1      73.621  35.962  53.650  1.00  0.00     0.032 C 
BRANCH   4   5
ATOM      5  C   UNL     1      72.695  36.103  52.428  1.00  0.00     0.034 C 
BRANCH   5   6
ATOM      6  C   UNL     1      73.464  36.078  51.121  1.00  0.00    -0.077 C 
ATOM      7  C   UNL     1      72.682  36.071  49.832  1.00  0.00     0.039 C 
ATOM      8  C   UNL     1      74.812  36.034  51.044  1.00  0.00    -0.023 CG0
ATOM      9  G   UNL     1      75.762  35.999  52.218  1.00  0.00     0.000 G0
ENDBRANCH   5   6
ENDBRANCH   4   5
ENDBRANCH   2   4
BRANCH   1  10
ATOM     10  C   UNL     1      74.471  33.262  52.403  1.00  0.00     0.111 C 
BRANCH  10  11
ATOM     11  C   UNL     1      75.970  33.427  52.446  1.00  0.00     0.163 C 
ATOM     12  O   UNL     1      76.664  32.453  52.847  1.00  0.00    -0.294 OA
BRANCH  11  13
ATOM     13  C   UNL     1      76.637  34.716  52.080  1.00  0.00    -0.002 C 
ATOM     14  C   UNL     1      77.917  34.754  51.602  1.00  0.00    -0.069 C 
ATOM     15  C   UNL     1      78.596  36.065  51.270  1.00  0.00     0.039 C 
ATOM     16  C   UNL     1      78.706  33.488  51.349  1.00  0.00     0.039 C 
BRANCH  13  17
ATOM     17  C   UNL     1      75.801  35.980  52.189  1.00  0.00     0.066 CG0
ATOM     18  G   UNL     1      74.818  36.045  51.045  1.00  0.00     0.000 G0
ENDBRANCH  13  17
ENDBRANCH  11  13
ENDBRANCH  10  11
ENDBRANCH   1  10
TORSDOF 0
ENDMDL
MODEL 3
REMARK VINA RESULT:     0.533      2.080      3.473
REMARK INTER + INTRA:           1.360
REMARK INTER:                  -0.172
REMARK INTRA:                   1.533
REMARK UNBOUND:                 0.609
REMARK SMILES CC1=CCC(=C(C)C)C(=O)CC(C)=CCC1
REMARK SMILES IDX 12 1 14 2 13 3 15 4 16 5 2 6 1 7 3 8 11 10 9 11 10 12 5 13
REMARK SMILES IDX 6 14 7 15 8 16 4 17
REMARK H PARENT
REMARK Flexibility Score: 60.00
ROOT
ATOM      1  C   UNL     1      86.519  32.003  66.911  1.00  0.00    -0.070 C 
ATOM      2  C   UNL     1      85.767  31.727  68.003  1.00  0.00    -0.027 C 
ATOM      3  C   UNL     1      88.005  31.757  67.010  1.00  0.00     0.039 C 
ENDROOT
BRANCH   2   4
ATOM      4  C   UNL     1      84.262  31.798  68.094  1.00  0.00     0.032 C 
BRANCH   4   5
ATOM      5  C   UNL     1      83.594  31.998  66.721  1.00  0.00     0.034 C 
BRANCH   5   6
ATOM      6  C   UNL     1      82.712  30.826  66.336  1.00  0.00    -0.077 C 
ATOM      7  C   UNL     1      81.716  30.319  67.348  1.00  0.00     0.039 C 
ATOM      8  C   UNL     1      82.785  30.190  65.146  1.00  0.00    -0.023 CG0
ATOM      9  G   UNL     1      83.738  30.526  64.023  1.00  0.00     0.000 G0
ENDBRANCH   5   6
ENDBRANCH   4   5
ENDBRANCH   2   4
BRANCH   1  10
ATOM     10  C   UNL     1      85.943  32.478  65.588  1.00  0.00     0.111 C 
BRANCH  10  11
ATOM     11  C   UNL     1      86.092  31.432  64.510  1.00  0.00     0.163 C 
ATOM     12  O   UNL     1      86.991  31.598  63.641  1.00  0.00    -0.294 OA
BRANCH  11  13
ATOM     13  C   UNL     1      85.178  30.250  64.421  1.00  0.00    -0.002 C 
ATOM     14  C   UNL     1      85.596  28.991  64.751  1.00  0.00    -0.069 C 
ATOM     15  C   UNL     1      84.677  27.796  64.622  1.00  0.00     0.039 C 
ATOM     16  C   UNL     1      86.985  28.733  65.294  1.00  0.00     0.039 C 
BRANCH  13  17
ATOM     17  C   UNL     1      83.739  30.520  64.020  1.00  0.00     0.066 CG0
ATOM     18  G   UNL     1      82.816  30.188  65.169  1.00  0.00     0.000 G0
ENDBRANCH  13  17
ENDBRANCH  11  13
ENDBRANCH  10  11
ENDBRANCH   1  10
TORSDOF 0
ENDMDL
MODEL 4
REMARK VINA RESULT:     0.892      1.833      4.658
REMARK INTER + INTRA:           1.867
REMARK INTER:                  -2.170
REMARK INTRA:                   4.037
REMARK UNBOUND:                 0.609
REMARK SMILES CC1=CCC(=C(C)C)C(=O)CC(C)=CCC1
REMARK SMILES IDX 12 1 14 2 13 3 15 4 16 5 2 6 1 7 3 8 11 10 9 11 10 12 5 13
REMARK SMILES IDX 6 14 7 15 8 16 4 17
REMARK H PARENT
REMARK Flexibility Score: 60.00
ROOT
ATOM      1  C   UNL     1      84.859  31.420  66.927  1.00  0.00    -0.070 C 
ATOM      2  C   UNL     1      84.181  31.241  65.768  1.00  0.00    -0.027 C 
ATOM      3  C   UNL     1      84.092  31.977  68.102  1.00  0.00     0.039 C 
ENDROOT
BRANCH   2   4
ATOM      4  C   UNL     1      84.717  30.606  64.508  1.00  0.00     0.032 C 
BRANCH   4   5
ATOM      5  C   UNL     1      85.471  29.291  64.781  1.00  0.00     0.034 C 
BRANCH   5   6
ATOM      6  C   UNL     1      86.970  29.444  64.611  1.00  0.00    -0.077 C 
ATOM      7  C   UNL     1      87.832  28.212  64.721  1.00  0.00     0.039 C 
ATOM      8  C   UNL     1      87.583  30.629  64.393  1.00  0.00    -0.023 CG0
ATOM      9  G   UNL     1      86.898  31.971  64.289  1.00  0.00     0.000 G0
ENDBRANCH   5   6
ENDBRANCH   4   5
ENDBRANCH   2   4
BRANCH   1  10
ATOM     10  C   UNL     1      86.315  31.032  67.122  1.00  0.00     0.111 C 
BRANCH  10  11
ATOM     11  C   UNL     1      87.241  32.186  66.827  1.00  0.00     0.163 C 
ATOM     12  O   UNL     1      87.974  32.612  67.761  1.00  0.00    -0.294 OA
BRANCH  11  13
ATOM     13  C   UNL     1      87.269  32.858  65.491  1.00  0.00    -0.002 C 
ATOM     14  C   UNL     1      87.646  34.165  65.351  1.00  0.00    -0.069 C 
ATOM     15  C   UNL     1      87.636  34.848  64.000  1.00  0.00     0.039 C 
ATOM     16  C   UNL     1      88.124  34.983  66.530  1.00  0.00     0.039 C 
BRANCH  13  17
ATOM     17  C   UNL     1      86.934  32.003  64.282  1.00  0.00     0.066 CG0
ATOM     18  G   UNL     1      87.582  30.645  64.419  1.00  0.00     0.000 G0
ENDBRANCH  13  17
ENDBRANCH  11  13
ENDBRANCH  10  11
ENDBRANCH   1  10
TORSDOF 0
ENDMDL
MODEL 5
REMARK VINA RESULT:     1.031     15.230     17.031
REMARK INTER + INTRA:           2.062
REMARK INTER:                   0.516
REMARK INTRA:                   1.545
REMARK UNBOUND:                 0.609
REMARK SMILES CC1=CCC(=C(C)C)C(=O)CC(C)=CCC1
REMARK SMILES IDX 12 1 14 2 13 3 15 4 16 5 2 6 1 7 3 8 11 10 9 11 10 12 5 13
REMARK SMILES IDX 6 14 7 15 8 16 4 17
REMARK H PARENT
REMARK Flexibility Score: 60.00
ROOT
ATOM      1  C   UNL     1      73.895  35.756  51.772  1.00  0.00    -0.070 C 
ATOM      2  C   UNL     1      72.685  35.359  52.233  1.00  0.00    -0.027 C 
ATOM      3  C   UNL     1      73.998  36.114  50.309  1.00  0.00     0.039 C 
ENDROOT
BRANCH   2   4
ATOM      4  C   UNL     1      72.331  35.056  53.669  1.00  0.00     0.032 C 
BRANCH   4   5
ATOM      5  C   UNL     1      72.258  33.545  53.956  1.00  0.00     0.034 C 
BRANCH   5   6
ATOM      6  C   UNL     1      73.510  33.031  54.640  1.00  0.00    -0.077 C 
ATOM      7  C   UNL     1      73.479  32.836  56.135  1.00  0.00     0.039 C 
ATOM      8  C   UNL     1      74.664  32.762  53.990  1.00  0.00    -0.023 CG0
ATOM      9  G   UNL     1      74.901  32.928  52.508  1.00  0.00     0.000 G0
ENDBRANCH   5   6
ENDBRANCH   4   5
ENDBRANCH   2   4
BRANCH   1  10
ATOM     10  C   UNL     1      75.122  35.922  52.653  1.00  0.00     0.111 C 
BRANCH  10  11
ATOM     11  C   UNL     1      76.274  35.080  52.163  1.00  0.00     0.163 C 
ATOM     12  O   UNL     1      77.266  35.670  51.655  1.00  0.00    -0.294 OA
BRANCH  11  13
ATOM     13  C   UNL     1      76.243  33.585  52.217  1.00  0.00    -0.002 C 
ATOM     14  C   UNL     1      77.380  32.837  52.094  1.00  0.00    -0.069 C 
ATOM     15  C   UNL     1      77.335  31.324  52.112  1.00  0.00     0.039 C 
ATOM     16  C   UNL     1      78.744  33.481  51.969  1.00  0.00     0.039 C 
BRANCH  13  17
ATOM     17  C   UNL     1      74.899  32.933  52.491  1.00  0.00     0.066 CG0
ATOM     18  G   UNL     1      74.695  32.788  53.981  1.00  0.00     0.000 G0
ENDBRANCH  13  17
ENDBRANCH  11  13
ENDBRANCH  10  11
ENDBRANCH   1  10
TORSDOF 0
ENDMDL
MODEL 6
REMARK VINA RESULT:     1.064      1.762      4.619
REMARK INTER + INTRA:           2.109
REMARK INTER:                   0.426
REMARK INTRA:                   1.682
REMARK UNBOUND:                 0.609
REMARK SMILES CC1=CCC(=C(C)C)C(=O)CC(C)=CCC1
REMARK SMILES IDX 12 1 14 2 13 3 15 4 16 5 2 6 1 7 3 8 11 10 9 11 10 12 5 13
REMARK SMILES IDX 6 14 7 15 8 16 4 17
REMARK H PARENT
REMARK Flexibility Score: 60.00
ROOT
ATOM      1  C   UNL     1      83.653  30.711  64.958  1.00  0.00    -0.070 C 
ATOM      2  C   UNL     1      83.655  29.670  64.091  1.00  0.00    -0.027 C 
ATOM      3  C   UNL     1      82.968  31.982  64.516  1.00  0.00     0.039 C 
ENDROOT
BRANCH   2   4
ATOM      4  C   UNL     1      84.185  28.283  64.362  1.00  0.00     0.032 C 
BRANCH   4   5
ATOM      5  C   UNL     1      85.276  28.266  65.449  1.00  0.00     0.034 C 
BRANCH   5   6
ATOM      6  C   UNL     1      86.663  28.086  64.866  1.00  0.00    -0.077 C 
ATOM      7  C   UNL     1      86.906  26.917  63.945  1.00  0.00     0.039 C 
ATOM      8  C   UNL     1      87.706  28.899  65.145  1.00  0.00    -0.023 CG0
ATOM      9  G   UNL     1      87.671  30.095  66.067  1.00  0.00     0.000 G0
ENDBRANCH   5   6
ENDBRANCH   4   5
ENDBRANCH   2   4
BRANCH   1  10
ATOM     10  C   UNL     1      84.239  30.645  66.358  1.00  0.00     0.111 C 
BRANCH  10  11
ATOM     11  C   UNL     1      85.519  31.439  66.462  1.00  0.00     0.163 C 
ATOM     12  O   UNL     1      85.555  32.402  67.275  1.00  0.00    -0.294 OA
BRANCH  11  13
ATOM     13  C   UNL     1      86.705  31.147  65.597  1.00  0.00    -0.002 C 
ATOM     14  C   UNL     1      86.942  31.840  64.443  1.00  0.00    -0.069 C 
ATOM     15  C   UNL     1      88.124  31.514  63.556  1.00  0.00     0.039 C 
ATOM     16  C   UNL     1      86.057  32.990  64.013  1.00  0.00     0.039 C 
BRANCH  13  17
ATOM     17  C   UNL     1      87.680  30.096  66.097  1.00  0.00     0.066 CG0
ATOM     18  G   UNL     1      87.683  28.913  65.159  1.00  0.00     0.000 G0
ENDBRANCH  13  17
ENDBRANCH  11  13
ENDBRANCH  10  11
ENDBRANCH   1  10
TORSDOF 0
ENDMDL
MODEL 7
REMARK VINA RESULT:     1.105     14.124     16.164
REMARK INTER + INTRA:           2.167
REMARK INTER:                   0.184
REMARK INTRA:                   1.983
REMARK UNBOUND:                 0.609
REMARK SMILES CC1=CCC(=C(C)C)C(=O)CC(C)=CCC1
REMARK SMILES IDX 12 1 14 2 13 3 15 4 16 5 2 6 1 7 3 8 11 10 9 11 10 12 5 13
REMARK SMILES IDX 6 14 7 15 8 16 4 17
REMARK H PARENT
REMARK Flexibility Score: 60.00
ROOT
ATOM      1  C   UNL     1      75.240  34.375  52.334  1.00  0.00    -0.070 C 
ATOM      2  C   UNL     1      75.434  35.426  51.502  1.00  0.00    -0.027 C 
ATOM      3  C   UNL     1      73.863  33.758  52.365  1.00  0.00     0.039 C 
ENDROOT
BRANCH   2   4
ATOM      4  C   UNL     1      76.745  36.124  51.235  1.00  0.00     0.032 C 
BRANCH   4   5
ATOM      5  C   UNL     1      77.335  35.773  49.856  1.00  0.00     0.034 C 
BRANCH   5   6
ATOM      6  C   UNL     1      78.850  35.770  49.865  1.00  0.00    -0.077 C 
ATOM      7  C   UNL     1      79.574  36.120  48.589  1.00  0.00     0.039 C 
ATOM      8  C   UNL     1      79.594  35.445  50.946  1.00  0.00    -0.023 CG0
ATOM      9  G   UNL     1      79.056  35.034  52.296  1.00  0.00     0.000 G0
ENDBRANCH   5   6
ENDBRANCH   4   5
ENDBRANCH   2   4
BRANCH   1  10
ATOM     10  C   UNL     1      76.340  33.751  53.177  1.00  0.00     0.111 C 
BRANCH  10  11
ATOM     11  C   UNL     1      77.388  33.087  52.318  1.00  0.00     0.163 C 
ATOM     12  O   UNL     1      77.039  32.105  51.608  1.00  0.00    -0.294 OA
BRANCH  11  13
ATOM     13  C   UNL     1      78.819  33.527  52.332  1.00  0.00    -0.002 C 
ATOM     14  C   UNL     1      79.848  32.628  52.296  1.00  0.00    -0.069 C 
ATOM     15  C   UNL     1      81.291  33.079  52.347  1.00  0.00     0.039 C 
ATOM     16  C   UNL     1      79.598  31.141  52.168  1.00  0.00     0.039 C 
BRANCH  13  17
ATOM     17  C   UNL     1      79.080  35.022  52.309  1.00  0.00     0.066 CG0
ATOM     18  G   UNL     1      79.589  35.433  50.947  1.00  0.00     0.000 G0
ENDBRANCH  13  17
ENDBRANCH  11  13
ENDBRANCH  10  11
ENDBRANCH   1  10
TORSDOF 0
ENDMDL
MODEL 8
REMARK VINA RESULT:     1.328      1.475      2.160
REMARK INTER + INTRA:           2.480
REMARK INTER:                   1.409
REMARK INTRA:                   1.072
REMARK UNBOUND:                 0.609
REMARK SMILES CC1=CCC(=C(C)C)C(=O)CC(C)=CCC1
REMARK SMILES IDX 12 1 14 2 13 3 15 4 16 5 2 6 1 7 3 8 11 10 9 11 10 12 5 13
REMARK SMILES IDX 6 14 7 15 8 16 4 17
REMARK H PARENT
REMARK Flexibility Score: 60.00
ROOT
ATOM      1  C   UNL     1      87.326  29.907  65.476  1.00  0.00    -0.070 C 
ATOM      2  C   UNL     1      88.125  30.869  64.956  1.00  0.00    -0.027 C 
ATOM      3  C   UNL     1      87.586  28.482  65.050  1.00  0.00     0.039 C 
ENDROOT
BRANCH   2   4
ATOM      4  C   UNL     1      88.113  32.334  65.318  1.00  0.00     0.032 C 
BRANCH   4   5
ATOM      5  C   UNL     1      88.008  33.250  64.084  1.00  0.00     0.034 C 
BRANCH   5   6
ATOM      6  C   UNL     1      86.722  34.053  64.075  1.00  0.00    -0.077 C 
ATOM      7  C   UNL     1      86.805  35.538  64.320  1.00  0.00     0.039 C 
ATOM      8  C   UNL     1      85.499  33.510  63.885  1.00  0.00    -0.023 CG0
ATOM      9  G   UNL     1      85.209  32.045  63.660  1.00  0.00     0.000 G0
ENDBRANCH   5   6
ENDBRANCH   4   5
ENDBRANCH   2   4
BRANCH   1  10
ATOM     10  C   UNL     1      86.239  30.176  66.503  1.00  0.00     0.111 C 
BRANCH  10  11
ATOM     11  C   UNL     1      85.403  31.374  66.125  1.00  0.00     0.163 C 
ATOM     12  O   UNL     1      85.398  32.364  66.907  1.00  0.00    -0.294 OA
BRANCH  11  13
ATOM     13  C   UNL     1      84.554  31.393  64.893  1.00  0.00    -0.002 C 
ATOM     14  C   UNL     1      83.272  30.920  64.896  1.00  0.00    -0.069 C 
ATOM     15  C   UNL     1      82.432  30.908  63.637  1.00  0.00     0.039 C 
ATOM     16  C   UNL     1      82.614  30.420  66.164  1.00  0.00     0.039 C 
BRANCH  13  17
ATOM     17  C   UNL     1      85.154  32.031  63.652  1.00  0.00     0.066 CG0
ATOM     18  G   UNL     1      85.458  33.486  63.920  1.00  0.00     0.000 G0
ENDBRANCH  13  17
ENDBRANCH  11  13
ENDBRANCH  10  11
ENDBRANCH   1  10
TORSDOF 0
ENDMDL
MODEL 9
REMARK VINA RESULT:     2.075      1.342      2.653
REMARK INTER + INTRA:           3.533
REMARK INTER:                  -1.710
REMARK INTRA:                   5.244
REMARK UNBOUND:                 0.609
REMARK SMILES CC1=CCC(=C(C)C)C(=O)CC(C)=CCC1
REMARK SMILES IDX 12 1 14 2 13 3 15 4 16 5 2 6 1 7 3 8 11 10 9 11 10 12 5 13
REMARK SMILES IDX 6 14 7 15 8 16 4 17
REMARK H PARENT
REMARK Flexibility Score: 60.00
ROOT
ATOM      1  C   UNL     1      87.541  32.847  65.257  1.00  0.00    -0.070 C 
ATOM      2  C   UNL     1      87.077  32.995  66.520  1.00  0.00    -0.027 C 
ATOM      3  C   UNL     1      87.594  34.079  64.387  1.00  0.00     0.039 C 
ENDROOT
BRANCH   2   4
ATOM      4  C   UNL     1      87.035  31.929  67.588  1.00  0.00     0.032 C 
BRANCH   4   5
ATOM      5  C   UNL     1      85.882  30.928  67.383  1.00  0.00     0.034 C 
BRANCH   5   6
ATOM      6  C   UNL     1      84.584  31.619  67.014  1.00  0.00    -0.077 C 
ATOM      7  C   UNL     1      83.629  31.987  68.122  1.00  0.00     0.039 C 
ATOM      8  C   UNL     1      84.217  31.900  65.744  1.00  0.00    -0.023 CG0
ATOM      9  G   UNL     1      85.017  31.579  64.503  1.00  0.00     0.000 G0
ENDBRANCH   5   6
ENDBRANCH   4   5
ENDBRANCH   2   4
BRANCH   1  10
ATOM     10  C   UNL     1      88.066  31.535  64.699  1.00  0.00     0.111 C 
BRANCH  10  11
ATOM     11  C   UNL     1      87.184  30.374  65.085  1.00  0.00     0.163 C 
ATOM     12  O   UNL     1      87.693  29.441  65.764  1.00  0.00    -0.294 OA
BRANCH  11  13
ATOM     13  C   UNL     1      85.757  30.281  64.642  1.00  0.00    -0.002 C 
ATOM     14  C   UNL     1      85.141  29.076  64.450  1.00  0.00    -0.069 C 
ATOM     15  C   UNL     1      83.710  28.990  63.966  1.00  0.00     0.039 C 
ATOM     16  C   UNL     1      85.846  27.769  64.744  1.00  0.00     0.039 C 
BRANCH  13  17
ATOM     17  C   UNL     1      84.997  31.586  64.488  1.00  0.00     0.066 CG0
ATOM     18  G   UNL     1      84.243  31.892  65.761  1.00  0.00     0.000 G0
ENDBRANCH  13  17
ENDBRANCH  11  13
ENDBRANCH  10  11
ENDBRANCH   1  10
TORSDOF 0
ENDMDL
