MODEL 1
REMARK VINA RESULT:    -5.346      0.000      0.000
REMARK INTER + INTRA:          -7.751
REMARK INTER:                  -7.533
REMARK INTRA:                  -0.218
REMARK UNBOUND:                -0.218
REMARK SMILES COc1ccc(-c2cc(=O)c3c(OC)c(OC)c(OC)c(OC)c3o2)cc1OC
REMARK SMILES IDX 7 1 8 2 9 3 10 4 11 5 24 6 25 7 21 8 18 9 15 10 12 11 6 12
REMARK SMILES IDX 3 13 27 14 4 15 26 16 5 17 2 18 1 19 28 20 29 21 22 22 23 23
REMARK SMILES IDX 13 24 14 25 19 26 20 27 16 28 17 29
REMARK H PARENT
REMARK Flexibility Score: inf
ROOT
ATOM      1  C   UNL     1     130.165 131.936 133.244  1.00  0.00     0.138 A 
ATOM      2  C   UNL     1     131.536 131.895 133.519  1.00  0.00     0.100 A 
ATOM      3  C   UNL     1     132.226 133.086 133.721  1.00  0.00     0.197 A 
ATOM      4  O   UNL     1     133.459 133.035 133.979  1.00  0.00    -0.289 OA
ATOM      5  C   UNL     1     131.538 134.317 133.645  1.00  0.00     0.115 A 
ATOM      6  C   UNL     1     130.150 134.285 133.353  1.00  0.00     0.188 A 
ATOM      7  O   UNL     1     129.544 133.111 133.179  1.00  0.00    -0.452 OA
ATOM      8  C   UNL     1     129.414 135.494 133.243  1.00  0.00     0.209 A 
ATOM      9  C   UNL     1     130.067 136.725 133.500  1.00  0.00     0.211 A 
ATOM     10  C   UNL     1     131.431 136.745 133.819  1.00  0.00     0.208 A 
ATOM     11  C   UNL     1     132.182 135.557 133.834  1.00  0.00     0.179 A 
ENDROOT
BRANCH   1  12
ATOM     12  C   UNL     1     129.382 130.693 133.036  1.00  0.00     0.021 A 
ATOM     13  C   UNL     1     127.859 128.352 132.628  1.00  0.00     0.160 A 
ATOM     14  C   UNL     1     129.095 128.275 133.287  1.00  0.00     0.161 A 
ATOM     15  C   UNL     1     127.394 129.598 132.168  1.00  0.00     0.051 A 
ATOM     16  C   UNL     1     129.853 129.446 133.485  1.00  0.00     0.062 A 
ATOM     17  C   UNL     1     128.151 130.754 132.368  1.00  0.00     0.016 A 
BRANCH  13  18
ATOM     18  O   UNL     1     127.121 127.171 132.451  1.00  0.00    -0.493 OA
ATOM     19  C   UNL     1     126.301 126.575 133.451  1.00  0.00     0.278 C 
ENDBRANCH  13  18
BRANCH  14  20
ATOM     20  O   UNL     1     129.533 127.018 133.735  1.00  0.00    -0.493 OA
ATOM     21  C   UNL     1     130.530 126.234 133.089  1.00  0.00     0.278 C 
ENDBRANCH  14  20
ENDBRANCH   1  12
BRANCH   8  22
ATOM     22  O   UNL     1     128.053 135.522 132.884  1.00  0.00    -0.490 OA
ATOM     23  C   UNL     1     127.496 135.964 131.651  1.00  0.00     0.278 C 
ENDBRANCH   8  22
BRANCH  11  24
ATOM     24  O   UNL     1     133.568 135.604 134.022  1.00  0.00    -0.492 OA
ATOM     25  C   UNL     1     134.467 135.874 132.951  1.00  0.00     0.278 C 
ENDBRANCH  11  24
BRANCH   9  26
ATOM     26  O   UNL     1     129.419 137.977 133.473  1.00  0.00    -0.490 OA
ATOM     27  C   UNL     1     129.219 138.817 132.342  1.00  0.00     0.279 C 
ENDBRANCH   9  26
BRANCH  10  28
ATOM     28  O   UNL     1     132.016 137.981 134.122  1.00  0.00    -0.490 OA
ATOM     29  C   UNL     1     132.633 138.806 133.138  1.00  0.00     0.278 C 
ENDBRANCH  10  28
TORSDOF 7
ENDMDL
MODEL 2
REMARK VINA RESULT:    -5.221      2.687      9.667
REMARK INTER + INTRA:          -7.576
REMARK INTER:                  -6.792
REMARK INTRA:                  -0.783
REMARK UNBOUND:                -0.218
REMARK SMILES COc1ccc(-c2cc(=O)c3c(OC)c(OC)c(OC)c(OC)c3o2)cc1OC
REMARK SMILES IDX 7 1 8 2 9 3 10 4 11 5 24 6 25 7 21 8 18 9 15 10 12 11 6 12
REMARK SMILES IDX 3 13 27 14 4 15 26 16 5 17 2 18 1 19 28 20 29 21 22 22 23 23
REMARK SMILES IDX 13 24 14 25 19 26 20 27 16 28 17 29
REMARK H PARENT
REMARK Flexibility Score: inf
ROOT
ATOM      1  C   UNL     1     130.636 128.485 132.617  1.00  0.00     0.138 A 
ATOM      2  C   UNL     1     131.348 127.541 133.365  1.00  0.00     0.100 A 
ATOM      3  C   UNL     1     131.014 126.195 133.257  1.00  0.00     0.197 A 
ATOM      4  O   UNL     1     131.670 125.353 133.929  1.00  0.00    -0.289 OA
ATOM      5  C   UNL     1     129.965 125.799 132.399  1.00  0.00     0.115 A 
ATOM      6  C   UNL     1     129.280 126.810 131.677  1.00  0.00     0.188 A 
ATOM      7  O   UNL     1     129.653 128.081 131.817  1.00  0.00    -0.452 OA
ATOM      8  C   UNL     1     128.203 126.470 130.818  1.00  0.00     0.209 A 
ATOM      9  C   UNL     1     127.870 125.104 130.635  1.00  0.00     0.211 A 
ATOM     10  C   UNL     1     128.573 124.111 131.327  1.00  0.00     0.208 A 
ATOM     11  C   UNL     1     129.576 124.451 132.252  1.00  0.00     0.179 A 
ENDROOT
BRANCH   1  12
ATOM     12  C   UNL     1     130.964 129.931 132.685  1.00  0.00     0.021 A 
ATOM     13  C   UNL     1     131.628 132.672 132.803  1.00  0.00     0.160 A 
ATOM     14  C   UNL     1     130.409 132.224 133.335  1.00  0.00     0.161 A 
ATOM     15  C   UNL     1     132.505 131.747 132.207  1.00  0.00     0.051 A 
ATOM     16  C   UNL     1     130.080 130.855 133.270  1.00  0.00     0.062 A 
ATOM     17  C   UNL     1     132.173 130.393 132.148  1.00  0.00     0.016 A 
BRANCH  13  18
ATOM     18  O   UNL     1     131.933 134.039 132.888  1.00  0.00    -0.493 OA
ATOM     19  C   UNL     1     132.022 134.917 131.771  1.00  0.00     0.278 C 
ENDBRANCH  13  18
BRANCH  14  20
ATOM     20  O   UNL     1     129.553 133.170 133.923  1.00  0.00    -0.493 OA
ATOM     21  C   UNL     1     128.458 133.792 133.258  1.00  0.00     0.278 C 
ENDBRANCH  14  20
ENDBRANCH   1  12
BRANCH   8  22
ATOM     22  O   UNL     1     127.443 127.440 130.135  1.00  0.00    -0.490 OA
ATOM     23  C   UNL     1     127.692 127.974 128.840  1.00  0.00     0.278 C 
ENDBRANCH   8  22
BRANCH  11  24
ATOM     24  O   UNL     1     130.178 123.460 133.034  1.00  0.00    -0.492 OA
ATOM     25  C   UNL     1     129.498 122.840 134.122  1.00  0.00     0.278 C 
ENDBRANCH  11  24
BRANCH   9  26
ATOM     26  O   UNL     1     126.857 124.654 129.764  1.00  0.00    -0.490 OA
ATOM     27  C   UNL     1     125.469 124.530 130.052  1.00  0.00     0.279 C 
ENDBRANCH   9  26
BRANCH  10  28
ATOM     28  O   UNL     1     128.246 122.774 131.068  1.00  0.00    -0.490 OA
ATOM     29  C   UNL     1     129.028 121.937 130.221  1.00  0.00     0.278 C 
ENDBRANCH  10  28
TORSDOF 7
ENDMDL
MODEL 3
REMARK VINA RESULT:    -5.132      2.363      3.542
REMARK INTER + INTRA:          -7.450
REMARK INTER:                  -6.691
REMARK INTRA:                  -0.760
REMARK UNBOUND:                -0.218
REMARK SMILES COc1ccc(-c2cc(=O)c3c(OC)c(OC)c(OC)c(OC)c3o2)cc1OC
REMARK SMILES IDX 7 1 8 2 9 3 10 4 11 5 24 6 25 7 21 8 18 9 15 10 12 11 6 12
REMARK SMILES IDX 3 13 27 14 4 15 26 16 5 17 2 18 1 19 28 20 29 21 22 22 23 23
REMARK SMILES IDX 13 24 14 25 19 26 20 27 16 28 17 29
REMARK H PARENT
REMARK Flexibility Score: inf
ROOT
ATOM      1  C   UNL     1     129.127 131.183 132.346  1.00  0.00     0.138 A 
ATOM      2  C   UNL     1     128.414 132.075 133.154  1.00  0.00     0.100 A 
ATOM      3  C   UNL     1     128.727 133.430 133.114  1.00  0.00     0.197 A 
ATOM      4  O   UNL     1     128.070 134.224 133.840  1.00  0.00    -0.289 OA
ATOM      5  C   UNL     1     129.758 133.887 132.264  1.00  0.00     0.115 A 
ATOM      6  C   UNL     1     130.446 132.926 131.479  1.00  0.00     0.188 A 
ATOM      7  O   UNL     1     130.093 131.644 131.555  1.00  0.00    -0.452 OA
ATOM      8  C   UNL     1     131.505 133.328 130.624  1.00  0.00     0.209 A 
ATOM      9  C   UNL     1     131.816 134.706 130.510  1.00  0.00     0.211 A 
ATOM     10  C   UNL     1     131.110 135.651 131.266  1.00  0.00     0.208 A 
ATOM     11  C   UNL     1     130.126 135.246 132.185  1.00  0.00     0.179 A 
ENDROOT
BRANCH   1  12
ATOM     12  C   UNL     1     128.820 129.731 132.340  1.00  0.00     0.021 A 
ATOM     13  C   UNL     1     128.196 126.979 132.333  1.00  0.00     0.160 A 
ATOM     14  C   UNL     1     129.528 127.393 132.482  1.00  0.00     0.161 A 
ATOM     15  C   UNL     1     127.183 127.944 132.179  1.00  0.00     0.051 A 
ATOM     16  C   UNL     1     129.836 128.768 132.481  1.00  0.00     0.062 A 
ATOM     17  C   UNL     1     127.495 129.304 132.181  1.00  0.00     0.016 A 
BRANCH  13  18
ATOM     18  O   UNL     1     127.917 125.603 132.345  1.00  0.00    -0.493 OA
ATOM     19  C   UNL     1     126.651 125.033 132.033  1.00  0.00     0.278 C 
ENDBRANCH  13  18
BRANCH  14  20
ATOM     20  O   UNL     1     130.518 126.407 132.632  1.00  0.00    -0.493 OA
ATOM     21  C   UNL     1     131.172 126.100 133.858  1.00  0.00     0.278 C 
ENDBRANCH  14  20
ENDBRANCH   1  12
BRANCH   8  22
ATOM     22  O   UNL     1     132.268 132.408 129.879  1.00  0.00    -0.490 OA
ATOM     23  C   UNL     1     132.067 132.019 128.525  1.00  0.00     0.278 C 
ENDBRANCH   8  22
BRANCH  11  24
ATOM     24  O   UNL     1     129.522 136.185 133.028  1.00  0.00    -0.492 OA
ATOM     25  C   UNL     1     130.217 136.772 134.125  1.00  0.00     0.278 C 
ENDBRANCH  11  24
BRANCH   9  26
ATOM     26  O   UNL     1     132.809 135.218 129.651  1.00  0.00    -0.490 OA
ATOM     27  C   UNL     1     134.212 135.254 129.884  1.00  0.00     0.279 C 
ENDBRANCH   9  26
BRANCH  10  28
ATOM     28  O   UNL     1     131.414 137.004 131.075  1.00  0.00    -0.490 OA
ATOM     29  C   UNL     1     130.700 137.836 130.166  1.00  0.00     0.278 C 
ENDBRANCH  10  28
TORSDOF 7
ENDMDL
MODEL 4
REMARK VINA RESULT:    -5.130      3.405      9.112
REMARK INTER + INTRA:          -7.447
REMARK INTER:                  -6.864
REMARK INTRA:                  -0.583
REMARK UNBOUND:                -0.218
REMARK SMILES COc1ccc(-c2cc(=O)c3c(OC)c(OC)c(OC)c(OC)c3o2)cc1OC
REMARK SMILES IDX 7 1 8 2 9 3 10 4 11 5 24 6 25 7 21 8 18 9 15 10 12 11 6 12
REMARK SMILES IDX 3 13 27 14 4 15 26 16 5 17 2 18 1 19 28 20 29 21 22 22 23 23
REMARK SMILES IDX 13 24 14 25 19 26 20 27 16 28 17 29
REMARK H PARENT
REMARK Flexibility Score: inf
ROOT
ATOM      1  C   UNL     1     131.108 129.674 132.061  1.00  0.00     0.138 A 
ATOM      2  C   UNL     1     131.688 128.825 133.009  1.00  0.00     0.100 A 
ATOM      3  C   UNL     1     131.133 127.569 133.229  1.00  0.00     0.197 A 
ATOM      4  O   UNL     1     131.671 126.809 134.080  1.00  0.00    -0.289 OA
ATOM      5  C   UNL     1     129.994 127.167 132.496  1.00  0.00     0.115 A 
ATOM      6  C   UNL     1     129.454 128.081 131.556  1.00  0.00     0.188 A 
ATOM      7  O   UNL     1     130.037 129.267 131.385  1.00  0.00    -0.452 OA
ATOM      8  C   UNL     1     128.297 127.738 130.808  1.00  0.00     0.209 A 
ATOM      9  C   UNL     1     127.736 126.445 130.959  1.00  0.00     0.211 A 
ATOM     10  C   UNL     1     128.297 125.537 131.866  1.00  0.00     0.208 A 
ATOM     11  C   UNL     1     129.383 125.910 132.678  1.00  0.00     0.179 A 
ENDROOT
BRANCH   1  12
ATOM     12  C   UNL     1     131.672 131.017 131.779  1.00  0.00     0.021 A 
ATOM     13  C   UNL     1     132.745 133.564 131.203  1.00  0.00     0.160 A 
ATOM     14  C   UNL     1     132.706 133.106 132.528  1.00  0.00     0.161 A 
ATOM     15  C   UNL     1     132.239 132.749 130.173  1.00  0.00     0.051 A 
ATOM     16  C   UNL     1     132.166 131.835 132.812  1.00  0.00     0.062 A 
ATOM     17  C   UNL     1     131.707 131.492 130.461  1.00  0.00     0.016 A 
BRANCH  13  18
ATOM     18  O   UNL     1     133.295 134.829 130.948  1.00  0.00    -0.493 OA
ATOM     19  C   UNL     1     134.000 135.180 129.762  1.00  0.00     0.278 C 
ENDBRANCH  13  18
BRANCH  14  20
ATOM     20  O   UNL     1     133.218 133.941 133.535  1.00  0.00    -0.493 OA
ATOM     21  C   UNL     1     134.507 133.802 134.122  1.00  0.00     0.278 C 
ENDBRANCH  14  20
ENDBRANCH   1  12
BRANCH   8  22
ATOM     22  O   UNL     1     127.678 128.635 129.916  1.00  0.00    -0.490 OA
ATOM     23  C   UNL     1     128.014 128.865 128.553  1.00  0.00     0.278 C 
ENDBRANCH   8  22
BRANCH  11  24
ATOM     24  O   UNL     1     129.848 125.042 133.672  1.00  0.00    -0.492 OA
ATOM     25  C   UNL     1     130.526 123.829 133.360  1.00  0.00     0.278 C 
ENDBRANCH  11  24
BRANCH   9  26
ATOM     26  O   UNL     1     126.625 125.981 130.226  1.00  0.00    -0.490 OA
ATOM     27  C   UNL     1     126.626 125.461 128.901  1.00  0.00     0.279 C 
ENDBRANCH   9  26
BRANCH  10  28
ATOM     28  O   UNL     1     127.743 124.252 131.936  1.00  0.00    -0.490 OA
ATOM     29  C   UNL     1     126.749 123.890 132.890  1.00  0.00     0.278 C 
ENDBRANCH  10  28
TORSDOF 7
ENDMDL
MODEL 5
REMARK VINA RESULT:    -5.113      3.160      3.974
REMARK INTER + INTRA:          -7.424
REMARK INTER:                  -6.638
REMARK INTRA:                  -0.786
REMARK UNBOUND:                -0.218
REMARK SMILES COc1ccc(-c2cc(=O)c3c(OC)c(OC)c(OC)c(OC)c3o2)cc1OC
REMARK SMILES IDX 7 1 8 2 9 3 10 4 11 5 24 6 25 7 21 8 18 9 15 10 12 11 6 12
REMARK SMILES IDX 3 13 27 14 4 15 26 16 5 17 2 18 1 19 28 20 29 21 22 22 23 23
REMARK SMILES IDX 13 24 14 25 19 26 20 27 16 28 17 29
REMARK H PARENT
REMARK Flexibility Score: inf
ROOT
ATOM      1  C   UNL     1     131.022 130.599 132.594  1.00  0.00     0.138 A 
ATOM      2  C   UNL     1     131.348 131.535 133.580  1.00  0.00     0.100 A 
ATOM      3  C   UNL     1     131.978 132.720 133.213  1.00  0.00     0.197 A 
ATOM      4  O   UNL     1     132.258 133.560 134.111  1.00  0.00    -0.289 OA
ATOM      5  C   UNL     1     132.282 132.962 131.855  1.00  0.00     0.115 A 
ATOM      6  C   UNL     1     131.930 131.965 130.909  1.00  0.00     0.188 A 
ATOM      7  O   UNL     1     131.320 130.855 131.322  1.00  0.00    -0.452 OA
ATOM      8  C   UNL     1     132.232 132.146 129.534  1.00  0.00     0.209 A 
ATOM      9  C   UNL     1     132.820 133.364 129.111  1.00  0.00     0.211 A 
ATOM     10  C   UNL     1     133.134 134.356 130.048  1.00  0.00     0.208 A 
ATOM     11  C   UNL     1     132.925 134.139 131.422  1.00  0.00     0.179 A 
ENDROOT
BRANCH   1  12
ATOM     12  C   UNL     1     130.335 129.328 132.933  1.00  0.00     0.021 A 
ATOM     13  C   UNL     1     128.993 126.931 133.581  1.00  0.00     0.160 A 
ATOM     14  C   UNL     1     130.395 126.955 133.531  1.00  0.00     0.161 A 
ATOM     15  C   UNL     1     128.269 128.104 133.298  1.00  0.00     0.051 A 
ATOM     16  C   UNL     1     131.060 128.153 133.203  1.00  0.00     0.062 A 
ATOM     17  C   UNL     1     128.935 129.287 132.975  1.00  0.00     0.016 A 
BRANCH  13  18
ATOM     18  O   UNL     1     128.356 125.727 133.918  1.00  0.00    -0.493 OA
ATOM     19  C   UNL     1     127.586 124.941 133.015  1.00  0.00     0.278 C 
ENDBRANCH  13  18
BRANCH  14  20
ATOM     20  O   UNL     1     131.091 125.769 133.817  1.00  0.00    -0.493 OA
ATOM     21  C   UNL     1     131.457 124.794 132.847  1.00  0.00     0.278 C 
ENDBRANCH  14  20
ENDBRANCH   1  12
BRANCH   8  22
ATOM     22  O   UNL     1     131.971 131.158 128.565  1.00  0.00    -0.490 OA
ATOM     23  C   UNL     1     130.734 130.898 127.911  1.00  0.00     0.278 C 
ENDBRANCH   8  22
BRANCH  11  24
ATOM     24  O   UNL     1     133.365 135.081 132.358  1.00  0.00    -0.492 OA
ATOM     25  C   UNL     1     134.746 135.255 132.663  1.00  0.00     0.278 C 
ENDBRANCH  11  24
BRANCH   9  26
ATOM     26  O   UNL     1     133.109 133.670 127.765  1.00  0.00    -0.490 OA
ATOM     27  C   UNL     1     132.205 134.164 126.783  1.00  0.00     0.279 C 
ENDBRANCH   9  26
BRANCH  10  28
ATOM     28  O   UNL     1     133.660 135.565 129.574  1.00  0.00    -0.490 OA
ATOM     29  C   UNL     1     132.874 136.743 129.425  1.00  0.00     0.278 C 
ENDBRANCH  10  28
TORSDOF 7
ENDMDL
MODEL 6
REMARK VINA RESULT:    -5.052      2.884      9.565
REMARK INTER + INTRA:          -7.338
REMARK INTER:                  -6.551
REMARK INTRA:                  -0.787
REMARK UNBOUND:                -0.218
REMARK SMILES COc1ccc(-c2cc(=O)c3c(OC)c(OC)c(OC)c(OC)c3o2)cc1OC
REMARK SMILES IDX 7 1 8 2 9 3 10 4 11 5 24 6 25 7 21 8 18 9 15 10 12 11 6 12
REMARK SMILES IDX 3 13 27 14 4 15 26 16 5 17 2 18 1 19 28 20 29 21 22 22 23 23
REMARK SMILES IDX 13 24 14 25 19 26 20 27 16 28 17 29
REMARK H PARENT
REMARK Flexibility Score: inf
ROOT
ATOM      1  C   UNL     1     128.594 129.372 132.597  1.00  0.00     0.138 A 
ATOM      2  C   UNL     1     128.272 128.437 133.587  1.00  0.00     0.100 A 
ATOM      3  C   UNL     1     127.663 127.241 133.222  1.00  0.00     0.197 A 
ATOM      4  O   UNL     1     127.387 126.403 134.123  1.00  0.00    -0.289 OA
ATOM      5  C   UNL     1     127.377 126.986 131.863  1.00  0.00     0.115 A 
ATOM      6  C   UNL     1     127.723 127.981 130.914  1.00  0.00     0.188 A 
ATOM      7  O   UNL     1     128.313 129.102 131.325  1.00  0.00    -0.452 OA
ATOM      8  C   UNL     1     127.438 127.786 129.537  1.00  0.00     0.209 A 
ATOM      9  C   UNL     1     126.872 126.556 129.117  1.00  0.00     0.211 A 
ATOM     10  C   UNL     1     126.563 125.567 130.058  1.00  0.00     0.208 A 
ATOM     11  C   UNL     1     126.755 125.796 131.432  1.00  0.00     0.179 A 
ENDROOT
BRANCH   1  12
ATOM     12  C   UNL     1     129.259 130.655 132.934  1.00  0.00     0.021 A 
ATOM     13  C   UNL     1     130.559 133.076 133.581  1.00  0.00     0.160 A 
ATOM     14  C   UNL     1     129.162 133.046 133.450  1.00  0.00     0.161 A 
ATOM     15  C   UNL     1     131.299 131.896 133.379  1.00  0.00     0.051 A 
ATOM     16  C   UNL     1     128.518 131.836 133.123  1.00  0.00     0.062 A 
ATOM     17  C   UNL     1     130.654 130.702 133.057  1.00  0.00     0.016 A 
BRANCH  13  18
ATOM     18  O   UNL     1     131.173 134.293 133.915  1.00  0.00    -0.493 OA
ATOM     19  C   UNL     1     132.098 134.985 133.083  1.00  0.00     0.278 C 
ENDBRANCH  13  18
BRANCH  14  20
ATOM     20  O   UNL     1     128.449 134.239 133.657  1.00  0.00    -0.493 OA
ATOM     21  C   UNL     1     128.112 135.166 132.631  1.00  0.00     0.278 C 
ENDBRANCH  14  20
ENDBRANCH   1  12
BRANCH   8  22
ATOM     22  O   UNL     1     127.694 128.771 128.563  1.00  0.00    -0.490 OA
ATOM     23  C   UNL     1     128.924 129.020 127.892  1.00  0.00     0.278 C 
ENDBRANCH   8  22
BRANCH  11  24
ATOM     24  O   UNL     1     126.320 124.854 132.370  1.00  0.00    -0.492 OA
ATOM     25  C   UNL     1     124.938 124.640 132.640  1.00  0.00     0.278 C 
ENDBRANCH  11  24
BRANCH   9  26
ATOM     26  O   UNL     1     126.601 126.237 127.771  1.00  0.00    -0.490 OA
ATOM     27  C   UNL     1     127.520 125.742 126.803  1.00  0.00     0.279 C 
ENDBRANCH   9  26
BRANCH  10  28
ATOM     28  O   UNL     1     126.060 124.347 129.587  1.00  0.00    -0.490 OA
ATOM     29  C   UNL     1     126.859 123.172 129.478  1.00  0.00     0.278 C 
ENDBRANCH  10  28
TORSDOF 7
ENDMDL
MODEL 7
REMARK VINA RESULT:    -5.006      2.689      4.552
REMARK INTER + INTRA:          -7.272
REMARK INTER:                  -6.559
REMARK INTRA:                  -0.713
REMARK UNBOUND:                -0.218
REMARK SMILES COc1ccc(-c2cc(=O)c3c(OC)c(OC)c(OC)c(OC)c3o2)cc1OC
REMARK SMILES IDX 7 1 8 2 9 3 10 4 11 5 24 6 25 7 21 8 18 9 15 10 12 11 6 12
REMARK SMILES IDX 3 13 27 14 4 15 26 16 5 17 2 18 1 19 28 20 29 21 22 22 23 23
REMARK SMILES IDX 13 24 14 25 19 26 20 27 16 28 17 29
REMARK H PARENT
REMARK Flexibility Score: inf
ROOT
ATOM      1  C   UNL     1     129.627 129.696 132.890  1.00  0.00     0.138 A 
ATOM      2  C   UNL     1     128.707 130.448 133.628  1.00  0.00     0.100 A 
ATOM      3  C   UNL     1     128.597 131.814 133.390  1.00  0.00     0.197 A 
ATOM      4  O   UNL     1     127.756 132.479 134.055  1.00  0.00    -0.289 OA
ATOM      5  C   UNL     1     129.413 132.424 132.411  1.00  0.00     0.115 A 
ATOM      6  C   UNL     1     130.330 131.602 131.707  1.00  0.00     0.188 A 
ATOM      7  O   UNL     1     130.382 130.298 131.975  1.00  0.00    -0.452 OA
ATOM      8  C   UNL     1     131.190 132.166 130.728  1.00  0.00     0.209 A 
ATOM      9  C   UNL     1     131.068 133.543 130.414  1.00  0.00     0.211 A 
ATOM     10  C   UNL     1     130.137 134.340 131.092  1.00  0.00     0.208 A 
ATOM     11  C   UNL     1     129.352 133.804 132.129  1.00  0.00     0.179 A 
ENDROOT
BRANCH   1  12
ATOM     12  C   UNL     1     129.771 128.234 133.097  1.00  0.00     0.021 A 
ATOM     13  C   UNL     1     130.084 125.454 133.474  1.00  0.00     0.160 A 
ATOM     14  C   UNL     1     128.814 126.037 133.597  1.00  0.00     0.161 A 
ATOM     15  C   UNL     1     131.193 126.266 133.172  1.00  0.00     0.051 A 
ATOM     16  C   UNL     1     128.663 127.426 133.412  1.00  0.00     0.062 A 
ATOM     17  C   UNL     1     131.036 127.640 132.988  1.00  0.00     0.016 A 
BRANCH  13  18
ATOM     18  O   UNL     1     130.204 124.068 133.656  1.00  0.00    -0.493 OA
ATOM     19  C   UNL     1     130.728 123.168 132.685  1.00  0.00     0.278 C 
ENDBRANCH  13  18
BRANCH  14  20
ATOM     20  O   UNL     1     127.726 125.202 133.900  1.00  0.00    -0.493 OA
ATOM     21  C   UNL     1     126.385 125.651 134.066  1.00  0.00     0.278 C 
ENDBRANCH  14  20
ENDBRANCH   1  12
BRANCH   8  22
ATOM     22  O   UNL     1     132.168 131.411 130.053  1.00  0.00    -0.490 OA
ATOM     23  C   UNL     1     132.095 130.895 128.728  1.00  0.00     0.278 C 
ENDBRANCH   8  22
BRANCH  11  24
ATOM     24  O   UNL     1     128.524 134.638 132.887  1.00  0.00    -0.492 OA
ATOM     25  C   UNL     1     129.045 135.541 133.857  1.00  0.00     0.278 C 
ENDBRANCH  11  24
BRANCH   9  26
ATOM     26  O   UNL     1     131.831 134.191 129.421  1.00  0.00    -0.490 OA
ATOM     27  C   UNL     1     133.163 134.676 129.543  1.00  0.00     0.279 C 
ENDBRANCH   9  26
BRANCH  10  28
ATOM     28  O   UNL     1     130.013 135.680 130.704  1.00  0.00    -0.490 OA
ATOM     29  C   UNL     1     128.992 136.139 129.823  1.00  0.00     0.278 C 
ENDBRANCH  10  28
TORSDOF 7
ENDMDL
MODEL 8
REMARK VINA RESULT:    -4.951      2.445      9.071
REMARK INTER + INTRA:          -7.195
REMARK INTER:                  -6.594
REMARK INTRA:                  -0.601
REMARK UNBOUND:                -0.218
REMARK SMILES COc1ccc(-c2cc(=O)c3c(OC)c(OC)c(OC)c(OC)c3o2)cc1OC
REMARK SMILES IDX 7 1 8 2 9 3 10 4 11 5 24 6 25 7 21 8 18 9 15 10 12 11 6 12
REMARK SMILES IDX 3 13 27 14 4 15 26 16 5 17 2 18 1 19 28 20 29 21 22 22 23 23
REMARK SMILES IDX 13 24 14 25 19 26 20 27 16 28 17 29
REMARK H PARENT
REMARK Flexibility Score: inf
ROOT
ATOM      1  C   UNL     1     129.871 129.467 133.000  1.00  0.00     0.138 A 
ATOM      2  C   UNL     1     130.742 128.658 133.736  1.00  0.00     0.100 A 
ATOM      3  C   UNL     1     130.805 127.296 133.460  1.00  0.00     0.197 A 
ATOM      4  O   UNL     1     131.602 126.580 134.125  1.00  0.00    -0.289 OA
ATOM      5  C   UNL     1     129.991 126.748 132.444  1.00  0.00     0.115 A 
ATOM      6  C   UNL     1     129.124 127.625 131.743  1.00  0.00     0.188 A 
ATOM      7  O   UNL     1     129.116 128.922 132.049  1.00  0.00    -0.452 OA
ATOM      8  C   UNL     1     128.268 127.124 130.728  1.00  0.00     0.209 A 
ATOM      9  C   UNL     1     128.344 125.753 130.376  1.00  0.00     0.211 A 
ATOM     10  C   UNL     1     129.226 124.901 131.052  1.00  0.00     0.208 A 
ATOM     11  C   UNL     1     130.005 125.376 132.123  1.00  0.00     0.179 A 
ENDROOT
BRANCH   1  12
ATOM     12  C   UNL     1     129.778 130.928 133.246  1.00  0.00     0.021 A 
ATOM     13  C   UNL     1     129.563 133.705 133.699  1.00  0.00     0.160 A 
ATOM     14  C   UNL     1     130.814 133.076 133.795  1.00  0.00     0.161 A 
ATOM     15  C   UNL     1     128.425 132.940 133.386  1.00  0.00     0.051 A 
ATOM     16  C   UNL     1     130.916 131.689 133.572  1.00  0.00     0.062 A 
ATOM     17  C   UNL     1     128.533 131.566 133.165  1.00  0.00     0.016 A 
BRANCH  13  18
ATOM     18  O   UNL     1     129.492 135.089 133.919  1.00  0.00    -0.493 OA
ATOM     19  C   UNL     1     128.971 136.029 132.986  1.00  0.00     0.278 C 
ENDBRANCH  13  18
BRANCH  14  20
ATOM     20  O   UNL     1     131.932 133.865 134.111  1.00  0.00    -0.493 OA
ATOM     21  C   UNL     1     133.282 133.491 133.857  1.00  0.00     0.278 C 
ENDBRANCH  14  20
ENDBRANCH   1  12
BRANCH   8  22
ATOM     22  O   UNL     1     127.337 127.936 130.052  1.00  0.00    -0.490 OA
ATOM     23  C   UNL     1     127.516 128.596 128.804  1.00  0.00     0.278 C 
ENDBRANCH   8  22
BRANCH  11  24
ATOM     24  O   UNL     1     130.781 124.488 132.876  1.00  0.00    -0.492 OA
ATOM     25  C   UNL     1     131.951 123.872 132.346  1.00  0.00     0.278 C 
ENDBRANCH  11  24
BRANCH   9  26
ATOM     26  O   UNL     1     127.581 125.164 129.347  1.00  0.00    -0.490 OA
ATOM     27  C   UNL     1     126.208 124.794 129.400  1.00  0.00     0.279 C 
ENDBRANCH   9  26
BRANCH  10  28
ATOM     28  O   UNL     1     129.307 123.569 130.628  1.00  0.00    -0.490 OA
ATOM     29  C   UNL     1     128.575 122.515 131.246  1.00  0.00     0.278 C 
ENDBRANCH  10  28
TORSDOF 7
ENDMDL
