MODEL 1
REMARK VINA RESULT:    -4.229      0.000      0.000
REMARK INTER + INTRA:          -6.364
REMARK INTER:                  -5.713
REMARK INTRA:                  -0.651
REMARK UNBOUND:                -0.651
REMARK SMILES CC(=O)CCC=C(C)CCC=C(C)C
REMARK SMILES IDX 7 1 6 2 8 3 9 4 10 5 11 6 13 7 12 8 14 9 5 10 4 11 2 12 3 13
REMARK SMILES IDX 1 14
REMARK H PARENT
REMARK Flexibility Score: inf
ROOT
ATOM      1  C   UNL     1      29.135  45.007  82.145  1.00  0.00    -0.077 C 
ATOM      2  C   UNL     1      29.635  44.411  83.252  1.00  0.00    -0.028 C 
ATOM      3  C   UNL     1      28.734  46.464  82.135  1.00  0.00     0.039 C 
ENDROOT
BRANCH   1   4
ATOM      4  C   UNL     1      28.986  44.192  80.878  1.00  0.00     0.034 C 
BRANCH   4   5
ATOM      5  C   UNL     1      28.916  45.103  79.648  1.00  0.00     0.032 C 
BRANCH   5   6
ATOM      6  C   UNL     1      30.255  45.175  78.958  1.00  0.00    -0.028 C 
ATOM      7  C   UNL     1      30.348  47.677  79.053  1.00  0.00     0.039 C 
ATOM      8  C   UNL     1      30.922  46.324  78.706  1.00  0.00    -0.080 C 
ATOM      9  C   UNL     1      32.273  46.239  78.042  1.00  0.00     0.039 C 
ENDBRANCH   5   6
ENDBRANCH   4   5
ENDBRANCH   1   4
BRANCH   2  10
ATOM     10  C   UNL     1      29.800  45.091  84.588  1.00  0.00     0.035 C 
BRANCH  10  11
ATOM     11  C   UNL     1      28.999  44.363  85.671  1.00  0.00     0.079 C 
BRANCH  11  12
ATOM     12  C   UNL     1      28.644  45.299  86.793  1.00  0.00     0.130 C 
ATOM     13  O   UNL     1      28.608  46.503  86.589  1.00  0.00    -0.300 OA
ATOM     14  C   UNL     1      28.312  44.764  88.153  1.00  0.00     0.087 C 
ENDBRANCH  11  12
ENDBRANCH  10  11
ENDBRANCH   2  10
TORSDOF 6
ENDMDL
MODEL 2
REMARK VINA RESULT:    -4.048      1.621      2.809
REMARK INTER + INTRA:          -6.119
REMARK INTER:                  -5.283
REMARK INTRA:                  -0.835
REMARK UNBOUND:                -0.651
REMARK SMILES CC(=O)CCC=C(C)CCC=C(C)C
REMARK SMILES IDX 7 1 6 2 8 3 9 4 10 5 11 6 13 7 12 8 14 9 5 10 4 11 2 12 3 13
REMARK SMILES IDX 1 14
REMARK H PARENT
REMARK Flexibility Score: inf
ROOT
ATOM      1  C   UNL     1      29.454  44.697  84.751  1.00  0.00    -0.077 C 
ATOM      2  C   UNL     1      28.806  45.852  85.027  1.00  0.00    -0.028 C 
ATOM      3  C   UNL     1      29.809  43.702  85.831  1.00  0.00     0.039 C 
ENDROOT
BRANCH   1   4
ATOM      4  C   UNL     1      29.824  44.391  83.315  1.00  0.00     0.034 C 
BRANCH   4   5
ATOM      5  C   UNL     1      28.705  44.819  82.360  1.00  0.00     0.032 C 
BRANCH   5   6
ATOM      6  C   UNL     1      29.277  45.339  81.065  1.00  0.00    -0.028 C 
ATOM      7  C   UNL     1      29.147  47.735  81.783  1.00  0.00     0.039 C 
ATOM      8  C   UNL     1      29.504  46.645  80.800  1.00  0.00    -0.080 C 
ATOM      9  C   UNL     1      30.117  47.013  79.474  1.00  0.00     0.039 C 
ENDBRANCH   5   6
ENDBRANCH   4   5
ENDBRANCH   1   4
BRANCH   2  10
ATOM     10  C   UNL     1      28.414  46.301  86.414  1.00  0.00     0.035 C 
BRANCH  10  11
ATOM     11  C   UNL     1      27.047  45.731  86.802  1.00  0.00     0.079 C 
BRANCH  11  12
ATOM     12  C   UNL     1      27.120  45.029  88.130  1.00  0.00     0.130 C 
ATOM     13  O   UNL     1      26.159  44.392  88.533  1.00  0.00    -0.300 OA
ATOM     14  C   UNL     1      28.372  45.087  88.952  1.00  0.00     0.087 C 
ENDBRANCH  11  12
ENDBRANCH  10  11
ENDBRANCH   2  10
TORSDOF 6
ENDMDL
MODEL 3
REMARK VINA RESULT:    -4.018      2.253      3.505
REMARK INTER + INTRA:          -6.079
REMARK INTER:                  -5.655
REMARK INTRA:                  -0.425
REMARK UNBOUND:                -0.651
REMARK SMILES CC(=O)CCC=C(C)CCC=C(C)C
REMARK SMILES IDX 7 1 6 2 8 3 9 4 10 5 11 6 13 7 12 8 14 9 5 10 4 11 2 12 3 13
REMARK SMILES IDX 1 14
REMARK H PARENT
REMARK Flexibility Score: inf
ROOT
ATOM      1  C   UNL     1      29.206  45.079  81.917  1.00  0.00    -0.077 C 
ATOM      2  C   UNL     1      29.387  44.482  83.117  1.00  0.00    -0.028 C 
ATOM      3  C   UNL     1      29.261  46.580  81.755  1.00  0.00     0.039 C 
ENDROOT
BRANCH   1   4
ATOM      4  C   UNL     1      28.954  44.215  80.700  1.00  0.00     0.034 C 
BRANCH   4   5
ATOM      5  C   UNL     1      27.504  44.353  80.223  1.00  0.00     0.032 C 
BRANCH   5   6
ATOM      6  C   UNL     1      26.940  43.012  79.828  1.00  0.00    -0.028 C 
ATOM      7  C   UNL     1      25.587  43.957  77.944  1.00  0.00     0.039 C 
ATOM      8  C   UNL     1      26.097  42.814  78.791  1.00  0.00    -0.080 C 
ATOM      9  C   UNL     1      25.644  41.408  78.490  1.00  0.00     0.039 C 
ENDBRANCH   5   6
ENDBRANCH   4   5
ENDBRANCH   1   4
BRANCH   2  10
ATOM     10  C   UNL     1      29.607  45.221  84.414  1.00  0.00     0.035 C 
BRANCH  10  11
ATOM     11  C   UNL     1      29.342  44.305  85.613  1.00  0.00     0.079 C 
BRANCH  11  12
ATOM     12  C   UNL     1      28.731  45.077  86.750  1.00  0.00     0.130 C 
ATOM     13  O   UNL     1      28.581  44.540  87.836  1.00  0.00    -0.300 OA
ATOM     14  C   UNL     1      28.327  46.509  86.565  1.00  0.00     0.087 C 
ENDBRANCH  11  12
ENDBRANCH  10  11
ENDBRANCH   2  10
TORSDOF 6
ENDMDL
MODEL 4
REMARK VINA RESULT:    -3.988     11.520     13.347
REMARK INTER + INTRA:          -6.038
REMARK INTER:                  -4.532
REMARK INTRA:                  -1.505
REMARK UNBOUND:                -0.651
REMARK SMILES CC(=O)CCC=C(C)CCC=C(C)C
REMARK SMILES IDX 7 1 6 2 8 3 9 4 10 5 11 6 13 7 12 8 14 9 5 10 4 11 2 12 3 13
REMARK SMILES IDX 1 14
REMARK H PARENT
REMARK Flexibility Score: inf
ROOT
ATOM      1  C   UNL     1      22.278  37.608  88.297  1.00  0.00    -0.077 C 
ATOM      2  C   UNL     1      23.442  37.129  88.793  1.00  0.00    -0.028 C 
ATOM      3  C   UNL     1      20.940  37.211  88.876  1.00  0.00     0.039 C 
ENDROOT
BRANCH   1   4
ATOM      4  C   UNL     1      22.322  38.576  87.135  1.00  0.00     0.034 C 
BRANCH   4   5
ATOM      5  C   UNL     1      22.995  37.938  85.916  1.00  0.00     0.032 C 
BRANCH   5   6
ATOM      6  C   UNL     1      22.080  36.931  85.265  1.00  0.00    -0.028 C 
ATOM      7  C   UNL     1      23.655  35.020  85.638  1.00  0.00     0.039 C 
ATOM      8  C   UNL     1      22.353  35.612  85.154  1.00  0.00    -0.080 C 
ATOM      9  C   UNL     1      21.324  34.717  84.511  1.00  0.00     0.039 C 
ENDBRANCH   5   6
ENDBRANCH   4   5
ENDBRANCH   1   4
BRANCH   2  10
ATOM     10  C   UNL     1      23.544  36.130  89.920  1.00  0.00     0.035 C 
BRANCH  10  11
ATOM     11  C   UNL     1      23.831  34.727  89.377  1.00  0.00     0.079 C 
BRANCH  11  12
ATOM     12  C   UNL     1      22.623  33.843  89.520  1.00  0.00     0.130 C 
ATOM     13  O   UNL     1      22.358  33.349  90.605  1.00  0.00    -0.300 OA
ATOM     14  C   UNL     1      21.730  33.582  88.345  1.00  0.00     0.087 C 
ENDBRANCH  11  12
ENDBRANCH  10  11
ENDBRANCH   2  10
TORSDOF 6
ENDMDL
MODEL 5
REMARK VINA RESULT:    -3.970     11.479     14.487
REMARK INTER + INTRA:          -6.013
REMARK INTER:                  -4.986
REMARK INTRA:                  -1.027
REMARK UNBOUND:                -0.651
REMARK SMILES CC(=O)CCC=C(C)CCC=C(C)C
REMARK SMILES IDX 7 1 6 2 8 3 9 4 10 5 11 6 13 7 12 8 14 9 5 10 4 11 2 12 3 13
REMARK SMILES IDX 1 14
REMARK H PARENT
REMARK Flexibility Score: inf
ROOT
ATOM      1  C   UNL     1      22.895  34.930  87.302  1.00  0.00    -0.077 C 
ATOM      2  C   UNL     1      23.148  35.850  88.260  1.00  0.00    -0.028 C 
ATOM      3  C   UNL     1      23.584  34.967  85.957  1.00  0.00     0.039 C 
ENDROOT
BRANCH   1   4
ATOM      4  C   UNL     1      21.902  33.825  87.591  1.00  0.00     0.034 C 
BRANCH   4   5
ATOM      5  C   UNL     1      22.045  33.325  89.032  1.00  0.00     0.032 C 
BRANCH   5   6
ATOM      6  C   UNL     1      22.783  32.011  89.072  1.00  0.00    -0.028 C 
ATOM      7  C   UNL     1      24.740  32.965  90.311  1.00  0.00     0.039 C 
ATOM      8  C   UNL     1      23.984  31.827  89.665  1.00  0.00    -0.080 C 
ATOM      9  C   UNL     1      24.585  30.445  89.659  1.00  0.00     0.039 C 
ENDBRANCH   5   6
ENDBRANCH   4   5
ENDBRANCH   1   4
BRANCH   2  10
ATOM     10  C   UNL     1      24.082  37.023  88.093  1.00  0.00     0.035 C 
BRANCH  10  11
ATOM     11  C   UNL     1      23.323  38.346  88.228  1.00  0.00     0.079 C 
BRANCH  11  12
ATOM     12  C   UNL     1      22.466  38.595  87.017  1.00  0.00     0.130 C 
ATOM     13  O   UNL     1      22.967  38.567  85.904  1.00  0.00    -0.300 OA
ATOM     14  C   UNL     1      20.998  38.856  87.166  1.00  0.00     0.087 C 
ENDBRANCH  11  12
ENDBRANCH  10  11
ENDBRANCH   2  10
TORSDOF 6
ENDMDL
MODEL 6
REMARK VINA RESULT:    -3.968     12.900     14.543
REMARK INTER + INTRA:          -6.012
REMARK INTER:                  -4.976
REMARK INTRA:                  -1.035
REMARK UNBOUND:                -0.651
REMARK SMILES CC(=O)CCC=C(C)CCC=C(C)C
REMARK SMILES IDX 7 1 6 2 8 3 9 4 10 5 11 6 13 7 12 8 14 9 5 10 4 11 2 12 3 13
REMARK SMILES IDX 1 14
REMARK H PARENT
REMARK Flexibility Score: inf
ROOT
ATOM      1  C   UNL     1      23.421  34.971  86.959  1.00  0.00    -0.077 C 
ATOM      2  C   UNL     1      22.861  33.873  87.517  1.00  0.00    -0.028 C 
ATOM      3  C   UNL     1      23.876  36.146  87.792  1.00  0.00     0.039 C 
ENDROOT
BRANCH   1   4
ATOM      4  C   UNL     1      23.605  35.016  85.457  1.00  0.00     0.034 C 
BRANCH   4   5
ATOM      5  C   UNL     1      22.275  34.775  84.736  1.00  0.00     0.032 C 
BRANCH   5   6
ATOM      6  C   UNL     1      21.308  35.900  85.007  1.00  0.00    -0.028 C 
ATOM      7  C   UNL     1      19.557  34.379  85.954  1.00  0.00     0.039 C 
ATOM      8  C   UNL     1      20.092  35.740  85.576  1.00  0.00    -0.080 C 
ATOM      9  C   UNL     1      19.247  36.964  85.822  1.00  0.00     0.039 C 
ENDBRANCH   5   6
ENDBRANCH   4   5
ENDBRANCH   1   4
BRANCH   2  10
ATOM     10  C   UNL     1      22.582  33.712  88.991  1.00  0.00     0.035 C 
BRANCH  10  11
ATOM     11  C   UNL     1      22.810  32.263  89.431  1.00  0.00     0.079 C 
BRANCH  11  12
ATOM     12  C   UNL     1      24.236  32.053  89.859  1.00  0.00     0.130 C 
ATOM     13  O   UNL     1      24.779  30.979  89.653  1.00  0.00    -0.300 OA
ATOM     14  C   UNL     1      25.002  33.161  90.516  1.00  0.00     0.087 C 
ENDBRANCH  11  12
ENDBRANCH  10  11
ENDBRANCH   2  10
TORSDOF 6
ENDMDL
MODEL 7
REMARK VINA RESULT:    -3.967      2.373      4.351
REMARK INTER + INTRA:          -6.010
REMARK INTER:                  -5.233
REMARK INTRA:                  -0.776
REMARK UNBOUND:                -0.651
REMARK SMILES CC(=O)CCC=C(C)CCC=C(C)C
REMARK SMILES IDX 7 1 6 2 8 3 9 4 10 5 11 6 13 7 12 8 14 9 5 10 4 11 2 12 3 13
REMARK SMILES IDX 1 14
REMARK H PARENT
REMARK Flexibility Score: inf
ROOT
ATOM      1  C   UNL     1      28.711  45.131  86.587  1.00  0.00    -0.077 C 
ATOM      2  C   UNL     1      28.404  44.640  87.810  1.00  0.00    -0.028 C 
ATOM      3  C   UNL     1      28.394  46.556  86.197  1.00  0.00     0.039 C 
ENDROOT
BRANCH   1   4
ATOM      4  C   UNL     1      29.401  44.229  85.587  1.00  0.00     0.034 C 
BRANCH   4   5
ATOM      5  C   UNL     1      29.904  45.032  84.383  1.00  0.00     0.032 C 
BRANCH   5   6
ATOM      6  C   UNL     1      29.515  44.359  83.091  1.00  0.00    -0.028 C 
ATOM      7  C   UNL     1      29.130  46.525  81.894  1.00  0.00     0.039 C 
ATOM      8  C   UNL     1      29.188  45.017  81.956  1.00  0.00    -0.080 C 
ATOM      9  C   UNL     1      28.857  44.209  80.727  1.00  0.00     0.039 C 
ENDBRANCH   5   6
ENDBRANCH   4   5
ENDBRANCH   1   4
BRANCH   2  10
ATOM     10  C   UNL     1      27.683  45.414  88.885  1.00  0.00     0.035 C 
BRANCH  10  11
ATOM     11  C   UNL     1      26.392  44.700  89.296  1.00  0.00     0.079 C 
BRANCH  11  12
ATOM     12  C   UNL     1      25.342  44.842  88.229  1.00  0.00     0.130 C 
ATOM     13  O   UNL     1      24.760  43.851  87.814  1.00  0.00    -0.300 OA
ATOM     14  C   UNL     1      24.987  46.194  87.688  1.00  0.00     0.087 C 
ENDBRANCH  11  12
ENDBRANCH  10  11
ENDBRANCH   2  10
TORSDOF 6
ENDMDL
MODEL 8
REMARK VINA RESULT:    -3.913     11.859     14.009
REMARK INTER + INTRA:          -5.937
REMARK INTER:                  -4.620
REMARK INTRA:                  -1.317
REMARK UNBOUND:                -0.651
REMARK SMILES CC(=O)CCC=C(C)CCC=C(C)C
REMARK SMILES IDX 7 1 6 2 8 3 9 4 10 5 11 6 13 7 12 8 14 9 5 10 4 11 2 12 3 13
REMARK SMILES IDX 1 14
REMARK H PARENT
REMARK Flexibility Score: inf
ROOT
ATOM      1  C   UNL     1      22.528  34.111  87.591  1.00  0.00    -0.077 C 
ATOM      2  C   UNL     1      23.297  34.623  86.602  1.00  0.00    -0.028 C 
ATOM      3  C   UNL     1      21.063  33.804  87.385  1.00  0.00     0.039 C 
ENDROOT
BRANCH   1   4
ATOM      4  C   UNL     1      23.159  33.829  88.937  1.00  0.00     0.034 C 
BRANCH   4   5
ATOM      5  C   UNL     1      23.737  35.109  89.548  1.00  0.00     0.032 C 
BRANCH   5   6
ATOM      6  C   UNL     1      22.707  36.210  89.559  1.00  0.00    -0.028 C 
ATOM      7  C   UNL     1      24.144  37.784  88.243  1.00  0.00     0.039 C 
ATOM      8  C   UNL     1      22.866  37.409  88.955  1.00  0.00    -0.080 C 
ATOM      9  C   UNL     1      21.732  38.400  89.016  1.00  0.00     0.039 C 
ENDBRANCH   5   6
ENDBRANCH   4   5
ENDBRANCH   1   4
BRANCH   2  10
ATOM     10  C   UNL     1      22.791  34.988  85.228  1.00  0.00     0.035 C 
BRANCH  10  11
ATOM     11  C   UNL     1      22.317  36.444  85.193  1.00  0.00     0.079 C 
BRANCH  11  12
ATOM     12  C   UNL     1      20.825  36.515  85.020  1.00  0.00     0.130 C 
ATOM     13  O   UNL     1      20.299  35.974  84.060  1.00  0.00    -0.300 OA
ATOM     14  C   UNL     1      19.976  37.227  86.030  1.00  0.00     0.087 C 
ENDBRANCH  11  12
ENDBRANCH  10  11
ENDBRANCH   2  10
TORSDOF 6
ENDMDL
MODEL 9
REMARK VINA RESULT:    -3.905     12.319     15.209
REMARK INTER + INTRA:          -5.926
REMARK INTER:                  -5.144
REMARK INTRA:                  -0.782
REMARK UNBOUND:                -0.651
REMARK SMILES CC(=O)CCC=C(C)CCC=C(C)C
REMARK SMILES IDX 7 1 6 2 8 3 9 4 10 5 11 6 13 7 12 8 14 9 5 10 4 11 2 12 3 13
REMARK SMILES IDX 1 14
REMARK H PARENT
REMARK Flexibility Score: inf
ROOT
ATOM      1  C   UNL     1      23.652  35.427  87.866  1.00  0.00    -0.077 C 
ATOM      2  C   UNL     1      23.380  34.637  86.801  1.00  0.00    -0.028 C 
ATOM      3  C   UNL     1      23.990  36.891  87.708  1.00  0.00     0.039 C 
ENDROOT
BRANCH   1   4
ATOM      4  C   UNL     1      23.605  34.826  89.254  1.00  0.00     0.034 C 
BRANCH   4   5
ATOM      5  C   UNL     1      22.843  33.496  89.248  1.00  0.00     0.032 C 
BRANCH   5   6
ATOM      6  C   UNL     1      23.779  32.342  89.503  1.00  0.00    -0.028 C 
ATOM      7  C   UNL     1      22.015  30.613  89.087  1.00  0.00     0.039 C 
ATOM      8  C   UNL     1      23.427  31.040  89.411  1.00  0.00    -0.080 C 
ATOM      9  C   UNL     1      24.482  29.992  89.657  1.00  0.00     0.039 C 
ENDBRANCH   5   6
ENDBRANCH   4   5
ENDBRANCH   1   4
BRANCH   2  10
ATOM     10  C   UNL     1      23.429  35.094  85.364  1.00  0.00     0.035 C 
BRANCH  10  11
ATOM     11  C   UNL     1      22.027  35.102  84.749  1.00  0.00     0.079 C 
BRANCH  11  12
ATOM     12  C   UNL     1      21.242  36.292  85.227  1.00  0.00     0.130 C 
ATOM     13  O   UNL     1      21.609  37.419  84.933  1.00  0.00    -0.300 OA
ATOM     14  C   UNL     1      19.998  36.104  86.042  1.00  0.00     0.087 C 
ENDBRANCH  11  12
ENDBRANCH  10  11
ENDBRANCH   2  10
TORSDOF 6
ENDMDL
