MODEL 1
REMARK VINA RESULT:    -6.416      0.000      0.000
REMARK INTER + INTRA:         -10.046
REMARK INTER:                  -9.042
REMARK INTRA:                  -1.004
REMARK UNBOUND:                -1.004
REMARK SMILES COc1c(O[C@@H]2O[C@H](C(=O)[O-])[C@H](O)[C@H](O)[C@@H]2O)cc(O)c2c(=O)cc(-c3ccccc3)oc12
REMARK SMILES IDX 5 1 6 2 8 3 12 4 7 5 14 6 16 7 9 8 10 9 11 10 13 11 15 13
REMARK SMILES IDX 17 15 4 17 3 18 18 19 33 20 19 21 21 22 32 23 22 24 25 25
REMARK SMILES IDX 24 26 23 27 2 28 1 29 20 30 26 32 27 33 31 34 28 35 30 36
REMARK SMILES IDX 29 37
REMARK H PARENT 13 12 15 14 17 16 20 31
REMARK Flexibility Score: inf
ROOT
ATOM      1  O   UNL     1      20.115 -28.350  26.763  1.00  0.00    -0.458 OA
ENDROOT
BRANCH   1   2
ATOM      2  C   UNL     1      20.523 -27.160  27.481  1.00  0.00     0.339 C 
ATOM      3  C   UNL     1      22.655 -26.359  28.165  1.00  0.00     0.199 C 
ATOM      4  C   UNL     1      22.950 -27.537  29.153  1.00  0.00     0.180 C 
ATOM      5  O   UNL     1      21.860 -26.827  27.089  1.00  0.00    -0.328 OA
ATOM      6  C   UNL     1      21.647 -28.338  29.443  1.00  0.00     0.181 C 
ATOM      7  C   UNL     1      20.390 -27.530  28.998  1.00  0.00     0.214 C 
BRANCH   3   8
ATOM      8  C   UNL     1      23.910 -25.694  27.694  1.00  0.00     0.073 C 
ATOM      9  O   UNL     1      24.559 -26.178  26.738  1.00  0.00    -0.547 OA
ATOM     10  O   UNL     1      24.334 -24.495  28.253  1.00  0.00    -0.547 OA
ENDBRANCH   3   8
BRANCH   4  11
ATOM     11  O   UNL     1      23.906 -28.399  28.598  1.00  0.00    -0.387 OA
ATOM     12  H   UNL     1      23.643 -28.579  27.656  1.00  0.00     0.211 HD
ENDBRANCH   4  11
BRANCH   6  13
ATOM     13  O   UNL     1      21.665 -29.582  28.798  1.00  0.00    -0.387 OA
ATOM     14  H   UNL     1      21.960 -29.412  27.871  1.00  0.00     0.211 HD
ENDBRANCH   6  13
BRANCH   7  15
ATOM     15  O   UNL     1      19.221 -28.286  29.228  1.00  0.00    -0.384 OA
ATOM     16  H   UNL     1      19.501 -29.188  29.577  1.00  0.00     0.211 HD
ENDBRANCH   7  15
ENDBRANCH   1   2
BRANCH   1  17
ATOM     17  C   UNL     1      19.103 -28.545  25.792  1.00  0.00     0.172 A 
ATOM     18  C   UNL     1      18.804 -27.645  24.742  1.00  0.00     0.205 A 
ATOM     19  C   UNL     1      18.379 -29.742  25.875  1.00  0.00     0.097 A 
ATOM     20  C   UNL     1      17.693 -27.869  23.928  1.00  0.00     0.188 A 
ATOM     21  C   UNL     1      17.365 -30.042  24.959  1.00  0.00     0.134 A 
ATOM     22  C   UNL     1      17.010 -29.088  23.975  1.00  0.00     0.111 A 
ATOM     23  O   UNL     1      17.245 -26.878  23.167  1.00  0.00    -0.452 OA
ATOM     24  C   UNL     1      15.960 -29.282  23.061  1.00  0.00     0.197 A 
ATOM     25  C   UNL     1      16.190 -26.986  22.379  1.00  0.00     0.138 A 
ATOM     26  C   UNL     1      15.548 -28.225  22.244  1.00  0.00     0.100 A 
ATOM     27  O   UNL     1      15.351 -30.392  22.977  1.00  0.00    -0.289 OA
BRANCH  18  28
ATOM     28  O   UNL     1      19.633 -26.595  24.431  1.00  0.00    -0.490 OA
ATOM     29  C   UNL     1      20.959 -26.842  23.937  1.00  0.00     0.278 C 
ENDBRANCH  18  28
BRANCH  21  30
ATOM     30  O   UNL     1      16.695 -31.267  25.043  1.00  0.00    -0.507 OA
ATOM     31  H   UNL     1      16.397 -31.639  25.940  1.00  0.00     0.293 HD
ENDBRANCH  21  30
BRANCH  25  32
ATOM     32  C   UNL     1      15.675 -25.761  21.705  1.00  0.00     0.017 A 
ATOM     33  C   UNL     1      15.708 -24.473  22.305  1.00  0.00     0.012 A 
ATOM     34  C   UNL     1      15.255 -25.854  20.362  1.00  0.00     0.012 A 
ATOM     35  C   UNL     1      15.351 -23.332  21.567  1.00  0.00     0.001 A 
ATOM     36  C   UNL     1      14.900 -24.721  19.634  1.00  0.00     0.001 A 
ATOM     37  C   UNL     1      14.971 -23.448  20.223  1.00  0.00     0.000 A 
ENDBRANCH  25  32
ENDBRANCH   1  17
TORSDOF 9
ENDMDL
MODEL 2
REMARK VINA RESULT:    -6.330      3.017      9.174
REMARK INTER + INTRA:          -9.924
REMARK INTER:                  -9.181
REMARK INTRA:                  -0.743
REMARK UNBOUND:                -1.004
REMARK SMILES COc1c(O[C@@H]2O[C@H](C(=O)[O-])[C@H](O)[C@H](O)[C@@H]2O)cc(O)c2c(=O)cc(-c3ccccc3)oc12
REMARK SMILES IDX 5 1 6 2 8 3 12 4 7 5 14 6 16 7 9 8 10 9 11 10 13 11 15 13
REMARK SMILES IDX 17 15 4 17 3 18 18 19 33 20 19 21 21 22 32 23 22 24 25 25
REMARK SMILES IDX 24 26 23 27 2 28 1 29 20 30 26 32 27 33 31 34 28 35 30 36
REMARK SMILES IDX 29 37
REMARK H PARENT 13 12 15 14 17 16 20 31
REMARK Flexibility Score: inf
ROOT
ATOM      1  O   UNL     1      15.692 -26.206  21.964  1.00  0.00    -0.458 OA
ENDROOT
BRANCH   1   2
ATOM      2  C   UNL     1      15.368 -24.859  21.541  1.00  0.00     0.339 C 
ATOM      3  C   UNL     1      13.381 -23.564  21.719  1.00  0.00     0.199 C 
ATOM      4  C   UNL     1      12.515 -24.488  20.799  1.00  0.00     0.180 C 
ATOM      5  O   UNL     1      14.346 -24.344  22.404  1.00  0.00    -0.328 OA
ATOM      6  C   UNL     1      13.427 -25.465  20.002  1.00  0.00     0.181 C 
ATOM      7  C   UNL     1      14.913 -24.996  20.047  1.00  0.00     0.214 C 
BRANCH   3   8
ATOM      8  C   UNL     1      12.539 -22.756  22.657  1.00  0.00     0.073 C 
ATOM      9  O   UNL     1      11.307 -22.971  22.740  1.00  0.00    -0.547 OA
ATOM     10  O   UNL     1      13.114 -21.815  23.501  1.00  0.00    -0.547 OA
ENDBRANCH   3   8
BRANCH   4  11
ATOM     11  O   UNL     1      11.613 -25.228  21.576  1.00  0.00    -0.387 OA
ATOM     12  H   UNL     1      11.509 -24.760  22.448  1.00  0.00     0.211 HD
ENDBRANCH   4  11
BRANCH   6  13
ATOM     13  O   UNL     1      13.325 -26.771  20.502  1.00  0.00    -0.387 OA
ATOM     14  H   UNL     1      13.463 -26.708  21.477  1.00  0.00     0.211 HD
ENDBRANCH   6  13
BRANCH   7  15
ATOM     15  O   UNL     1      15.733 -25.914  19.357  1.00  0.00    -0.384 OA
ATOM     16  H   UNL     1      16.009 -26.631  20.009  1.00  0.00     0.211 HD
ENDBRANCH   7  15
ENDBRANCH   1   2
BRANCH   1  17
ATOM     17  C   UNL     1      16.807 -26.709  22.678  1.00  0.00     0.172 A 
ATOM     18  C   UNL     1      16.904 -28.016  23.212  1.00  0.00     0.205 A 
ATOM     19  C   UNL     1      17.897 -25.842  22.827  1.00  0.00     0.097 A 
ATOM     20  C   UNL     1      17.988 -28.359  24.020  1.00  0.00     0.188 A 
ATOM     21  C   UNL     1      19.054 -26.240  23.505  1.00  0.00     0.134 A 
ATOM     22  C   UNL     1      19.099 -27.515  24.118  1.00  0.00     0.111 A 
ATOM     23  O   UNL     1      17.915 -29.460  24.759  1.00  0.00    -0.452 OA
ATOM     24  C   UNL     1      20.195 -27.966  24.874  1.00  0.00     0.197 A 
ATOM     25  C   UNL     1      18.879 -29.857  25.569  1.00  0.00     0.138 A 
ATOM     26  C   UNL     1      20.093 -29.156  25.602  1.00  0.00     0.100 A 
ATOM     27  O   UNL     1      21.275 -27.302  24.937  1.00  0.00    -0.289 OA
BRANCH  18  28
ATOM     28  O   UNL     1      16.006 -29.001  22.880  1.00  0.00    -0.490 OA
ATOM     29  C   UNL     1      15.019 -29.429  23.831  1.00  0.00     0.278 C 
ENDBRANCH  18  28
BRANCH  21  30
ATOM     30  O   UNL     1      20.143 -25.365  23.592  1.00  0.00    -0.507 OA
ATOM     31  H   UNL     1      20.024 -24.418  23.937  1.00  0.00     0.293 HD
ENDBRANCH  21  30
BRANCH  25  32
ATOM     32  C   UNL     1      18.618 -31.008  26.479  1.00  0.00     0.017 A 
ATOM     33  C   UNL     1      19.162 -31.102  27.788  1.00  0.00     0.012 A 
ATOM     34  C   UNL     1      17.684 -31.986  26.079  1.00  0.00     0.012 A 
ATOM     35  C   UNL     1      18.760 -32.131  28.656  1.00  0.00     0.001 A 
ATOM     36  C   UNL     1      17.290 -33.006  26.943  1.00  0.00     0.001 A 
ATOM     37  C   UNL     1      17.804 -33.071  28.247  1.00  0.00     0.000 A 
ENDBRANCH  25  32
ENDBRANCH   1  17
TORSDOF 9
ENDMDL
MODEL 3
REMARK VINA RESULT:    -6.169      2.874      8.624
REMARK INTER + INTRA:          -9.698
REMARK INTER:                  -8.714
REMARK INTRA:                  -0.984
REMARK UNBOUND:                -1.004
REMARK SMILES COc1c(O[C@@H]2O[C@H](C(=O)[O-])[C@H](O)[C@H](O)[C@@H]2O)cc(O)c2c(=O)cc(-c3ccccc3)oc12
REMARK SMILES IDX 5 1 6 2 8 3 12 4 7 5 14 6 16 7 9 8 10 9 11 10 13 11 15 13
REMARK SMILES IDX 17 15 4 17 3 18 18 19 33 20 19 21 21 22 32 23 22 24 25 25
REMARK SMILES IDX 24 26 23 27 2 28 1 29 20 30 26 32 27 33 31 34 28 35 30 36
REMARK SMILES IDX 29 37
REMARK H PARENT 13 12 15 14 17 16 20 31
REMARK Flexibility Score: inf
ROOT
ATOM      1  O   UNL     1      15.742 -26.485  21.766  1.00  0.00    -0.458 OA
ENDROOT
BRANCH   1   2
ATOM      2  C   UNL     1      15.580 -25.076  21.468  1.00  0.00     0.339 C 
ATOM      3  C   UNL     1      13.802 -23.551  21.876  1.00  0.00     0.199 C 
ATOM      4  C   UNL     1      12.767 -24.273  20.950  1.00  0.00     0.180 C 
ATOM      5  O   UNL     1      14.690 -24.505  22.434  1.00  0.00    -0.328 OA
ATOM      6  C   UNL     1      13.491 -25.292  20.023  1.00  0.00     0.181 C 
ATOM      7  C   UNL     1      15.027 -25.028  20.002  1.00  0.00     0.214 C 
BRANCH   3   8
ATOM      8  C   UNL     1      13.133 -22.720  22.926  1.00  0.00     0.073 C 
ATOM      9  O   UNL     1      11.975 -22.279  22.737  1.00  0.00    -0.547 OA
ATOM     10  O   UNL     1      13.746 -22.488  24.150  1.00  0.00    -0.547 OA
ENDBRANCH   3   8
BRANCH   4  11
ATOM     11  O   UNL     1      11.819 -24.951  21.730  1.00  0.00    -0.387 OA
ATOM     12  H   UNL     1      11.163 -25.372  21.111  1.00  0.00     0.211 HD
ENDBRANCH   4  11
BRANCH   6  13
ATOM     13  O   UNL     1      13.240 -26.611  20.430  1.00  0.00    -0.387 OA
ATOM     14  H   UNL     1      14.088 -27.104  20.316  1.00  0.00     0.211 HD
ENDBRANCH   6  13
BRANCH   7  15
ATOM     15  O   UNL     1      15.673 -25.986  19.192  1.00  0.00    -0.384 OA
ATOM     16  H   UNL     1      16.086 -25.501  18.412  1.00  0.00     0.211 HD
ENDBRANCH   7  15
ENDBRANCH   1   2
BRANCH   1  17
ATOM     17  C   UNL     1      16.566 -27.142  22.712  1.00  0.00     0.172 A 
ATOM     18  C   UNL     1      17.846 -26.699  23.118  1.00  0.00     0.205 A 
ATOM     19  C   UNL     1      16.038 -28.297  23.304  1.00  0.00     0.097 A 
ATOM     20  C   UNL     1      18.629 -27.499  23.950  1.00  0.00     0.188 A 
ATOM     21  C   UNL     1      16.762 -29.018  24.260  1.00  0.00     0.134 A 
ATOM     22  C   UNL     1      18.081 -28.618  24.584  1.00  0.00     0.111 A 
ATOM     23  O   UNL     1      19.924 -27.230  24.067  1.00  0.00    -0.452 OA
ATOM     24  C   UNL     1      18.899 -29.325  25.482  1.00  0.00     0.197 A 
ATOM     25  C   UNL     1      20.750 -27.941  24.813  1.00  0.00     0.138 A 
ATOM     26  C   UNL     1      20.248 -28.980  25.609  1.00  0.00     0.100 A 
ATOM     27  O   UNL     1      18.449 -30.296  26.165  1.00  0.00    -0.289 OA
BRANCH  18  28
ATOM     28  O   UNL     1      18.315 -25.448  22.794  1.00  0.00    -0.490 OA
ATOM     29  C   UNL     1      18.229 -24.375  23.744  1.00  0.00     0.278 C 
ENDBRANCH  18  28
BRANCH  21  30
ATOM     30  O   UNL     1      16.184 -30.139  24.866  1.00  0.00    -0.507 OA
ATOM     31  H   UNL     1      16.556 -31.070  24.702  1.00  0.00     0.293 HD
ENDBRANCH  21  30
BRANCH  25  32
ATOM     32  C   UNL     1      22.210 -27.655  24.732  1.00  0.00     0.017 A 
ATOM     33  C   UNL     1      22.879 -26.772  25.622  1.00  0.00     0.012 A 
ATOM     34  C   UNL     1      22.993 -28.392  23.819  1.00  0.00     0.012 A 
ATOM     35  C   UNL     1      24.279 -26.659  25.598  1.00  0.00     0.001 A 
ATOM     36  C   UNL     1      24.381 -28.274  23.796  1.00  0.00     0.001 A 
ATOM     37  C   UNL     1      25.037 -27.428  24.704  1.00  0.00     0.000 A 
ENDBRANCH  25  32
ENDBRANCH   1  17
TORSDOF 9
ENDMDL
MODEL 4
REMARK VINA RESULT:    -5.972      1.443      2.005
REMARK INTER + INTRA:          -9.420
REMARK INTER:                  -8.743
REMARK INTRA:                  -0.678
REMARK UNBOUND:                -1.004
REMARK SMILES COc1c(O[C@@H]2O[C@H](C(=O)[O-])[C@H](O)[C@H](O)[C@@H]2O)cc(O)c2c(=O)cc(-c3ccccc3)oc12
REMARK SMILES IDX 5 1 6 2 8 3 12 4 7 5 14 6 16 7 9 8 10 9 11 10 13 11 15 13
REMARK SMILES IDX 17 15 4 17 3 18 18 19 33 20 19 21 21 22 32 23 22 24 25 25
REMARK SMILES IDX 24 26 23 27 2 28 1 29 20 30 26 32 27 33 31 34 28 35 30 36
REMARK SMILES IDX 29 37
REMARK H PARENT 13 12 15 14 17 16 20 31
REMARK Flexibility Score: inf
ROOT
ATOM      1  O   UNL     1      20.584 -28.430  26.049  1.00  0.00    -0.458 OA
ENDROOT
BRANCH   1   2
ATOM      2  C   UNL     1      20.955 -29.026  27.316  1.00  0.00     0.339 C 
ATOM      3  C   UNL     1      22.298 -28.244  29.117  1.00  0.00     0.199 C 
ATOM      4  C   UNL     1      23.632 -28.190  28.300  1.00  0.00     0.180 C 
ATOM      5  O   UNL     1      21.202 -27.976  28.259  1.00  0.00    -0.328 OA
ATOM      6  C   UNL     1      23.480 -28.979  26.966  1.00  0.00     0.181 C 
ATOM      7  C   UNL     1      22.221 -29.897  27.006  1.00  0.00     0.214 C 
BRANCH   3   8
ATOM      8  C   UNL     1      22.327 -27.329  30.301  1.00  0.00     0.073 C 
ATOM      9  O   UNL     1      22.563 -27.785  31.444  1.00  0.00    -0.547 OA
ATOM     10  O   UNL     1      22.172 -25.957  30.145  1.00  0.00    -0.547 OA
ENDBRANCH   3   8
BRANCH   4  11
ATOM     11  O   UNL     1      23.964 -26.859  28.013  1.00  0.00    -0.387 OA
ATOM     12  H   UNL     1      24.296 -26.825  27.075  1.00  0.00     0.211 HD
ENDBRANCH   4  11
BRANCH   6  13
ATOM     13  O   UNL     1      23.400 -28.108  25.871  1.00  0.00    -0.387 OA
ATOM     14  H   UNL     1      22.456 -28.108  25.583  1.00  0.00     0.211 HD
ENDBRANCH   6  13
BRANCH   7  15
ATOM     15  O   UNL     1      22.074 -30.572  25.776  1.00  0.00    -0.384 OA
ATOM     16  H   UNL     1      22.943 -31.040  25.575  1.00  0.00     0.211 HD
ENDBRANCH   7  15
ENDBRANCH   1   2
BRANCH   1  17
ATOM     17  C   UNL     1      19.411 -28.570  25.268  1.00  0.00     0.172 A 
ATOM     18  C   UNL     1      19.014 -27.686  24.238  1.00  0.00     0.205 A 
ATOM     19  C   UNL     1      18.617 -29.694  25.530  1.00  0.00     0.097 A 
ATOM     20  C   UNL     1      17.768 -27.839  23.630  1.00  0.00     0.188 A 
ATOM     21  C   UNL     1      17.442 -29.936  24.809  1.00  0.00     0.134 A 
ATOM     22  C   UNL     1      17.006 -28.991  23.849  1.00  0.00     0.111 A 
ATOM     23  O   UNL     1      17.280 -26.841  22.903  1.00  0.00    -0.452 OA
ATOM     24  C   UNL     1      15.805 -29.125  23.131  1.00  0.00     0.197 A 
ATOM     25  C   UNL     1      16.104 -26.884  22.305  1.00  0.00     0.138 A 
ATOM     26  C   UNL     1      15.349 -28.065  22.340  1.00  0.00     0.100 A 
ATOM     27  O   UNL     1      15.103 -30.179  23.204  1.00  0.00    -0.289 OA
BRANCH  18  28
ATOM     28  O   UNL     1      19.862 -26.725  23.743  1.00  0.00    -0.490 OA
ATOM     29  C   UNL     1      20.756 -26.026  24.623  1.00  0.00     0.278 C 
ENDBRANCH  18  28
BRANCH  21  30
ATOM     30  O   UNL     1      16.699 -31.094  25.063  1.00  0.00    -0.507 OA
ATOM     31  H   UNL     1      16.338 -31.289  25.992  1.00  0.00     0.293 HD
ENDBRANCH  21  30
BRANCH  25  32
ATOM     32  C   UNL     1      15.583 -25.643  21.665  1.00  0.00     0.017 A 
ATOM     33  C   UNL     1      15.627 -24.369  22.292  1.00  0.00     0.012 A 
ATOM     34  C   UNL     1      15.148 -25.707  20.324  1.00  0.00     0.012 A 
ATOM     35  C   UNL     1      15.264 -23.212  21.583  1.00  0.00     0.001 A 
ATOM     36  C   UNL     1      14.788 -24.556  19.626  1.00  0.00     0.001 A 
ATOM     37  C   UNL     1      14.869 -23.297  20.241  1.00  0.00     0.000 A 
ENDBRANCH  25  32
ENDBRANCH   1  17
TORSDOF 9
ENDMDL
MODEL 5
REMARK VINA RESULT:    -5.934      1.425      2.944
REMARK INTER + INTRA:          -9.366
REMARK INTER:                  -8.238
REMARK INTRA:                  -1.128
REMARK UNBOUND:                -1.004
REMARK SMILES COc1c(O[C@@H]2O[C@H](C(=O)[O-])[C@H](O)[C@H](O)[C@@H]2O)cc(O)c2c(=O)cc(-c3ccccc3)oc12
REMARK SMILES IDX 5 1 6 2 8 3 12 4 7 5 14 6 16 7 9 8 10 9 11 10 13 11 15 13
REMARK SMILES IDX 17 15 4 17 3 18 18 19 33 20 19 21 21 22 32 23 22 24 25 25
REMARK SMILES IDX 24 26 23 27 2 28 1 29 20 30 26 32 27 33 31 34 28 35 30 36
REMARK SMILES IDX 29 37
REMARK H PARENT 13 12 15 14 17 16 20 31
REMARK Flexibility Score: inf
ROOT
ATOM      1  O   UNL     1      20.110 -28.545  26.951  1.00  0.00    -0.458 OA
ENDROOT
BRANCH   1   2
ATOM      2  C   UNL     1      21.304 -29.294  27.286  1.00  0.00     0.339 C 
ATOM      3  C   UNL     1      21.821 -30.752  29.093  1.00  0.00     0.199 C 
ATOM      4  C   UNL     1      21.713 -29.658  30.207  1.00  0.00     0.180 C 
ATOM      5  O   UNL     1      20.921 -30.450  28.040  1.00  0.00    -0.328 OA
ATOM      6  C   UNL     1      21.713 -28.237  29.570  1.00  0.00     0.181 C 
ATOM      7  C   UNL     1      22.203 -28.293  28.091  1.00  0.00     0.214 C 
BRANCH   3   8
ATOM      8  C   UNL     1      21.612 -32.131  29.637  1.00  0.00     0.073 C 
ATOM      9  O   UNL     1      22.596 -32.864  29.886  1.00  0.00    -0.547 OA
ATOM     10  O   UNL     1      20.338 -32.589  29.948  1.00  0.00    -0.547 OA
ENDBRANCH   3   8
BRANCH   4  11
ATOM     11  O   UNL     1      20.531 -29.835  30.939  1.00  0.00    -0.387 OA
ATOM     12  H   UNL     1      20.768 -30.284  31.795  1.00  0.00     0.211 HD
ENDBRANCH   4  11
BRANCH   6  13
ATOM     13  O   UNL     1      20.438 -27.658  29.628  1.00  0.00    -0.387 OA
ATOM     14  H   UNL     1      19.843 -28.334  30.032  1.00  0.00     0.211 HD
ENDBRANCH   6  13
BRANCH   7  15
ATOM     15  O   UNL     1      22.157 -27.006  27.516  1.00  0.00    -0.384 OA
ATOM     16  H   UNL     1      23.053 -26.570  27.665  1.00  0.00     0.211 HD
ENDBRANCH   7  15
ENDBRANCH   1   2
BRANCH   1  17
ATOM     17  C   UNL     1      19.154 -28.740  25.925  1.00  0.00     0.172 A 
ATOM     18  C   UNL     1      18.834 -27.791  24.925  1.00  0.00     0.205 A 
ATOM     19  C   UNL     1      18.513 -29.985  25.896  1.00  0.00     0.097 A 
ATOM     20  C   UNL     1      17.775 -28.032  24.050  1.00  0.00     0.188 A 
ATOM     21  C   UNL     1      17.559 -30.289  24.917  1.00  0.00     0.134 A 
ATOM     22  C   UNL     1      17.178 -29.295  23.984  1.00  0.00     0.111 A 
ATOM     23  O   UNL     1      17.288 -27.023  23.337  1.00  0.00    -0.452 OA
ATOM     24  C   UNL     1      16.181 -29.495  23.014  1.00  0.00     0.197 A 
ATOM     25  C   UNL     1      16.276 -27.146  22.498  1.00  0.00     0.138 A 
ATOM     26  C   UNL     1      15.728 -28.413  22.252  1.00  0.00     0.100 A 
ATOM     27  O   UNL     1      15.656 -30.635  22.829  1.00  0.00    -0.289 OA
BRANCH  18  28
ATOM     28  O   UNL     1      19.599 -26.668  24.723  1.00  0.00    -0.490 OA
ATOM     29  C   UNL     1      20.966 -26.791  24.301  1.00  0.00     0.278 C 
ENDBRANCH  18  28
BRANCH  21  30
ATOM     30  O   UNL     1      16.975 -31.559  24.889  1.00  0.00    -0.507 OA
ATOM     31  H   UNL     1      17.113 -32.215  25.653  1.00  0.00     0.293 HD
ENDBRANCH  21  30
BRANCH  25  32
ATOM     32  C   UNL     1      15.702 -25.915  21.886  1.00  0.00     0.017 A 
ATOM     33  C   UNL     1      15.808 -24.630  22.482  1.00  0.00     0.012 A 
ATOM     34  C   UNL     1      15.144 -26.001  20.593  1.00  0.00     0.012 A 
ATOM     35  C   UNL     1      15.385 -23.484  21.789  1.00  0.00     0.001 A 
ATOM     36  C   UNL     1      14.723 -24.861  19.910  1.00  0.00     0.001 A 
ATOM     37  C   UNL     1      14.865 -23.592  20.491  1.00  0.00     0.000 A 
ENDBRANCH  25  32
ENDBRANCH   1  17
TORSDOF 9
ENDMDL
MODEL 6
REMARK VINA RESULT:    -5.190      2.000      2.666
REMARK INTER + INTRA:          -8.318
REMARK INTER:                  -7.499
REMARK INTRA:                  -0.820
REMARK UNBOUND:                -1.004
REMARK SMILES COc1c(O[C@@H]2O[C@H](C(=O)[O-])[C@H](O)[C@H](O)[C@@H]2O)cc(O)c2c(=O)cc(-c3ccccc3)oc12
REMARK SMILES IDX 5 1 6 2 8 3 12 4 7 5 14 6 16 7 9 8 10 9 11 10 13 11 15 13
REMARK SMILES IDX 17 15 4 17 3 18 18 19 33 20 19 21 21 22 32 23 22 24 25 25
REMARK SMILES IDX 24 26 23 27 2 28 1 29 20 30 26 32 27 33 31 34 28 35 30 36
REMARK SMILES IDX 29 37
REMARK H PARENT 13 12 15 14 17 16 20 31
REMARK Flexibility Score: inf
ROOT
ATOM      1  O   UNL     1      20.599 -27.910  26.160  1.00  0.00    -0.458 OA
ENDROOT
BRANCH   1   2
ATOM      2  C   UNL     1      21.997 -28.208  25.926  1.00  0.00     0.339 C 
ATOM      3  C   UNL     1      23.283 -30.184  26.236  1.00  0.00     0.199 C 
ATOM      4  C   UNL     1      23.125 -30.226  27.793  1.00  0.00     0.180 C 
ATOM      5  O   UNL     1      22.126 -29.608  25.655  1.00  0.00    -0.328 OA
ATOM      6  C   UNL     1      22.591 -28.861  28.318  1.00  0.00     0.181 C 
ATOM      7  C   UNL     1      22.737 -27.753  27.231  1.00  0.00     0.214 C 
BRANCH   3   8
ATOM      8  C   UNL     1      23.591 -31.534  25.667  1.00  0.00     0.073 C 
ATOM      9  O   UNL     1      23.402 -31.762  24.450  1.00  0.00    -0.547 OA
ATOM     10  O   UNL     1      24.161 -32.526  26.454  1.00  0.00    -0.547 OA
ENDBRANCH   3   8
BRANCH   4  11
ATOM     11  O   UNL     1      22.230 -31.242  28.156  1.00  0.00    -0.387 OA
ATOM     12  H   UNL     1      22.271 -31.343  29.145  1.00  0.00     0.211 HD
ENDBRANCH   4  11
BRANCH   6  13
ATOM     13  O   UNL     1      21.250 -28.963  28.715  1.00  0.00    -0.387 OA
ATOM     14  H   UNL     1      20.712 -28.581  27.981  1.00  0.00     0.211 HD
ENDBRANCH   6  13
BRANCH   7  15
ATOM     15  O   UNL     1      22.210 -26.534  27.706  1.00  0.00    -0.384 OA
ATOM     16  H   UNL     1      21.239 -26.683  27.926  1.00  0.00     0.211 HD
ENDBRANCH   7  15
ENDBRANCH   1   2
BRANCH   1  17
ATOM     17  C   UNL     1      19.455 -28.152  25.362  1.00  0.00     0.172 A 
ATOM     18  C   UNL     1      19.031 -27.339  24.284  1.00  0.00     0.205 A 
ATOM     19  C   UNL     1      18.721 -29.309  25.656  1.00  0.00     0.097 A 
ATOM     20  C   UNL     1      17.811 -27.593  23.658  1.00  0.00     0.188 A 
ATOM     21  C   UNL     1      17.580 -29.652  24.923  1.00  0.00     0.134 A 
ATOM     22  C   UNL     1      17.113 -28.777  23.912  1.00  0.00     0.111 A 
ATOM     23  O   UNL     1      17.283 -26.658  22.877  1.00  0.00    -0.452 OA
ATOM     24  C   UNL     1      15.938 -29.012  23.176  1.00  0.00     0.197 A 
ATOM     25  C   UNL     1      16.125 -26.796  22.257  1.00  0.00     0.138 A 
ATOM     26  C   UNL     1      15.440 -28.017  22.329  1.00  0.00     0.100 A 
ATOM     27  O   UNL     1      15.297 -30.102  23.282  1.00  0.00    -0.289 OA
BRANCH  18  28
ATOM     28  O   UNL     1      19.833 -26.352  23.765  1.00  0.00    -0.490 OA
ATOM     29  C   UNL     1      19.413 -24.980  23.809  1.00  0.00     0.278 C 
ENDBRANCH  18  28
BRANCH  21  30
ATOM     30  O   UNL     1      16.900 -30.839  25.213  1.00  0.00    -0.507 OA
ATOM     31  H   UNL     1      17.304 -31.742  24.982  1.00  0.00     0.293 HD
ENDBRANCH  21  30
BRANCH  25  32
ATOM     32  C   UNL     1      15.549 -25.617  21.551  1.00  0.00     0.017 A 
ATOM     33  C   UNL     1      15.373 -24.351  22.171  1.00  0.00     0.012 A 
ATOM     34  C   UNL     1      15.288 -25.719  20.169  1.00  0.00     0.012 A 
ATOM     35  C   UNL     1      14.969 -23.237  21.416  1.00  0.00     0.001 A 
ATOM     36  C   UNL     1      14.886 -24.612  19.425  1.00  0.00     0.001 A 
ATOM     37  C   UNL     1      14.749 -23.356  20.037  1.00  0.00     0.000 A 
ENDBRANCH  25  32
ENDBRANCH   1  17
TORSDOF 9
ENDMDL
MODEL 7
REMARK VINA RESULT:    -5.045      1.367      1.713
REMARK INTER + INTRA:          -8.113
REMARK INTER:                  -7.393
REMARK INTRA:                  -0.720
REMARK UNBOUND:                -1.004
REMARK SMILES COc1c(O[C@@H]2O[C@H](C(=O)[O-])[C@H](O)[C@H](O)[C@@H]2O)cc(O)c2c(=O)cc(-c3ccccc3)oc12
REMARK SMILES IDX 5 1 6 2 8 3 12 4 7 5 14 6 16 7 9 8 10 9 11 10 13 11 15 13
REMARK SMILES IDX 17 15 4 17 3 18 18 19 33 20 19 21 21 22 32 23 22 24 25 25
REMARK SMILES IDX 24 26 23 27 2 28 1 29 20 30 26 32 27 33 31 34 28 35 30 36
REMARK SMILES IDX 29 37
REMARK H PARENT 13 12 15 14 17 16 20 31
REMARK Flexibility Score: inf
ROOT
ATOM      1  O   UNL     1      19.987 -29.572  26.633  1.00  0.00    -0.458 OA
ENDROOT
BRANCH   1   2
ATOM      2  C   UNL     1      20.646 -28.512  27.369  1.00  0.00     0.339 C 
ATOM      3  C   UNL     1      22.418 -28.533  28.955  1.00  0.00     0.199 C 
ATOM      4  C   UNL     1      21.639 -29.345  30.043  1.00  0.00     0.180 C 
ATOM      5  O   UNL     1      21.985 -28.928  27.664  1.00  0.00    -0.328 OA
ATOM      6  C   UNL     1      20.118 -29.372  29.710  1.00  0.00     0.181 C 
ATOM      7  C   UNL     1      19.765 -28.289  28.645  1.00  0.00     0.214 C 
BRANCH   3   8
ATOM      8  C   UNL     1      23.901 -28.657  29.117  1.00  0.00     0.073 C 
ATOM      9  O   UNL     1      24.380 -29.178  30.150  1.00  0.00    -0.547 OA
ATOM     10  O   UNL     1      24.764 -28.270  28.099  1.00  0.00    -0.547 OA
ENDBRANCH   3   8
BRANCH   4  11
ATOM     11  O   UNL     1      22.123 -30.659  30.097  1.00  0.00    -0.387 OA
ATOM     12  H   UNL     1      22.466 -30.893  29.193  1.00  0.00     0.211 HD
ENDBRANCH   4  11
BRANCH   6  13
ATOM     13  O   UNL     1      19.725 -30.637  29.252  1.00  0.00    -0.387 OA
ATOM     14  H   UNL     1      18.738 -30.630  29.227  1.00  0.00     0.211 HD
ENDBRANCH   6  13
BRANCH   7  15
ATOM     15  O   UNL     1      18.393 -28.355  28.324  1.00  0.00    -0.384 OA
ATOM     16  H   UNL     1      18.309 -28.318  27.321  1.00  0.00     0.211 HD
ENDBRANCH   7  15
ENDBRANCH   1   2
BRANCH   1  17
ATOM     17  C   UNL     1      18.964 -29.522  25.655  1.00  0.00     0.172 A 
ATOM     18  C   UNL     1      18.736 -28.437  24.775  1.00  0.00     0.205 A 
ATOM     19  C   UNL     1      18.150 -30.657  25.543  1.00  0.00     0.097 A 
ATOM     20  C   UNL     1      17.612 -28.435  23.949  1.00  0.00     0.188 A 
ATOM     21  C   UNL     1      17.117 -30.720  24.602  1.00  0.00     0.134 A 
ATOM     22  C   UNL     1      16.838 -29.589  23.797  1.00  0.00     0.111 A 
ATOM     23  O   UNL     1      17.242 -27.299  23.371  1.00  0.00    -0.452 OA
ATOM     24  C   UNL     1      15.776 -29.546  22.876  1.00  0.00     0.197 A 
ATOM     25  C   UNL     1      16.183 -27.191  22.589  1.00  0.00     0.138 A 
ATOM     26  C   UNL     1      15.448 -28.337  22.254  1.00  0.00     0.100 A 
ATOM     27  O   UNL     1      15.085 -30.576  22.613  1.00  0.00    -0.289 OA
BRANCH  18  28
ATOM     28  O   UNL     1      19.644 -27.416  24.637  1.00  0.00    -0.490 OA
ATOM     29  C   UNL     1      20.899 -27.647  23.979  1.00  0.00     0.278 C 
ENDBRANCH  18  28
BRANCH  21  30
ATOM     30  O   UNL     1      16.356 -31.888  24.485  1.00  0.00    -0.507 OA
ATOM     31  H   UNL     1      16.531 -32.688  25.086  1.00  0.00     0.293 HD
ENDBRANCH  21  30
BRANCH  25  32
ATOM     32  C   UNL     1      15.764 -25.835  22.138  1.00  0.00     0.017 A 
ATOM     33  C   UNL     1      16.171 -24.640  22.790  1.00  0.00     0.012 A 
ATOM     34  C   UNL     1      15.040 -25.717  20.933  1.00  0.00     0.012 A 
ATOM     35  C   UNL     1      15.873 -23.385  22.233  1.00  0.00     0.001 A 
ATOM     36  C   UNL     1      14.744 -24.470  20.385  1.00  0.00     0.001 A 
ATOM     37  C   UNL     1      15.182 -23.295  21.017  1.00  0.00     0.000 A 
ENDBRANCH  25  32
ENDBRANCH   1  17
TORSDOF 9
ENDMDL
MODEL 8
REMARK VINA RESULT:    -4.574      3.106      9.232
REMARK INTER + INTRA:          -7.451
REMARK INTER:                  -6.586
REMARK INTRA:                  -0.864
REMARK UNBOUND:                -1.004
REMARK SMILES COc1c(O[C@@H]2O[C@H](C(=O)[O-])[C@H](O)[C@H](O)[C@@H]2O)cc(O)c2c(=O)cc(-c3ccccc3)oc12
REMARK SMILES IDX 5 1 6 2 8 3 12 4 7 5 14 6 16 7 9 8 10 9 11 10 13 11 15 13
REMARK SMILES IDX 17 15 4 17 3 18 18 19 33 20 19 21 21 22 32 23 22 24 25 25
REMARK SMILES IDX 24 26 23 27 2 28 1 29 20 30 26 32 27 33 31 34 28 35 30 36
REMARK SMILES IDX 29 37
REMARK H PARENT 13 12 15 14 17 16 20 31
REMARK Flexibility Score: inf
ROOT
ATOM      1  O   UNL     1      20.139 -30.959  24.402  1.00  0.00    -0.458 OA
ENDROOT
BRANCH   1   2
ATOM      2  C   UNL     1      19.155 -30.839  23.346  1.00  0.00     0.339 C 
ATOM      3  C   UNL     1      16.791 -30.576  23.386  1.00  0.00     0.199 C 
ATOM      4  C   UNL     1      16.496 -31.964  24.048  1.00  0.00     0.180 C 
ATOM      5  O   UNL     1      18.041 -30.088  23.843  1.00  0.00    -0.328 OA
ATOM      6  C   UNL     1      17.756 -32.875  23.978  1.00  0.00     0.181 C 
ATOM      7  C   UNL     1      18.790 -32.313  22.956  1.00  0.00     0.214 C 
BRANCH   3   8
ATOM      8  C   UNL     1      15.683 -29.597  23.616  1.00  0.00     0.073 C 
ATOM      9  O   UNL     1      14.776 -29.461  22.762  1.00  0.00    -0.547 OA
ATOM     10  O   UNL     1      15.596 -28.885  24.805  1.00  0.00    -0.547 OA
ENDBRANCH   3   8
BRANCH   4  11
ATOM     11  O   UNL     1      16.128 -31.787  25.388  1.00  0.00    -0.387 OA
ATOM     12  H   UNL     1      16.278 -30.830  25.620  1.00  0.00     0.211 HD
ENDBRANCH   4  11
BRANCH   6  13
ATOM     13  O   UNL     1      18.355 -33.004  25.239  1.00  0.00    -0.387 OA
ATOM     14  H   UNL     1      17.865 -33.719  25.709  1.00  0.00     0.211 HD
ENDBRANCH   6  13
BRANCH   7  15
ATOM     15  O   UNL     1      19.943 -33.125  22.936  1.00  0.00    -0.384 OA
ATOM     16  H   UNL     1      20.473 -32.889  22.112  1.00  0.00     0.211 HD
ENDBRANCH   7  15
ENDBRANCH   1   2
BRANCH   1  17
ATOM     17  C   UNL     1      20.815 -29.968  25.154  1.00  0.00     0.172 A 
ATOM     18  C   UNL     1      21.610 -30.220  26.297  1.00  0.00     0.205 A 
ATOM     19  C   UNL     1      20.702 -28.649  24.694  1.00  0.00     0.097 A 
ATOM     20  C   UNL     1      22.113 -29.155  27.044  1.00  0.00     0.188 A 
ATOM     21  C   UNL     1      21.340 -27.593  25.355  1.00  0.00     0.134 A 
ATOM     22  C   UNL     1      22.050 -27.847  26.552  1.00  0.00     0.111 A 
ATOM     23  O   UNL     1      22.581 -29.390  28.264  1.00  0.00    -0.452 OA
ATOM     24  C   UNL     1      22.661 -26.835  27.312  1.00  0.00     0.197 A 
ATOM     25  C   UNL     1      23.059 -28.447  29.055  1.00  0.00     0.138 A 
ATOM     26  C   UNL     1      23.183 -27.135  28.575  1.00  0.00     0.100 A 
ATOM     27  O   UNL     1      22.728 -25.639  26.892  1.00  0.00    -0.289 OA
BRANCH  18  28
ATOM     28  O   UNL     1      21.988 -31.493  26.648  1.00  0.00    -0.490 OA
ATOM     29  C   UNL     1      21.337 -32.166  27.737  1.00  0.00     0.278 C 
ENDBRANCH  18  28
BRANCH  21  30
ATOM     30  O   UNL     1      21.246 -26.296  24.839  1.00  0.00    -0.507 OA
ATOM     31  H   UNL     1      21.516 -26.093  23.882  1.00  0.00     0.293 HD
ENDBRANCH  21  30
BRANCH  25  32
ATOM     32  C   UNL     1      23.392 -28.797  30.464  1.00  0.00     0.017 A 
ATOM     33  C   UNL     1      22.738 -28.216  31.583  1.00  0.00     0.012 A 
ATOM     34  C   UNL     1      24.303 -29.848  30.702  1.00  0.00     0.012 A 
ATOM     35  C   UNL     1      22.983 -28.695  32.881  1.00  0.00     0.001 A 
ATOM     36  C   UNL     1      24.545 -30.318  31.991  1.00  0.00     0.001 A 
ATOM     37  C   UNL     1      23.867 -29.763  33.088  1.00  0.00     0.000 A 
ENDBRANCH  25  32
ENDBRANCH   1  17
TORSDOF 9
ENDMDL
MODEL 9
REMARK VINA RESULT:    -4.443      3.143      7.914
REMARK INTER + INTRA:          -7.266
REMARK INTER:                  -5.668
REMARK INTRA:                  -1.598
REMARK UNBOUND:                -1.004
REMARK SMILES COc1c(O[C@@H]2O[C@H](C(=O)[O-])[C@H](O)[C@H](O)[C@@H]2O)cc(O)c2c(=O)cc(-c3ccccc3)oc12
REMARK SMILES IDX 5 1 6 2 8 3 12 4 7 5 14 6 16 7 9 8 10 9 11 10 13 11 15 13
REMARK SMILES IDX 17 15 4 17 3 18 18 19 33 20 19 21 21 22 32 23 22 24 25 25
REMARK SMILES IDX 24 26 23 27 2 28 1 29 20 30 26 32 27 33 31 34 28 35 30 36
REMARK SMILES IDX 29 37
REMARK H PARENT 13 12 15 14 17 16 20 31
REMARK Flexibility Score: inf
ROOT
ATOM      1  O   UNL     1      18.287 -31.913  23.277  1.00  0.00    -0.458 OA
ENDROOT
BRANCH   1   2
ATOM      2  C   UNL     1      17.139 -31.296  22.646  1.00  0.00     0.339 C 
ATOM      3  C   UNL     1      16.130 -29.158  22.906  1.00  0.00     0.199 C 
ATOM      4  C   UNL     1      15.694 -29.376  24.394  1.00  0.00     0.180 C 
ATOM      5  O   UNL     1      17.326 -29.875  22.650  1.00  0.00    -0.328 OA
ATOM      6  C   UNL     1      15.788 -30.884  24.768  1.00  0.00     0.181 C 
ATOM      7  C   UNL     1      15.905 -31.766  23.489  1.00  0.00     0.214 C 
BRANCH   3   8
ATOM      8  C   UNL     1      16.257 -27.706  22.566  1.00  0.00     0.073 C 
ATOM      9  O   UNL     1      15.348 -27.126  21.928  1.00  0.00    -0.547 OA
ATOM     10  O   UNL     1      17.341 -26.961  23.014  1.00  0.00    -0.547 OA
ENDBRANCH   3   8
BRANCH   4  11
ATOM     11  O   UNL     1      16.522 -28.636  25.249  1.00  0.00    -0.387 OA
ATOM     12  H   UNL     1      16.241 -27.682  25.193  1.00  0.00     0.211 HD
ENDBRANCH   4  11
BRANCH   6  13
ATOM     13  O   UNL     1      16.880 -31.126  25.614  1.00  0.00    -0.387 OA
ATOM     14  H   UNL     1      17.357 -31.904  25.238  1.00  0.00     0.211 HD
ENDBRANCH   6  13
BRANCH   7  15
ATOM     15  O   UNL     1      16.032 -33.125  23.846  1.00  0.00    -0.384 OA
ATOM     16  H   UNL     1      15.361 -33.317  24.573  1.00  0.00     0.211 HD
ENDBRANCH   7  15
ENDBRANCH   1   2
BRANCH   1  17
ATOM     17  C   UNL     1      19.650 -31.528  23.299  1.00  0.00     0.172 A 
ATOM     18  C   UNL     1      20.247 -30.717  24.293  1.00  0.00     0.205 A 
ATOM     19  C   UNL     1      20.457 -32.029  22.269  1.00  0.00     0.097 A 
ATOM     20  C   UNL     1      21.564 -30.284  24.140  1.00  0.00     0.188 A 
ATOM     21  C   UNL     1      21.821 -31.722  22.201  1.00  0.00     0.134 A 
ATOM     22  C   UNL     1      22.382 -30.830  23.146  1.00  0.00     0.111 A 
ATOM     23  O   UNL     1      22.005 -29.288  24.899  1.00  0.00    -0.452 OA
ATOM     24  C   UNL     1      23.726 -30.417  23.109  1.00  0.00     0.197 A 
ATOM     25  C   UNL     1      23.227 -28.794  24.815  1.00  0.00     0.138 A 
ATOM     26  C   UNL     1      24.160 -29.395  23.958  1.00  0.00     0.100 A 
ATOM     27  O   UNL     1      24.555 -30.932  22.298  1.00  0.00    -0.289 OA
BRANCH  18  28
ATOM     28  O   UNL     1      19.598 -30.415  25.465  1.00  0.00    -0.490 OA
ATOM     29  C   UNL     1      20.005 -31.030  26.697  1.00  0.00     0.278 C 
ENDBRANCH  18  28
BRANCH  21  30
ATOM     30  O   UNL     1      22.607 -32.278  21.187  1.00  0.00    -0.507 OA
ATOM     31  H   UNL     1      22.914 -31.718  20.397  1.00  0.00     0.293 HD
ENDBRANCH  21  30
BRANCH  25  32
ATOM     32  C   UNL     1      23.555 -27.565  25.590  1.00  0.00     0.017 A 
ATOM     33  C   UNL     1      22.616 -26.528  25.835  1.00  0.00     0.012 A 
ATOM     34  C   UNL     1      24.812 -27.483  26.224  1.00  0.00     0.012 A 
ATOM     35  C   UNL     1      22.933 -25.467  26.700  1.00  0.00     0.001 A 
ATOM     36  C   UNL     1      25.124 -26.428  27.079  1.00  0.00     0.001 A 
ATOM     37  C   UNL     1      24.177 -25.426  27.345  1.00  0.00     0.000 A 
ENDBRANCH  25  32
ENDBRANCH   1  17
TORSDOF 9
ENDMDL
