MODEL 1
REMARK VINA RESULT:    -4.004      0.000      0.000
REMARK INTER + INTRA:          -6.520
REMARK INTER:                  -5.759
REMARK INTRA:                  -0.761
REMARK UNBOUND:                -0.761
REMARK SMILES O=C(CO)[C@@H](O)[C@@H](O)[C@H](O)CO
REMARK SMILES IDX 7 1 9 2 11 3 12 4 10 6 5 8 2 9 1 10 3 11 4 12 6 14 8 16
REMARK H PARENT 12 5 10 7 4 13 6 15 8 17
REMARK Flexibility Score: inf
ROOT
ATOM      1  C   UNL     1      71.968  32.740  60.163  1.00  0.00     0.181 C 
ENDROOT
BRANCH   1   2
ATOM      2  C   UNL     1      71.530  33.516  58.885  1.00  0.00     0.171 C 
BRANCH   2   3
ATOM      3  C   UNL     1      71.020  34.935  59.166  1.00  0.00     0.190 C 
BRANCH   3   4
ATOM      4  O   UNL     1      70.689  35.084  60.520  1.00  0.00    -0.394 OA
ATOM      5  H   UNL     1      69.699  35.143  60.557  1.00  0.00     0.210 HD
ENDBRANCH   3   4
ENDBRANCH   2   3
BRANCH   2   6
ATOM      6  O   UNL     1      72.621  33.611  58.002  1.00  0.00    -0.388 OA
ATOM      7  H   UNL     1      73.433  33.353  58.512  1.00  0.00     0.211 HD
ENDBRANCH   2   6
ENDBRANCH   1   2
BRANCH   1   8
ATOM      8  C   UNL     1      72.488  31.292  59.921  1.00  0.00     0.214 C 
BRANCH   8   9
ATOM      9  C   UNL     1      72.366  30.411  61.149  1.00  0.00     0.189 C 
ATOM     10  O   UNL     1      71.276  29.975  61.487  1.00  0.00    -0.294 OA
BRANCH   9  11
ATOM     11  C   UNL     1      73.582  30.035  61.951  1.00  0.00     0.234 C 
BRANCH  11  12
ATOM     12  O   UNL     1      74.097  31.162  62.605  1.00  0.00    -0.388 OA
ATOM     13  H   UNL     1      74.274  30.889  63.543  1.00  0.00     0.211 HD
ENDBRANCH  11  12
ENDBRANCH   9  11
ENDBRANCH   8   9
BRANCH   8  14
ATOM     14  O   UNL     1      71.830  30.715  58.820  1.00  0.00    -0.382 OA
ATOM     15  H   UNL     1      72.531  30.466  58.162  1.00  0.00     0.211 HD
ENDBRANCH   8  14
ENDBRANCH   1   8
BRANCH   1  16
ATOM     16  O   UNL     1      72.956  33.476  60.842  1.00  0.00    -0.387 OA
ATOM     17  H   UNL     1      72.606  33.682  61.749  1.00  0.00     0.211 HD
ENDBRANCH   1  16
TORSDOF 10
ENDMDL
MODEL 2
REMARK VINA RESULT:    -3.985      1.260      2.320
REMARK INTER + INTRA:          -6.493
REMARK INTER:                  -5.794
REMARK INTRA:                  -0.699
REMARK UNBOUND:                -0.761
REMARK SMILES O=C(CO)[C@@H](O)[C@@H](O)[C@H](O)CO
REMARK SMILES IDX 7 1 9 2 11 3 12 4 10 6 5 8 2 9 1 10 3 11 4 12 6 14 8 16
REMARK H PARENT 12 5 10 7 4 13 6 15 8 17
REMARK Flexibility Score: inf
ROOT
ATOM      1  C   UNL     1      71.490  33.405  59.065  1.00  0.00     0.181 C 
ENDROOT
BRANCH   1   2
ATOM      2  C   UNL     1      71.132  34.901  59.316  1.00  0.00     0.171 C 
BRANCH   2   3
ATOM      3  C   UNL     1      69.971  35.413  58.454  1.00  0.00     0.190 C 
BRANCH   3   4
ATOM      4  O   UNL     1      68.977  35.991  59.255  1.00  0.00    -0.394 OA
ATOM      5  H   UNL     1      68.109  35.712  58.862  1.00  0.00     0.210 HD
ENDBRANCH   3   4
ENDBRANCH   2   3
BRANCH   2   6
ATOM      6  O   UNL     1      70.783  35.075  60.667  1.00  0.00    -0.388 OA
ATOM      7  H   UNL     1      70.121  35.815  60.705  1.00  0.00     0.211 HD
ENDBRANCH   2   6
ENDBRANCH   1   2
BRANCH   1   8
ATOM      8  C   UNL     1      72.029  32.631  60.304  1.00  0.00     0.214 C 
BRANCH   8   9
ATOM      9  C   UNL     1      72.660  31.301  59.937  1.00  0.00     0.189 C 
ATOM     10  O   UNL     1      72.223  30.651  59.000  1.00  0.00    -0.294 OA
BRANCH   9  11
ATOM     11  C   UNL     1      73.848  30.776  60.697  1.00  0.00     0.234 C 
BRANCH  11  12
ATOM     12  O   UNL     1      73.713  31.062  62.062  1.00  0.00    -0.388 OA
ATOM     13  H   UNL     1      74.165  31.932  62.215  1.00  0.00     0.211 HD
ENDBRANCH  11  12
ENDBRANCH   9  11
ENDBRANCH   8   9
BRANCH   8  14
ATOM     14  O   UNL     1      72.931  33.433  61.025  1.00  0.00    -0.382 OA
ATOM     15  H   UNL     1      72.961  34.316  60.572  1.00  0.00     0.211 HD
ENDBRANCH   8  14
ENDBRANCH   1   8
BRANCH   1  16
ATOM     16  O   UNL     1      70.362  32.732  58.559  1.00  0.00    -0.387 OA
ATOM     17  H   UNL     1      69.557  33.149  58.966  1.00  0.00     0.211 HD
ENDBRANCH   1  16
TORSDOF 10
ENDMDL
MODEL 3
REMARK VINA RESULT:    -3.810     22.118     23.033
REMARK INTER + INTRA:          -6.242
REMARK INTER:                  -5.277
REMARK INTRA:                  -0.964
REMARK UNBOUND:                -0.761
REMARK SMILES O=C(CO)[C@@H](O)[C@@H](O)[C@H](O)CO
REMARK SMILES IDX 7 1 9 2 11 3 12 4 10 6 5 8 2 9 1 10 3 11 4 12 6 14 8 16
REMARK H PARENT 12 5 10 7 4 13 6 15 8 17
REMARK Flexibility Score: inf
ROOT
ATOM      1  C   UNL     1      55.757  19.040  51.840  1.00  0.00     0.181 C 
ENDROOT
BRANCH   1   2
ATOM      2  C   UNL     1      54.303  19.591  51.744  1.00  0.00     0.171 C 
BRANCH   2   3
ATOM      3  C   UNL     1      53.967  20.642  52.810  1.00  0.00     0.190 C 
BRANCH   3   4
ATOM      4  O   UNL     1      54.259  21.932  52.344  1.00  0.00    -0.394 OA
ATOM      5  H   UNL     1      54.837  22.349  53.034  1.00  0.00     0.210 HD
ENDBRANCH   3   4
ENDBRANCH   2   3
BRANCH   2   6
ATOM      6  O   UNL     1      54.110  20.175  50.480  1.00  0.00    -0.388 OA
ATOM      7  H   UNL     1      54.739  19.730  49.852  1.00  0.00     0.211 HD
ENDBRANCH   2   6
ENDBRANCH   1   2
BRANCH   1   8
ATOM      8  C   UNL     1      56.365  18.521  50.504  1.00  0.00     0.214 C 
BRANCH   8   9
ATOM      9  C   UNL     1      57.657  17.753  50.705  1.00  0.00     0.189 C 
ATOM     10  O   UNL     1      58.011  17.428  51.828  1.00  0.00    -0.294 OA
BRANCH   9  11
ATOM     11  C   UNL     1      58.506  17.354  49.528  1.00  0.00     0.234 C 
BRANCH  11  12
ATOM     12  O   UNL     1      57.780  16.521  48.668  1.00  0.00    -0.388 OA
ATOM     13  H   UNL     1      58.091  15.594  48.843  1.00  0.00     0.211 HD
ENDBRANCH  11  12
ENDBRANCH   9  11
ENDBRANCH   8   9
BRANCH   8  14
ATOM     14  O   UNL     1      55.421  17.744  49.808  1.00  0.00    -0.382 OA
ATOM     15  H   UNL     1      54.535  17.931  50.216  1.00  0.00     0.211 HD
ENDBRANCH   8  14
ENDBRANCH   1   8
BRANCH   1  16
ATOM     16  O   UNL     1      56.600  20.033  52.374  1.00  0.00    -0.387 OA
ATOM     17  H   UNL     1      57.538  19.755  52.198  1.00  0.00     0.211 HD
ENDBRANCH   1  16
TORSDOF 10
ENDMDL
MODEL 4
REMARK VINA RESULT:    -3.736     22.192     23.200
REMARK INTER + INTRA:          -6.135
REMARK INTER:                  -4.962
REMARK INTRA:                  -1.173
REMARK UNBOUND:                -0.761
REMARK SMILES O=C(CO)[C@@H](O)[C@@H](O)[C@H](O)CO
REMARK SMILES IDX 7 1 9 2 11 3 12 4 10 6 5 8 2 9 1 10 3 11 4 12 6 14 8 16
REMARK H PARENT 12 5 10 7 4 13 6 15 8 17
REMARK Flexibility Score: inf
ROOT
ATOM      1  C   UNL     1      56.970  18.481  50.405  1.00  0.00     0.181 C 
ENDROOT
BRANCH   1   2
ATOM      2  C   UNL     1      56.707  18.919  51.877  1.00  0.00     0.171 C 
BRANCH   2   3
ATOM      3  C   UNL     1      55.243  19.277  52.165  1.00  0.00     0.190 C 
BRANCH   3   4
ATOM      4  O   UNL     1      54.487  19.259  50.984  1.00  0.00    -0.394 OA
ATOM      5  H   UNL     1      53.908  20.064  51.016  1.00  0.00     0.210 HD
ENDBRANCH   3   4
ENDBRANCH   2   3
BRANCH   2   6
ATOM      6  O   UNL     1      57.079  17.876  52.745  1.00  0.00    -0.388 OA
ATOM      7  H   UNL     1      56.299  17.266  52.821  1.00  0.00     0.211 HD
ENDBRANCH   2   6
ENDBRANCH   1   2
BRANCH   1   8
ATOM      8  C   UNL     1      58.456  18.179  50.053  1.00  0.00     0.214 C 
BRANCH   8   9
ATOM      9  C   UNL     1      58.739  16.694  49.923  1.00  0.00     0.189 C 
ATOM     10  O   UNL     1      58.724  15.976  50.911  1.00  0.00    -0.294 OA
BRANCH   9  11
ATOM     11  C   UNL     1      59.014  16.078  48.578  1.00  0.00     0.234 C 
BRANCH  11  12
ATOM     12  O   UNL     1      57.880  16.177  47.761  1.00  0.00    -0.388 OA
ATOM     13  H   UNL     1      57.096  16.000  48.343  1.00  0.00     0.211 HD
ENDBRANCH  11  12
ENDBRANCH   9  11
ENDBRANCH   8   9
BRANCH   8  14
ATOM     14  O   UNL     1      58.831  18.866  48.885  1.00  0.00    -0.382 OA
ATOM     15  H   UNL     1      59.823  18.918  48.884  1.00  0.00     0.211 HD
ENDBRANCH   8  14
ENDBRANCH   1   8
BRANCH   1  16
ATOM     16  O   UNL     1      56.188  17.351  50.105  1.00  0.00    -0.387 OA
ATOM     17  H   UNL     1      55.424  17.655  49.547  1.00  0.00     0.211 HD
ENDBRANCH   1  16
TORSDOF 10
ENDMDL
MODEL 5
REMARK VINA RESULT:    -3.669      1.044      4.645
REMARK INTER + INTRA:          -6.038
REMARK INTER:                  -5.072
REMARK INTRA:                  -0.965
REMARK UNBOUND:                -0.761
REMARK SMILES O=C(CO)[C@@H](O)[C@@H](O)[C@H](O)CO
REMARK SMILES IDX 7 1 9 2 11 3 12 4 10 6 5 8 2 9 1 10 3 11 4 12 6 14 8 16
REMARK H PARENT 12 5 10 7 4 13 6 15 8 17
REMARK Flexibility Score: inf
ROOT
ATOM      1  C   UNL     1      71.973  31.278  60.021  1.00  0.00     0.181 C 
ENDROOT
BRANCH   1   2
ATOM      2  C   UNL     1      72.790  30.717  61.223  1.00  0.00     0.171 C 
BRANCH   2   3
ATOM      3  C   UNL     1      72.795  29.185  61.307  1.00  0.00     0.190 C 
BRANCH   3   4
ATOM      4  O   UNL     1      71.504  28.673  61.113  1.00  0.00    -0.394 OA
ATOM      5  H   UNL     1      71.079  28.653  62.010  1.00  0.00     0.210 HD
ENDBRANCH   3   4
ENDBRANCH   2   3
BRANCH   2   6
ATOM      6  O   UNL     1      74.124  31.151  61.122  1.00  0.00    -0.388 OA
ATOM      7  H   UNL     1      74.694  30.339  61.074  1.00  0.00     0.211 HD
ENDBRANCH   2   6
ENDBRANCH   1   2
BRANCH   1   8
ATOM      8  C   UNL     1      72.346  32.723  59.576  1.00  0.00     0.214 C 
BRANCH   8   9
ATOM      9  C   UNL     1      71.271  33.372  58.726  1.00  0.00     0.189 C 
ATOM     10  O   UNL     1      70.537  32.685  58.032  1.00  0.00    -0.294 OA
BRANCH   9  11
ATOM     11  C   UNL     1      71.071  34.863  58.745  1.00  0.00     0.234 C 
BRANCH  11  12
ATOM     12  O   UNL     1      70.432  35.250  59.930  1.00  0.00    -0.388 OA
ATOM     13  H   UNL     1      70.038  36.145  59.759  1.00  0.00     0.211 HD
ENDBRANCH  11  12
ENDBRANCH   9  11
ENDBRANCH   8   9
BRANCH   8  14
ATOM     14  O   UNL     1      72.648  33.516  60.697  1.00  0.00    -0.382 OA
ATOM     15  H   UNL     1      71.827  33.555  61.254  1.00  0.00     0.211 HD
ENDBRANCH   8  14
ENDBRANCH   1   8
BRANCH   1  16
ATOM     16  O   UNL     1      72.102  30.410  58.921  1.00  0.00    -0.387 OA
ATOM     17  H   UNL     1      73.040  30.471  58.600  1.00  0.00     0.211 HD
ENDBRANCH   1  16
TORSDOF 10
ENDMDL
MODEL 6
REMARK VINA RESULT:    -3.667      1.324      4.389
REMARK INTER + INTRA:          -6.035
REMARK INTER:                  -4.823
REMARK INTRA:                  -1.212
REMARK UNBOUND:                -0.761
REMARK SMILES O=C(CO)[C@@H](O)[C@@H](O)[C@H](O)CO
REMARK SMILES IDX 7 1 9 2 11 3 12 4 10 6 5 8 2 9 1 10 3 11 4 12 6 14 8 16
REMARK H PARENT 12 5 10 7 4 13 6 15 8 17
REMARK Flexibility Score: inf
ROOT
ATOM      1  C   UNL     1      72.374  30.060  59.899  1.00  0.00     0.181 C 
ENDROOT
BRANCH   1   2
ATOM      2  C   UNL     1      72.409  29.679  61.410  1.00  0.00     0.171 C 
BRANCH   2   3
ATOM      3  C   UNL     1      73.800  29.798  62.046  1.00  0.00     0.190 C 
BRANCH   3   4
ATOM      4  O   UNL     1      74.125  31.141  62.281  1.00  0.00    -0.394 OA
ATOM      5  H   UNL     1      75.084  31.152  62.535  1.00  0.00     0.210 HD
ENDBRANCH   3   4
ENDBRANCH   2   3
BRANCH   2   6
ATOM      6  O   UNL     1      71.532  30.517  62.121  1.00  0.00    -0.388 OA
ATOM      7  H   UNL     1      70.977  30.996  61.451  1.00  0.00     0.211 HD
ENDBRANCH   2   6
ENDBRANCH   1   2
BRANCH   1   8
ATOM      8  C   UNL     1      71.331  31.148  59.509  1.00  0.00     0.214 C 
BRANCH   8   9
ATOM      9  C   UNL     1      71.906  32.551  59.540  1.00  0.00     0.189 C 
ATOM     10  O   UNL     1      72.623  32.902  60.464  1.00  0.00    -0.294 OA
BRANCH   9  11
ATOM     11  C   UNL     1      71.628  33.522  58.424  1.00  0.00     0.234 C 
BRANCH  11  12
ATOM     12  O   UNL     1      70.256  33.793  58.350  1.00  0.00    -0.388 OA
ATOM     13  H   UNL     1      69.793  33.029  58.782  1.00  0.00     0.211 HD
ENDBRANCH  11  12
ENDBRANCH   9  11
ENDBRANCH   8   9
BRANCH   8  14
ATOM     14  O   UNL     1      70.774  30.861  58.250  1.00  0.00    -0.382 OA
ATOM     15  H   UNL     1      71.287  30.097  57.874  1.00  0.00     0.211 HD
ENDBRANCH   8  14
ENDBRANCH   1   8
BRANCH   1  16
ATOM     16  O   UNL     1      73.653  30.482  59.493  1.00  0.00    -0.387 OA
ATOM     17  H   UNL     1      73.570  30.840  58.569  1.00  0.00     0.211 HD
ENDBRANCH   1  16
TORSDOF 10
ENDMDL
MODEL 7
REMARK VINA RESULT:    -3.614     15.794     17.222
REMARK INTER + INTRA:          -5.959
REMARK INTER:                  -5.118
REMARK INTRA:                  -0.841
REMARK UNBOUND:                -0.761
REMARK SMILES O=C(CO)[C@@H](O)[C@@H](O)[C@H](O)CO
REMARK SMILES IDX 7 1 9 2 11 3 12 4 10 6 5 8 2 9 1 10 3 11 4 12 6 14 8 16
REMARK H PARENT 12 5 10 7 4 13 6 15 8 17
REMARK Flexibility Score: inf
ROOT
ATOM      1  C   UNL     1      55.788  25.829  62.465  1.00  0.00     0.181 C 
ENDROOT
BRANCH   1   2
ATOM      2  C   UNL     1      55.153  25.361  63.808  1.00  0.00     0.171 C 
BRANCH   2   3
ATOM      3  C   UNL     1      55.498  23.914  64.185  1.00  0.00     0.190 C 
BRANCH   3   4
ATOM      4  O   UNL     1      56.814  23.826  64.660  1.00  0.00    -0.394 OA
ATOM      5  H   UNL     1      56.994  22.859  64.795  1.00  0.00     0.210 HD
ENDBRANCH   3   4
ENDBRANCH   2   3
BRANCH   2   6
ATOM      6  O   UNL     1      55.594  26.199  64.848  1.00  0.00    -0.388 OA
ATOM      7  H   UNL     1      54.885  26.200  65.544  1.00  0.00     0.211 HD
ENDBRANCH   2   6
ENDBRANCH   1   2
BRANCH   1   8
ATOM      8  C   UNL     1      56.854  26.957  62.587  1.00  0.00     0.214 C 
BRANCH   8   9
ATOM      9  C   UNL     1      57.730  27.075  61.355  1.00  0.00     0.189 C 
ATOM     10  O   UNL     1      57.223  27.206  60.250  1.00  0.00    -0.294 OA
BRANCH   9  11
ATOM     11  C   UNL     1      59.230  27.062  61.472  1.00  0.00     0.234 C 
BRANCH  11  12
ATOM     12  O   UNL     1      59.621  26.306  62.584  1.00  0.00    -0.388 OA
ATOM     13  H   UNL     1      60.603  26.181  62.510  1.00  0.00     0.211 HD
ENDBRANCH  11  12
ENDBRANCH   9  11
ENDBRANCH   8   9
BRANCH   8  14
ATOM     14  O   UNL     1      56.234  28.185  62.882  1.00  0.00    -0.382 OA
ATOM     15  H   UNL     1      56.952  28.816  63.150  1.00  0.00     0.211 HD
ENDBRANCH   8  14
ENDBRANCH   1   8
BRANCH   1  16
ATOM     16  O   UNL     1      56.361  24.725  61.807  1.00  0.00    -0.387 OA
ATOM     17  H   UNL     1      56.114  23.910  62.319  1.00  0.00     0.211 HD
ENDBRANCH   1  16
TORSDOF 10
ENDMDL
MODEL 8
REMARK VINA RESULT:    -3.564     13.624     14.676
REMARK INTER + INTRA:          -5.887
REMARK INTER:                  -5.012
REMARK INTRA:                  -0.876
REMARK UNBOUND:                -0.761
REMARK SMILES O=C(CO)[C@@H](O)[C@@H](O)[C@H](O)CO
REMARK SMILES IDX 7 1 9 2 11 3 12 4 10 6 5 8 2 9 1 10 3 11 4 12 6 14 8 16
REMARK H PARENT 12 5 10 7 4 13 6 15 8 17
REMARK Flexibility Score: inf
ROOT
ATOM      1  C   UNL     1      64.818  33.966  48.398  1.00  0.00     0.181 C 
ENDROOT
BRANCH   1   2
ATOM      2  C   UNL     1      65.445  34.424  47.047  1.00  0.00     0.171 C 
BRANCH   2   3
ATOM      3  C   UNL     1      66.757  33.710  46.699  1.00  0.00     0.190 C 
BRANCH   3   4
ATOM      4  O   UNL     1      66.534  32.344  46.472  1.00  0.00    -0.394 OA
ATOM      5  H   UNL     1      66.531  31.914  47.366  1.00  0.00     0.210 HD
ENDBRANCH   3   4
ENDBRANCH   2   3
BRANCH   2   6
ATOM      6  O   UNL     1      64.529  34.185  46.005  1.00  0.00    -0.388 OA
ATOM      7  H   UNL     1      64.054  33.340  46.221  1.00  0.00     0.211 HD
ENDBRANCH   2   6
ENDBRANCH   1   2
BRANCH   1   8
ATOM      8  C   UNL     1      63.555  33.063  48.277  1.00  0.00     0.214 C 
BRANCH   8   9
ATOM      9  C   UNL     1      63.324  32.207  49.507  1.00  0.00     0.189 C 
ATOM     10  O   UNL     1      63.110  32.732  50.590  1.00  0.00    -0.294 OA
BRANCH   9  11
ATOM     11  C   UNL     1      63.326  30.706  49.412  1.00  0.00     0.234 C 
BRANCH  11  12
ATOM     12  O   UNL     1      63.954  30.297  48.229  1.00  0.00    -0.388 OA
ATOM     13  H   UNL     1      64.610  31.005  47.997  1.00  0.00     0.211 HD
ENDBRANCH  11  12
ENDBRANCH   9  11
ENDBRANCH   8   9
BRANCH   8  14
ATOM     14  O   UNL     1      62.423  33.845  47.989  1.00  0.00    -0.382 OA
ATOM     15  H   UNL     1      62.732  34.786  47.909  1.00  0.00     0.211 HD
ENDBRANCH   8  14
ENDBRANCH   1   8
BRANCH   1  16
ATOM     16  O   UNL     1      65.791  33.295  49.162  1.00  0.00    -0.387 OA
ATOM     17  H   UNL     1      66.490  33.958  49.405  1.00  0.00     0.211 HD
ENDBRANCH   1  16
TORSDOF 10
ENDMDL
MODEL 9
REMARK VINA RESULT:    -3.555     21.184     22.600
REMARK INTER + INTRA:          -5.874
REMARK INTER:                  -4.578
REMARK INTRA:                  -1.296
REMARK UNBOUND:                -0.761
REMARK SMILES O=C(CO)[C@@H](O)[C@@H](O)[C@H](O)CO
REMARK SMILES IDX 7 1 9 2 11 3 12 4 10 6 5 8 2 9 1 10 3 11 4 12 6 14 8 16
REMARK H PARENT 12 5 10 7 4 13 6 15 8 17
REMARK Flexibility Score: inf
ROOT
ATOM      1  C   UNL     1      59.044  17.987  51.348  1.00  0.00     0.181 C 
ENDROOT
BRANCH   1   2
ATOM      2  C   UNL     1      59.525  17.719  49.890  1.00  0.00     0.171 C 
BRANCH   2   3
ATOM      3  C   UNL     1      59.406  16.251  49.459  1.00  0.00     0.190 C 
BRANCH   3   4
ATOM      4  O   UNL     1      58.066  15.908  49.232  1.00  0.00    -0.394 OA
ATOM      5  H   UNL     1      57.585  16.763  49.077  1.00  0.00     0.210 HD
ENDBRANCH   3   4
ENDBRANCH   2   3
BRANCH   2   6
ATOM      6  O   UNL     1      58.764  18.497  49.000  1.00  0.00    -0.388 OA
ATOM      7  H   UNL     1      59.131  19.420  49.030  1.00  0.00     0.211 HD
ENDBRANCH   2   6
ENDBRANCH   1   2
BRANCH   1   8
ATOM      8  C   UNL     1      58.112  19.220  51.528  1.00  0.00     0.214 C 
BRANCH   8   9
ATOM      9  C   UNL     1      56.681  18.833  51.851  1.00  0.00     0.189 C 
ATOM     10  O   UNL     1      56.350  18.611  53.006  1.00  0.00    -0.294 OA
BRANCH   9  11
ATOM     11  C   UNL     1      55.643  18.745  50.765  1.00  0.00     0.234 C 
BRANCH  11  12
ATOM     12  O   UNL     1      55.919  17.663  49.920  1.00  0.00    -0.388 OA
ATOM     13  H   UNL     1      56.785  17.862  49.479  1.00  0.00     0.211 HD
ENDBRANCH  11  12
ENDBRANCH   9  11
ENDBRANCH   8   9
BRANCH   8  14
ATOM     14  O   UNL     1      58.631  20.086  52.507  1.00  0.00    -0.382 OA
ATOM     15  H   UNL     1      57.998  20.848  52.585  1.00  0.00     0.211 HD
ENDBRANCH   8  14
ENDBRANCH   1   8
BRANCH   1  16
ATOM     16  O   UNL     1      58.394  16.842  51.845  1.00  0.00    -0.387 OA
ATOM     17  H   UNL     1      58.782  16.642  52.738  1.00  0.00     0.211 HD
ENDBRANCH   1  16
TORSDOF 10
ENDMDL
