MODEL 1
REMARK VINA RESULT:    -2.579      0.000      0.000
REMARK INTER + INTRA:          -3.261
REMARK INTER:                  -3.483
REMARK INTRA:                   0.223
REMARK UNBOUND:                 0.223
REMARK SMILES [NH3+]CCCC[C@H]([NH3+])C(=O)[O-]
REMARK SMILES IDX 4 1 3 2 2 3 1 4 5 8 6 9 7 10 8 14 9 15 10 16
REMARK H PARENT 1 5 1 6 1 7 7 11 7 12 7 13
REMARK Flexibility Score: inf
ROOT
ATOM      1  C   UNL     1       2.274   3.028 -40.102  1.00  0.00     0.012 C 
ENDROOT
BRANCH   1   2
ATOM      2  C   UNL     1       3.594   2.704 -39.393  1.00  0.00     0.061 C 
BRANCH   2   3
ATOM      3  C   UNL     1       3.917   3.754 -38.321  1.00  0.00     0.258 C 
BRANCH   3   4
ATOM      4  N   UNL     1       2.945   4.846 -38.348  1.00  0.00    -0.358 N 
ATOM      5  H   UNL     1       2.346   4.749 -39.200  1.00  0.00     0.344 HD
ATOM      6  H   UNL     1       2.336   4.806 -37.499  1.00  0.00     0.344 HD
ATOM      7  H   UNL     1       3.441   5.766 -38.387  1.00  0.00     0.344 HD
ENDBRANCH   3   4
ENDBRANCH   2   3
ENDBRANCH   1   2
BRANCH   1   8
ATOM      8  C   UNL     1       1.303   1.836 -40.024  1.00  0.00     0.072 C 
BRANCH   8   9
ATOM      9  C   UNL     1       0.858   1.472 -38.588  1.00  0.00     0.227 C 
BRANCH   9  10
ATOM     10  N   UNL     1       0.561   2.663 -37.783  1.00  0.00    -0.350 N 
ATOM     11  H   UNL     1       0.400   3.481 -38.417  1.00  0.00     0.345 HD
ATOM     12  H   UNL     1       1.374   2.887 -37.164  1.00  0.00     0.345 HD
ATOM     13  H   UNL     1      -0.291   2.525 -37.193  1.00  0.00     0.345 HD
ENDBRANCH   9  10
BRANCH   9  14
ATOM     14  C   UNL     1       1.868   0.585 -37.903  1.00  0.00     0.099 C 
ATOM     15  O   UNL     1       2.375   0.943 -36.807  1.00  0.00    -0.544 OA
ATOM     16  O   UNL     1       2.213  -0.649 -38.442  1.00  0.00    -0.544 OA
ENDBRANCH   9  14
ENDBRANCH   8   9
ENDBRANCH   1   8
TORSDOF 7
ENDMDL
MODEL 2
REMARK VINA RESULT:    -2.494      1.931      2.309
REMARK INTER + INTRA:          -3.146
REMARK INTER:                  -3.010
REMARK INTRA:                  -0.136
REMARK UNBOUND:                 0.223
REMARK SMILES [NH3+]CCCC[C@H]([NH3+])C(=O)[O-]
REMARK SMILES IDX 4 1 3 2 2 3 1 4 5 8 6 9 7 10 8 14 9 15 10 16
REMARK H PARENT 1 5 1 6 1 7 7 11 7 12 7 13
REMARK Flexibility Score: inf
ROOT
ATOM      1  C   UNL     1       3.563   2.294 -38.892  1.00  0.00     0.012 C 
ENDROOT
BRANCH   1   2
ATOM      2  C   UNL     1       4.450   3.393 -38.294  1.00  0.00     0.061 C 
BRANCH   2   3
ATOM      3  C   UNL     1       3.647   4.678 -38.048  1.00  0.00     0.258 C 
BRANCH   3   4
ATOM      4  N   UNL     1       2.358   4.630 -38.737  1.00  0.00    -0.358 N 
ATOM      5  H   UNL     1       1.988   5.603 -38.839  1.00  0.00     0.344 HD
ATOM      6  H   UNL     1       2.475   4.211 -39.688  1.00  0.00     0.344 HD
ATOM      7  H   UNL     1       1.675   4.065 -38.182  1.00  0.00     0.344 HD
ENDBRANCH   3   4
ENDBRANCH   2   3
ENDBRANCH   1   2
BRANCH   1   8
ATOM      8  C   UNL     1       3.103   1.308 -37.804  1.00  0.00     0.072 C 
BRANCH   8   9
ATOM      9  C   UNL     1       1.644   0.822 -37.963  1.00  0.00     0.227 C 
BRANCH   9  10
ATOM     10  N   UNL     1       1.550  -0.376 -38.808  1.00  0.00    -0.350 N 
ATOM     11  H   UNL     1       1.958  -0.171 -39.750  1.00  0.00     0.345 HD
ATOM     12  H   UNL     1       0.547  -0.643 -38.938  1.00  0.00     0.345 HD
ATOM     13  H   UNL     1       2.068  -1.182 -38.389  1.00  0.00     0.345 HD
ENDBRANCH   9  10
BRANCH   9  14
ATOM     14  C   UNL     1       0.745   1.922 -38.470  1.00  0.00     0.099 C 
ATOM     15  O   UNL     1       0.105   2.635 -37.652  1.00  0.00    -0.544 OA
ATOM     16  O   UNL     1       0.650   2.193 -39.830  1.00  0.00    -0.544 OA
ENDBRANCH   9  14
ENDBRANCH   8   9
ENDBRANCH   1   8
TORSDOF 7
ENDMDL
MODEL 3
REMARK VINA RESULT:    -2.494      2.543      3.758
REMARK INTER + INTRA:          -3.146
REMARK INTER:                  -4.030
REMARK INTRA:                   0.885
REMARK UNBOUND:                 0.223
REMARK SMILES [NH3+]CCCC[C@H]([NH3+])C(=O)[O-]
REMARK SMILES IDX 4 1 3 2 2 3 1 4 5 8 6 9 7 10 8 14 9 15 10 16
REMARK H PARENT 1 5 1 6 1 7 7 11 7 12 7 13
REMARK Flexibility Score: inf
ROOT
ATOM      1  C   UNL     1       0.993   2.172 -37.557  1.00  0.00     0.012 C 
ENDROOT
BRANCH   1   2
ATOM      2  C   UNL     1       1.995   1.031 -37.344  1.00  0.00     0.061 C 
BRANCH   2   3
ATOM      3  C   UNL     1       1.659  -0.172 -38.236  1.00  0.00     0.258 C 
BRANCH   3   4
ATOM      4  N   UNL     1       2.726  -1.172 -38.188  1.00  0.00    -0.358 N 
ATOM      5  H   UNL     1       2.889  -1.544 -39.151  1.00  0.00     0.344 HD
ATOM      6  H   UNL     1       3.610  -0.737 -37.838  1.00  0.00     0.344 HD
ATOM      7  H   UNL     1       2.448  -1.963 -37.562  1.00  0.00     0.344 HD
ENDBRANCH   3   4
ENDBRANCH   2   3
ENDBRANCH   1   2
BRANCH   1   8
ATOM      8  C   UNL     1       0.528   2.227 -39.023  1.00  0.00     0.072 C 
BRANCH   8   9
ATOM      9  C   UNL     1       1.618   2.686 -40.019  1.00  0.00     0.227 C 
BRANCH   9  10
ATOM     10  N   UNL     1       1.952   1.640 -40.994  1.00  0.00    -0.350 N 
ATOM     11  H   UNL     1       1.198   1.585 -41.719  1.00  0.00     0.345 HD
ATOM     12  H   UNL     1       2.010   0.712 -40.515  1.00  0.00     0.345 HD
ATOM     13  H   UNL     1       2.860   1.836 -41.472  1.00  0.00     0.345 HD
ENDBRANCH   9  10
BRANCH   9  14
ATOM     14  C   UNL     1       2.850   3.182 -39.304  1.00  0.00     0.099 C 
ATOM     15  O   UNL     1       3.921   2.522 -39.369  1.00  0.00    -0.544 OA
ATOM     16  O   UNL     1       2.834   4.387 -38.611  1.00  0.00    -0.544 OA
ENDBRANCH   9  14
ENDBRANCH   8   9
ENDBRANCH   1   8
TORSDOF 7
ENDMDL
MODEL 4
REMARK VINA RESULT:    -2.417      2.179      3.765
REMARK INTER + INTRA:          -3.042
REMARK INTER:                  -2.947
REMARK INTRA:                  -0.095
REMARK UNBOUND:                 0.223
REMARK SMILES [NH3+]CCCC[C@H]([NH3+])C(=O)[O-]
REMARK SMILES IDX 4 1 3 2 2 3 1 4 5 8 6 9 7 10 8 14 9 15 10 16
REMARK H PARENT 1 5 1 6 1 7 7 11 7 12 7 13
REMARK Flexibility Score: inf
ROOT
ATOM      1  C   UNL     1       2.639   1.242 -37.518  1.00  0.00     0.012 C 
ENDROOT
BRANCH   1   2
ATOM      2  C   UNL     1       3.284  -0.147 -37.451  1.00  0.00     0.061 C 
BRANCH   2   3
ATOM      3  C   UNL     1       2.509  -1.158 -38.307  1.00  0.00     0.258 C 
BRANCH   3   4
ATOM      4  N   UNL     1       1.373  -0.519 -38.971  1.00  0.00    -0.358 N 
ATOM      5  H   UNL     1       1.714   0.315 -39.503  1.00  0.00     0.344 HD
ATOM      6  H   UNL     1       0.926  -1.187 -39.640  1.00  0.00     0.344 HD
ATOM      7  H   UNL     1       0.673  -0.204 -38.261  1.00  0.00     0.344 HD
ENDBRANCH   3   4
ENDBRANCH   2   3
ENDBRANCH   1   2
BRANCH   1   8
ATOM      8  C   UNL     1       3.548   2.233 -38.266  1.00  0.00     0.072 C 
BRANCH   8   9
ATOM      9  C   UNL     1       2.808   3.132 -39.284  1.00  0.00     0.227 C 
BRANCH   9  10
ATOM     10  N   UNL     1       2.446   4.434 -38.710  1.00  0.00    -0.350 N 
ATOM     11  H   UNL     1       3.236   5.107 -38.846  1.00  0.00     0.345 HD
ATOM     12  H   UNL     1       2.275   4.335 -37.682  1.00  0.00     0.345 HD
ATOM     13  H   UNL     1       1.590   4.828 -39.162  1.00  0.00     0.345 HD
ENDBRANCH   9  10
BRANCH   9  14
ATOM     14  C   UNL     1       1.603   2.435 -39.865  1.00  0.00     0.099 C 
ATOM     15  O   UNL     1       1.704   1.815 -40.957  1.00  0.00    -0.544 OA
ATOM     16  O   UNL     1       0.390   2.425 -39.186  1.00  0.00    -0.544 OA
ENDBRANCH   9  14
ENDBRANCH   8   9
ENDBRANCH   1   8
TORSDOF 7
ENDMDL
MODEL 5
REMARK VINA RESULT:    -2.157      2.073      2.552
REMARK INTER + INTRA:          -2.691
REMARK INTER:                  -3.058
REMARK INTRA:                   0.368
REMARK UNBOUND:                 0.223
REMARK SMILES [NH3+]CCCC[C@H]([NH3+])C(=O)[O-]
REMARK SMILES IDX 4 1 3 2 2 3 1 4 5 8 6 9 7 10 8 14 9 15 10 16
REMARK H PARENT 1 5 1 6 1 7 7 11 7 12 7 13
REMARK Flexibility Score: inf
ROOT
ATOM      1  C   UNL     1       3.030   1.368 -37.853  1.00  0.00     0.012 C 
ENDROOT
BRANCH   1   2
ATOM      2  C   UNL     1       3.689   2.328 -38.850  1.00  0.00     0.061 C 
BRANCH   2   3
ATOM      3  C   UNL     1       3.913   3.710 -38.220  1.00  0.00     0.258 C 
BRANCH   3   4
ATOM      4  N   UNL     1       2.827   4.625 -38.567  1.00  0.00    -0.358 N 
ATOM      5  H   UNL     1       1.911   4.149 -38.395  1.00  0.00     0.344 HD
ATOM      6  H   UNL     1       2.879   5.485 -37.975  1.00  0.00     0.344 HD
ATOM      7  H   UNL     1       2.886   4.886 -39.578  1.00  0.00     0.344 HD
ENDBRANCH   3   4
ENDBRANCH   2   3
ENDBRANCH   1   2
BRANCH   1   8
ATOM      8  C   UNL     1       1.566   1.094 -38.242  1.00  0.00     0.072 C 
BRANCH   8   9
ATOM      9  C   UNL     1       0.800   2.339 -38.748  1.00  0.00     0.227 C 
BRANCH   9  10
ATOM     10  N   UNL     1      -0.406   2.605 -37.952  1.00  0.00    -0.350 N 
ATOM     11  H   UNL     1      -0.133   2.813 -36.963  1.00  0.00     0.345 HD
ATOM     12  H   UNL     1      -1.024   1.762 -37.949  1.00  0.00     0.345 HD
ATOM     13  H   UNL     1      -0.941   3.420 -38.328  1.00  0.00     0.345 HD
ENDBRANCH   9  10
BRANCH   9  14
ATOM     14  C   UNL     1       0.475   2.230 -40.217  1.00  0.00     0.099 C 
ATOM     15  O   UNL     1      -0.688   2.493 -40.622  1.00  0.00    -0.544 OA
ATOM     16  O   UNL     1       1.457   1.891 -41.139  1.00  0.00    -0.544 OA
ENDBRANCH   9  14
ENDBRANCH   8   9
ENDBRANCH   1   8
TORSDOF 7
ENDMDL
MODEL 6
REMARK VINA RESULT:    -1.962      1.864      2.453
REMARK INTER + INTRA:          -2.427
REMARK INTER:                  -2.784
REMARK INTRA:                   0.356
REMARK UNBOUND:                 0.223
REMARK SMILES [NH3+]CCCC[C@H]([NH3+])C(=O)[O-]
REMARK SMILES IDX 4 1 3 2 2 3 1 4 5 8 6 9 7 10 8 14 9 15 10 16
REMARK H PARENT 1 5 1 6 1 7 7 11 7 12 7 13
REMARK Flexibility Score: inf
ROOT
ATOM      1  C   UNL     1       2.772   2.990 -40.089  1.00  0.00     0.012 C 
ENDROOT
BRANCH   1   2
ATOM      2  C   UNL     1       2.044   1.856 -40.820  1.00  0.00     0.061 C 
BRANCH   2   3
ATOM      3  C   UNL     1       0.873   2.396 -41.652  1.00  0.00     0.258 C 
BRANCH   3   4
ATOM      4  N   UNL     1       1.352   3.032 -42.878  1.00  0.00    -0.358 N 
ATOM      5  H   UNL     1       1.947   2.352 -43.406  1.00  0.00     0.344 HD
ATOM      6  H   UNL     1       0.542   3.310 -43.479  1.00  0.00     0.344 HD
ATOM      7  H   UNL     1       1.927   3.874 -42.645  1.00  0.00     0.344 HD
ENDBRANCH   3   4
ENDBRANCH   2   3
ENDBRANCH   1   2
BRANCH   1   8
ATOM      8  C   UNL     1       2.144   3.243 -38.707  1.00  0.00     0.072 C 
BRANCH   8   9
ATOM      9  C   UNL     1       1.091   2.192 -38.284  1.00  0.00     0.227 C 
BRANCH   9  10
ATOM     10  N   UNL     1       0.127   2.734 -37.319  1.00  0.00    -0.350 N 
ATOM     11  H   UNL     1       0.295   2.303 -36.379  1.00  0.00     0.345 HD
ATOM     12  H   UNL     1      -0.847   2.497 -37.616  1.00  0.00     0.345 HD
ATOM     13  H   UNL     1       0.215   3.772 -37.230  1.00  0.00     0.345 HD
ENDBRANCH   9  10
BRANCH   9  14
ATOM     14  C   UNL     1       1.741   0.934 -37.763  1.00  0.00     0.099 C 
ATOM     15  O   UNL     1       2.406   0.969 -36.694  1.00  0.00    -0.544 OA
ATOM     16  O   UNL     1       1.576  -0.278 -38.423  1.00  0.00    -0.544 OA
ENDBRANCH   9  14
ENDBRANCH   8   9
ENDBRANCH   1   8
TORSDOF 7
ENDMDL
MODEL 7
REMARK VINA RESULT:    -1.923      2.636      3.529
REMARK INTER + INTRA:          -2.374
REMARK INTER:                  -2.732
REMARK INTRA:                   0.358
REMARK UNBOUND:                 0.223
REMARK SMILES [NH3+]CCCC[C@H]([NH3+])C(=O)[O-]
REMARK SMILES IDX 4 1 3 2 2 3 1 4 5 8 6 9 7 10 8 14 9 15 10 16
REMARK H PARENT 1 5 1 6 1 7 7 11 7 12 7 13
REMARK Flexibility Score: inf
ROOT
ATOM      1  C   UNL     1       3.451   2.080 -38.488  1.00  0.00     0.012 C 
ENDROOT
BRANCH   1   2
ATOM      2  C   UNL     1       2.750   1.157 -37.485  1.00  0.00     0.061 C 
BRANCH   2   3
ATOM      3  C   UNL     1       2.862  -0.313 -37.915  1.00  0.00     0.258 C 
BRANCH   3   4
ATOM      4  N   UNL     1       1.691  -0.720 -38.691  1.00  0.00    -0.358 N 
ATOM      5  H   UNL     1       0.886  -0.872 -38.041  1.00  0.00     0.344 HD
ATOM      6  H   UNL     1       1.437   0.027 -39.377  1.00  0.00     0.344 HD
ATOM      7  H   UNL     1       1.890  -1.614 -39.197  1.00  0.00     0.344 HD
ENDBRANCH   3   4
ENDBRANCH   2   3
ENDBRANCH   1   2
BRANCH   1   8
ATOM      8  C   UNL     1       2.423   2.884 -39.304  1.00  0.00     0.072 C 
BRANCH   8   9
ATOM      9  C   UNL     1       1.229   2.048 -39.823  1.00  0.00     0.227 C 
BRANCH   9  10
ATOM     10  N   UNL     1       1.127   2.082 -41.288  1.00  0.00    -0.350 N 
ATOM     11  H   UNL     1       1.201   3.072 -41.620  1.00  0.00     0.345 HD
ATOM     12  H   UNL     1       0.199   1.706 -41.589  1.00  0.00     0.345 HD
ATOM     13  H   UNL     1       1.886   1.522 -41.738  1.00  0.00     0.345 HD
ENDBRANCH   9  10
BRANCH   9  14
ATOM     14  C   UNL     1      -0.066   2.468 -39.173  1.00  0.00     0.099 C 
ATOM     15  O   UNL     1      -0.131   2.577 -37.920  1.00  0.00    -0.544 OA
ATOM     16  O   UNL     1      -1.178   2.785 -39.944  1.00  0.00    -0.544 OA
ENDBRANCH   9  14
ENDBRANCH   8   9
ENDBRANCH   1   8
TORSDOF 7
ENDMDL
MODEL 8
REMARK VINA RESULT:    -1.868      2.458      3.890
REMARK INTER + INTRA:          -2.301
REMARK INTER:                  -2.621
REMARK INTRA:                   0.320
REMARK UNBOUND:                 0.223
REMARK SMILES [NH3+]CCCC[C@H]([NH3+])C(=O)[O-]
REMARK SMILES IDX 4 1 3 2 2 3 1 4 5 8 6 9 7 10 8 14 9 15 10 16
REMARK H PARENT 1 5 1 6 1 7 7 11 7 12 7 13
REMARK Flexibility Score: inf
ROOT
ATOM      1  C   UNL     1       1.022   1.164 -37.527  1.00  0.00     0.012 C 
ENDROOT
BRANCH   1   2
ATOM      2  C   UNL     1       0.412   2.570 -37.494  1.00  0.00     0.061 C 
BRANCH   2   3
ATOM      3  C   UNL     1      -1.056   2.547 -37.943  1.00  0.00     0.258 C 
BRANCH   3   4
ATOM      4  N   UNL     1      -1.897   1.889 -36.944  1.00  0.00    -0.358 N 
ATOM      5  H   UNL     1      -1.959   0.869 -37.168  1.00  0.00     0.344 HD
ATOM      6  H   UNL     1      -1.480   2.002 -35.992  1.00  0.00     0.344 HD
ATOM      7  H   UNL     1      -2.860   2.298 -36.961  1.00  0.00     0.344 HD
ENDBRANCH   3   4
ENDBRANCH   2   3
ENDBRANCH   1   2
BRANCH   1   8
ATOM      8  C   UNL     1       1.663   0.875 -38.896  1.00  0.00     0.072 C 
BRANCH   8   9
ATOM      9  C   UNL     1       1.866   2.128 -39.779  1.00  0.00     0.227 C 
BRANCH   9  10
ATOM     10  N   UNL     1       2.044   1.782 -41.195  1.00  0.00    -0.350 N 
ATOM     11  H   UNL     1       1.634   2.537 -41.793  1.00  0.00     0.345 HD
ATOM     12  H   UNL     1       1.544   0.889 -41.409  1.00  0.00     0.345 HD
ATOM     13  H   UNL     1       3.055   1.676 -41.440  1.00  0.00     0.345 HD
ENDBRANCH   9  10
BRANCH   9  14
ATOM     14  C   UNL     1       3.003   2.983 -39.276  1.00  0.00     0.099 C 
ATOM     15  O   UNL     1       4.172   2.516 -39.247  1.00  0.00    -0.544 OA
ATOM     16  O   UNL     1       2.786   4.300 -38.890  1.00  0.00    -0.544 OA
ENDBRANCH   9  14
ENDBRANCH   8   9
ENDBRANCH   1   8
TORSDOF 7
ENDMDL
MODEL 9
REMARK VINA RESULT:    -1.858      2.508      3.465
REMARK INTER + INTRA:          -2.286
REMARK INTER:                  -2.757
REMARK INTRA:                   0.470
REMARK UNBOUND:                 0.223
REMARK SMILES [NH3+]CCCC[C@H]([NH3+])C(=O)[O-]
REMARK SMILES IDX 4 1 3 2 2 3 1 4 5 8 6 9 7 10 8 14 9 15 10 16
REMARK H PARENT 1 5 1 6 1 7 7 11 7 12 7 13
REMARK Flexibility Score: inf
ROOT
ATOM      1  C   UNL     1       1.523   0.633 -39.402  1.00  0.00     0.012 C 
ENDROOT
BRANCH   1   2
ATOM      2  C   UNL     1       1.967   1.493 -40.590  1.00  0.00     0.061 C 
BRANCH   2   3
ATOM      3  C   UNL     1       0.757   2.016 -41.377  1.00  0.00     0.258 C 
BRANCH   3   4
ATOM      4  N   UNL     1       1.181   2.668 -42.616  1.00  0.00    -0.358 N 
ATOM      5  H   UNL     1       0.350   2.792 -43.238  1.00  0.00     0.344 HD
ATOM      6  H   UNL     1       1.591   3.607 -42.406  1.00  0.00     0.344 HD
ATOM      7  H   UNL     1       1.887   2.075 -43.110  1.00  0.00     0.344 HD
ENDBRANCH   3   4
ENDBRANCH   2   3
ENDBRANCH   1   2
BRANCH   1   8
ATOM      8  C   UNL     1       2.235   1.073 -38.110  1.00  0.00     0.072 C 
BRANCH   8   9
ATOM      9  C   UNL     1       1.995   2.551 -37.723  1.00  0.00     0.227 C 
BRANCH   9  10
ATOM     10  N   UNL     1       0.609   2.968 -37.971  1.00  0.00    -0.350 N 
ATOM     11  H   UNL     1       0.605   3.892 -38.462  1.00  0.00     0.345 HD
ATOM     12  H   UNL     1       0.102   3.079 -37.063  1.00  0.00     0.345 HD
ATOM     13  H   UNL     1       0.100   2.274 -38.564  1.00  0.00     0.345 HD
ENDBRANCH   9  10
BRANCH   9  14
ATOM     14  C   UNL     1       2.975   3.470 -38.408  1.00  0.00     0.099 C 
ATOM     15  O   UNL     1       4.091   3.026 -38.787  1.00  0.00    -0.544 OA
ATOM     16  O   UNL     1       2.644   4.794 -38.671  1.00  0.00    -0.544 OA
ENDBRANCH   9  14
ENDBRANCH   8   9
ENDBRANCH   1   8
TORSDOF 7
ENDMDL
