MODEL 1
REMARK VINA RESULT:    -4.617      0.000      0.000
REMARK INTER + INTRA:          -7.064
REMARK INTER:                  -6.776
REMARK INTRA:                  -0.288
REMARK UNBOUND:                -0.288
REMARK SMILES O=C([O-])CCCCCCCC(=O)[O-]
REMARK SMILES IDX 7 1 6 2 5 3 4 4 2 5 1 6 3 7 8 8 9 9 10 10 11 11 12 12 13 13
REMARK H PARENT
REMARK Flexibility Score: inf
ROOT
ATOM      1  C   UNL     1       8.055   5.839  16.339  1.00  0.00     0.000 C 
ENDROOT
BRANCH   1   2
ATOM      2  C   UNL     1       8.379   6.374  14.934  1.00  0.00     0.000 C 
BRANCH   2   3
ATOM      3  C   UNL     1       9.534   5.618  14.253  1.00  0.00     0.006 C 
BRANCH   3   4
ATOM      4  C   UNL     1      10.777   6.485  13.986  1.00  0.00     0.053 C 
BRANCH   4   5
ATOM      5  C   UNL     1      10.638   7.332  12.756  1.00  0.00     0.041 C 
ATOM      6  O   UNL     1      10.026   6.892  11.748  1.00  0.00    -0.550 OA
ATOM      7  O   UNL     1      11.215   8.595  12.713  1.00  0.00    -0.550 OA
ENDBRANCH   4   5
ENDBRANCH   3   4
ENDBRANCH   2   3
ENDBRANCH   1   2
BRANCH   1   8
ATOM      8  C   UNL     1       7.517   6.931  17.277  1.00  0.00     0.000 C 
BRANCH   8   9
ATOM      9  C   UNL     1       6.491   6.391  18.284  1.00  0.00     0.006 C 
BRANCH   9  10
ATOM     10  C   UNL     1       7.007   5.118  18.963  1.00  0.00     0.053 C 
BRANCH  10  11
ATOM     11  C   UNL     1       7.635   5.444  20.281  1.00  0.00     0.041 C 
ATOM     12  O   UNL     1       8.697   4.867  20.636  1.00  0.00    -0.550 OA
ATOM     13  O   UNL     1       7.075   6.420  21.096  1.00  0.00    -0.550 OA
ENDBRANCH  10  11
ENDBRANCH   9  10
ENDBRANCH   8   9
ENDBRANCH   1   8
TORSDOF 8
ENDMDL
MODEL 2
REMARK VINA RESULT:    -4.552     11.160     12.697
REMARK INTER + INTRA:          -6.968
REMARK INTER:                  -6.721
REMARK INTRA:                  -0.247
REMARK UNBOUND:                -0.288
REMARK SMILES O=C([O-])CCCCCCCC(=O)[O-]
REMARK SMILES IDX 7 1 6 2 5 3 4 4 2 5 1 6 3 7 8 8 9 9 10 10 11 11 12 12 13 13
REMARK H PARENT
REMARK Flexibility Score: inf
ROOT
ATOM      1  C   UNL     1      10.774  -3.668   7.365  1.00  0.00     0.000 C 
ENDROOT
BRANCH   1   2
ATOM      2  C   UNL     1      11.872  -3.087   6.457  1.00  0.00     0.000 C 
BRANCH   2   3
ATOM      3  C   UNL     1      13.285  -3.237   7.048  1.00  0.00     0.006 C 
BRANCH   3   4
ATOM      4  C   UNL     1      13.900  -1.915   7.539  1.00  0.00     0.053 C 
BRANCH   4   5
ATOM      5  C   UNL     1      15.398  -1.955   7.584  1.00  0.00     0.041 C 
ATOM      6  O   UNL     1      16.041  -1.039   8.161  1.00  0.00    -0.550 OA
ATOM      7  O   UNL     1      16.084  -2.988   6.960  1.00  0.00    -0.550 OA
ENDBRANCH   4   5
ENDBRANCH   3   4
ENDBRANCH   2   3
ENDBRANCH   1   2
BRANCH   1   8
ATOM      8  C   UNL     1      10.313  -2.674   8.443  1.00  0.00     0.000 C 
BRANCH   8   9
ATOM      9  C   UNL     1       9.461  -3.341   9.533  1.00  0.00     0.006 C 
BRANCH   9  10
ATOM     10  C   UNL     1       8.599  -2.306  10.264  1.00  0.00     0.053 C 
BRANCH  10  11
ATOM     11  C   UNL     1       7.198  -2.807  10.420  1.00  0.00     0.041 C 
ATOM     12  O   UNL     1       6.258  -2.000  10.646  1.00  0.00    -0.550 OA
ATOM     13  O   UNL     1       6.923  -4.161  10.269  1.00  0.00    -0.550 OA
ENDBRANCH  10  11
ENDBRANCH   9  10
ENDBRANCH   8   9
ENDBRANCH   1   8
TORSDOF 8
ENDMDL
MODEL 3
REMARK VINA RESULT:    -4.489      5.758      6.909
REMARK INTER + INTRA:          -6.876
REMARK INTER:                  -6.579
REMARK INTRA:                  -0.297
REMARK UNBOUND:                -0.288
REMARK SMILES O=C([O-])CCCCCCCC(=O)[O-]
REMARK SMILES IDX 7 1 6 2 5 3 4 4 2 5 1 6 3 7 8 8 9 9 10 10 11 11 12 12 13 13
REMARK H PARENT
REMARK Flexibility Score: inf
ROOT
ATOM      1  C   UNL     1       7.190   2.306  19.395  1.00  0.00     0.000 C 
ENDROOT
BRANCH   1   2
ATOM      2  C   UNL     1       6.949   1.395  18.179  1.00  0.00     0.000 C 
BRANCH   2   3
ATOM      3  C   UNL     1       7.034  -0.103  18.523  1.00  0.00     0.006 C 
BRANCH   3   4
ATOM      4  C   UNL     1       8.401  -0.738  18.213  1.00  0.00     0.053 C 
BRANCH   4   5
ATOM      5  C   UNL     1       8.308  -1.847  17.208  1.00  0.00     0.041 C 
ATOM      6  O   UNL     1       8.951  -2.917  17.382  1.00  0.00    -0.550 OA
ATOM      7  O   UNL     1       7.538  -1.687  16.064  1.00  0.00    -0.550 OA
ENDBRANCH   4   5
ENDBRANCH   3   4
ENDBRANCH   2   3
ENDBRANCH   1   2
BRANCH   1   8
ATOM      8  C   UNL     1       8.461   3.159  19.251  1.00  0.00     0.000 C 
BRANCH   8   9
ATOM      9  C   UNL     1       8.500   4.331  20.242  1.00  0.00     0.006 C 
BRANCH   9  10
ATOM     10  C   UNL     1       8.235   3.850  21.672  1.00  0.00     0.053 C 
BRANCH  10  11
ATOM     11  C   UNL     1       7.529   4.908  22.459  1.00  0.00     0.041 C 
ATOM     12  O   UNL     1       7.296   4.736  23.684  1.00  0.00    -0.550 OA
ATOM     13  O   UNL     1       7.171   6.105  21.850  1.00  0.00    -0.550 OA
ENDBRANCH  10  11
ENDBRANCH   9  10
ENDBRANCH   8   9
ENDBRANCH   1   8
TORSDOF 8
ENDMDL
MODEL 4
REMARK VINA RESULT:    -4.483     11.574     14.500
REMARK INTER + INTRA:          -6.868
REMARK INTER:                  -6.685
REMARK INTRA:                  -0.183
REMARK UNBOUND:                -0.288
REMARK SMILES O=C([O-])CCCCCCCC(=O)[O-]
REMARK SMILES IDX 7 1 6 2 5 3 4 4 2 5 1 6 3 7 8 8 9 9 10 10 11 11 12 12 13 13
REMARK H PARENT
REMARK Flexibility Score: inf
ROOT
ATOM      1  C   UNL     1      11.988  -2.318   7.727  1.00  0.00     0.000 C 
ENDROOT
BRANCH   1   2
ATOM      2  C   UNL     1      10.642  -3.052   7.843  1.00  0.00     0.000 C 
BRANCH   2   3
ATOM      3  C   UNL     1       9.697  -2.418   8.880  1.00  0.00     0.006 C 
BRANCH   3   4
ATOM      4  C   UNL     1       9.140  -3.416   9.910  1.00  0.00     0.053 C 
BRANCH   4   5
ATOM      5  C   UNL     1       7.964  -2.872  10.665  1.00  0.00     0.041 C 
ATOM      6  O   UNL     1       8.134  -2.025  11.581  1.00  0.00    -0.550 OA
ATOM      7  O   UNL     1       6.683  -3.326  10.377  1.00  0.00    -0.550 OA
ENDBRANCH   4   5
ENDBRANCH   3   4
ENDBRANCH   2   3
ENDBRANCH   1   2
BRANCH   1   8
ATOM      8  C   UNL     1      13.039  -3.130   6.953  1.00  0.00     0.000 C 
BRANCH   8   9
ATOM      9  C   UNL     1      14.466  -2.606   7.169  1.00  0.00     0.006 C 
BRANCH   9  10
ATOM     10  C   UNL     1      15.240  -3.505   8.138  1.00  0.00     0.053 C 
BRANCH  10  11
ATOM     11  C   UNL     1      16.277  -4.295   7.405  1.00  0.00     0.041 C 
ATOM     12  O   UNL     1      17.275  -4.755   8.021  1.00  0.00    -0.550 OA
ATOM     13  O   UNL     1      16.117  -4.567   6.052  1.00  0.00    -0.550 OA
ENDBRANCH  10  11
ENDBRANCH   9  10
ENDBRANCH   8   9
ENDBRANCH   1   8
TORSDOF 8
ENDMDL
MODEL 5
REMARK VINA RESULT:    -4.461     12.319     15.210
REMARK INTER + INTRA:          -6.835
REMARK INTER:                  -6.594
REMARK INTRA:                  -0.242
REMARK UNBOUND:                -0.288
REMARK SMILES O=C([O-])CCCCCCCC(=O)[O-]
REMARK SMILES IDX 7 1 6 2 5 3 4 4 2 5 1 6 3 7 8 8 9 9 10 10 11 11 12 12 13 13
REMARK H PARENT
REMARK Flexibility Score: inf
ROOT
ATOM      1  C   UNL     1      13.385  -2.611   6.615  1.00  0.00     0.000 C 
ENDROOT
BRANCH   1   2
ATOM      2  C   UNL     1      11.976  -3.061   6.192  1.00  0.00     0.000 C 
BRANCH   2   3
ATOM      3  C   UNL     1      11.090  -3.469   7.383  1.00  0.00     0.006 C 
BRANCH   3   4
ATOM      4  C   UNL     1      10.624  -2.285   8.249  1.00  0.00     0.053 C 
BRANCH   4   5
ATOM      5  C   UNL     1       9.473  -2.639   9.141  1.00  0.00     0.041 C 
ATOM      6  O   UNL     1       9.356  -3.808   9.594  1.00  0.00    -0.550 OA
ATOM      7  O   UNL     1       8.511  -1.685   9.446  1.00  0.00    -0.550 OA
ENDBRANCH   4   5
ENDBRANCH   3   4
ENDBRANCH   2   3
ENDBRANCH   1   2
BRANCH   1   8
ATOM      8  C   UNL     1      14.375  -3.782   6.714  1.00  0.00     0.000 C 
BRANCH   8   9
ATOM      9  C   UNL     1      15.505  -3.516   7.719  1.00  0.00     0.006 C 
BRANCH   9  10
ATOM     10  C   UNL     1      16.522  -4.662   7.717  1.00  0.00     0.053 C 
BRANCH  10  11
ATOM     11  C   UNL     1      17.851  -4.182   7.228  1.00  0.00     0.041 C 
ATOM     12  O   UNL     1      18.185  -4.359   6.027  1.00  0.00    -0.550 OA
ATOM     13  O   UNL     1      18.702  -3.496   8.086  1.00  0.00    -0.550 OA
ENDBRANCH  10  11
ENDBRANCH   9  10
ENDBRANCH   8   9
ENDBRANCH   1   8
TORSDOF 8
ENDMDL
MODEL 6
REMARK VINA RESULT:    -4.412      1.498      6.779
REMARK INTER + INTRA:          -6.763
REMARK INTER:                  -6.301
REMARK INTRA:                  -0.462
REMARK UNBOUND:                -0.288
REMARK SMILES O=C([O-])CCCCCCCC(=O)[O-]
REMARK SMILES IDX 7 1 6 2 5 3 4 4 2 5 1 6 3 7 8 8 9 9 10 10 11 11 12 12 13 13
REMARK H PARENT
REMARK Flexibility Score: inf
ROOT
ATOM      1  C   UNL     1       7.720   4.741  17.719  1.00  0.00     0.000 C 
ENDROOT
BRANCH   1   2
ATOM      2  C   UNL     1       6.645   3.956  18.490  1.00  0.00     0.000 C 
BRANCH   2   3
ATOM      3  C   UNL     1       7.153   3.397  19.831  1.00  0.00     0.006 C 
BRANCH   3   4
ATOM      4  C   UNL     1       8.388   4.128  20.385  1.00  0.00     0.053 C 
BRANCH   4   5
ATOM      5  C   UNL     1       8.042   5.126  21.449  1.00  0.00     0.041 C 
ATOM      6  O   UNL     1       8.306   4.885  22.657  1.00  0.00    -0.550 OA
ATOM      7  O   UNL     1       7.397   6.308  21.109  1.00  0.00    -0.550 OA
ENDBRANCH   4   5
ENDBRANCH   3   4
ENDBRANCH   2   3
ENDBRANCH   1   2
BRANCH   1   8
ATOM      8  C   UNL     1       7.333   6.211  17.497  1.00  0.00     0.000 C 
BRANCH   8   9
ATOM      9  C   UNL     1       8.090   6.849  16.323  1.00  0.00     0.006 C 
BRANCH   9  10
ATOM     10  C   UNL     1       8.403   5.810  15.242  1.00  0.00     0.053 C 
BRANCH  10  11
ATOM     11  C   UNL     1       9.545   6.267  14.390  1.00  0.00     0.041 C 
ATOM     12  O   UNL     1      10.330   7.157  14.808  1.00  0.00    -0.550 OA
ATOM     13  O   UNL     1       9.771   5.674  13.154  1.00  0.00    -0.550 OA
ENDBRANCH  10  11
ENDBRANCH   9  10
ENDBRANCH   8   9
ENDBRANCH   1   8
TORSDOF 8
ENDMDL
MODEL 7
REMARK VINA RESULT:    -4.393      1.935      2.613
REMARK INTER + INTRA:          -6.735
REMARK INTER:                  -6.518
REMARK INTRA:                  -0.218
REMARK UNBOUND:                -0.288
REMARK SMILES O=C([O-])CCCCCCCC(=O)[O-]
REMARK SMILES IDX 7 1 6 2 5 3 4 4 2 5 1 6 3 7 8 8 9 9 10 10 11 11 12 12 13 13
REMARK H PARENT
REMARK Flexibility Score: inf
ROOT
ATOM      1  C   UNL     1       7.400   5.896  17.685  1.00  0.00     0.000 C 
ENDROOT
BRANCH   1   2
ATOM      2  C   UNL     1       7.790   7.151  16.887  1.00  0.00     0.000 C 
BRANCH   2   3
ATOM      3  C   UNL     1       8.548   6.828  15.587  1.00  0.00     0.006 C 
BRANCH   3   4
ATOM      4  C   UNL     1       8.406   5.366  15.128  1.00  0.00     0.053 C 
BRANCH   4   5
ATOM      5  C   UNL     1       8.873   5.154  13.720  1.00  0.00     0.041 C 
ATOM      6  O   UNL     1       9.311   4.030  13.358  1.00  0.00    -0.550 OA
ATOM      7  O   UNL     1       8.856   6.208  12.815  1.00  0.00    -0.550 OA
ENDBRANCH   4   5
ENDBRANCH   3   4
ENDBRANCH   2   3
ENDBRANCH   1   2
BRANCH   1   8
ATOM      8  C   UNL     1       6.992   6.217  19.131  1.00  0.00     0.000 C 
BRANCH   8   9
ATOM      9  C   UNL     1       7.837   5.459  20.165  1.00  0.00     0.006 C 
BRANCH   9  10
ATOM     10  C   UNL     1       7.346   5.742  21.589  1.00  0.00     0.053 C 
BRANCH  10  11
ATOM     11  C   UNL     1       7.665   4.593  22.491  1.00  0.00     0.041 C 
ATOM     12  O   UNL     1       8.242   3.571  22.036  1.00  0.00    -0.550 OA
ATOM     13  O   UNL     1       7.368   4.670  23.847  1.00  0.00    -0.550 OA
ENDBRANCH  10  11
ENDBRANCH   9  10
ENDBRANCH   8   9
ENDBRANCH   1   8
TORSDOF 8
ENDMDL
MODEL 8
REMARK VINA RESULT:    -4.302      4.971      6.410
REMARK INTER + INTRA:          -6.601
REMARK INTER:                  -6.137
REMARK INTRA:                  -0.464
REMARK UNBOUND:                -0.288
REMARK SMILES O=C([O-])CCCCCCCC(=O)[O-]
REMARK SMILES IDX 7 1 6 2 5 3 4 4 2 5 1 6 3 7 8 8 9 9 10 10 11 11 12 12 13 13
REMARK H PARENT
REMARK Flexibility Score: inf
ROOT
ATOM      1  C   UNL     1       6.312   1.918  18.058  1.00  0.00     0.000 C 
ENDROOT
BRANCH   1   2
ATOM      2  C   UNL     1       6.441   0.453  17.607  1.00  0.00     0.000 C 
BRANCH   2   3
ATOM      3  C   UNL     1       7.320  -0.392  18.546  1.00  0.00     0.006 C 
BRANCH   3   4
ATOM      4  C   UNL     1       8.204  -1.419  17.817  1.00  0.00     0.053 C 
BRANCH   4   5
ATOM      5  C   UNL     1       9.480  -0.824  17.303  1.00  0.00     0.041 C 
ATOM      6  O   UNL     1      10.190  -1.458  16.478  1.00  0.00    -0.550 OA
ATOM      7  O   UNL     1       9.902   0.417  17.761  1.00  0.00    -0.550 OA
ENDBRANCH   4   5
ENDBRANCH   3   4
ENDBRANCH   2   3
ENDBRANCH   1   2
BRANCH   1   8
ATOM      8  C   UNL     1       7.200   2.243  19.270  1.00  0.00     0.000 C 
BRANCH   8   9
ATOM      9  C   UNL     1       8.193   3.379  18.986  1.00  0.00     0.006 C 
BRANCH   9  10
ATOM     10  C   UNL     1       8.570   4.113  20.277  1.00  0.00     0.053 C 
BRANCH  10  11
ATOM     11  C   UNL     1       7.883   5.440  20.346  1.00  0.00     0.041 C 
ATOM     12  O   UNL     1       7.619   6.071  19.289  1.00  0.00    -0.550 OA
ATOM     13  O   UNL     1       7.489   5.956  21.575  1.00  0.00    -0.550 OA
ENDBRANCH  10  11
ENDBRANCH   9  10
ENDBRANCH   8   9
ENDBRANCH   1   8
TORSDOF 8
ENDMDL
MODEL 9
REMARK VINA RESULT:    -4.267      1.300      6.819
REMARK INTER + INTRA:          -6.550
REMARK INTER:                  -6.150
REMARK INTRA:                  -0.400
REMARK UNBOUND:                -0.288
REMARK SMILES O=C([O-])CCCCCCCC(=O)[O-]
REMARK SMILES IDX 7 1 6 2 5 3 4 4 2 5 1 6 3 7 8 8 9 9 10 10 11 11 12 12 13 13
REMARK H PARENT
REMARK Flexibility Score: inf
ROOT
ATOM      1  C   UNL     1       8.072   6.597  16.373  1.00  0.00     0.000 C 
ENDROOT
BRANCH   1   2
ATOM      2  C   UNL     1       7.299   6.843  17.681  1.00  0.00     0.000 C 
BRANCH   2   3
ATOM      3  C   UNL     1       7.206   5.591  18.571  1.00  0.00     0.006 C 
BRANCH   3   4
ATOM      4  C   UNL     1       7.532   5.851  20.052  1.00  0.00     0.053 C 
BRANCH   4   5
ATOM      5  C   UNL     1       8.459   4.825  20.629  1.00  0.00     0.041 C 
ATOM      6  O   UNL     1       8.892   4.950  21.806  1.00  0.00    -0.550 OA
ATOM      7  O   UNL     1       8.871   3.747  19.857  1.00  0.00    -0.550 OA
ENDBRANCH   4   5
ENDBRANCH   3   4
ENDBRANCH   2   3
ENDBRANCH   1   2
BRANCH   1   8
ATOM      8  C   UNL     1       8.127   5.110  15.990  1.00  0.00     0.000 C 
BRANCH   8   9
ATOM      9  C   UNL     1       8.490   4.894  14.514  1.00  0.00     0.006 C 
BRANCH   9  10
ATOM     10  C   UNL     1       8.594   6.231  13.774  1.00  0.00     0.053 C 
BRANCH  10  11
ATOM     11  C   UNL     1       9.927   6.358  13.107  1.00  0.00     0.041 C 
ATOM     12  O   UNL     1      10.982   6.099  13.744  1.00  0.00    -0.550 OA
ATOM     13  O   UNL     1      10.003   6.715  11.766  1.00  0.00    -0.550 OA
ENDBRANCH  10  11
ENDBRANCH   9  10
ENDBRANCH   8   9
ENDBRANCH   1   8
TORSDOF 8
ENDMDL
