MODEL 1
REMARK VINA RESULT:    -6.059      0.000      0.000
REMARK INTER + INTRA:          -6.591
REMARK INTER:                  -6.591
REMARK INTRA:                   0.000
REMARK UNBOUND:                 0.000
REMARK SMILES Cc1cc(O)c2c(c1)C(=O)c1cc(O)cc(O)c1C2=O
REMARK SMILES IDX 1 1 2 2 8 3 7 4 6 5 4 6 3 7 19 8 20 9 18 10 11 11 9 12 10 13
REMARK SMILES IDX 12 14 13 15 15 16 16 17 5 18 17 20 14 22
REMARK H PARENT 5 19 17 21 14 23
REMARK Flexibility Score: inf
ROOT
ATOM      1  C   UNL     1     -41.407   4.053   1.109  1.00  0.00     0.044 C 
ATOM      2  C   UNL     1     -41.991   4.670  -0.128  1.00  0.00    -0.047 A 
ATOM      3  C   UNL     1     -41.415   4.420  -1.379  1.00  0.00     0.016 A 
ATOM      4  C   UNL     1     -41.980   4.957  -2.548  1.00  0.00     0.038 A 
ATOM      5  C   UNL     1     -43.156   5.735  -2.468  1.00  0.00     0.076 A 
ATOM      6  C   UNL     1     -43.709   6.024  -1.193  1.00  0.00     0.127 A 
ATOM      7  C   UNL     1     -43.141   5.462  -0.046  1.00  0.00     0.050 A 
ATOM      8  C   UNL     1     -43.804   6.161  -3.736  1.00  0.00     0.201 C 
ATOM      9  O   UNL     1     -45.053   6.323  -3.779  1.00  0.00    -0.288 OA
ATOM     10  C   UNL     1     -43.009   6.210  -4.990  1.00  0.00     0.076 A 
ATOM     11  C   UNL     1     -41.834   5.429  -5.067  1.00  0.00     0.041 A 
ATOM     12  C   UNL     1     -41.344   4.712  -3.865  1.00  0.00     0.194 C 
ATOM     13  O   UNL     1     -40.371   3.914  -3.958  1.00  0.00    -0.289 OA
ATOM     14  C   UNL     1     -41.131   5.341  -6.280  1.00  0.00     0.059 A 
ATOM     15  C   UNL     1     -41.577   6.032  -7.410  1.00  0.00     0.120 A 
ATOM     16  C   UNL     1     -42.713   6.834  -7.327  1.00  0.00     0.093 A 
ATOM     17  C   UNL     1     -43.419   6.956  -6.126  1.00  0.00     0.131 A 
ENDROOT
BRANCH   6  18
ATOM     18  O   UNL     1     -44.796   6.884  -1.019  1.00  0.00    -0.507 OA
ATOM     19  H   UNL     1     -45.689   6.756  -1.474  1.00  0.00     0.293 HD
ENDBRANCH   6  18
BRANCH  17  20
ATOM     20  O   UNL     1     -44.493   7.849  -6.096  1.00  0.00    -0.507 OA
ATOM     21  H   UNL     1     -44.385   8.853  -6.096  1.00  0.00     0.293 HD
ENDBRANCH  17  20
BRANCH  15  22
ATOM     22  O   UNL     1     -40.889   5.936  -8.618  1.00  0.00    -0.508 OA
ATOM     23  H   UNL     1     -40.820   6.723  -9.253  1.00  0.00     0.293 HD
ENDBRANCH  15  22
TORSDOF 3
ENDMDL
MODEL 2
REMARK VINA RESULT:    -5.959      1.625      5.598
REMARK INTER + INTRA:          -6.481
REMARK INTER:                  -6.481
REMARK INTRA:                   0.000
REMARK UNBOUND:                 0.000
REMARK SMILES Cc1cc(O)c2c(c1)C(=O)c1cc(O)cc(O)c1C2=O
REMARK SMILES IDX 1 1 2 2 8 3 7 4 6 5 4 6 3 7 19 8 20 9 18 10 11 11 9 12 10 13
REMARK SMILES IDX 12 14 13 15 15 16 16 17 5 18 17 20 14 22
REMARK H PARENT 5 19 17 21 14 23
REMARK Flexibility Score: inf
ROOT
ATOM      1  C   UNL     1     -41.650   5.284  -7.905  1.00  0.00     0.044 C 
ATOM      2  C   UNL     1     -42.069   5.611  -6.502  1.00  0.00    -0.047 A 
ATOM      3  C   UNL     1     -41.441   4.990  -5.417  1.00  0.00     0.016 A 
ATOM      4  C   UNL     1     -41.796   5.321  -4.099  1.00  0.00     0.038 A 
ATOM      5  C   UNL     1     -42.776   6.310  -3.860  1.00  0.00     0.076 A 
ATOM      6  C   UNL     1     -43.442   6.904  -4.964  1.00  0.00     0.127 A 
ATOM      7  C   UNL     1     -43.057   6.572  -6.267  1.00  0.00     0.050 A 
ATOM      8  C   UNL     1     -43.017   6.737  -2.458  1.00  0.00     0.201 C 
ATOM      9  O   UNL     1     -43.393   7.915  -2.216  1.00  0.00    -0.288 OA
ATOM     10  C   UNL     1     -42.634   5.839  -1.337  1.00  0.00     0.076 A 
ATOM     11  C   UNL     1     -41.653   4.852  -1.579  1.00  0.00     0.041 A 
ATOM     12  C   UNL     1     -41.147   4.634  -2.955  1.00  0.00     0.194 C 
ATOM     13  O   UNL     1     -40.182   3.846  -3.157  1.00  0.00    -0.289 OA
ATOM     14  C   UNL     1     -41.164   4.076  -0.514  1.00  0.00     0.059 A 
ATOM     15  C   UNL     1     -41.652   4.263   0.782  1.00  0.00     0.120 A 
ATOM     16  C   UNL     1     -42.649   5.208   1.017  1.00  0.00     0.093 A 
ATOM     17  C   UNL     1     -43.167   5.979  -0.029  1.00  0.00     0.131 A 
ENDROOT
BRANCH   6  18
ATOM     18  O   UNL     1     -44.505   7.797  -4.813  1.00  0.00    -0.507 OA
ATOM     19  H   UNL     1     -45.196   7.970  -5.529  1.00  0.00     0.293 HD
ENDBRANCH   6  18
BRANCH  17  20
ATOM     20  O   UNL     1     -44.226   6.840   0.267  1.00  0.00    -0.507 OA
ATOM     21  H   UNL     1     -44.189   7.545   0.989  1.00  0.00     0.293 HD
ENDBRANCH  17  20
BRANCH  15  22
ATOM     22  O   UNL     1     -41.161   3.504   1.842  1.00  0.00    -0.508 OA
ATOM     23  H   UNL     1     -41.688   2.729   2.229  1.00  0.00     0.293 HD
ENDBRANCH  15  22
TORSDOF 3
ENDMDL
MODEL 3
REMARK VINA RESULT:    -5.777      1.661      4.113
REMARK INTER + INTRA:          -6.284
REMARK INTER:                  -6.284
REMARK INTRA:                   0.000
REMARK UNBOUND:                 0.000
REMARK SMILES Cc1cc(O)c2c(c1)C(=O)c1cc(O)cc(O)c1C2=O
REMARK SMILES IDX 1 1 2 2 8 3 7 4 6 5 4 6 3 7 19 8 20 9 18 10 11 11 9 12 10 13
REMARK SMILES IDX 12 14 13 15 15 16 16 17 5 18 17 20 14 22
REMARK H PARENT 5 19 17 21 14 23
REMARK Flexibility Score: inf
ROOT
ATOM      1  C   UNL     1     -43.568   4.134   3.775  1.00  0.00     0.044 C 
ATOM      2  C   UNL     1     -43.006   4.117   2.384  1.00  0.00    -0.047 A 
ATOM      3  C   UNL     1     -43.385   5.096   1.459  1.00  0.00     0.016 A 
ATOM      4  C   UNL     1     -42.832   5.115   0.168  1.00  0.00     0.038 A 
ATOM      5  C   UNL     1     -41.861   4.155  -0.196  1.00  0.00     0.076 A 
ATOM      6  C   UNL     1     -41.514   3.137   0.730  1.00  0.00     0.127 A 
ATOM      7  C   UNL     1     -42.064   3.151   2.016  1.00  0.00     0.050 A 
ATOM      8  C   UNL     1     -41.193   4.297  -1.515  1.00  0.00     0.201 C 
ATOM      9  O   UNL     1     -40.009   3.894  -1.666  1.00  0.00    -0.288 OA
ATOM     10  C   UNL     1     -41.849   5.082  -2.594  1.00  0.00     0.076 A 
ATOM     11  C   UNL     1     -42.818   6.042  -2.226  1.00  0.00     0.041 A 
ATOM     12  C   UNL     1     -43.264   6.137  -0.815  1.00  0.00     0.194 C 
ATOM     13  O   UNL     1     -44.032   7.073  -0.457  1.00  0.00    -0.289 OA
ATOM     14  C   UNL     1     -43.360   6.897  -3.199  1.00  0.00     0.059 A 
ATOM     15  C   UNL     1     -42.958   6.797  -4.534  1.00  0.00     0.120 A 
ATOM     16  C   UNL     1     -42.032   5.825  -4.907  1.00  0.00     0.093 A 
ATOM     17  C   UNL     1     -41.493   4.948  -3.961  1.00  0.00     0.131 A 
ENDROOT
BRANCH   6  18
ATOM     18  O   UNL     1     -40.657   2.082   0.406  1.00  0.00    -0.507 OA
ATOM     19  H   UNL     1     -40.867   1.387  -0.295  1.00  0.00     0.293 HD
ENDBRANCH   6  18
BRANCH  17  20
ATOM     20  O   UNL     1     -40.641   3.942  -4.425  1.00  0.00    -0.507 OA
ATOM     21  H   UNL     1     -39.878   4.107  -5.065  1.00  0.00     0.293 HD
ENDBRANCH  17  20
BRANCH  15  22
ATOM     22  O   UNL     1     -43.484   7.652  -5.500  1.00  0.00    -0.508 OA
ATOM     23  H   UNL     1     -43.006   7.818  -6.379  1.00  0.00     0.293 HD
ENDBRANCH  15  22
TORSDOF 3
ENDMDL
MODEL 4
REMARK VINA RESULT:    -5.665      3.776      6.371
REMARK INTER + INTRA:          -6.162
REMARK INTER:                  -6.162
REMARK INTRA:                   0.000
REMARK UNBOUND:                 0.000
REMARK SMILES Cc1cc(O)c2c(c1)C(=O)c1cc(O)cc(O)c1C2=O
REMARK SMILES IDX 1 1 2 2 8 3 7 4 6 5 4 6 3 7 19 8 20 9 18 10 11 11 9 12 10 13
REMARK SMILES IDX 12 14 13 15 15 16 16 17 5 18 17 20 14 22
REMARK H PARENT 5 19 17 21 14 23
REMARK Flexibility Score: inf
ROOT
ATOM      1  C   UNL     1     -41.000   0.659   5.453  1.00  0.00     0.044 C 
ATOM      2  C   UNL     1     -41.504   1.930   4.835  1.00  0.00    -0.047 A 
ATOM      3  C   UNL     1     -41.491   2.090   3.445  1.00  0.00     0.016 A 
ATOM      4  C   UNL     1     -42.001   3.258   2.854  1.00  0.00     0.038 A 
ATOM      5  C   UNL     1     -42.559   4.272   3.665  1.00  0.00     0.076 A 
ATOM      6  C   UNL     1     -42.528   4.124   5.076  1.00  0.00     0.127 A 
ATOM      7  C   UNL     1     -42.033   2.944   5.640  1.00  0.00     0.050 A 
ATOM      8  C   UNL     1     -43.220   5.422   2.996  1.00  0.00     0.201 C 
ATOM      9  O   UNL     1     -44.178   6.011   3.562  1.00  0.00    -0.288 OA
ATOM     10  C   UNL     1     -42.877   5.753   1.588  1.00  0.00     0.076 A 
ATOM     11  C   UNL     1     -42.320   4.736   0.780  1.00  0.00     0.041 A 
ATOM     12  C   UNL     1     -41.953   3.433   1.382  1.00  0.00     0.194 C 
ATOM     13  O   UNL     1     -41.576   2.480   0.645  1.00  0.00    -0.289 OA
ATOM     14  C   UNL     1     -42.111   4.968  -0.590  1.00  0.00     0.059 A 
ATOM     15  C   UNL     1     -42.437   6.203  -1.158  1.00  0.00     0.120 A 
ATOM     16  C   UNL     1     -42.949   7.221  -0.356  1.00  0.00     0.093 A 
ATOM     17  C   UNL     1     -43.147   7.023   1.014  1.00  0.00     0.131 A 
ENDROOT
BRANCH   6  18
ATOM     18  O   UNL     1     -42.946   5.130   5.950  1.00  0.00    -0.507 OA
ATOM     19  H   UNL     1     -43.910   5.414   6.055  1.00  0.00     0.293 HD
ENDBRANCH   6  18
BRANCH  17  20
ATOM     20  O   UNL     1     -43.577   8.117   1.769  1.00  0.00    -0.507 OA
ATOM     21  H   UNL     1     -44.142   8.866   1.396  1.00  0.00     0.293 HD
ENDBRANCH  17  20
BRANCH  15  22
ATOM     22  O   UNL     1     -42.243   6.431  -2.519  1.00  0.00    -0.508 OA
ATOM     23  H   UNL     1     -41.495   5.979  -3.032  1.00  0.00     0.293 HD
ENDBRANCH  15  22
TORSDOF 3
ENDMDL
MODEL 5
REMARK VINA RESULT:    -5.664      4.303      8.806
REMARK INTER + INTRA:          -6.160
REMARK INTER:                  -6.160
REMARK INTRA:                   0.000
REMARK UNBOUND:                 0.000
REMARK SMILES Cc1cc(O)c2c(c1)C(=O)c1cc(O)cc(O)c1C2=O
REMARK SMILES IDX 1 1 2 2 8 3 7 4 6 5 4 6 3 7 19 8 20 9 18 10 11 11 9 12 10 13
REMARK SMILES IDX 12 14 13 15 15 16 16 17 5 18 17 20 14 22
REMARK H PARENT 5 19 17 21 14 23
REMARK Flexibility Score: inf
ROOT
ATOM      1  C   UNL     1     -43.565   7.862  -1.470  1.00  0.00     0.044 C 
ATOM      2  C   UNL     1     -43.019   6.765  -0.604  1.00  0.00    -0.047 A 
ATOM      3  C   UNL     1     -43.470   6.615   0.712  1.00  0.00     0.016 A 
ATOM      4  C   UNL     1     -42.997   5.565   1.517  1.00  0.00     0.038 A 
ATOM      5  C   UNL     1     -42.078   4.632   0.988  1.00  0.00     0.076 A 
ATOM      6  C   UNL     1     -41.589   4.815  -0.331  1.00  0.00     0.127 A 
ATOM      7  C   UNL     1     -42.089   5.856  -1.119  1.00  0.00     0.050 A 
ATOM      8  C   UNL     1     -41.716   3.454   1.819  1.00  0.00     0.201 C 
ATOM      9  O   UNL     1     -41.410   2.366   1.265  1.00  0.00    -0.288 OA
ATOM     10  C   UNL     1     -41.899   3.507   3.293  1.00  0.00     0.076 A 
ATOM     11  C   UNL     1     -42.821   4.441   3.818  1.00  0.00     0.041 A 
ATOM     12  C   UNL     1     -43.458   5.434   2.921  1.00  0.00     0.194 C 
ATOM     13  O   UNL     1     -44.374   6.185   3.357  1.00  0.00    -0.289 OA
ATOM     14  C   UNL     1     -43.124   4.429   5.190  1.00  0.00     0.059 A 
ATOM     15  C   UNL     1     -42.510   3.508   6.044  1.00  0.00     0.120 A 
ATOM     16  C   UNL     1     -41.571   2.612   5.536  1.00  0.00     0.093 A 
ATOM     17  C   UNL     1     -41.236   2.617   4.178  1.00  0.00     0.131 A 
ENDROOT
BRANCH   6  18
ATOM     18  O   UNL     1     -40.590   4.011  -0.884  1.00  0.00    -0.507 OA
ATOM     19  H   UNL     1     -39.796   3.666  -0.362  1.00  0.00     0.293 HD
ENDBRANCH   6  18
BRANCH  17  20
ATOM     20  O   UNL     1     -40.222   1.753   3.760  1.00  0.00    -0.507 OA
ATOM     21  H   UNL     1     -39.237   1.954   3.865  1.00  0.00     0.293 HD
ENDBRANCH  17  20
BRANCH  15  22
ATOM     22  O   UNL     1     -42.818   3.485   7.402  1.00  0.00    -0.508 OA
ATOM     23  H   UNL     1     -42.488   2.742   8.008  1.00  0.00     0.293 HD
ENDBRANCH  15  22
TORSDOF 3
ENDMDL
MODEL 6
REMARK VINA RESULT:    -5.599      2.231      6.376
REMARK INTER + INTRA:          -6.090
REMARK INTER:                  -6.090
REMARK INTRA:                   0.000
REMARK UNBOUND:                 0.000
REMARK SMILES Cc1cc(O)c2c(c1)C(=O)c1cc(O)cc(O)c1C2=O
REMARK SMILES IDX 1 1 2 2 8 3 7 4 6 5 4 6 3 7 19 8 20 9 18 10 11 11 9 12 10 13
REMARK SMILES IDX 12 14 13 15 15 16 16 17 5 18 17 20 14 22
REMARK H PARENT 5 19 17 21 14 23
REMARK Flexibility Score: inf
ROOT
ATOM      1  C   UNL     1     -40.866   4.751  -5.630  1.00  0.00     0.044 C 
ATOM      2  C   UNL     1     -41.497   5.057  -4.304  1.00  0.00    -0.047 A 
ATOM      3  C   UNL     1     -41.034   4.430  -3.142  1.00  0.00     0.016 A 
ATOM      4  C   UNL     1     -41.589   4.742  -1.890  1.00  0.00     0.038 A 
ATOM      5  C   UNL     1     -42.606   5.718  -1.793  1.00  0.00     0.076 A 
ATOM      6  C   UNL     1     -43.104   6.317  -2.980  1.00  0.00     0.127 A 
ATOM      7  C   UNL     1     -42.521   6.005  -4.212  1.00  0.00     0.050 A 
ATOM      8  C   UNL     1     -43.062   6.126  -0.439  1.00  0.00     0.201 C 
ATOM      9  O   UNL     1     -43.485   7.297  -0.246  1.00  0.00    -0.288 OA
ATOM     10  C   UNL     1     -42.843   5.219   0.718  1.00  0.00     0.076 A 
ATOM     11  C   UNL     1     -41.824   4.245   0.618  1.00  0.00     0.041 A 
ATOM     12  C   UNL     1     -41.113   4.049  -0.668  1.00  0.00     0.194 C 
ATOM     13  O   UNL     1     -40.119   3.274  -0.728  1.00  0.00    -0.289 OA
ATOM     14  C   UNL     1     -41.494   3.463   1.737  1.00  0.00     0.059 A 
ATOM     15  C   UNL     1     -42.176   3.630   2.946  1.00  0.00     0.120 A 
ATOM     16  C   UNL     1     -43.208   4.562   3.035  1.00  0.00     0.093 A 
ATOM     17  C   UNL     1     -43.570   5.339   1.931  1.00  0.00     0.131 A 
ENDROOT
BRANCH   6  18
ATOM     18  O   UNL     1     -44.188   7.198  -2.983  1.00  0.00    -0.507 OA
ATOM     19  H   UNL     1     -44.636   7.537  -2.144  1.00  0.00     0.293 HD
ENDBRANCH   6  18
BRANCH  17  20
ATOM     20  O   UNL     1     -44.673   6.185   2.070  1.00  0.00    -0.507 OA
ATOM     21  H   UNL     1     -44.601   7.191   2.134  1.00  0.00     0.293 HD
ENDBRANCH  17  20
BRANCH  15  22
ATOM     22  O   UNL     1     -41.842   2.864   4.061  1.00  0.00    -0.508 OA
ATOM     23  H   UNL     1     -41.933   3.229   5.002  1.00  0.00     0.293 HD
ENDBRANCH  15  22
TORSDOF 3
ENDMDL
MODEL 7
REMARK VINA RESULT:    -5.520      5.961      9.572
REMARK INTER + INTRA:          -6.004
REMARK INTER:                  -6.004
REMARK INTRA:                   0.000
REMARK UNBOUND:                 0.000
REMARK SMILES Cc1cc(O)c2c(c1)C(=O)c1cc(O)cc(O)c1C2=O
REMARK SMILES IDX 1 1 2 2 8 3 7 4 6 5 4 6 3 7 19 8 20 9 18 10 11 11 9 12 10 13
REMARK SMILES IDX 12 14 13 15 15 16 16 17 5 18 17 20 14 22
REMARK H PARENT 5 19 17 21 14 23
REMARK Flexibility Score: inf
ROOT
ATOM      1  C   UNL     1     -43.508   0.135   9.313  1.00  0.00     0.044 C 
ATOM      2  C   UNL     1     -43.026   0.519   7.945  1.00  0.00    -0.047 A 
ATOM      3  C   UNL     1     -43.757   1.427   7.170  1.00  0.00     0.016 A 
ATOM      4  C   UNL     1     -43.292   1.827   5.907  1.00  0.00     0.038 A 
ATOM      5  C   UNL     1     -42.062   1.332   5.420  1.00  0.00     0.076 A 
ATOM      6  C   UNL     1     -41.347   0.377   6.189  1.00  0.00     0.127 A 
ATOM      7  C   UNL     1     -41.821   0.010   7.453  1.00  0.00     0.050 A 
ATOM      8  C   UNL     1     -41.533   1.891   4.148  1.00  0.00     0.201 C 
ATOM      9  O   UNL     1     -40.290   1.955   3.960  1.00  0.00    -0.288 OA
ATOM     10  C   UNL     1     -42.461   2.544   3.188  1.00  0.00     0.076 A 
ATOM     11  C   UNL     1     -43.690   3.038   3.679  1.00  0.00     0.041 A 
ATOM     12  C   UNL     1     -44.090   2.765   5.079  1.00  0.00     0.194 C 
ATOM     13  O   UNL     1     -45.122   3.309   5.560  1.00  0.00    -0.289 OA
ATOM     14  C   UNL     1     -44.532   3.782   2.835  1.00  0.00     0.059 A 
ATOM     15  C   UNL     1     -44.169   4.025   1.507  1.00  0.00     0.120 A 
ATOM     16  C   UNL     1     -42.975   3.505   1.009  1.00  0.00     0.093 A 
ATOM     17  C   UNL     1     -42.130   2.744   1.822  1.00  0.00     0.131 A 
ENDROOT
BRANCH   6  18
ATOM     18  O   UNL     1     -40.189  -0.251   5.727  1.00  0.00    -0.507 OA
ATOM     19  H   UNL     1     -39.484  -0.643   6.336  1.00  0.00     0.293 HD
ENDBRANCH   6  18
BRANCH  17  20
ATOM     20  O   UNL     1     -40.998   2.180   1.229  1.00  0.00    -0.507 OA
ATOM     21  H   UNL     1     -40.268   1.714   1.748  1.00  0.00     0.293 HD
ENDBRANCH  17  20
BRANCH  15  22
ATOM     22  O   UNL     1     -44.995   4.773   0.670  1.00  0.00    -0.508 OA
ATOM     23  H   UNL     1     -45.896   4.424   0.364  1.00  0.00     0.293 HD
ENDBRANCH  15  22
TORSDOF 3
ENDMDL
MODEL 8
REMARK VINA RESULT:    -5.217      5.953      9.885
REMARK INTER + INTRA:          -5.674
REMARK INTER:                  -5.674
REMARK INTRA:                   0.000
REMARK UNBOUND:                 0.000
REMARK SMILES Cc1cc(O)c2c(c1)C(=O)c1cc(O)cc(O)c1C2=O
REMARK SMILES IDX 1 1 2 2 8 3 7 4 6 5 4 6 3 7 19 8 20 9 18 10 11 11 9 12 10 13
REMARK SMILES IDX 12 14 13 15 15 16 16 17 5 18 17 20 14 22
REMARK H PARENT 5 19 17 21 14 23
REMARK Flexibility Score: inf
ROOT
ATOM      1  C   UNL     1     -43.569   6.690  -0.016  1.00  0.00     0.044 C 
ATOM      2  C   UNL     1     -43.348   6.214   1.390  1.00  0.00    -0.047 A 
ATOM      3  C   UNL     1     -42.839   4.932   1.628  1.00  0.00     0.016 A 
ATOM      4  C   UNL     1     -42.587   4.493   2.938  1.00  0.00     0.038 A 
ATOM      5  C   UNL     1     -42.821   5.360   4.029  1.00  0.00     0.076 A 
ATOM      6  C   UNL     1     -43.380   6.642   3.785  1.00  0.00     0.127 A 
ATOM      7  C   UNL     1     -43.604   7.064   2.471  1.00  0.00     0.050 A 
ATOM      8  C   UNL     1     -42.404   4.914   5.383  1.00  0.00     0.201 C 
ATOM      9  O   UNL     1     -42.050   5.764   6.242  1.00  0.00    -0.288 OA
ATOM     10  C   UNL     1     -42.225   3.465   5.660  1.00  0.00     0.076 A 
ATOM     11  C   UNL     1     -41.990   2.601   4.567  1.00  0.00     0.041 A 
ATOM     12  C   UNL     1     -42.079   3.121   3.182  1.00  0.00     0.194 C 
ATOM     13  O   UNL     1     -41.746   2.390   2.209  1.00  0.00    -0.289 OA
ATOM     14  C   UNL     1     -41.679   1.250   4.797  1.00  0.00     0.059 A 
ATOM     15  C   UNL     1     -41.615   0.750   6.101  1.00  0.00     0.120 A 
ATOM     16  C   UNL     1     -41.886   1.590   7.179  1.00  0.00     0.093 A 
ATOM     17  C   UNL     1     -42.218   2.933   6.976  1.00  0.00     0.131 A 
ENDROOT
BRANCH   6  18
ATOM     18  O   UNL     1     -43.755   7.510   4.814  1.00  0.00    -0.507 OA
ATOM     19  H   UNL     1     -44.372   8.299   4.682  1.00  0.00     0.293 HD
ENDBRANCH   6  18
BRANCH  17  20
ATOM     20  O   UNL     1     -42.565   3.689   8.098  1.00  0.00    -0.507 OA
ATOM     21  H   UNL     1     -41.900   4.221   8.641  1.00  0.00     0.293 HD
ENDBRANCH  17  20
BRANCH  15  22
ATOM     22  O   UNL     1     -41.295  -0.586   6.333  1.00  0.00    -0.508 OA
ATOM     23  H   UNL     1     -41.271  -0.970   7.271  1.00  0.00     0.293 HD
ENDBRANCH  15  22
TORSDOF 3
ENDMDL
MODEL 9
REMARK VINA RESULT:    -5.175      7.270     11.873
REMARK INTER + INTRA:          -5.628
REMARK INTER:                  -5.628
REMARK INTRA:                   0.000
REMARK UNBOUND:                 0.000
REMARK SMILES Cc1cc(O)c2c(c1)C(=O)c1cc(O)cc(O)c1C2=O
REMARK SMILES IDX 1 1 2 2 8 3 7 4 6 5 4 6 3 7 19 8 20 9 18 10 11 11 9 12 10 13
REMARK SMILES IDX 12 14 13 15 15 16 16 17 5 18 17 20 14 22
REMARK H PARENT 5 19 17 21 14 23
REMARK Flexibility Score: inf
ROOT
ATOM      1  C   UNL     1     -42.229   3.433   1.090  1.00  0.00     0.044 C 
ATOM      2  C   UNL     1     -42.265   3.449   2.590  1.00  0.00    -0.047 A 
ATOM      3  C   UNL     1     -41.701   2.396   3.319  1.00  0.00     0.016 A 
ATOM      4  C   UNL     1     -41.691   2.422   4.723  1.00  0.00     0.038 A 
ATOM      5  C   UNL     1     -42.230   3.532   5.411  1.00  0.00     0.076 A 
ATOM      6  C   UNL     1     -42.842   4.575   4.668  1.00  0.00     0.127 A 
ATOM      7  C   UNL     1     -42.822   4.536   3.271  1.00  0.00     0.050 A 
ATOM      8  C   UNL     1     -42.068   3.591   6.887  1.00  0.00     0.201 C 
ATOM      9  O   UNL     1     -41.984   4.707   7.465  1.00  0.00    -0.288 OA
ATOM     10  C   UNL     1     -41.817   2.341   7.652  1.00  0.00     0.076 A 
ATOM     11  C   UNL     1     -41.276   1.234   6.961  1.00  0.00     0.041 A 
ATOM     12  C   UNL     1     -41.119   1.287   5.488  1.00  0.00     0.194 C 
ATOM     13  O   UNL     1     -40.521   0.356   4.882  1.00  0.00    -0.289 OA
ATOM     14  C   UNL     1     -40.896   0.084   7.672  1.00  0.00     0.059 A 
ATOM     15  C   UNL     1     -41.061   0.020   9.059  1.00  0.00     0.120 A 
ATOM     16  C   UNL     1     -41.631   1.096   9.738  1.00  0.00     0.093 A 
ATOM     17  C   UNL     1     -42.037   2.244   9.050  1.00  0.00     0.131 A 
ENDROOT
BRANCH   6  18
ATOM     18  O   UNL     1     -43.505   5.645   5.274  1.00  0.00    -0.507 OA
ATOM     19  H   UNL     1     -44.482   5.624   5.531  1.00  0.00     0.293 HD
ENDBRANCH   6  18
BRANCH  17  20
ATOM     20  O   UNL     1     -42.682   3.242   9.785  1.00  0.00    -0.507 OA
ATOM     21  H   UNL     1     -43.618   3.147  10.154  1.00  0.00     0.293 HD
ENDBRANCH  17  20
BRANCH  15  22
ATOM     22  O   UNL     1     -40.673  -1.114   9.769  1.00  0.00    -0.508 OA
ATOM     23  H   UNL     1     -39.696  -1.354   9.893  1.00  0.00     0.293 HD
ENDBRANCH  15  22
TORSDOF 3
ENDMDL
