MODEL 1
REMARK VINA RESULT:    -4.507      0.000      0.000
REMARK INTER + INTRA:          -6.063
REMARK INTER:                  -6.351
REMARK INTRA:                   0.288
REMARK UNBOUND:                 0.288
REMARK SMILES CC1=CCC(=C(C)C)C(=O)CC(C)=CCC1
REMARK SMILES IDX 12 1 14 2 13 3 15 4 16 5 2 6 1 7 3 8 11 10 9 11 10 12 5 13
REMARK SMILES IDX 6 14 7 15 8 16 4 17
REMARK H PARENT
REMARK Flexibility Score: 60.00
ROOT
ATOM      1  C   UNL     1      54.068  31.468  31.989  1.00  0.00    -0.070 C 
ATOM      2  C   UNL     1      53.018  30.867  31.380  1.00  0.00    -0.027 C 
ATOM      3  C   UNL     1      55.447  30.920  31.718  1.00  0.00     0.039 C 
ENDROOT
BRANCH   2   4
ATOM      4  C   UNL     1      51.578  31.292  31.515  1.00  0.00     0.032 C 
BRANCH   4   5
ATOM      5  C   UNL     1      51.240  32.428  30.534  1.00  0.00     0.034 C 
BRANCH   5   6
ATOM      6  C   UNL     1      50.662  33.656  31.212  1.00  0.00    -0.077 C 
ATOM      7  C   UNL     1      49.263  33.580  31.771  1.00  0.00     0.039 C 
ATOM      8  C   UNL     1      51.299  34.853  31.274  1.00  0.00    -0.023 CG0
ATOM      9  G   UNL     1      52.731  35.142  30.879  1.00  0.00     0.000 G0
ENDBRANCH   5   6
ENDBRANCH   4   5
ENDBRANCH   2   4
BRANCH   1  10
ATOM     10  C   UNL     1      53.922  32.654  32.933  1.00  0.00     0.111 C 
BRANCH  10  11
ATOM     11  C   UNL     1      54.518  33.911  32.342  1.00  0.00     0.163 C 
ATOM     12  O   UNL     1      55.751  33.881  32.081  1.00  0.00    -0.294 OA
BRANCH  11  13
ATOM     13  C   UNL     1      53.726  35.157  32.043  1.00  0.00    -0.002 C 
ATOM     14  C   UNL     1      53.893  36.299  32.783  1.00  0.00    -0.069 C 
ATOM     15  C   UNL     1      53.156  37.578  32.445  1.00  0.00     0.039 C 
ATOM     16  C   UNL     1      54.778  36.337  34.009  1.00  0.00     0.039 C 
BRANCH  13  17
ATOM     17  C   UNL     1      52.730  35.145  30.885  1.00  0.00     0.066 CG0
ATOM     18  G   UNL     1      51.304  34.834  31.285  1.00  0.00     0.000 G0
ENDBRANCH  13  17
ENDBRANCH  11  13
ENDBRANCH  10  11
ENDBRANCH   1  10
TORSDOF 0
ENDMDL
MODEL 2
REMARK VINA RESULT:    -4.355      1.788      3.161
REMARK INTER + INTRA:          -5.850
REMARK INTER:                  -6.302
REMARK INTRA:                   0.452
REMARK UNBOUND:                 0.288
REMARK SMILES CC1=CCC(=C(C)C)C(=O)CC(C)=CCC1
REMARK SMILES IDX 12 1 14 2 13 3 15 4 16 5 2 6 1 7 3 8 11 10 9 11 10 12 5 13
REMARK SMILES IDX 6 14 7 15 8 16 4 17
REMARK H PARENT
REMARK Flexibility Score: 60.00
ROOT
ATOM      1  C   UNL     1      54.878  33.558  32.320  1.00  0.00    -0.070 C 
ATOM      2  C   UNL     1      54.989  32.207  32.331  1.00  0.00    -0.027 C 
ATOM      3  C   UNL     1      55.864  34.352  33.140  1.00  0.00     0.039 C 
ENDROOT
BRANCH   2   4
ATOM      4  C   UNL     1      54.109  31.259  31.557  1.00  0.00     0.032 C 
BRANCH   4   5
ATOM      5  C   UNL     1      52.790  30.993  32.303  1.00  0.00     0.034 C 
BRANCH   5   6
ATOM      6  C   UNL     1      51.558  31.258  31.458  1.00  0.00    -0.077 C 
ATOM      7  C   UNL     1      51.259  30.328  30.308  1.00  0.00     0.039 C 
ATOM      8  C   UNL     1      50.749  32.334  31.621  1.00  0.00    -0.023 CG0
ATOM      9  G   UNL     1      50.787  33.336  32.755  1.00  0.00     0.000 G0
ENDBRANCH   5   6
ENDBRANCH   4   5
ENDBRANCH   2   4
BRANCH   1  10
ATOM     10  C   UNL     1      53.808  34.302  31.535  1.00  0.00     0.111 C 
BRANCH  10  11
ATOM     11  C   UNL     1      52.803  34.961  32.452  1.00  0.00     0.163 C 
ATOM     12  O   UNL     1      53.262  35.775  33.299  1.00  0.00    -0.294 OA
BRANCH  11  13
ATOM     13  C   UNL     1      51.318  34.710  32.393  1.00  0.00    -0.002 C 
ATOM     14  C   UNL     1      50.447  35.695  32.006  1.00  0.00    -0.069 C 
ATOM     15  C   UNL     1      48.961  35.433  31.872  1.00  0.00     0.039 C 
ATOM     16  C   UNL     1      50.906  37.112  31.740  1.00  0.00     0.039 C 
BRANCH  13  17
ATOM     17  C   UNL     1      50.782  33.328  32.760  1.00  0.00     0.066 CG0
ATOM     18  G   UNL     1      50.767  32.335  31.618  1.00  0.00     0.000 G0
ENDBRANCH  13  17
ENDBRANCH  11  13
ENDBRANCH  10  11
ENDBRANCH   1  10
TORSDOF 0
ENDMDL
MODEL 3
REMARK VINA RESULT:    -4.345      1.967      3.809
REMARK INTER + INTRA:          -5.836
REMARK INTER:                  -6.165
REMARK INTRA:                   0.330
REMARK UNBOUND:                 0.288
REMARK SMILES CC1=CCC(=C(C)C)C(=O)CC(C)=CCC1
REMARK SMILES IDX 12 1 14 2 13 3 15 4 16 5 2 6 1 7 3 8 11 10 9 11 10 12 5 13
REMARK SMILES IDX 6 14 7 15 8 16 4 17
REMARK H PARENT
REMARK Flexibility Score: 60.00
ROOT
ATOM      1  C   UNL     1      51.439  31.336  31.400  1.00  0.00    -0.070 C 
ATOM      2  C   UNL     1      52.752  31.055  31.585  1.00  0.00    -0.027 C 
ATOM      3  C   UNL     1      50.637  30.405  30.525  1.00  0.00     0.039 C 
ENDROOT
BRANCH   2   4
ATOM      4  C   UNL     1      53.697  31.859  32.441  1.00  0.00     0.032 C 
BRANCH   4   5
ATOM      5  C   UNL     1      54.364  32.981  31.627  1.00  0.00     0.034 C 
BRANCH   5   6
ATOM      6  C   UNL     1      54.233  34.349  32.269  1.00  0.00    -0.077 C 
ATOM      7  C   UNL     1      55.110  34.678  33.452  1.00  0.00     0.039 C 
ATOM      8  C   UNL     1      53.311  35.271  31.896  1.00  0.00    -0.023 CG0
ATOM      9  G   UNL     1      52.402  35.210  30.687  1.00  0.00     0.000 G0
ENDBRANCH   5   6
ENDBRANCH   4   5
ENDBRANCH   2   4
BRANCH   1  10
ATOM     10  C   UNL     1      50.745  32.540  32.020  1.00  0.00     0.111 C 
BRANCH  10  11
ATOM     11  C   UNL     1      50.395  33.577  30.978  1.00  0.00     0.163 C 
ATOM     12  O   UNL     1      49.595  33.218  30.072  1.00  0.00    -0.294 OA
BRANCH  11  13
ATOM     13  C   UNL     1      50.930  34.986  30.980  1.00  0.00    -0.002 C 
ATOM     14  C   UNL     1      50.116  36.053  31.259  1.00  0.00    -0.069 C 
ATOM     15  C   UNL     1      50.658  37.466  31.336  1.00  0.00     0.039 C 
ATOM     16  C   UNL     1      48.624  35.895  31.455  1.00  0.00     0.039 C 
BRANCH  13  17
ATOM     17  C   UNL     1      52.408  35.221  30.676  1.00  0.00     0.066 CG0
ATOM     18  G   UNL     1      53.301  35.271  31.896  1.00  0.00     0.000 G0
ENDBRANCH  13  17
ENDBRANCH  11  13
ENDBRANCH  10  11
ENDBRANCH   1  10
TORSDOF 0
ENDMDL
MODEL 4
REMARK VINA RESULT:    -4.242      1.959      4.260
REMARK INTER + INTRA:          -5.690
REMARK INTER:                  -6.168
REMARK INTRA:                   0.478
REMARK UNBOUND:                 0.288
REMARK SMILES CC1=CCC(=C(C)C)C(=O)CC(C)=CCC1
REMARK SMILES IDX 12 1 14 2 13 3 15 4 16 5 2 6 1 7 3 8 11 10 9 11 10 12 5 13
REMARK SMILES IDX 6 14 7 15 8 16 4 17
REMARK H PARENT
REMARK Flexibility Score: 60.00
ROOT
ATOM      1  C   UNL     1      53.691  35.197  31.843  1.00  0.00    -0.070 C 
ATOM      2  C   UNL     1      54.382  34.045  32.026  1.00  0.00    -0.027 C 
ATOM      3  C   UNL     1      54.208  36.442  32.519  1.00  0.00     0.039 C 
ENDROOT
BRANCH   2   4
ATOM      4  C   UNL     1      54.026  32.715  31.411  1.00  0.00     0.032 C 
BRANCH   4   5
ATOM      5  C   UNL     1      52.988  31.969  32.267  1.00  0.00     0.034 C 
BRANCH   5   6
ATOM      6  C   UNL     1      51.737  31.589  31.498  1.00  0.00    -0.077 C 
ATOM      7  C   UNL     1      51.824  30.475  30.483  1.00  0.00     0.039 C 
ATOM      8  C   UNL     1      50.556  32.248  31.606  1.00  0.00    -0.023 CG0
ATOM      9  G   UNL     1      50.202  33.316  32.618  1.00  0.00     0.000 G0
ENDBRANCH   5   6
ENDBRANCH   4   5
ENDBRANCH   2   4
BRANCH   1  10
ATOM     10  C   UNL     1      52.425  35.289  31.003  1.00  0.00     0.111 C 
BRANCH  10  11
ATOM     11  C   UNL     1      51.218  35.617  31.851  1.00  0.00     0.163 C 
ATOM     12  O   UNL     1      51.241  36.721  32.461  1.00  0.00    -0.294 OA
BRANCH  11  13
ATOM     13  C   UNL     1      50.015  34.720  31.986  1.00  0.00    -0.002 C 
ATOM     14  C   UNL     1      48.776  35.126  31.562  1.00  0.00    -0.069 C 
ATOM     15  C   UNL     1      47.575  34.205  31.626  1.00  0.00     0.039 C 
ATOM     16  C   UNL     1      48.522  36.529  31.057  1.00  0.00     0.039 C 
BRANCH  13  17
ATOM     17  C   UNL     1      50.188  33.330  32.596  1.00  0.00     0.066 CG0
ATOM     18  G   UNL     1      50.545  32.246  31.602  1.00  0.00     0.000 G0
ENDBRANCH  13  17
ENDBRANCH  11  13
ENDBRANCH  10  11
ENDBRANCH   1  10
TORSDOF 0
ENDMDL
MODEL 5
REMARK VINA RESULT:    -4.058      1.792      2.571
REMARK INTER + INTRA:          -5.431
REMARK INTER:                  -5.581
REMARK INTRA:                   0.150
REMARK UNBOUND:                 0.288
REMARK SMILES CC1=CCC(=C(C)C)C(=O)CC(C)=CCC1
REMARK SMILES IDX 12 1 14 2 13 3 15 4 16 5 2 6 1 7 3 8 11 10 9 11 10 12 5 13
REMARK SMILES IDX 6 14 7 15 8 16 4 17
REMARK H PARENT
REMARK Flexibility Score: 60.00
ROOT
ATOM      1  C   UNL     1      53.280  33.168  31.837  1.00  0.00    -0.070 C 
ATOM      2  C   UNL     1      52.261  32.287  31.984  1.00  0.00    -0.027 C 
ATOM      3  C   UNL     1      54.584  32.856  32.529  1.00  0.00     0.039 C 
ENDROOT
BRANCH   2   4
ATOM      4  C   UNL     1      50.900  32.423  31.350  1.00  0.00     0.032 C 
BRANCH   4   5
ATOM      5  C   UNL     1      49.901  33.082  32.317  1.00  0.00     0.034 C 
BRANCH   5   6
ATOM      6  C   UNL     1      49.065  34.169  31.670  1.00  0.00    -0.077 C 
ATOM      7  C   UNL     1      47.873  33.765  30.838  1.00  0.00     0.039 C 
ATOM      8  C   UNL     1      49.373  35.490  31.724  1.00  0.00    -0.023 CG0
ATOM      9  G   UNL     1      50.447  36.138  32.570  1.00  0.00     0.000 G0
ENDBRANCH   5   6
ENDBRANCH   4   5
ENDBRANCH   2   4
BRANCH   1  10
ATOM     10  C   UNL     1      53.168  34.449  31.024  1.00  0.00     0.111 C 
BRANCH  10  11
ATOM     11  C   UNL     1      52.924  35.650  31.909  1.00  0.00     0.163 C 
ATOM     12  O   UNL     1      53.809  35.904  32.770  1.00  0.00    -0.294 OA
BRANCH  11  13
ATOM     13  C   UNL     1      51.714  36.541  31.802  1.00  0.00    -0.002 C 
ATOM     14  C   UNL     1      51.733  37.675  31.032  1.00  0.00    -0.069 C 
ATOM     15  C   UNL     1      50.500  38.538  30.860  1.00  0.00     0.039 C 
ATOM     16  C   UNL     1      52.994  38.160  30.351  1.00  0.00     0.039 C 
BRANCH  13  17
ATOM     17  C   UNL     1      50.443  36.163  32.560  1.00  0.00     0.066 CG0
ATOM     18  G   UNL     1      49.389  35.476  31.719  1.00  0.00     0.000 G0
ENDBRANCH  13  17
ENDBRANCH  11  13
ENDBRANCH  10  11
ENDBRANCH   1  10
TORSDOF 0
ENDMDL
MODEL 6
REMARK VINA RESULT:    -4.057      1.807      3.689
REMARK INTER + INTRA:          -5.429
REMARK INTER:                  -5.542
REMARK INTRA:                   0.113
REMARK UNBOUND:                 0.288
REMARK SMILES CC1=CCC(=C(C)C)C(=O)CC(C)=CCC1
REMARK SMILES IDX 12 1 14 2 13 3 15 4 16 5 2 6 1 7 3 8 11 10 9 11 10 12 5 13
REMARK SMILES IDX 6 14 7 15 8 16 4 17
REMARK H PARENT
REMARK Flexibility Score: 60.00
ROOT
ATOM      1  C   UNL     1      50.736  34.704  31.895  1.00  0.00    -0.070 C 
ATOM      2  C   UNL     1      50.410  33.432  31.563  1.00  0.00    -0.027 C 
ATOM      3  C   UNL     1      49.950  35.822  31.256  1.00  0.00     0.039 C 
ENDROOT
BRANCH   2   4
ATOM      4  C   UNL     1      51.069  32.195  32.118  1.00  0.00     0.032 C 
BRANCH   4   5
ATOM      5  C   UNL     1      52.335  31.836  31.320  1.00  0.00     0.034 C 
BRANCH   5   6
ATOM      6  C   UNL     1      53.513  31.462  32.199  1.00  0.00    -0.077 C 
ATOM      7  C   UNL     1      53.465  30.157  32.954  1.00  0.00     0.039 C 
ATOM      8  C   UNL     1      54.580  32.273  32.415  1.00  0.00    -0.023 CG0
ATOM      9  G   UNL     1      54.896  33.568  31.698  1.00  0.00     0.000 G0
ENDBRANCH   5   6
ENDBRANCH   4   5
ENDBRANCH   2   4
BRANCH   1  10
ATOM     10  C   UNL     1      51.854  35.055  32.867  1.00  0.00     0.111 C 
BRANCH  10  11
ATOM     11  C   UNL     1      53.123  35.433  32.139  1.00  0.00     0.163 C 
ATOM     12  O   UNL     1      53.017  36.313  31.242  1.00  0.00    -0.294 OA
BRANCH  11  13
ATOM     13  C   UNL     1      54.475  34.838  32.438  1.00  0.00    -0.002 C 
ATOM     14  C   UNL     1      55.313  35.408  33.361  1.00  0.00    -0.069 C 
ATOM     15  C   UNL     1      56.642  34.778  33.723  1.00  0.00     0.039 C 
ATOM     16  C   UNL     1      54.988  36.724  34.034  1.00  0.00     0.039 C 
BRANCH  13  17
ATOM     17  C   UNL     1      54.908  33.570  31.705  1.00  0.00     0.066 CG0
ATOM     18  G   UNL     1      54.576  32.282  32.426  1.00  0.00     0.000 G0
ENDBRANCH  13  17
ENDBRANCH  11  13
ENDBRANCH  10  11
ENDBRANCH   1  10
TORSDOF 0
ENDMDL
MODEL 7
REMARK VINA RESULT:    -4.041      1.878      3.778
REMARK INTER + INTRA:          -5.407
REMARK INTER:                  -5.771
REMARK INTRA:                   0.364
REMARK UNBOUND:                 0.288
REMARK SMILES CC1=CCC(=C(C)C)C(=O)CC(C)=CCC1
REMARK SMILES IDX 12 1 14 2 13 3 15 4 16 5 2 6 1 7 3 8 11 10 9 11 10 12 5 13
REMARK SMILES IDX 6 14 7 15 8 16 4 17
REMARK H PARENT
REMARK Flexibility Score: 60.00
ROOT
ATOM      1  C   UNL     1      51.372  32.821  31.272  1.00  0.00    -0.070 C 
ATOM      2  C   UNL     1      51.837  31.559  31.438  1.00  0.00    -0.027 C 
ATOM      3  C   UNL     1      49.886  33.045  31.399  1.00  0.00     0.039 C 
ENDROOT
BRANCH   2   4
ATOM      4  C   UNL     1      53.288  31.154  31.369  1.00  0.00     0.032 C 
BRANCH   4   5
ATOM      5  C   UNL     1      54.062  31.654  32.602  1.00  0.00     0.034 C 
BRANCH   5   6
ATOM      6  C   UNL     1      55.294  32.466  32.250  1.00  0.00    -0.077 C 
ATOM      7  C   UNL     1      56.359  31.825  31.394  1.00  0.00     0.039 C 
ATOM      8  C   UNL     1      55.538  33.711  32.728  1.00  0.00    -0.023 CG0
ATOM      9  G   UNL     1      54.583  34.587  33.510  1.00  0.00     0.000 G0
ENDBRANCH   5   6
ENDBRANCH   4   5
ENDBRANCH   2   4
BRANCH   1  10
ATOM     10  C   UNL     1      52.270  34.009  30.957  1.00  0.00     0.111 C 
BRANCH  10  11
ATOM     11  C   UNL     1      52.380  34.949  32.135  1.00  0.00     0.163 C 
ATOM     12  O   UNL     1      51.302  35.268  32.705  1.00  0.00    -0.294 OA
BRANCH  11  13
ATOM     13  C   UNL     1      53.685  35.495  32.657  1.00  0.00    -0.002 C 
ATOM     14  C   UNL     1      54.073  36.782  32.390  1.00  0.00    -0.069 C 
ATOM     15  C   UNL     1      55.346  37.363  32.971  1.00  0.00     0.039 C 
ATOM     16  C   UNL     1      53.286  37.681  31.463  1.00  0.00     0.039 C 
BRANCH  13  17
ATOM     17  C   UNL     1      54.580  34.595  33.507  1.00  0.00     0.066 CG0
ATOM     18  G   UNL     1      55.529  33.722  32.715  1.00  0.00     0.000 G0
ENDBRANCH  13  17
ENDBRANCH  11  13
ENDBRANCH  10  11
ENDBRANCH   1  10
TORSDOF 0
ENDMDL
MODEL 8
REMARK VINA RESULT:    -4.005      1.781      2.947
REMARK INTER + INTRA:          -5.356
REMARK INTER:                  -5.649
REMARK INTRA:                   0.293
REMARK UNBOUND:                 0.288
REMARK SMILES CC1=CCC(=C(C)C)C(=O)CC(C)=CCC1
REMARK SMILES IDX 12 1 14 2 13 3 15 4 16 5 2 6 1 7 3 8 11 10 9 11 10 12 5 13
REMARK SMILES IDX 6 14 7 15 8 16 4 17
REMARK H PARENT
REMARK Flexibility Score: 60.00
ROOT
ATOM      1  C   UNL     1      50.461  32.693  31.551  1.00  0.00    -0.070 C 
ATOM      2  C   UNL     1      49.343  33.351  31.161  1.00  0.00    -0.027 C 
ATOM      3  C   UNL     1      50.778  31.382  30.874  1.00  0.00     0.039 C 
ENDROOT
BRANCH   2   4
ATOM      4  C   UNL     1      48.883  34.679  31.708  1.00  0.00     0.032 C 
BRANCH   4   5
ATOM      5  C   UNL     1      49.459  35.846  30.888  1.00  0.00     0.034 C 
BRANCH   5   6
ATOM      6  C   UNL     1      50.236  36.844  31.725  1.00  0.00    -0.077 C 
ATOM      7  C   UNL     1      49.468  37.845  32.552  1.00  0.00     0.039 C 
ATOM      8  C   UNL     1      51.589  36.947  31.712  1.00  0.00    -0.023 CG0
ATOM      9  G   UNL     1      52.566  36.000  31.050  1.00  0.00     0.000 G0
ENDBRANCH   5   6
ENDBRANCH   4   5
ENDBRANCH   2   4
BRANCH   1  10
ATOM     10  C   UNL     1      51.398  33.204  32.636  1.00  0.00     0.111 C 
BRANCH  10  11
ATOM     11  C   UNL     1      52.744  33.593  32.070  1.00  0.00     0.163 C 
ATOM     12  O   UNL     1      53.460  32.655  31.626  1.00  0.00    -0.294 OA
BRANCH  11  13
ATOM     13  C   UNL     1      53.249  35.011  31.997  1.00  0.00    -0.002 C 
ATOM     14  C   UNL     1      54.306  35.427  32.763  1.00  0.00    -0.069 C 
ATOM     15  C   UNL     1      54.869  36.829  32.644  1.00  0.00     0.039 C 
ATOM     16  C   UNL     1      54.941  34.536  33.807  1.00  0.00     0.039 C 
BRANCH  13  17
ATOM     17  C   UNL     1      52.574  35.992  31.041  1.00  0.00     0.066 CG0
ATOM     18  G   UNL     1      51.598  36.943  31.701  1.00  0.00     0.000 G0
ENDBRANCH  13  17
ENDBRANCH  11  13
ENDBRANCH  10  11
ENDBRANCH   1  10
TORSDOF 0
ENDMDL
MODEL 9
REMARK VINA RESULT:    -3.895      1.777      2.289
REMARK INTER + INTRA:          -5.201
REMARK INTER:                  -5.467
REMARK INTRA:                   0.266
REMARK UNBOUND:                 0.288
REMARK SMILES CC1=CCC(=C(C)C)C(=O)CC(C)=CCC1
REMARK SMILES IDX 12 1 14 2 13 3 15 4 16 5 2 6 1 7 3 8 11 10 9 11 10 12 5 13
REMARK SMILES IDX 6 14 7 15 8 16 4 17
REMARK H PARENT
REMARK Flexibility Score: 60.00
ROOT
ATOM      1  C   UNL     1      55.205  31.669  31.633  1.00  0.00    -0.070 C 
ATOM      2  C   UNL     1      53.900  31.302  31.644  1.00  0.00    -0.027 C 
ATOM      3  C   UNL     1      56.235  30.616  31.959  1.00  0.00     0.039 C 
ENDROOT
BRANCH   2   4
ATOM      4  C   UNL     1      52.742  32.211  31.323  1.00  0.00     0.032 C 
BRANCH   4   5
ATOM      5  C   UNL     1      52.497  33.220  32.458  1.00  0.00     0.034 C 
BRANCH   5   6
ATOM      6  C   UNL     1      52.306  34.642  31.967  1.00  0.00    -0.077 C 
ATOM      7  C   UNL     1      51.190  34.925  30.992  1.00  0.00     0.039 C 
ATOM      8  C   UNL     1      53.134  35.668  32.288  1.00  0.00    -0.023 CG0
ATOM      9  G   UNL     1      54.246  35.651  33.314  1.00  0.00     0.000 G0
ENDBRANCH   5   6
ENDBRANCH   4   5
ENDBRANCH   2   4
BRANCH   1  10
ATOM     10  C   UNL     1      55.674  33.082  31.318  1.00  0.00     0.111 C 
BRANCH  10  11
ATOM     11  C   UNL     1      55.989  33.856  32.578  1.00  0.00     0.163 C 
ATOM     12  O   UNL     1      56.602  33.229  33.485  1.00  0.00    -0.294 OA
BRANCH  11  13
ATOM     13  C   UNL     1      55.632  35.305  32.788  1.00  0.00    -0.002 C 
ATOM     14  C   UNL     1      56.523  36.304  32.496  1.00  0.00    -0.069 C 
ATOM     15  C   UNL     1      56.149  37.766  32.633  1.00  0.00     0.039 C 
ATOM     16  C   UNL     1      57.945  36.012  32.070  1.00  0.00     0.039 C 
BRANCH  13  17
ATOM     17  C   UNL     1      54.247  35.658  33.325  1.00  0.00     0.066 CG0
ATOM     18  G   UNL     1      53.152  35.674  32.280  1.00  0.00     0.000 G0
ENDBRANCH  13  17
ENDBRANCH  11  13
ENDBRANCH  10  11
ENDBRANCH   1  10
TORSDOF 0
ENDMDL
