MODEL 1
REMARK VINA RESULT:    -1.910      0.000      0.000
REMARK INTER + INTRA:          -4.526
REMARK INTER:                  -2.916
REMARK INTRA:                  -1.611
REMARK UNBOUND:                -1.611
REMARK SMILES CC(=O)CCC=C(C)CCC=C(C)CCC=C(C)C
REMARK SMILES IDX 10 1 11 2 12 3 13 4 14 5 15 6 16 7 18 8 17 9 19 10 9 11 7 12
REMARK SMILES IDX 6 13 8 14 5 15 4 16 2 17 3 18 1 19
REMARK H PARENT
REMARK Flexibility Score: inf
ROOT
ATOM      1  C   UNL     1       6.977  -3.239  -3.787  1.00  0.00     0.032 C 
ENDROOT
BRANCH   1   2
ATOM      2  C   UNL     1       8.437  -3.003  -3.492  1.00  0.00    -0.028 C 
ATOM      3  C   UNL     1       9.454  -3.475  -4.248  1.00  0.00    -0.077 C 
ATOM      4  C   UNL     1       9.205  -4.232  -5.532  1.00  0.00     0.039 C 
BRANCH   3   5
ATOM      5  C   UNL     1      10.880  -3.238  -3.799  1.00  0.00     0.034 C 
BRANCH   5   6
ATOM      6  C   UNL     1      11.080  -3.685  -2.348  1.00  0.00     0.032 C 
BRANCH   6   7
ATOM      7  C   UNL     1      10.937  -5.182  -2.223  1.00  0.00    -0.028 C 
ATOM      8  C   UNL     1       9.883  -5.049   0.050  1.00  0.00     0.039 C 
ATOM      9  C   UNL     1      10.415  -5.811  -1.144  1.00  0.00    -0.080 C 
ATOM     10  C   UNL     1      10.355  -7.319  -1.152  1.00  0.00     0.039 C 
ENDBRANCH   6   7
ENDBRANCH   5   6
ENDBRANCH   3   5
ENDBRANCH   1   2
BRANCH   1  11
ATOM     11  C   UNL     1       6.096  -2.415  -2.836  1.00  0.00     0.034 C 
BRANCH  11  12
ATOM     12  C   UNL     1       6.123  -2.991  -1.437  1.00  0.00    -0.077 C 
ATOM     13  C   UNL     1       5.599  -4.217  -1.221  1.00  0.00    -0.028 C 
ATOM     14  C   UNL     1       6.727  -2.175  -0.322  1.00  0.00     0.039 C 
BRANCH  13  15
ATOM     15  C   UNL     1       5.632  -4.939   0.108  1.00  0.00     0.035 C 
BRANCH  15  16
ATOM     16  C   UNL     1       4.669  -6.131   0.122  1.00  0.00     0.079 C 
BRANCH  16  17
ATOM     17  C   UNL     1       5.406  -7.445   0.119  1.00  0.00     0.130 C 
ATOM     18  O   UNL     1       4.774  -8.492   0.124  1.00  0.00    -0.300 OA
ATOM     19  C   UNL     1       6.906  -7.494   0.123  1.00  0.00     0.087 C 
ENDBRANCH  16  17
ENDBRANCH  15  16
ENDBRANCH  13  15
ENDBRANCH  11  12
ENDBRANCH   1  11
TORSDOF 9
ENDMDL
MODEL 2
REMARK VINA RESULT:    -1.341      1.879      3.603
REMARK INTER + INTRA:          -3.657
REMARK INTER:                  -2.400
REMARK INTRA:                  -1.257
REMARK UNBOUND:                -1.611
REMARK SMILES CC(=O)CCC=C(C)CCC=C(C)CCC=C(C)C
REMARK SMILES IDX 10 1 11 2 12 3 13 4 14 5 15 6 16 7 18 8 17 9 19 10 9 11 7 12
REMARK SMILES IDX 6 13 8 14 5 15 4 16 2 17 3 18 1 19
REMARK H PARENT
REMARK Flexibility Score: inf
ROOT
ATOM      1  C   UNL     1       6.914  -3.455  -3.612  1.00  0.00     0.032 C 
ENDROOT
BRANCH   1   2
ATOM      2  C   UNL     1       7.927  -2.804  -4.522  1.00  0.00    -0.028 C 
ATOM      3  C   UNL     1       9.227  -2.616  -4.205  1.00  0.00    -0.077 C 
ATOM      4  C   UNL     1       9.811  -3.129  -2.909  1.00  0.00     0.039 C 
BRANCH   3   5
ATOM      5  C   UNL     1      10.124  -1.875  -5.173  1.00  0.00     0.034 C 
BRANCH   5   6
ATOM      6  C   UNL     1      11.086  -2.838  -5.875  1.00  0.00     0.032 C 
BRANCH   6   7
ATOM      7  C   UNL     1      10.712  -3.007  -7.328  1.00  0.00    -0.028 C 
ATOM      8  C   UNL     1       9.380  -5.090  -6.906  1.00  0.00     0.039 C 
ATOM      9  C   UNL     1       9.959  -4.023  -7.808  1.00  0.00    -0.080 C 
ATOM     10  C   UNL     1       9.684  -4.073  -9.292  1.00  0.00     0.039 C 
ENDBRANCH   6   7
ENDBRANCH   5   6
ENDBRANCH   3   5
ENDBRANCH   1   2
BRANCH   1  11
ATOM     11  C   UNL     1       6.315  -2.422  -2.647  1.00  0.00     0.034 C 
BRANCH  11  12
ATOM     12  C   UNL     1       5.994  -3.052  -1.310  1.00  0.00    -0.077 C 
ATOM     13  C   UNL     1       6.095  -4.392  -1.173  1.00  0.00    -0.028 C 
ATOM     14  C   UNL     1       5.561  -2.166  -0.169  1.00  0.00     0.039 C 
BRANCH  13  15
ATOM     15  C   UNL     1       5.880  -5.138   0.125  1.00  0.00     0.035 C 
BRANCH  15  16
ATOM     16  C   UNL     1       4.702  -6.113   0.023  1.00  0.00     0.079 C 
BRANCH  16  17
ATOM     17  C   UNL     1       5.166  -7.543  -0.077  1.00  0.00     0.130 C 
ATOM     18  O   UNL     1       6.356  -7.800   0.032  1.00  0.00    -0.300 OA
ATOM     19  C   UNL     1       4.193  -8.659  -0.321  1.00  0.00     0.087 C 
ENDBRANCH  16  17
ENDBRANCH  15  16
ENDBRANCH  13  15
ENDBRANCH  11  12
ENDBRANCH   1  11
TORSDOF 9
ENDMDL
MODEL 3
REMARK VINA RESULT:    -0.914      2.082      4.470
REMARK INTER + INTRA:          -3.006
REMARK INTER:                  -3.312
REMARK INTRA:                   0.306
REMARK UNBOUND:                -1.611
REMARK SMILES CC(=O)CCC=C(C)CCC=C(C)CCC=C(C)C
REMARK SMILES IDX 10 1 11 2 12 3 13 4 14 5 15 6 16 7 18 8 17 9 19 10 9 11 7 12
REMARK SMILES IDX 6 13 8 14 5 15 4 16 2 17 3 18 1 19
REMARK H PARENT
REMARK Flexibility Score: inf
ROOT
ATOM      1  C   UNL     1      10.376  -3.327  -3.547  1.00  0.00     0.032 C 
ENDROOT
BRANCH   1   2
ATOM      2  C   UNL     1      10.548  -4.078  -4.843  1.00  0.00    -0.028 C 
ATOM      3  C   UNL     1      10.905  -5.379  -4.930  1.00  0.00    -0.077 C 
ATOM      4  C   UNL     1      11.090  -6.236  -3.699  1.00  0.00     0.039 C 
BRANCH   3   5
ATOM      5  C   UNL     1      11.124  -5.995  -6.295  1.00  0.00     0.034 C 
BRANCH   5   6
ATOM      6  C   UNL     1       9.949  -5.691  -7.229  1.00  0.00     0.032 C 
BRANCH   6   7
ATOM      7  C   UNL     1       9.471  -4.271  -7.046  1.00  0.00    -0.028 C 
ATOM      8  C   UNL     1      10.606  -3.453  -9.127  1.00  0.00     0.039 C 
ATOM      9  C   UNL     1       9.771  -3.251  -7.882  1.00  0.00    -0.080 C 
ATOM     10  C   UNL     1       9.238  -1.876  -7.558  1.00  0.00     0.039 C 
ENDBRANCH   6   7
ENDBRANCH   5   6
ENDBRANCH   3   5
ENDBRANCH   1   2
BRANCH   1  11
ATOM     11  C   UNL     1       8.917  -2.883  -3.371  1.00  0.00     0.034 C 
BRANCH  11  12
ATOM     12  C   UNL     1       8.491  -2.985  -1.922  1.00  0.00    -0.077 C 
ATOM     13  C   UNL     1       7.194  -2.781  -1.602  1.00  0.00    -0.028 C 
ATOM     14  C   UNL     1       9.529  -3.304  -0.875  1.00  0.00     0.039 C 
BRANCH  13  15
ATOM     15  C   UNL     1       6.624  -2.929  -0.210  1.00  0.00     0.035 C 
BRANCH  15  16
ATOM     16  C   UNL     1       5.491  -3.961  -0.175  1.00  0.00     0.079 C 
BRANCH  16  17
ATOM     17  C   UNL     1       6.016  -5.364  -0.019  1.00  0.00     0.130 C 
ATOM     18  O   UNL     1       7.217  -5.547   0.125  1.00  0.00    -0.300 OA
ATOM     19  C   UNL     1       5.093  -6.547  -0.052  1.00  0.00     0.087 C 
ENDBRANCH  16  17
ENDBRANCH  15  16
ENDBRANCH  13  15
ENDBRANCH  11  12
ENDBRANCH   1  11
TORSDOF 9
ENDMDL
MODEL 4
REMARK VINA RESULT:    -0.614      2.746      5.796
REMARK INTER + INTRA:          -2.548
REMARK INTER:                  -2.343
REMARK INTRA:                  -0.205
REMARK UNBOUND:                -1.611
REMARK SMILES CC(=O)CCC=C(C)CCC=C(C)CCC=C(C)C
REMARK SMILES IDX 10 1 11 2 12 3 13 4 14 5 15 6 16 7 18 8 17 9 19 10 9 11 7 12
REMARK SMILES IDX 6 13 8 14 5 15 4 16 2 17 3 18 1 19
REMARK H PARENT
REMARK Flexibility Score: inf
ROOT
ATOM      1  C   UNL     1       8.608  -2.756  -4.305  1.00  0.00     0.032 C 
ENDROOT
BRANCH   1   2
ATOM      2  C   UNL     1       8.782  -2.419  -2.845  1.00  0.00    -0.028 C 
ATOM      3  C   UNL     1       9.698  -2.993  -2.034  1.00  0.00    -0.077 C 
ATOM      4  C   UNL     1      10.708  -3.990  -2.555  1.00  0.00     0.039 C 
BRANCH   3   5
ATOM      5  C   UNL     1       9.718  -2.626  -0.565  1.00  0.00     0.034 C 
BRANCH   5   6
ATOM      6  C   UNL     1       8.296  -2.443  -0.027  1.00  0.00     0.032 C 
BRANCH   6   7
ATOM      7  C   UNL     1       7.568  -3.764   0.027  1.00  0.00    -0.028 C 
ATOM      8  C   UNL     1       5.488  -2.842  -1.027  1.00  0.00     0.039 C 
ATOM      9  C   UNL     1       6.300  -3.955  -0.404  1.00  0.00    -0.080 C 
ATOM     10  C   UNL     1       5.694  -5.331  -0.266  1.00  0.00     0.039 C 
ENDBRANCH   6   7
ENDBRANCH   5   6
ENDBRANCH   3   5
ENDBRANCH   1   2
BRANCH   1  11
ATOM     11  C   UNL     1       9.520  -1.877  -5.173  1.00  0.00     0.034 C 
BRANCH  11  12
ATOM     12  C   UNL     1      10.291  -2.715  -6.170  1.00  0.00    -0.077 C 
ATOM     13  C   UNL     1      10.445  -4.037  -5.938  1.00  0.00    -0.028 C 
ATOM     14  C   UNL     1      10.874  -2.047  -7.391  1.00  0.00     0.039 C 
BRANCH  13  15
ATOM     15  C   UNL     1      11.123  -4.998  -6.888  1.00  0.00     0.035 C 
BRANCH  15  16
ATOM     16  C   UNL     1      10.575  -6.421  -6.732  1.00  0.00     0.079 C 
BRANCH  16  17
ATOM     17  C   UNL     1      10.840  -6.976  -5.357  1.00  0.00     0.130 C 
ATOM     18  O   UNL     1      10.835  -6.224  -4.392  1.00  0.00    -0.300 OA
ATOM     19  C   UNL     1      11.125  -8.434  -5.150  1.00  0.00     0.087 C 
ENDBRANCH  16  17
ENDBRANCH  15  16
ENDBRANCH  13  15
ENDBRANCH  11  12
ENDBRANCH   1  11
TORSDOF 9
ENDMDL
MODEL 5
REMARK VINA RESULT:    -0.595     23.706     25.332
REMARK INTER + INTRA:          -2.518
REMARK INTER:                  -4.579
REMARK INTRA:                   2.061
REMARK UNBOUND:                -1.611
REMARK SMILES CC(=O)CCC=C(C)CCC=C(C)CCC=C(C)C
REMARK SMILES IDX 10 1 11 2 12 3 13 4 14 5 15 6 16 7 18 8 17 9 19 10 9 11 7 12
REMARK SMILES IDX 6 13 8 14 5 15 4 16 2 17 3 18 1 19
REMARK H PARENT
REMARK Flexibility Score: inf
ROOT
ATOM      1  C   UNL     1      -1.124 -20.954 -18.854  1.00  0.00     0.032 C 
ENDROOT
BRANCH   1   2
ATOM      2  C   UNL     1       0.123 -21.403 -19.576  1.00  0.00    -0.028 C 
ATOM      3  C   UNL     1       1.325 -21.580 -18.985  1.00  0.00    -0.077 C 
ATOM      4  C   UNL     1       1.509 -21.418 -17.494  1.00  0.00     0.039 C 
BRANCH   3   5
ATOM      5  C   UNL     1       2.519 -21.955 -19.837  1.00  0.00     0.034 C 
BRANCH   5   6
ATOM      6  C   UNL     1       3.393 -20.730 -20.125  1.00  0.00     0.032 C 
BRANCH   6   7
ATOM      7  C   UNL     1       3.496 -19.845 -18.907  1.00  0.00    -0.028 C 
ATOM      8  C   UNL     1       1.553 -18.413 -19.587  1.00  0.00     0.039 C 
ATOM      9  C   UNL     1       2.686 -18.791 -18.659  1.00  0.00    -0.080 C 
ATOM     10  C   UNL     1       2.923 -17.982 -17.406  1.00  0.00     0.039 C 
ENDBRANCH   6   7
ENDBRANCH   5   6
ENDBRANCH   3   5
ENDBRANCH   1   2
BRANCH   1  11
ATOM     11  C   UNL     1      -1.721 -22.113 -18.042  1.00  0.00     0.034 C 
BRANCH  11  12
ATOM     12  C   UNL     1      -3.228 -21.998 -17.965  1.00  0.00    -0.077 C 
ATOM     13  C   UNL     1      -3.948 -22.001 -19.108  1.00  0.00    -0.028 C 
ATOM     14  C   UNL     1      -3.884 -21.876 -16.612  1.00  0.00     0.039 C 
BRANCH  13  15
ATOM     15  C   UNL     1      -5.459 -21.972 -19.168  1.00  0.00     0.035 C 
BRANCH  15  16
ATOM     16  C   UNL     1      -5.965 -20.774 -19.978  1.00  0.00     0.079 C 
BRANCH  16  17
ATOM     17  C   UNL     1      -5.107 -19.553 -19.768  1.00  0.00     0.130 C 
ATOM     18  O   UNL     1      -5.607 -18.536 -19.309  1.00  0.00    -0.300 OA
ATOM     19  C   UNL     1      -3.650 -19.559 -20.125  1.00  0.00     0.087 C 
ENDBRANCH  16  17
ENDBRANCH  15  16
ENDBRANCH  13  15
ENDBRANCH  11  12
ENDBRANCH   1  11
TORSDOF 9
ENDMDL
MODEL 6
REMARK VINA RESULT:    -0.590      2.078      2.990
REMARK INTER + INTRA:          -2.511
REMARK INTER:                  -2.280
REMARK INTRA:                  -0.231
REMARK UNBOUND:                -1.611
REMARK SMILES CC(=O)CCC=C(C)CCC=C(C)CCC=C(C)C
REMARK SMILES IDX 10 1 11 2 12 3 13 4 14 5 15 6 16 7 18 8 17 9 19 10 9 11 7 12
REMARK SMILES IDX 6 13 8 14 5 15 4 16 2 17 3 18 1 19
REMARK H PARENT
REMARK Flexibility Score: inf
ROOT
ATOM      1  C   UNL     1       7.211  -3.735  -3.849  1.00  0.00     0.032 C 
ENDROOT
BRANCH   1   2
ATOM      2  C   UNL     1       7.873  -3.220  -5.103  1.00  0.00    -0.028 C 
ATOM      3  C   UNL     1       8.963  -2.421  -5.117  1.00  0.00    -0.077 C 
ATOM      4  C   UNL     1       9.680  -2.033  -3.844  1.00  0.00     0.039 C 
BRANCH   3   5
ATOM      5  C   UNL     1       9.484  -1.905  -6.441  1.00  0.00     0.034 C 
BRANCH   5   6
ATOM      6  C   UNL     1      10.782  -2.616  -6.835  1.00  0.00     0.032 C 
BRANCH   6   7
ATOM      7  C   UNL     1      11.120  -3.704  -5.844  1.00  0.00    -0.028 C 
ATOM      8  C   UNL     1       9.922  -5.481  -7.147  1.00  0.00     0.039 C 
ATOM      9  C   UNL     1      10.728  -4.993  -5.963  1.00  0.00    -0.080 C 
ATOM     10  C   UNL     1      11.124  -5.967  -4.880  1.00  0.00     0.039 C 
ENDBRANCH   6   7
ENDBRANCH   5   6
ENDBRANCH   3   5
ENDBRANCH   1   2
BRANCH   1  11
ATOM     11  C   UNL     1       6.455  -2.604  -3.137  1.00  0.00     0.034 C 
BRANCH  11  12
ATOM     12  C   UNL     1       5.995  -3.042  -1.763  1.00  0.00    -0.077 C 
ATOM     13  C   UNL     1       6.442  -4.214  -1.262  1.00  0.00    -0.028 C 
ATOM     14  C   UNL     1       5.042  -2.159  -0.995  1.00  0.00     0.039 C 
BRANCH  13  15
ATOM     15  C   UNL     1       6.124  -4.728   0.124  1.00  0.00     0.035 C 
BRANCH  15  16
ATOM     16  C   UNL     1       4.873  -5.614   0.120  1.00  0.00     0.079 C 
BRANCH  16  17
ATOM     17  C   UNL     1       5.225  -7.079   0.096  1.00  0.00     0.130 C 
ATOM     18  O   UNL     1       6.400  -7.417   0.093  1.00  0.00    -0.300 OA
ATOM     19  C   UNL     1       4.157  -8.133   0.062  1.00  0.00     0.087 C 
ENDBRANCH  16  17
ENDBRANCH  15  16
ENDBRANCH  13  15
ENDBRANCH  11  12
ENDBRANCH   1  11
TORSDOF 9
ENDMDL
MODEL 7
REMARK VINA RESULT:     0.020     15.128     17.189
REMARK INTER + INTRA:          -1.581
REMARK INTER:                  -2.222
REMARK INTRA:                   0.642
REMARK UNBOUND:                -1.611
REMARK SMILES CC(=O)CCC=C(C)CCC=C(C)CCC=C(C)C
REMARK SMILES IDX 10 1 11 2 12 3 13 4 14 5 15 6 16 7 18 8 17 9 19 10 9 11 7 12
REMARK SMILES IDX 6 13 8 14 5 15 4 16 2 17 3 18 1 19
REMARK H PARENT
REMARK Flexibility Score: inf
ROOT
ATOM      1  C   UNL     1      -6.418  -7.151  -5.885  1.00  0.00     0.032 C 
ENDROOT
BRANCH   1   2
ATOM      2  C   UNL     1      -7.676  -7.140  -5.052  1.00  0.00    -0.028 C 
ATOM      3  C   UNL     1      -7.829  -6.432  -3.911  1.00  0.00    -0.077 C 
ATOM      4  C   UNL     1      -6.752  -5.502  -3.402  1.00  0.00     0.039 C 
BRANCH   3   5
ATOM      5  C   UNL     1      -9.114  -6.570  -3.123  1.00  0.00     0.034 C 
BRANCH   5   6
ATOM      6  C   UNL     1      -8.861  -6.381  -1.624  1.00  0.00     0.032 C 
BRANCH   6   7
ATOM      7  C   UNL     1      -9.075  -4.942  -1.220  1.00  0.00    -0.028 C 
ATOM      8  C   UNL     1      -6.788  -4.718  -0.217  1.00  0.00     0.039 C 
ATOM      9  C   UNL     1      -8.158  -4.187  -0.574  1.00  0.00    -0.080 C 
ATOM     10  C   UNL     1      -8.523  -2.766  -0.214  1.00  0.00     0.039 C 
ENDBRANCH   6   7
ENDBRANCH   5   6
ENDBRANCH   3   5
ENDBRANCH   1   2
BRANCH   1  11
ATOM     11  C   UNL     1      -6.539  -6.166  -7.056  1.00  0.00     0.034 C 
BRANCH  11  12
ATOM     12  C   UNL     1      -7.856  -5.422  -7.004  1.00  0.00    -0.077 C 
ATOM     13  C   UNL     1      -7.863  -4.123  -6.635  1.00  0.00    -0.028 C 
ATOM     14  C   UNL     1      -9.125  -6.157  -7.358  1.00  0.00     0.039 C 
BRANCH  13  15
ATOM     15  C   UNL     1      -9.095  -3.246  -6.618  1.00  0.00     0.035 C 
BRANCH  15  16
ATOM     16  C   UNL     1      -8.947  -2.052  -7.567  1.00  0.00     0.079 C 
BRANCH  16  17
ATOM     17  C   UNL     1      -7.815  -2.249  -8.541  1.00  0.00     0.130 C 
ATOM     18  O   UNL     1      -6.661  -2.232  -8.136  1.00  0.00    -0.300 OA
ATOM     19  C   UNL     1      -8.076  -2.451 -10.005  1.00  0.00     0.087 C 
ENDBRANCH  16  17
ENDBRANCH  15  16
ENDBRANCH  13  15
ENDBRANCH  11  12
ENDBRANCH   1  11
TORSDOF 9
ENDMDL
