MODEL 1
REMARK VINA RESULT:    -4.243      0.000      0.000
REMARK INTER + INTRA:          -5.246
REMARK INTER:                  -5.111
REMARK INTRA:                  -0.134
REMARK UNBOUND:                -0.134
REMARK SMILES CC[C@H](C)[C@H]([NH3+])C(=O)[O-]
REMARK SMILES IDX 3 1 4 2 5 3 6 4 7 8 8 9 9 10 2 11 1 12
REMARK H PARENT 6 5 6 6 6 7
REMARK Flexibility Score: inf
ROOT
ATOM      1  C   UNL     1     160.346 151.712 230.710  1.00  0.00     0.050 C 
ATOM      2  C   UNL     1     159.370 151.098 229.681  1.00  0.00     0.014 C 
ENDROOT
BRANCH   1   3
ATOM      3  C   UNL     1     161.442 152.557 229.981  1.00  0.00     0.230 C 
BRANCH   3   4
ATOM      4  N   UNL     1     162.758 151.902 230.005  1.00  0.00    -0.350 N 
ATOM      5  H   UNL     1     163.140 151.822 229.035  1.00  0.00     0.345 HD
ATOM      6  H   UNL     1     162.693 150.953 230.440  1.00  0.00     0.345 HD
ATOM      7  H   UNL     1     163.440 152.478 230.550  1.00  0.00     0.345 HD
ENDBRANCH   3   4
BRANCH   3   8
ATOM      8  C   UNL     1     161.563 153.928 230.603  1.00  0.00     0.099 C 
ATOM      9  O   UNL     1     161.953 154.905 229.912  1.00  0.00    -0.544 OA
ATOM     10  O   UNL     1     161.250 154.117 231.944  1.00  0.00    -0.544 OA
ENDBRANCH   3   8
ENDBRANCH   1   3
BRANCH   1  11
ATOM     11  C   UNL     1     160.977 150.601 231.593  1.00  0.00     0.006 C 
ATOM     12  C   UNL     1     160.568 150.684 233.066  1.00  0.00     0.004 C 
ENDBRANCH   1  11
TORSDOF 4
ENDMDL
MODEL 2
REMARK VINA RESULT:    -4.190     13.030     14.406
REMARK INTER + INTRA:          -5.181
REMARK INTER:                  -5.094
REMARK INTRA:                  -0.088
REMARK UNBOUND:                -0.134
REMARK SMILES CC[C@H](C)[C@H]([NH3+])C(=O)[O-]
REMARK SMILES IDX 3 1 4 2 5 3 6 4 7 8 8 9 9 10 2 11 1 12
REMARK H PARENT 6 5 6 6 6 7
REMARK Flexibility Score: inf
ROOT
ATOM      1  C   UNL     1     157.722 166.435 230.930  1.00  0.00     0.050 C 
ATOM      2  C   UNL     1     158.632 167.274 230.005  1.00  0.00     0.014 C 
ENDROOT
BRANCH   1   3
ATOM      3  C   UNL     1     156.724 165.582 230.080  1.00  0.00     0.230 C 
BRANCH   3   4
ATOM      4  N   UNL     1     155.399 166.213 229.977  1.00  0.00    -0.350 N 
ATOM      5  H   UNL     1     154.762 165.840 230.717  1.00  0.00     0.345 HD
ATOM      6  H   UNL     1     154.982 166.047 229.033  1.00  0.00     0.345 HD
ATOM      7  H   UNL     1     155.475 167.244 230.137  1.00  0.00     0.345 HD
ENDBRANCH   3   4
BRANCH   3   8
ATOM      8  C   UNL     1     156.566 164.199 230.666  1.00  0.00     0.099 C 
ATOM      9  O   UNL     1     156.093 163.265 229.967  1.00  0.00    -0.544 OA
ATOM     10  O   UNL     1     156.938 163.951 231.982  1.00  0.00    -0.544 OA
ENDBRANCH   3   8
ENDBRANCH   1   3
BRANCH   1  11
ATOM     11  C   UNL     1     156.976 167.350 231.937  1.00  0.00     0.006 C 
ATOM     12  C   UNL     1     157.519 167.260 233.365  1.00  0.00     0.004 C 
ENDBRANCH   1  11
TORSDOF 4
ENDMDL
MODEL 3
REMARK VINA RESULT:    -4.094     13.273     14.258
REMARK INTER + INTRA:          -5.066
REMARK INTER:                  -4.971
REMARK INTRA:                  -0.095
REMARK UNBOUND:                -0.134
REMARK SMILES CC[C@H](C)[C@H]([NH3+])C(=O)[O-]
REMARK SMILES IDX 3 1 4 2 5 3 6 4 7 8 8 9 9 10 2 11 1 12
REMARK H PARENT 6 5 6 6 6 7
REMARK Flexibility Score: inf
ROOT
ATOM      1  C   UNL     1     160.263 157.755 218.604  1.00  0.00     0.050 C 
ATOM      2  C   UNL     1     159.200 158.739 219.141  1.00  0.00     0.014 C 
ENDROOT
BRANCH   1   3
ATOM      3  C   UNL     1     159.802 157.151 217.237  1.00  0.00     0.230 C 
BRANCH   3   4
ATOM      4  N   UNL     1     160.152 155.728 217.110  1.00  0.00    -0.350 N 
ATOM      5  H   UNL     1     159.321 155.131 217.322  1.00  0.00     0.345 HD
ATOM      6  H   UNL     1     160.939 155.481 217.753  1.00  0.00     0.345 HD
ATOM      7  H   UNL     1     160.437 155.511 216.127  1.00  0.00     0.345 HD
ENDBRANCH   3   4
BRANCH   3   8
ATOM      8  C   UNL     1     160.409 157.912 216.082  1.00  0.00     0.099 C 
ATOM      9  O   UNL     1     161.491 157.526 215.568  1.00  0.00    -0.544 OA
ATOM     10  O   UNL     1     159.778 159.046 215.584  1.00  0.00    -0.544 OA
ENDBRANCH   3   8
ENDBRANCH   1   3
BRANCH   1  11
ATOM     11  C   UNL     1     160.556 156.644 219.648  1.00  0.00     0.006 C 
ATOM     12  C   UNL     1     159.405 156.407 220.629  1.00  0.00     0.004 C 
ENDBRANCH   1  11
TORSDOF 4
ENDMDL
MODEL 4
REMARK VINA RESULT:    -4.093     15.166     16.196
REMARK INTER + INTRA:          -5.064
REMARK INTER:                  -4.974
REMARK INTRA:                  -0.090
REMARK UNBOUND:                -0.134
REMARK SMILES CC[C@H](C)[C@H]([NH3+])C(=O)[O-]
REMARK SMILES IDX 3 1 4 2 5 3 6 4 7 8 8 9 9 10 2 11 1 12
REMARK H PARENT 6 5 6 6 6 7
REMARK Flexibility Score: inf
ROOT
ATOM      1  C   UNL     1     157.602 160.414 218.556  1.00  0.00     0.050 C 
ATOM      2  C   UNL     1     158.571 159.361 219.138  1.00  0.00     0.014 C 
ENDROOT
BRANCH   1   3
ATOM      3  C   UNL     1     158.182 161.012 217.233  1.00  0.00     0.230 C 
BRANCH   3   4
ATOM      4  N   UNL     1     157.889 162.447 217.096  1.00  0.00    -0.350 N 
ATOM      5  H   UNL     1     158.337 162.827 216.231  1.00  0.00     0.345 HD
ATOM      6  H   UNL     1     158.228 162.976 217.932  1.00  0.00     0.345 HD
ATOM      7  H   UNL     1     156.859 162.599 216.993  1.00  0.00     0.345 HD
ENDBRANCH   3   4
BRANCH   3   8
ATOM      8  C   UNL     1     157.636 160.282 216.030  1.00  0.00     0.099 C 
ATOM      9  O   UNL     1     158.212 159.248 215.601  1.00  0.00    -0.544 OA
ATOM     10  O   UNL     1     156.496 160.749 215.385  1.00  0.00    -0.544 OA
ENDBRANCH   3   8
ENDBRANCH   1   3
BRANCH   1  11
ATOM     11  C   UNL     1     157.308 161.522 219.603  1.00  0.00     0.006 C 
ATOM     12  C   UNL     1     158.422 161.699 220.638  1.00  0.00     0.004 C 
ENDBRANCH   1  11
TORSDOF 4
ENDMDL
MODEL 5
REMARK VINA RESULT:    -3.967     14.300     15.370
REMARK INTER + INTRA:          -4.913
REMARK INTER:                  -4.817
REMARK INTRA:                  -0.096
REMARK UNBOUND:                -0.134
REMARK SMILES CC[C@H](C)[C@H]([NH3+])C(=O)[O-]
REMARK SMILES IDX 3 1 4 2 5 3 6 4 7 8 8 9 9 10 2 11 1 12
REMARK H PARENT 6 5 6 6 6 7
REMARK Flexibility Score: inf
ROOT
ATOM      1  C   UNL     1     158.837 160.075 218.168  1.00  0.00     0.050 C 
ATOM      2  C   UNL     1     158.548 158.959 219.197  1.00  0.00     0.014 C 
ENDROOT
BRANCH   1   3
ATOM      3  C   UNL     1     157.940 161.323 218.453  1.00  0.00     0.230 C 
BRANCH   3   4
ATOM      4  N   UNL     1     158.023 162.325 217.380  1.00  0.00    -0.350 N 
ATOM      5  H   UNL     1     158.015 161.857 216.445  1.00  0.00     0.345 HD
ATOM      6  H   UNL     1     158.888 162.904 217.479  1.00  0.00     0.345 HD
ATOM      7  H   UNL     1     157.188 162.956 217.408  1.00  0.00     0.345 HD
ENDBRANCH   3   4
BRANCH   3   8
ATOM      8  C   UNL     1     158.323 161.971 219.762  1.00  0.00     0.099 C 
ATOM      9  O   UNL     1     157.457 162.150 220.658  1.00  0.00    -0.544 OA
ATOM     10  O   UNL     1     159.634 162.378 219.983  1.00  0.00    -0.544 OA
ENDBRANCH   3   8
ENDBRANCH   1   3
BRANCH   1  11
ATOM     11  C   UNL     1     158.638 159.547 216.721  1.00  0.00     0.006 C 
ATOM     12  C   UNL     1     159.591 158.409 216.347  1.00  0.00     0.004 C 
ENDBRANCH   1  11
TORSDOF 4
ENDMDL
MODEL 6
REMARK VINA RESULT:    -3.963     10.612     11.739
REMARK INTER + INTRA:          -4.909
REMARK INTER:                  -4.824
REMARK INTRA:                  -0.085
REMARK UNBOUND:                -0.134
REMARK SMILES CC[C@H](C)[C@H]([NH3+])C(=O)[O-]
REMARK SMILES IDX 3 1 4 2 5 3 6 4 7 8 8 9 9 10 2 11 1 12
REMARK H PARENT 6 5 6 6 6 7
REMARK Flexibility Score: inf
ROOT
ATOM      1  C   UNL     1     159.119 156.347 219.619  1.00  0.00     0.050 C 
ATOM      2  C   UNL     1     158.766 157.846 219.740  1.00  0.00     0.014 C 
ENDROOT
BRANCH   1   3
ATOM      3  C   UNL     1     159.250 155.704 221.038  1.00  0.00     0.230 C 
BRANCH   3   4
ATOM      4  N   UNL     1     160.487 154.921 221.183  1.00  0.00    -0.350 N 
ATOM      5  H   UNL     1     161.083 155.025 220.331  1.00  0.00     0.345 HD
ATOM      6  H   UNL     1     160.269 153.910 221.342  1.00  0.00     0.345 HD
ATOM      7  H   UNL     1     161.049 155.277 221.989  1.00  0.00     0.345 HD
ENDBRANCH   3   4
BRANCH   3   8
ATOM      8  C   UNL     1     158.067 154.814 221.335  1.00  0.00     0.099 C 
ATOM      9  O   UNL     1     156.933 155.318 221.549  1.00  0.00    -0.544 OA
ATOM     10  O   UNL     1     158.224 153.434 221.379  1.00  0.00    -0.544 OA
ENDBRANCH   3   8
ENDBRANCH   1   3
BRANCH   1  11
ATOM     11  C   UNL     1     160.415 156.158 218.785  1.00  0.00     0.006 C 
ATOM     12  C   UNL     1     161.281 157.417 218.704  1.00  0.00     0.004 C 
ENDBRANCH   1  11
TORSDOF 4
ENDMDL
MODEL 7
REMARK VINA RESULT:    -3.942     14.488     14.991
REMARK INTER + INTRA:          -4.883
REMARK INTER:                  -4.796
REMARK INTRA:                  -0.087
REMARK UNBOUND:                -0.134
REMARK SMILES CC[C@H](C)[C@H]([NH3+])C(=O)[O-]
REMARK SMILES IDX 3 1 4 2 5 3 6 4 7 8 8 9 9 10 2 11 1 12
REMARK H PARENT 6 5 6 6 6 7
REMARK Flexibility Score: inf
ROOT
ATOM      1  C   UNL     1     158.982 162.144 220.712  1.00  0.00     0.050 C 
ATOM      2  C   UNL     1     160.326 162.812 221.077  1.00  0.00     0.014 C 
ENDROOT
BRANCH   1   3
ATOM      3  C   UNL     1     159.014 161.633 219.235  1.00  0.00     0.230 C 
BRANCH   3   4
ATOM      4  N   UNL     1     158.077 162.368 218.371  1.00  0.00    -0.350 N 
ATOM      5  H   UNL     1     157.973 161.880 217.452  1.00  0.00     0.345 HD
ATOM      6  H   UNL     1     158.406 163.348 218.217  1.00  0.00     0.345 HD
ATOM      7  H   UNL     1     157.126 162.394 218.806  1.00  0.00     0.345 HD
ENDBRANCH   3   4
BRANCH   3   8
ATOM      8  C   UNL     1     158.691 160.160 219.170  1.00  0.00     0.099 C 
ATOM      9  O   UNL     1     157.493 159.774 219.130  1.00  0.00    -0.544 OA
ATOM     10  O   UNL     1     159.715 159.219 219.158  1.00  0.00    -0.544 OA
ENDBRANCH   3   8
ENDBRANCH   1   3
BRANCH   1  11
ATOM     11  C   UNL     1     157.803 163.125 220.951  1.00  0.00     0.006 C 
ATOM     12  C   UNL     1     158.183 164.348 221.789  1.00  0.00     0.004 C 
ENDBRANCH   1  11
TORSDOF 4
ENDMDL
MODEL 8
REMARK VINA RESULT:    -3.927      2.063      3.349
REMARK INTER + INTRA:          -4.865
REMARK INTER:                  -4.967
REMARK INTRA:                   0.103
REMARK UNBOUND:                -0.134
REMARK SMILES CC[C@H](C)[C@H]([NH3+])C(=O)[O-]
REMARK SMILES IDX 3 1 4 2 5 3 6 4 7 8 8 9 9 10 2 11 1 12
REMARK H PARENT 6 5 6 6 6 7
REMARK Flexibility Score: inf
ROOT
ATOM      1  C   UNL     1     161.266 153.338 229.975  1.00  0.00     0.050 C 
ATOM      2  C   UNL     1     159.737 153.134 229.897  1.00  0.00     0.014 C 
ENDROOT
BRANCH   1   3
ATOM      3  C   UNL     1     161.973 151.999 230.365  1.00  0.00     0.230 C 
BRANCH   3   4
ATOM      4  N   UNL     1     162.206 151.132 229.199  1.00  0.00    -0.350 N 
ATOM      5  H   UNL     1     163.172 150.735 229.231  1.00  0.00     0.345 HD
ATOM      6  H   UNL     1     162.070 151.663 228.309  1.00  0.00     0.345 HD
ATOM      7  H   UNL     1     161.546 150.321 229.214  1.00  0.00     0.345 HD
ENDBRANCH   3   4
BRANCH   3   8
ATOM      8  C   UNL     1     161.161 151.241 231.387  1.00  0.00     0.099 C 
ATOM      9  O   UNL     1     160.458 150.258 231.036  1.00  0.00    -0.544 OA
ATOM     10  O   UNL     1     161.181 151.628 232.723  1.00  0.00    -0.544 OA
ENDBRANCH   3   8
ENDBRANCH   1   3
BRANCH   1  11
ATOM     11  C   UNL     1     161.615 154.478 230.969  1.00  0.00     0.006 C 
ATOM     12  C   UNL     1     161.330 155.878 230.421  1.00  0.00     0.004 C 
ENDBRANCH   1  11
TORSDOF 4
ENDMDL
MODEL 9
REMARK VINA RESULT:    -3.907     13.614     14.388
REMARK INTER + INTRA:          -4.840
REMARK INTER:                  -4.762
REMARK INTRA:                  -0.079
REMARK UNBOUND:                -0.134
REMARK SMILES CC[C@H](C)[C@H]([NH3+])C(=O)[O-]
REMARK SMILES IDX 3 1 4 2 5 3 6 4 7 8 8 9 9 10 2 11 1 12
REMARK H PARENT 6 5 6 6 6 7
REMARK Flexibility Score: inf
ROOT
ATOM      1  C   UNL     1     159.739 158.308 217.909  1.00  0.00     0.050 C 
ATOM      2  C   UNL     1     159.125 159.126 216.752  1.00  0.00     0.014 C 
ENDROOT
BRANCH   1   3
ATOM      3  C   UNL     1     159.636 156.778 217.607  1.00  0.00     0.230 C 
BRANCH   3   4
ATOM      4  N   UNL     1     159.236 156.002 218.791  1.00  0.00    -0.350 N 
ATOM      5  H   UNL     1     158.631 155.198 218.509  1.00  0.00     0.345 HD
ATOM      6  H   UNL     1     158.727 156.606 219.476  1.00  0.00     0.345 HD
ATOM      7  H   UNL     1     160.079 155.595 219.259  1.00  0.00     0.345 HD
ENDBRANCH   3   4
BRANCH   3   8
ATOM      8  C   UNL     1     160.950 156.243 217.089  1.00  0.00     0.099 C 
ATOM      9  O   UNL     1     160.967 155.302 216.253  1.00  0.00    -0.544 OA
ATOM     10  O   UNL     1     162.150 156.785 217.537  1.00  0.00    -0.544 OA
ENDBRANCH   3   8
ENDBRANCH   1   3
BRANCH   1  11
ATOM     11  C   UNL     1     159.057 158.671 219.256  1.00  0.00     0.006 C 
ATOM     12  C   UNL     1     158.556 160.116 219.319  1.00  0.00     0.004 C 
ENDBRANCH   1  11
TORSDOF 4
ENDMDL
