MODEL 1
REMARK VINA RESULT:    -3.187      0.000      0.000
REMARK INTER + INTRA:         -10.976
REMARK INTER:                  -6.913
REMARK INTRA:                  -4.063
REMARK UNBOUND:                -4.063
REMARK SMILES CCCCCCCCCCCCCCCCCCCCCC(=O)[O-]
REMARK SMILES IDX 12 1 11 2 10 3 9 4 8 5 7 6 6 7 5 8 4 9 3 10 2 11 1 12 13 13
REMARK SMILES IDX 14 14 15 15 16 16 17 17 18 18 19 19 20 20 21 21 22 22 23 23
REMARK SMILES IDX 24 24
REMARK H PARENT
REMARK Flexibility Score: inf
ROOT
ATOM      1  C   UNL     1     167.532 151.129 178.205  1.00  0.00     0.000 C 
ENDROOT
BRANCH   1   2
ATOM      2  C   UNL     1     168.307 151.587 179.453  1.00  0.00     0.000 C 
BRANCH   2   3
ATOM      3  C   UNL     1     167.447 152.417 180.418  1.00  0.00     0.000 C 
BRANCH   3   4
ATOM      4  C   UNL     1     167.989 153.846 180.590  1.00  0.00    -0.000 C 
BRANCH   4   5
ATOM      5  C   UNL     1     169.218 154.110 179.701  1.00  0.00    -0.000 C 
BRANCH   5   6
ATOM      6  C   UNL     1     168.936 155.102 178.559  1.00  0.00    -0.000 C 
BRANCH   6   7
ATOM      7  C   UNL     1     170.018 155.167 177.464  1.00  0.00    -0.000 C 
BRANCH   7   8
ATOM      8  C   UNL     1     169.515 155.779 176.147  1.00  0.00    -0.000 C 
BRANCH   8   9
ATOM      9  C   UNL     1     168.116 156.380 176.325  1.00  0.00    -0.000 C 
BRANCH   9  10
ATOM     10  C   UNL     1     167.331 156.343 175.006  1.00  0.00    -0.000 C 
BRANCH  10  11
ATOM     11  C   UNL     1     166.213 157.396 174.961  1.00  0.00    -0.003 C 
ATOM     12  C   UNL     1     164.866 156.804 174.550  1.00  0.00     0.004 C 
ENDBRANCH  10  11
ENDBRANCH   9  10
ENDBRANCH   8   9
ENDBRANCH   7   8
ENDBRANCH   6   7
ENDBRANCH   5   6
ENDBRANCH   4   5
ENDBRANCH   3   4
ENDBRANCH   2   3
ENDBRANCH   1   2
BRANCH   1  13
ATOM     13  C   UNL     1     167.885 151.889 176.911  1.00  0.00     0.000 C 
BRANCH  13  14
ATOM     14  C   UNL     1     166.863 152.962 176.481  1.00  0.00     0.000 C 
BRANCH  14  15
ATOM     15  C   UNL     1     165.687 153.175 177.455  1.00  0.00     0.000 C 
BRANCH  15  16
ATOM     16  C   UNL     1     165.161 154.621 177.447  1.00  0.00     0.000 C 
BRANCH  16  17
ATOM     17  C   UNL     1     165.126 155.258 178.846  1.00  0.00     0.000 C 
BRANCH  17  18
ATOM     18  C   UNL     1     165.471 156.761 178.851  1.00  0.00     0.000 C 
BRANCH  18  19
ATOM     19  C   UNL     1     164.388 157.602 178.152  1.00  0.00     0.000 C 
BRANCH  19  20
ATOM     20  C   UNL     1     162.958 157.133 178.485  1.00  0.00     0.006 C 
BRANCH  20  21
ATOM     21  C   UNL     1     162.141 156.681 177.262  1.00  0.00     0.053 C 
BRANCH  21  22
ATOM     22  C   UNL     1     161.247 157.771 176.751  1.00  0.00     0.041 C 
ATOM     23  O   UNL     1     161.544 158.388 175.694  1.00  0.00    -0.550 OA
ATOM     24  O   UNL     1     160.056 158.064 177.405  1.00  0.00    -0.550 OA
ENDBRANCH  21  22
ENDBRANCH  20  21
ENDBRANCH  19  20
ENDBRANCH  18  19
ENDBRANCH  17  18
ENDBRANCH  16  17
ENDBRANCH  15  16
ENDBRANCH  14  15
ENDBRANCH  13  14
ENDBRANCH   1  13
TORSDOF 20
ENDMDL
MODEL 2
REMARK VINA RESULT:    -3.085      1.150      2.641
REMARK INTER + INTRA:         -10.754
REMARK INTER:                  -6.976
REMARK INTRA:                  -3.778
REMARK UNBOUND:                -4.063
REMARK SMILES CCCCCCCCCCCCCCCCCCCCCC(=O)[O-]
REMARK SMILES IDX 12 1 11 2 10 3 9 4 8 5 7 6 6 7 5 8 4 9 3 10 2 11 1 12 13 13
REMARK SMILES IDX 14 14 15 15 16 16 17 17 18 18 19 19 20 20 21 21 22 22 23 23
REMARK SMILES IDX 24 24
REMARK H PARENT
REMARK Flexibility Score: inf
ROOT
ATOM      1  C   UNL     1     169.678 153.287 179.324  1.00  0.00     0.000 C 
ENDROOT
BRANCH   1   2
ATOM      2  C   UNL     1     168.546 152.951 180.311  1.00  0.00     0.000 C 
BRANCH   2   3
ATOM      3  C   UNL     1     167.384 152.194 179.651  1.00  0.00     0.000 C 
BRANCH   3   4
ATOM      4  C   UNL     1     167.862 151.302 178.492  1.00  0.00    -0.000 C 
BRANCH   4   5
ATOM      5  C   UNL     1     167.025 151.510 177.217  1.00  0.00    -0.000 C 
BRANCH   5   6
ATOM      6  C   UNL     1     166.007 152.658 177.345  1.00  0.00    -0.000 C 
BRANCH   6   7
ATOM      7  C   UNL     1     166.374 153.947 176.585  1.00  0.00    -0.000 C 
BRANCH   7   8
ATOM      8  C   UNL     1     167.772 153.900 175.948  1.00  0.00    -0.000 C 
BRANCH   8   9
ATOM      9  C   UNL     1     168.089 155.216 175.229  1.00  0.00    -0.000 C 
BRANCH   9  10
ATOM     10  C   UNL     1     166.973 156.247 175.456  1.00  0.00    -0.000 C 
BRANCH  10  11
ATOM     11  C   UNL     1     167.171 157.518 174.615  1.00  0.00    -0.003 C 
ATOM     12  C   UNL     1     165.848 158.144 174.178  1.00  0.00     0.004 C 
ENDBRANCH  10  11
ENDBRANCH   9  10
ENDBRANCH   8   9
ENDBRANCH   7   8
ENDBRANCH   6   7
ENDBRANCH   5   6
ENDBRANCH   4   5
ENDBRANCH   3   4
ENDBRANCH   2   3
ENDBRANCH   1   2
BRANCH   1  13
ATOM     13  C   UNL     1     169.784 154.779 178.949  1.00  0.00     0.000 C 
BRANCH  13  14
ATOM     14  C   UNL     1     168.794 155.711 179.679  1.00  0.00     0.000 C 
BRANCH  14  15
ATOM     15  C   UNL     1     167.974 156.641 178.765  1.00  0.00     0.000 C 
BRANCH  15  16
ATOM     16  C   UNL     1     166.634 157.065 179.393  1.00  0.00     0.000 C 
BRANCH  16  17
ATOM     17  C   UNL     1     165.748 155.871 179.785  1.00  0.00     0.000 C 
BRANCH  17  18
ATOM     18  C   UNL     1     164.410 155.816 179.019  1.00  0.00     0.000 C 
BRANCH  18  19
ATOM     19  C   UNL     1     164.340 156.875 177.906  1.00  0.00     0.000 C 
BRANCH  19  20
ATOM     20  C   UNL     1     163.348 156.504 176.787  1.00  0.00     0.006 C 
BRANCH  20  21
ATOM     21  C   UNL     1     161.889 156.897 177.082  1.00  0.00     0.053 C 
BRANCH  21  22
ATOM     22  C   UNL     1     161.547 158.245 176.522  1.00  0.00     0.041 C 
ATOM     23  O   UNL     1     161.441 158.403 175.277  1.00  0.00    -0.550 OA
ATOM     24  O   UNL     1     161.285 159.312 177.374  1.00  0.00    -0.550 OA
ENDBRANCH  21  22
ENDBRANCH  20  21
ENDBRANCH  19  20
ENDBRANCH  18  19
ENDBRANCH  17  18
ENDBRANCH  16  17
ENDBRANCH  15  16
ENDBRANCH  14  15
ENDBRANCH  13  14
ENDBRANCH   1  13
TORSDOF 20
ENDMDL
MODEL 3
REMARK VINA RESULT:    -3.085      1.742      3.881
REMARK INTER + INTRA:         -10.754
REMARK INTER:                  -6.375
REMARK INTRA:                  -4.379
REMARK UNBOUND:                -4.063
REMARK SMILES CCCCCCCCCCCCCCCCCCCCCC(=O)[O-]
REMARK SMILES IDX 12 1 11 2 10 3 9 4 8 5 7 6 6 7 5 8 4 9 3 10 2 11 1 12 13 13
REMARK SMILES IDX 14 14 15 15 16 16 17 17 18 18 19 19 20 20 21 21 22 22 23 23
REMARK SMILES IDX 24 24
REMARK H PARENT
REMARK Flexibility Score: inf
ROOT
ATOM      1  C   UNL     1     167.508 152.976 180.574  1.00  0.00     0.000 C 
ENDROOT
BRANCH   1   2
ATOM      2  C   UNL     1     168.951 152.751 180.088  1.00  0.00     0.000 C 
BRANCH   2   3
ATOM      3  C   UNL     1     169.018 152.089 178.704  1.00  0.00     0.000 C 
BRANCH   3   4
ATOM      4  C   UNL     1     167.833 151.138 178.462  1.00  0.00    -0.000 C 
BRANCH   4   5
ATOM      5  C   UNL     1     167.136 151.410 177.117  1.00  0.00    -0.000 C 
BRANCH   5   6
ATOM      6  C   UNL     1     166.014 152.459 177.220  1.00  0.00    -0.000 C 
BRANCH   6   7
ATOM      7  C   UNL     1     166.410 153.886 176.793  1.00  0.00    -0.000 C 
BRANCH   7   8
ATOM      8  C   UNL     1     167.565 153.918 175.779  1.00  0.00    -0.000 C 
BRANCH   8   9
ATOM      9  C   UNL     1     168.678 154.861 176.251  1.00  0.00    -0.000 C 
BRANCH   9  10
ATOM     10  C   UNL     1     168.192 155.752 177.404  1.00  0.00    -0.000 C 
BRANCH  10  11
ATOM     11  C   UNL     1     169.329 156.147 178.357  1.00  0.00    -0.003 C 
ATOM     12  C   UNL     1     168.989 157.376 179.198  1.00  0.00     0.004 C 
ENDBRANCH  10  11
ENDBRANCH   9  10
ENDBRANCH   8   9
ENDBRANCH   7   8
ENDBRANCH   6   7
ENDBRANCH   5   6
ENDBRANCH   4   5
ENDBRANCH   3   4
ENDBRANCH   2   3
ENDBRANCH   1   2
BRANCH   1  13
ATOM     13  C   UNL     1     167.100 154.456 180.719  1.00  0.00     0.000 C 
BRANCH  13  14
ATOM     14  C   UNL     1     165.669 154.791 180.248  1.00  0.00     0.000 C 
BRANCH  14  15
ATOM     15  C   UNL     1     165.472 156.224 179.718  1.00  0.00     0.000 C 
BRANCH  15  16
ATOM     16  C   UNL     1     164.288 156.341 178.741  1.00  0.00     0.000 C 
BRANCH  16  17
ATOM     17  C   UNL     1     164.660 157.043 177.425  1.00  0.00     0.000 C 
BRANCH  17  18
ATOM     18  C   UNL     1     163.883 156.515 176.201  1.00  0.00     0.000 C 
BRANCH  18  19
ATOM     19  C   UNL     1     164.766 156.448 174.943  1.00  0.00     0.000 C 
BRANCH  19  20
ATOM     20  C   UNL     1     165.952 157.431 174.991  1.00  0.00     0.006 C 
BRANCH  20  21
ATOM     21  C   UNL     1     165.802 158.647 174.059  1.00  0.00     0.053 C 
BRANCH  21  22
ATOM     22  C   UNL     1     164.957 159.723 174.672  1.00  0.00     0.041 C 
ATOM     23  O   UNL     1     165.476 160.564 175.454  1.00  0.00    -0.550 OA
ATOM     24  O   UNL     1     163.613 159.837 174.335  1.00  0.00    -0.550 OA
ENDBRANCH  21  22
ENDBRANCH  20  21
ENDBRANCH  19  20
ENDBRANCH  18  19
ENDBRANCH  17  18
ENDBRANCH  16  17
ENDBRANCH  15  16
ENDBRANCH  14  15
ENDBRANCH  13  14
ENDBRANCH   1  13
TORSDOF 20
ENDMDL
MODEL 4
REMARK VINA RESULT:    -3.084      1.828      4.331
REMARK INTER + INTRA:         -10.752
REMARK INTER:                  -7.314
REMARK INTRA:                  -3.438
REMARK UNBOUND:                -4.063
REMARK SMILES CCCCCCCCCCCCCCCCCCCCCC(=O)[O-]
REMARK SMILES IDX 12 1 11 2 10 3 9 4 8 5 7 6 6 7 5 8 4 9 3 10 2 11 1 12 13 13
REMARK SMILES IDX 14 14 15 15 16 16 17 17 18 18 19 19 20 20 21 21 22 22 23 23
REMARK SMILES IDX 24 24
REMARK H PARENT
REMARK Flexibility Score: inf
ROOT
ATOM      1  C   UNL     1     168.773 153.192 179.719  1.00  0.00     0.000 C 
ENDROOT
BRANCH   1   2
ATOM      2  C   UNL     1     167.509 153.058 180.586  1.00  0.00     0.000 C 
BRANCH   2   3
ATOM      3  C   UNL     1     166.534 154.231 180.404  1.00  0.00     0.000 C 
BRANCH   3   4
ATOM      4  C   UNL     1     167.262 155.529 180.014  1.00  0.00    -0.000 C 
BRANCH   4   5
ATOM      5  C   UNL     1     166.284 156.628 179.560  1.00  0.00    -0.000 C 
BRANCH   5   6
ATOM      6  C   UNL     1     164.842 156.119 179.388  1.00  0.00    -0.000 C 
BRANCH   6   7
ATOM      7  C   UNL     1     163.933 157.007 178.517  1.00  0.00    -0.000 C 
BRANCH   7   8
ATOM      8  C   UNL     1     163.147 156.218 177.458  1.00  0.00    -0.000 C 
BRANCH   8   9
ATOM      9  C   UNL     1     161.786 156.871 177.190  1.00  0.00    -0.000 C 
BRANCH   9  10
ATOM     10  C   UNL     1     161.953 158.341 176.778  1.00  0.00    -0.000 C 
BRANCH  10  11
ATOM     11  C   UNL     1     161.662 158.566 175.287  1.00  0.00    -0.003 C 
ATOM     12  C   UNL     1     161.635 160.048 174.912  1.00  0.00     0.004 C 
ENDBRANCH  10  11
ENDBRANCH   9  10
ENDBRANCH   8   9
ENDBRANCH   7   8
ENDBRANCH   6   7
ENDBRANCH   5   6
ENDBRANCH   4   5
ENDBRANCH   3   4
ENDBRANCH   2   3
ENDBRANCH   1   2
BRANCH   1  13
ATOM     13  C   UNL     1     168.984 152.048 178.706  1.00  0.00     0.000 C 
BRANCH  13  14
ATOM     14  C   UNL     1     167.743 151.172 178.438  1.00  0.00     0.000 C 
BRANCH  14  15
ATOM     15  C   UNL     1     167.029 151.439 177.099  1.00  0.00     0.000 C 
BRANCH  15  16
ATOM     16  C   UNL     1     165.830 152.393 177.242  1.00  0.00     0.000 C 
BRANCH  16  17
ATOM     17  C   UNL     1     166.138 153.823 176.766  1.00  0.00     0.000 C 
BRANCH  17  18
ATOM     18  C   UNL     1     167.482 153.950 176.019  1.00  0.00     0.000 C 
BRANCH  18  19
ATOM     19  C   UNL     1     167.778 155.403 175.611  1.00  0.00     0.000 C 
BRANCH  19  20
ATOM     20  C   UNL     1     166.632 156.371 175.967  1.00  0.00     0.006 C 
BRANCH  20  21
ATOM     21  C   UNL     1     166.561 157.621 175.071  1.00  0.00     0.053 C 
BRANCH  21  22
ATOM     22  C   UNL     1     165.277 157.684 174.299  1.00  0.00     0.041 C 
ATOM     23  O   UNL     1     164.514 156.684 174.260  1.00  0.00    -0.550 OA
ATOM     24  O   UNL     1     164.894 158.865 173.673  1.00  0.00    -0.550 OA
ENDBRANCH  21  22
ENDBRANCH  20  21
ENDBRANCH  19  20
ENDBRANCH  18  19
ENDBRANCH  17  18
ENDBRANCH  16  17
ENDBRANCH  15  16
ENDBRANCH  14  15
ENDBRANCH  13  14
ENDBRANCH   1  13
TORSDOF 20
ENDMDL
MODEL 5
REMARK VINA RESULT:    -3.081      1.569      3.880
REMARK INTER + INTRA:         -10.746
REMARK INTER:                  -6.494
REMARK INTRA:                  -4.251
REMARK UNBOUND:                -4.063
REMARK SMILES CCCCCCCCCCCCCCCCCCCCCC(=O)[O-]
REMARK SMILES IDX 12 1 11 2 10 3 9 4 8 5 7 6 6 7 5 8 4 9 3 10 2 11 1 12 13 13
REMARK SMILES IDX 14 14 15 15 16 16 17 17 18 18 19 19 20 20 21 21 22 22 23 23
REMARK SMILES IDX 24 24
REMARK H PARENT
REMARK Flexibility Score: inf
ROOT
ATOM      1  C   UNL     1     170.310 154.369 178.146  1.00  0.00     0.000 C 
ENDROOT
BRANCH   1   2
ATOM      2  C   UNL     1     169.987 154.397 179.650  1.00  0.00     0.000 C 
BRANCH   2   3
ATOM      3  C   UNL     1     169.653 153.008 180.214  1.00  0.00     0.000 C 
BRANCH   3   4
ATOM      4  C   UNL     1     169.458 151.965 179.099  1.00  0.00    -0.000 C 
BRANCH   4   5
ATOM      5  C   UNL     1     168.146 151.178 179.264  1.00  0.00    -0.000 C 
BRANCH   5   6
ATOM      6  C   UNL     1     167.286 151.163 177.987  1.00  0.00    -0.000 C 
BRANCH   6   7
ATOM      7  C   UNL     1     167.767 152.100 176.863  1.00  0.00    -0.000 C 
BRANCH   7   8
ATOM      8  C   UNL     1     166.808 153.271 176.595  1.00  0.00    -0.000 C 
BRANCH   8   9
ATOM      9  C   UNL     1     165.810 153.432 177.748  1.00  0.00    -0.000 C 
BRANCH   9  10
ATOM     10  C   UNL     1     166.211 154.601 178.661  1.00  0.00    -0.000 C 
BRANCH  10  11
ATOM     11  C   UNL     1     166.214 154.208 180.146  1.00  0.00    -0.003 C 
ATOM     12  C   UNL     1     166.677 155.348 181.053  1.00  0.00     0.004 C 
ENDBRANCH  10  11
ENDBRANCH   9  10
ENDBRANCH   8   9
ENDBRANCH   7   8
ENDBRANCH   6   7
ENDBRANCH   5   6
ENDBRANCH   4   5
ENDBRANCH   3   4
ENDBRANCH   2   3
ENDBRANCH   1   2
BRANCH   1  13
ATOM     13  C   UNL     1     169.680 155.516 177.330  1.00  0.00     0.000 C 
BRANCH  13  14
ATOM     14  C   UNL     1     169.090 156.670 178.168  1.00  0.00     0.000 C 
BRANCH  14  15
ATOM     15  C   UNL     1     168.345 157.751 177.362  1.00  0.00     0.000 C 
BRANCH  15  16
ATOM     16  C   UNL     1     167.371 157.159 176.328  1.00  0.00     0.000 C 
BRANCH  16  17
ATOM     17  C   UNL     1     165.917 157.611 176.541  1.00  0.00     0.000 C 
BRANCH  17  18
ATOM     18  C   UNL     1     164.879 156.701 175.852  1.00  0.00     0.000 C 
BRANCH  18  19
ATOM     19  C   UNL     1     163.452 156.971 176.357  1.00  0.00     0.000 C 
BRANCH  19  20
ATOM     20  C   UNL     1     163.006 155.979 177.449  1.00  0.00     0.006 C 
BRANCH  20  21
ATOM     21  C   UNL     1     163.163 156.509 178.886  1.00  0.00     0.053 C 
BRANCH  21  22
ATOM     22  C   UNL     1     162.154 157.570 179.206  1.00  0.00     0.041 C 
ATOM     23  O   UNL     1     160.999 157.246 179.590  1.00  0.00    -0.550 OA
ATOM     24  O   UNL     1     162.504 158.913 179.140  1.00  0.00    -0.550 OA
ENDBRANCH  21  22
ENDBRANCH  20  21
ENDBRANCH  19  20
ENDBRANCH  18  19
ENDBRANCH  17  18
ENDBRANCH  16  17
ENDBRANCH  15  16
ENDBRANCH  14  15
ENDBRANCH  13  14
ENDBRANCH   1  13
TORSDOF 20
ENDMDL
MODEL 6
REMARK VINA RESULT:    -3.050      1.696      3.750
REMARK INTER + INTRA:         -10.678
REMARK INTER:                  -6.480
REMARK INTRA:                  -4.198
REMARK UNBOUND:                -4.063
REMARK SMILES CCCCCCCCCCCCCCCCCCCCCC(=O)[O-]
REMARK SMILES IDX 12 1 11 2 10 3 9 4 8 5 7 6 6 7 5 8 4 9 3 10 2 11 1 12 13 13
REMARK SMILES IDX 14 14 15 15 16 16 17 17 18 18 19 19 20 20 21 21 22 22 23 23
REMARK SMILES IDX 24 24
REMARK H PARENT
REMARK Flexibility Score: inf
ROOT
ATOM      1  C   UNL     1     167.468 152.832 180.572  1.00  0.00     0.000 C 
ENDROOT
BRANCH   1   2
ATOM      2  C   UNL     1     168.850 152.405 180.046  1.00  0.00     0.000 C 
BRANCH   2   3
ATOM      3  C   UNL     1     168.811 151.935 178.584  1.00  0.00     0.000 C 
BRANCH   3   4
ATOM      4  C   UNL     1     167.570 151.074 178.289  1.00  0.00    -0.000 C 
BRANCH   4   5
ATOM      5  C   UNL     1     166.815 151.556 177.037  1.00  0.00    -0.000 C 
BRANCH   5   6
ATOM      6  C   UNL     1     165.764 152.637 177.347  1.00  0.00    -0.000 C 
BRANCH   6   7
ATOM      7  C   UNL     1     166.194 154.081 177.023  1.00  0.00    -0.000 C 
BRANCH   7   8
ATOM      8  C   UNL     1     167.159 154.174 175.830  1.00  0.00    -0.000 C 
BRANCH   8   9
ATOM      9  C   UNL     1     168.474 154.844 176.243  1.00  0.00    -0.000 C 
BRANCH   9  10
ATOM     10  C   UNL     1     168.314 155.592 177.575  1.00  0.00    -0.000 C 
BRANCH  10  11
ATOM     11  C   UNL     1     169.621 155.638 178.381  1.00  0.00    -0.003 C 
ATOM     12  C   UNL     1     169.638 156.769 179.408  1.00  0.00     0.004 C 
ENDBRANCH  10  11
ENDBRANCH   9  10
ENDBRANCH   8   9
ENDBRANCH   7   8
ENDBRANCH   6   7
ENDBRANCH   5   6
ENDBRANCH   4   5
ENDBRANCH   3   4
ENDBRANCH   2   3
ENDBRANCH   1   2
BRANCH   1  13
ATOM     13  C   UNL     1     167.361 154.318 180.971  1.00  0.00     0.000 C 
BRANCH  13  14
ATOM     14  C   UNL     1     166.046 155.014 180.561  1.00  0.00     0.000 C 
BRANCH  14  15
ATOM     15  C   UNL     1     166.061 156.552 180.657  1.00  0.00     0.000 C 
BRANCH  15  16
ATOM     16  C   UNL     1     165.043 157.217 179.712  1.00  0.00     0.000 C 
BRANCH  16  17
ATOM     17  C   UNL     1     164.040 156.220 179.109  1.00  0.00     0.000 C 
BRANCH  17  18
ATOM     18  C   UNL     1     162.656 156.836 178.816  1.00  0.00     0.000 C 
BRANCH  18  19
ATOM     19  C   UNL     1     162.319 156.808 177.315  1.00  0.00     0.000 C 
BRANCH  19  20
ATOM     20  C   UNL     1     163.480 156.278 176.451  1.00  0.00     0.006 C 
BRANCH  20  21
ATOM     21  C   UNL     1     164.043 157.305 175.452  1.00  0.00     0.053 C 
BRANCH  21  22
ATOM     22  C   UNL     1     164.939 158.304 176.121  1.00  0.00     0.041 C 
ATOM     23  O   UNL     1     166.153 158.031 176.316  1.00  0.00    -0.550 OA
ATOM     24  O   UNL     1     164.452 159.557 176.473  1.00  0.00    -0.550 OA
ENDBRANCH  21  22
ENDBRANCH  20  21
ENDBRANCH  19  20
ENDBRANCH  18  19
ENDBRANCH  17  18
ENDBRANCH  16  17
ENDBRANCH  15  16
ENDBRANCH  14  15
ENDBRANCH  13  14
ENDBRANCH   1  13
TORSDOF 20
ENDMDL
MODEL 7
REMARK VINA RESULT:    -3.037      1.695      2.397
REMARK INTER + INTRA:         -10.651
REMARK INTER:                  -6.990
REMARK INTRA:                  -3.661
REMARK UNBOUND:                -4.063
REMARK SMILES CCCCCCCCCCCCCCCCCCCCCC(=O)[O-]
REMARK SMILES IDX 12 1 11 2 10 3 9 4 8 5 7 6 6 7 5 8 4 9 3 10 2 11 1 12 13 13
REMARK SMILES IDX 14 14 15 15 16 16 17 17 18 18 19 19 20 20 21 21 22 22 23 23
REMARK SMILES IDX 24 24
REMARK H PARENT
REMARK Flexibility Score: inf
ROOT
ATOM      1  C   UNL     1     167.386 151.255 177.672  1.00  0.00     0.000 C 
ENDROOT
BRANCH   1   2
ATOM      2  C   UNL     1     167.788 151.517 179.134  1.00  0.00     0.000 C 
BRANCH   2   3
ATOM      3  C   UNL     1     169.024 152.420 179.260  1.00  0.00     0.000 C 
BRANCH   3   4
ATOM      4  C   UNL     1     168.667 153.814 179.804  1.00  0.00    -0.000 C 
BRANCH   4   5
ATOM      5  C   UNL     1     167.207 153.890 180.286  1.00  0.00    -0.000 C 
BRANCH   5   6
ATOM      6  C   UNL     1     166.896 155.180 181.067  1.00  0.00    -0.000 C 
BRANCH   6   7
ATOM      7  C   UNL     1     166.103 156.244 180.284  1.00  0.00    -0.000 C 
BRANCH   7   8
ATOM      8  C   UNL     1     166.967 157.040 179.293  1.00  0.00    -0.000 C 
BRANCH   8   9
ATOM      9  C   UNL     1     166.143 158.139 178.611  1.00  0.00    -0.000 C 
BRANCH   9  10
ATOM     10  C   UNL     1     166.475 158.224 177.114  1.00  0.00    -0.000 C 
BRANCH  10  11
ATOM     11  C   UNL     1     165.281 158.708 176.277  1.00  0.00    -0.003 C 
ATOM     12  C   UNL     1     165.249 158.082 174.884  1.00  0.00     0.004 C 
ENDBRANCH  10  11
ENDBRANCH   9  10
ENDBRANCH   8   9
ENDBRANCH   7   8
ENDBRANCH   6   7
ENDBRANCH   5   6
ENDBRANCH   4   5
ENDBRANCH   3   4
ENDBRANCH   2   3
ENDBRANCH   1   2
BRANCH   1  13
ATOM     13  C   UNL     1     166.328 152.227 177.110  1.00  0.00     0.000 C 
BRANCH  13  14
ATOM     14  C   UNL     1     166.895 153.465 176.385  1.00  0.00     0.000 C 
BRANCH  14  15
ATOM     15  C   UNL     1     166.024 154.733 176.475  1.00  0.00     0.000 C 
BRANCH  15  16
ATOM     16  C   UNL     1     164.843 154.577 177.449  1.00  0.00     0.000 C 
BRANCH  16  17
ATOM     17  C   UNL     1     163.659 155.500 177.115  1.00  0.00     0.000 C 
BRANCH  17  18
ATOM     18  C   UNL     1     163.011 156.148 178.355  1.00  0.00     0.000 C 
BRANCH  18  19
ATOM     19  C   UNL     1     162.355 157.499 178.022  1.00  0.00     0.000 C 
BRANCH  19  20
ATOM     20  C   UNL     1     161.295 157.392 176.908  1.00  0.00     0.006 C 
BRANCH  20  21
ATOM     21  C   UNL     1     161.541 158.327 175.710  1.00  0.00     0.053 C 
BRANCH  21  22
ATOM     22  C   UNL     1     160.594 159.488 175.701  1.00  0.00     0.041 C 
ATOM     23  O   UNL     1     160.059 159.858 174.623  1.00  0.00    -0.550 OA
ATOM     24  O   UNL     1     160.253 160.124 176.890  1.00  0.00    -0.550 OA
ENDBRANCH  21  22
ENDBRANCH  20  21
ENDBRANCH  19  20
ENDBRANCH  18  19
ENDBRANCH  17  18
ENDBRANCH  16  17
ENDBRANCH  15  16
ENDBRANCH  14  15
ENDBRANCH  13  14
ENDBRANCH   1  13
TORSDOF 20
ENDMDL
MODEL 8
REMARK VINA RESULT:    -2.991      2.768      4.735
REMARK INTER + INTRA:         -10.552
REMARK INTER:                  -6.450
REMARK INTRA:                  -4.102
REMARK UNBOUND:                -4.063
REMARK SMILES CCCCCCCCCCCCCCCCCCCCCC(=O)[O-]
REMARK SMILES IDX 12 1 11 2 10 3 9 4 8 5 7 6 6 7 5 8 4 9 3 10 2 11 1 12 13 13
REMARK SMILES IDX 14 14 15 15 16 16 17 17 18 18 19 19 20 20 21 21 22 22 23 23
REMARK SMILES IDX 24 24
REMARK H PARENT
REMARK Flexibility Score: inf
ROOT
ATOM      1  C   UNL     1     169.057 153.181 179.712  1.00  0.00     0.000 C 
ENDROOT
BRANCH   1   2
ATOM      2  C   UNL     1     167.688 153.334 180.398  1.00  0.00     0.000 C 
BRANCH   2   3
ATOM      3  C   UNL     1     167.334 154.797 180.703  1.00  0.00     0.000 C 
BRANCH   3   4
ATOM      4  C   UNL     1     165.867 155.117 180.370  1.00  0.00    -0.000 C 
BRANCH   4   5
ATOM      5  C   UNL     1     165.615 156.631 180.255  1.00  0.00    -0.000 C 
BRANCH   5   6
ATOM      6  C   UNL     1     164.306 156.972 179.521  1.00  0.00    -0.000 C 
BRANCH   6   7
ATOM      7  C   UNL     1     164.475 157.452 178.067  1.00  0.00    -0.000 C 
BRANCH   7   8
ATOM      8  C   UNL     1     163.920 156.461 177.032  1.00  0.00    -0.000 C 
BRANCH   8   9
ATOM      9  C   UNL     1     163.740 157.140 175.669  1.00  0.00    -0.000 C 
BRANCH   9  10
ATOM     10  C   UNL     1     164.890 156.776 174.718  1.00  0.00    -0.000 C 
BRANCH  10  11
ATOM     11  C   UNL     1     165.365 157.977 173.887  1.00  0.00    -0.003 C 
ATOM     12  C   UNL     1     165.450 159.262 174.710  1.00  0.00     0.004 C 
ENDBRANCH  10  11
ENDBRANCH   9  10
ENDBRANCH   8   9
ENDBRANCH   7   8
ENDBRANCH   6   7
ENDBRANCH   5   6
ENDBRANCH   4   5
ENDBRANCH   3   4
ENDBRANCH   2   3
ENDBRANCH   1   2
BRANCH   1  13
ATOM     13  C   UNL     1     169.147 152.016 178.705  1.00  0.00     0.000 C 
BRANCH  13  14
ATOM     14  C   UNL     1     167.834 151.236 178.486  1.00  0.00     0.000 C 
BRANCH  14  15
ATOM     15  C   UNL     1     167.141 151.487 177.132  1.00  0.00     0.000 C 
BRANCH  15  16
ATOM     16  C   UNL     1     165.945 152.450 177.244  1.00  0.00     0.000 C 
BRANCH  16  17
ATOM     17  C   UNL     1     166.284 153.885 176.807  1.00  0.00     0.000 C 
BRANCH  17  18
ATOM     18  C   UNL     1     167.504 153.973 175.868  1.00  0.00     0.000 C 
BRANCH  18  19
ATOM     19  C   UNL     1     168.552 154.978 176.378  1.00  0.00     0.000 C 
BRANCH  19  20
ATOM     20  C   UNL     1     167.952 156.044 177.315  1.00  0.00     0.006 C 
BRANCH  20  21
ATOM     21  C   UNL     1     167.922 157.463 176.719  1.00  0.00     0.053 C 
BRANCH  21  22
ATOM     22  C   UNL     1     169.036 157.683 175.740  1.00  0.00     0.041 C 
ATOM     23  O   UNL     1     170.208 157.886 176.154  1.00  0.00    -0.550 OA
ATOM     24  O   UNL     1     168.794 157.605 174.374  1.00  0.00    -0.550 OA
ENDBRANCH  21  22
ENDBRANCH  20  21
ENDBRANCH  19  20
ENDBRANCH  18  19
ENDBRANCH  17  18
ENDBRANCH  16  17
ENDBRANCH  15  16
ENDBRANCH  14  15
ENDBRANCH  13  14
ENDBRANCH   1  13
TORSDOF 20
ENDMDL
MODEL 9
REMARK VINA RESULT:    -2.982      1.473      3.085
REMARK INTER + INTRA:         -10.531
REMARK INTER:                  -6.692
REMARK INTRA:                  -3.839
REMARK UNBOUND:                -4.063
REMARK SMILES CCCCCCCCCCCCCCCCCCCCCC(=O)[O-]
REMARK SMILES IDX 12 1 11 2 10 3 9 4 8 5 7 6 6 7 5 8 4 9 3 10 2 11 1 12 13 13
REMARK SMILES IDX 14 14 15 15 16 16 17 17 18 18 19 19 20 20 21 21 22 22 23 23
REMARK SMILES IDX 24 24
REMARK H PARENT
REMARK Flexibility Score: inf
ROOT
ATOM      1  C   UNL     1     167.241 151.494 177.216  1.00  0.00     0.000 C 
ENDROOT
BRANCH   1   2
ATOM      2  C   UNL     1     166.069 152.490 177.267  1.00  0.00     0.000 C 
BRANCH   2   3
ATOM      3  C   UNL     1     166.365 153.797 176.517  1.00  0.00     0.000 C 
BRANCH   3   4
ATOM      4  C   UNL     1     167.804 153.836 175.974  1.00  0.00    -0.000 C 
BRANCH   4   5
ATOM      5  C   UNL     1     168.516 155.158 176.314  1.00  0.00    -0.000 C 
BRANCH   5   6
ATOM      6  C   UNL     1     168.265 156.264 175.274  1.00  0.00    -0.000 C 
BRANCH   6   7
ATOM      7  C   UNL     1     168.282 157.701 175.829  1.00  0.00    -0.000 C 
BRANCH   7   8
ATOM      8  C   UNL     1     166.978 158.470 175.563  1.00  0.00    -0.000 C 
BRANCH   8   9
ATOM      9  C   UNL     1     166.255 157.909 174.333  1.00  0.00    -0.000 C 
BRANCH   9  10
ATOM     10  C   UNL     1     164.778 158.332 174.324  1.00  0.00    -0.000 C 
BRANCH  10  11
ATOM     11  C   UNL     1     164.412 159.203 175.535  1.00  0.00    -0.003 C 
ATOM     12  C   UNL     1     163.000 159.779 175.438  1.00  0.00     0.004 C 
ENDBRANCH  10  11
ENDBRANCH   9  10
ENDBRANCH   8   9
ENDBRANCH   7   8
ENDBRANCH   6   7
ENDBRANCH   5   6
ENDBRANCH   4   5
ENDBRANCH   3   4
ENDBRANCH   2   3
ENDBRANCH   1   2
BRANCH   1  13
ATOM     13  C   UNL     1     167.689 150.955 178.590  1.00  0.00     0.000 C 
BRANCH  13  14
ATOM     14  C   UNL     1     167.655 151.984 179.740  1.00  0.00     0.000 C 
BRANCH  14  15
ATOM     15  C   UNL     1     168.693 153.118 179.635  1.00  0.00     0.000 C 
BRANCH  15  16
ATOM     16  C   UNL     1     168.090 154.506 179.918  1.00  0.00     0.000 C 
BRANCH  16  17
ATOM     17  C   UNL     1     166.758 154.439 180.685  1.00  0.00     0.000 C 
BRANCH  17  18
ATOM     18  C   UNL     1     165.658 155.344 180.093  1.00  0.00     0.000 C 
BRANCH  18  19
ATOM     19  C   UNL     1     166.208 156.288 179.011  1.00  0.00     0.000 C 
BRANCH  19  20
ATOM     20  C   UNL     1     165.097 157.020 178.233  1.00  0.00     0.006 C 
BRANCH  20  21
ATOM     21  C   UNL     1     163.899 156.130 177.857  1.00  0.00     0.053 C 
BRANCH  21  22
ATOM     22  C   UNL     1     162.606 156.888 177.889  1.00  0.00     0.041 C 
ATOM     23  O   UNL     1     161.796 156.793 176.929  1.00  0.00    -0.550 OA
ATOM     24  O   UNL     1     162.266 157.649 179.002  1.00  0.00    -0.550 OA
ENDBRANCH  21  22
ENDBRANCH  20  21
ENDBRANCH  19  20
ENDBRANCH  18  19
ENDBRANCH  17  18
ENDBRANCH  16  17
ENDBRANCH  15  16
ENDBRANCH  14  15
ENDBRANCH  13  14
ENDBRANCH   1  13
TORSDOF 20
ENDMDL
