MODEL 1
REMARK VINA RESULT:    -3.857      0.000      0.000
REMARK INTER + INTRA:          -8.193
REMARK INTER:                  -6.789
REMARK INTRA:                  -1.405
REMARK UNBOUND:                -1.405
REMARK SMILES CCCCCCCCCCCCCCC(=O)[O-]
REMARK SMILES IDX 9 1 10 2 11 3 12 4 13 5 14 6 15 7 16 8 17 9 8 10 7 11 6 12
REMARK SMILES IDX 5 13 4 14 3 15 2 16 1 17
REMARK H PARENT
REMARK Flexibility Score: inf
ROOT
ATOM      1  C   UNL     1      22.464  -2.808  52.643  1.00  0.00     0.000 C 
ENDROOT
BRANCH   1   2
ATOM      2  C   UNL     1      23.613  -2.131  53.416  1.00  0.00     0.000 C 
BRANCH   2   3
ATOM      3  C   UNL     1      23.293  -1.876  54.905  1.00  0.00     0.000 C 
BRANCH   3   4
ATOM      4  C   UNL     1      24.346  -2.487  55.846  1.00  0.00     0.000 C 
BRANCH   4   5
ATOM      5  C   UNL     1      23.716  -3.221  57.039  1.00  0.00     0.006 C 
BRANCH   5   6
ATOM      6  C   UNL     1      22.552  -4.130  56.624  1.00  0.00     0.053 C 
BRANCH   6   7
ATOM      7  C   UNL     1      21.338  -3.831  57.446  1.00  0.00     0.041 C 
ATOM      8  O   UNL     1      21.277  -2.771  58.124  1.00  0.00    -0.550 OA
ATOM      9  O   UNL     1      20.293  -4.744  57.501  1.00  0.00    -0.550 OA
ENDBRANCH   6   7
ENDBRANCH   5   6
ENDBRANCH   4   5
ENDBRANCH   3   4
ENDBRANCH   2   3
ENDBRANCH   1   2
BRANCH   1  10
ATOM     10  C   UNL     1      22.506  -4.347  52.641  1.00  0.00     0.000 C 
BRANCH  10  11
ATOM     11  C   UNL     1      23.903  -4.965  52.422  1.00  0.00    -0.000 C 
BRANCH  11  12
ATOM     12  C   UNL     1      24.494  -5.706  53.636  1.00  0.00    -0.000 C 
BRANCH  12  13
ATOM     13  C   UNL     1      25.939  -5.283  53.950  1.00  0.00    -0.000 C 
BRANCH  13  14
ATOM     14  C   UNL     1      26.977  -6.341  53.535  1.00  0.00    -0.000 C 
BRANCH  14  15
ATOM     15  C   UNL     1      28.430  -5.837  53.448  1.00  0.00    -0.000 C 
BRANCH  15  16
ATOM     16  C   UNL     1      29.229  -6.504  52.318  1.00  0.00    -0.003 C 
ATOM     17  C   UNL     1      30.408  -7.298  52.874  1.00  0.00     0.004 C 
ENDBRANCH  15  16
ENDBRANCH  14  15
ENDBRANCH  13  14
ENDBRANCH  12  13
ENDBRANCH  11  12
ENDBRANCH  10  11
ENDBRANCH   1  10
TORSDOF 13
ENDMDL
MODEL 2
REMARK VINA RESULT:    -3.770     15.410     16.867
REMARK INTER + INTRA:          -8.040
REMARK INTER:                  -6.364
REMARK INTRA:                  -1.676
REMARK UNBOUND:                -1.405
REMARK SMILES CCCCCCCCCCCCCCC(=O)[O-]
REMARK SMILES IDX 9 1 10 2 11 3 12 4 13 5 14 6 15 7 16 8 17 9 8 10 7 11 6 12
REMARK SMILES IDX 5 13 4 14 3 15 2 16 1 17
REMARK H PARENT
REMARK Flexibility Score: inf
ROOT
ATOM      1  C   UNL     1      33.539   9.025  46.327  1.00  0.00     0.000 C 
ENDROOT
BRANCH   1   2
ATOM      2  C   UNL     1      32.981   7.638  46.701  1.00  0.00     0.000 C 
BRANCH   2   3
ATOM      3  C   UNL     1      31.448   7.525  46.552  1.00  0.00     0.000 C 
BRANCH   3   4
ATOM      4  C   UNL     1      30.831   6.528  47.549  1.00  0.00     0.000 C 
BRANCH   4   5
ATOM      5  C   UNL     1      31.888   5.845  48.431  1.00  0.00     0.006 C 
BRANCH   5   6
ATOM      6  C   UNL     1      31.267   5.057  49.591  1.00  0.00     0.053 C 
BRANCH   6   7
ATOM      7  C   UNL     1      32.199   3.979  50.047  1.00  0.00     0.041 C 
ATOM      8  O   UNL     1      32.600   3.951  51.241  1.00  0.00    -0.550 OA
ATOM      9  O   UNL     1      32.663   3.033  49.143  1.00  0.00    -0.550 OA
ENDBRANCH   6   7
ENDBRANCH   5   6
ENDBRANCH   4   5
ENDBRANCH   3   4
ENDBRANCH   2   3
ENDBRANCH   1   2
BRANCH   1  10
ATOM     10  C   UNL     1      32.799   9.731  45.176  1.00  0.00     0.000 C 
BRANCH  10  11
ATOM     11  C   UNL     1      33.618   9.906  43.880  1.00  0.00    -0.000 C 
BRANCH  11  12
ATOM     12  C   UNL     1      34.566   8.743  43.535  1.00  0.00    -0.000 C 
BRANCH  12  13
ATOM     13  C   UNL     1      33.962   7.760  42.517  1.00  0.00    -0.000 C 
BRANCH  13  14
ATOM     14  C   UNL     1      33.188   6.608  43.184  1.00  0.00    -0.000 C 
BRANCH  14  15
ATOM     15  C   UNL     1      31.774   6.359  42.628  1.00  0.00    -0.000 C 
BRANCH  15  16
ATOM     16  C   UNL     1      30.897   7.620  42.632  1.00  0.00    -0.003 C 
ATOM     17  C   UNL     1      29.614   7.395  43.428  1.00  0.00     0.004 C 
ENDBRANCH  15  16
ENDBRANCH  14  15
ENDBRANCH  13  14
ENDBRANCH  12  13
ENDBRANCH  11  12
ENDBRANCH  10  11
ENDBRANCH   1  10
TORSDOF 13
ENDMDL
MODEL 3
REMARK VINA RESULT:    -3.763      3.669      6.197
REMARK INTER + INTRA:          -8.027
REMARK INTER:                  -5.742
REMARK INTRA:                  -2.285
REMARK UNBOUND:                -1.405
REMARK SMILES CCCCCCCCCCCCCCC(=O)[O-]
REMARK SMILES IDX 9 1 10 2 11 3 12 4 13 5 14 6 15 7 16 8 17 9 8 10 7 11 6 12
REMARK SMILES IDX 5 13 4 14 3 15 2 16 1 17
REMARK H PARENT
REMARK Flexibility Score: inf
ROOT
ATOM      1  C   UNL     1      21.739  -5.634  55.105  1.00  0.00     0.000 C 
ENDROOT
BRANCH   1   2
ATOM      2  C   UNL     1      21.584  -6.668  53.973  1.00  0.00     0.000 C 
BRANCH   2   3
ATOM      3  C   UNL     1      22.910  -7.013  53.261  1.00  0.00     0.000 C 
BRANCH   3   4
ATOM      4  C   UNL     1      24.044  -6.039  53.624  1.00  0.00     0.000 C 
BRANCH   4   5
ATOM      5  C   UNL     1      24.477  -5.168  52.435  1.00  0.00     0.006 C 
BRANCH   5   6
ATOM      6  C   UNL     1      23.629  -5.419  51.181  1.00  0.00     0.053 C 
BRANCH   6   7
ATOM      7  C   UNL     1      23.504  -4.164  50.377  1.00  0.00     0.041 C 
ATOM      8  O   UNL     1      23.073  -4.209  49.194  1.00  0.00    -0.550 OA
ATOM      9  O   UNL     1      23.907  -2.949  50.917  1.00  0.00    -0.550 OA
ENDBRANCH   6   7
ENDBRANCH   5   6
ENDBRANCH   4   5
ENDBRANCH   3   4
ENDBRANCH   2   3
ENDBRANCH   1   2
BRANCH   1  10
ATOM     10  C   UNL     1      20.855  -4.382  54.964  1.00  0.00     0.000 C 
BRANCH  10  11
ATOM     11  C   UNL     1      21.243  -3.431  53.813  1.00  0.00    -0.000 C 
BRANCH  11  12
ATOM     12  C   UNL     1      21.959  -2.136  54.239  1.00  0.00    -0.000 C 
BRANCH  12  13
ATOM     13  C   UNL     1      23.478  -2.315  54.396  1.00  0.00    -0.000 C 
BRANCH  13  14
ATOM     14  C   UNL     1      23.966  -2.067  55.836  1.00  0.00    -0.000 C 
BRANCH  14  15
ATOM     15  C   UNL     1      24.291  -3.334  56.647  1.00  0.00    -0.000 C 
BRANCH  15  16
ATOM     16  C   UNL     1      23.320  -3.564  57.814  1.00  0.00    -0.003 C 
ATOM     17  C   UNL     1      22.393  -2.366  58.003  1.00  0.00     0.004 C 
ENDBRANCH  15  16
ENDBRANCH  14  15
ENDBRANCH  13  14
ENDBRANCH  12  13
ENDBRANCH  11  12
ENDBRANCH  10  11
ENDBRANCH   1  10
TORSDOF 13
ENDMDL
MODEL 4
REMARK VINA RESULT:    -3.761     16.676     18.353
REMARK INTER + INTRA:          -8.023
REMARK INTER:                  -6.520
REMARK INTRA:                  -1.503
REMARK UNBOUND:                -1.405
REMARK SMILES CCCCCCCCCCCCCCC(=O)[O-]
REMARK SMILES IDX 9 1 10 2 11 3 12 4 13 5 14 6 15 7 16 8 17 9 8 10 7 11 6 12
REMARK SMILES IDX 5 13 4 14 3 15 2 16 1 17
REMARK H PARENT
REMARK Flexibility Score: inf
ROOT
ATOM      1  C   UNL     1      33.800   8.566  43.162  1.00  0.00     0.000 C 
ENDROOT
BRANCH   1   2
ATOM      2  C   UNL     1      32.448   8.554  42.422  1.00  0.00     0.000 C 
BRANCH   2   3
ATOM      3  C   UNL     1      31.580   7.316  42.736  1.00  0.00     0.000 C 
BRANCH   3   4
ATOM      4  C   UNL     1      32.420   6.041  42.929  1.00  0.00     0.000 C 
BRANCH   4   5
ATOM      5  C   UNL     1      32.246   5.040  41.777  1.00  0.00     0.006 C 
BRANCH   5   6
ATOM      6  C   UNL     1      33.047   5.433  40.528  1.00  0.00     0.053 C 
BRANCH   6   7
ATOM      7  C   UNL     1      34.515   5.321  40.795  1.00  0.00     0.041 C 
ATOM      8  O   UNL     1      35.247   6.344  40.749  1.00  0.00    -0.550 OA
ATOM      9  O   UNL     1      35.082   4.078  41.048  1.00  0.00    -0.550 OA
ENDBRANCH   6   7
ENDBRANCH   5   6
ENDBRANCH   4   5
ENDBRANCH   3   4
ENDBRANCH   2   3
ENDBRANCH   1   2
BRANCH   1  10
ATOM     10  C   UNL     1      33.744   9.103  44.604  1.00  0.00     0.000 C 
BRANCH  10  11
ATOM     11  C   UNL     1      34.244   8.127  45.688  1.00  0.00    -0.000 C 
BRANCH  11  12
ATOM     12  C   UNL     1      33.300   7.933  46.889  1.00  0.00    -0.000 C 
BRANCH  12  13
ATOM     13  C   UNL     1      31.896   7.459  46.477  1.00  0.00    -0.000 C 
BRANCH  13  14
ATOM     14  C   UNL     1      31.721   5.933  46.595  1.00  0.00    -0.000 C 
BRANCH  14  15
ATOM     15  C   UNL     1      30.934   5.456  47.829  1.00  0.00    -0.000 C 
BRANCH  15  16
ATOM     16  C   UNL     1      31.794   5.388  49.099  1.00  0.00    -0.003 C 
ATOM     17  C   UNL     1      31.783   3.983  49.696  1.00  0.00     0.004 C 
ENDBRANCH  15  16
ENDBRANCH  14  15
ENDBRANCH  13  14
ENDBRANCH  12  13
ENDBRANCH  11  12
ENDBRANCH  10  11
ENDBRANCH   1  10
TORSDOF 13
ENDMDL
MODEL 5
REMARK VINA RESULT:    -3.761      3.771      6.520
REMARK INTER + INTRA:          -8.023
REMARK INTER:                  -5.848
REMARK INTRA:                  -2.175
REMARK UNBOUND:                -1.405
REMARK SMILES CCCCCCCCCCCCCCC(=O)[O-]
REMARK SMILES IDX 9 1 10 2 11 3 12 4 13 5 14 6 15 7 16 8 17 9 8 10 7 11 6 12
REMARK SMILES IDX 5 13 4 14 3 15 2 16 1 17
REMARK H PARENT
REMARK Flexibility Score: inf
ROOT
ATOM      1  C   UNL     1      20.890  -5.029  55.875  1.00  0.00     0.000 C 
ENDROOT
BRANCH   1   2
ATOM      2  C   UNL     1      21.667  -6.081  55.060  1.00  0.00     0.000 C 
BRANCH   2   3
ATOM      3  C   UNL     1      22.283  -5.525  53.758  1.00  0.00     0.000 C 
BRANCH   3   4
ATOM      4  C   UNL     1      23.815  -5.667  53.724  1.00  0.00     0.000 C 
BRANCH   4   5
ATOM      5  C   UNL     1      24.399  -5.429  52.323  1.00  0.00     0.006 C 
BRANCH   5   6
ATOM      6  C   UNL     1      23.382  -4.803  51.359  1.00  0.00     0.053 C 
BRANCH   6   7
ATOM      7  C   UNL     1      23.095  -5.737  50.225  1.00  0.00     0.041 C 
ATOM      8  O   UNL     1      23.837  -5.744  49.207  1.00  0.00    -0.550 OA
ATOM      9  O   UNL     1      21.982  -6.566  50.272  1.00  0.00    -0.550 OA
ENDBRANCH   6   7
ENDBRANCH   5   6
ENDBRANCH   4   5
ENDBRANCH   3   4
ENDBRANCH   2   3
ENDBRANCH   1   2
BRANCH   1  10
ATOM     10  C   UNL     1      21.411  -4.806  57.307  1.00  0.00     0.000 C 
BRANCH  10  11
ATOM     11  C   UNL     1      22.134  -3.463  57.541  1.00  0.00    -0.000 C 
BRANCH  11  12
ATOM     12  C   UNL     1      23.670  -3.544  57.609  1.00  0.00    -0.000 C 
BRANCH  12  13
ATOM     13  C   UNL     1      24.359  -2.877  56.406  1.00  0.00    -0.000 C 
BRANCH  13  14
ATOM     14  C   UNL     1      23.482  -1.807  55.730  1.00  0.00    -0.000 C 
BRANCH  14  15
ATOM     15  C   UNL     1      23.161  -2.063  54.247  1.00  0.00    -0.000 C 
BRANCH  15  16
ATOM     16  C   UNL     1      21.661  -1.961  53.931  1.00  0.00    -0.003 C 
ATOM     17  C   UNL     1      20.943  -1.083  54.952  1.00  0.00     0.004 C 
ENDBRANCH  15  16
ENDBRANCH  14  15
ENDBRANCH  13  14
ENDBRANCH  12  13
ENDBRANCH  11  12
ENDBRANCH  10  11
ENDBRANCH   1  10
TORSDOF 13
ENDMDL
MODEL 6
REMARK VINA RESULT:    -3.727     17.508     18.954
REMARK INTER + INTRA:          -7.964
REMARK INTER:                  -6.719
REMARK INTRA:                  -1.246
REMARK UNBOUND:                -1.405
REMARK SMILES CCCCCCCCCCCCCCC(=O)[O-]
REMARK SMILES IDX 9 1 10 2 11 3 12 4 13 5 14 6 15 7 16 8 17 9 8 10 7 11 6 12
REMARK SMILES IDX 5 13 4 14 3 15 2 16 1 17
REMARK H PARENT
REMARK Flexibility Score: inf
ROOT
ATOM      1  C   UNL     1      31.389   6.484  39.322  1.00  0.00     0.000 C 
ENDROOT
BRANCH   1   2
ATOM      2  C   UNL     1      30.787   5.103  38.996  1.00  0.00     0.000 C 
BRANCH   2   3
ATOM      3  C   UNL     1      29.601   4.712  39.904  1.00  0.00     0.000 C 
BRANCH   3   4
ATOM      4  C   UNL     1      29.194   5.846  40.862  1.00  0.00     0.000 C 
BRANCH   4   5
ATOM      5  C   UNL     1      27.857   5.571  41.566  1.00  0.00     0.006 C 
BRANCH   5   6
ATOM      6  C   UNL     1      27.525   4.074  41.637  1.00  0.00     0.053 C 
BRANCH   6   7
ATOM      7  C   UNL     1      26.205   3.802  40.988  1.00  0.00     0.041 C 
ATOM      8  O   UNL     1      25.140   3.884  41.656  1.00  0.00    -0.550 OA
ATOM      9  O   UNL     1      26.153   3.413  39.656  1.00  0.00    -0.550 OA
ENDBRANCH   6   7
ENDBRANCH   5   6
ENDBRANCH   4   5
ENDBRANCH   3   4
ENDBRANCH   2   3
ENDBRANCH   1   2
BRANCH   1  10
ATOM     10  C   UNL     1      32.758   6.444  40.024  1.00  0.00     0.000 C 
BRANCH  10  11
ATOM     11  C   UNL     1      33.370   5.037  40.189  1.00  0.00    -0.000 C 
BRANCH  11  12
ATOM     12  C   UNL     1      34.488   4.922  41.242  1.00  0.00    -0.000 C 
BRANCH  12  13
ATOM     13  C   UNL     1      35.617   3.969  40.816  1.00  0.00    -0.000 C 
BRANCH  13  14
ATOM     14  C   UNL     1      35.804   3.907  39.289  1.00  0.00    -0.000 C 
BRANCH  14  15
ATOM     15  C   UNL     1      36.878   4.851  38.720  1.00  0.00    -0.000 C 
BRANCH  15  16
ATOM     16  C   UNL     1      36.298   6.175  38.201  1.00  0.00    -0.003 C 
ATOM     17  C   UNL     1      36.494   7.298  39.217  1.00  0.00     0.004 C 
ENDBRANCH  15  16
ENDBRANCH  14  15
ENDBRANCH  13  14
ENDBRANCH  12  13
ENDBRANCH  11  12
ENDBRANCH  10  11
ENDBRANCH   1  10
TORSDOF 13
ENDMDL
MODEL 7
REMARK VINA RESULT:    -3.713     14.998     16.194
REMARK INTER + INTRA:          -7.940
REMARK INTER:                  -6.390
REMARK INTRA:                  -1.550
REMARK UNBOUND:                -1.405
REMARK SMILES CCCCCCCCCCCCCCC(=O)[O-]
REMARK SMILES IDX 9 1 10 2 11 3 12 4 13 5 14 6 15 7 16 8 17 9 8 10 7 11 6 12
REMARK SMILES IDX 5 13 4 14 3 15 2 16 1 17
REMARK H PARENT
REMARK Flexibility Score: inf
ROOT
ATOM      1  C   UNL     1      24.154   6.043  41.739  1.00  0.00     0.000 C 
ENDROOT
BRANCH   1   2
ATOM      2  C   UNL     1      23.699   5.504  43.109  1.00  0.00     0.000 C 
BRANCH   2   3
ATOM      3  C   UNL     1      22.595   4.428  43.017  1.00  0.00     0.000 C 
BRANCH   3   4
ATOM      4  C   UNL     1      21.841   4.471  41.677  1.00  0.00     0.000 C 
BRANCH   4   5
ATOM      5  C   UNL     1      20.691   3.454  41.614  1.00  0.00     0.006 C 
BRANCH   5   6
ATOM      6  C   UNL     1      19.336   4.073  41.982  1.00  0.00     0.053 C 
BRANCH   6   7
ATOM      7  C   UNL     1      18.221   3.150  41.603  1.00  0.00     0.041 C 
ATOM      8  O   UNL     1      17.973   2.133  42.304  1.00  0.00    -0.550 OA
ATOM      9  O   UNL     1      17.486   3.386  40.448  1.00  0.00    -0.550 OA
ENDBRANCH   6   7
ENDBRANCH   5   6
ENDBRANCH   4   5
ENDBRANCH   3   4
ENDBRANCH   2   3
ENDBRANCH   1   2
BRANCH   1  10
ATOM     10  C   UNL     1      25.667   6.304  41.617  1.00  0.00     0.000 C 
BRANCH  10  11
ATOM     11  C   UNL     1      26.573   5.193  42.188  1.00  0.00    -0.000 C 
BRANCH  11  12
ATOM     12  C   UNL     1      26.318   3.781  41.628  1.00  0.00    -0.000 C 
BRANCH  12  13
ATOM     13  C   UNL     1      26.350   3.730  40.092  1.00  0.00    -0.000 C 
BRANCH  13  14
ATOM     14  C   UNL     1      25.072   3.124  39.485  1.00  0.00    -0.000 C 
BRANCH  14  15
ATOM     15  C   UNL     1      24.325   2.127  40.389  1.00  0.00    -0.000 C 
BRANCH  15  16
ATOM     16  C   UNL     1      23.495   1.106  39.598  1.00  0.00    -0.003 C 
ATOM     17  C   UNL     1      22.627   1.797  38.549  1.00  0.00     0.004 C 
ENDBRANCH  15  16
ENDBRANCH  14  15
ENDBRANCH  13  14
ENDBRANCH  12  13
ENDBRANCH  11  12
ENDBRANCH  10  11
ENDBRANCH   1  10
TORSDOF 13
ENDMDL
MODEL 8
REMARK VINA RESULT:    -3.706     14.187     15.658
REMARK INTER + INTRA:          -7.927
REMARK INTER:                  -5.645
REMARK INTRA:                  -2.281
REMARK UNBOUND:                -1.405
REMARK SMILES CCCCCCCCCCCCCCC(=O)[O-]
REMARK SMILES IDX 9 1 10 2 11 3 12 4 13 5 14 6 15 7 16 8 17 9 8 10 7 11 6 12
REMARK SMILES IDX 5 13 4 14 3 15 2 16 1 17
REMARK H PARENT
REMARK Flexibility Score: inf
ROOT
ATOM      1  C   UNL     1      30.030   9.003  45.227  1.00  0.00     0.000 C 
ENDROOT
BRANCH   1   2
ATOM      2  C   UNL     1      30.080   8.383  46.637  1.00  0.00     0.000 C 
BRANCH   2   3
ATOM      3  C   UNL     1      28.933   7.388  46.918  1.00  0.00     0.000 C 
BRANCH   3   4
ATOM      4  C   UNL     1      29.390   6.187  47.765  1.00  0.00     0.000 C 
BRANCH   4   5
ATOM      5  C   UNL     1      30.901   6.200  48.041  1.00  0.00     0.006 C 
BRANCH   5   6
ATOM      6  C   UNL     1      31.568   4.854  47.730  1.00  0.00     0.053 C 
BRANCH   6   7
ATOM      7  C   UNL     1      31.974   4.168  48.996  1.00  0.00     0.041 C 
ATOM      8  O   UNL     1      32.074   4.823  50.068  1.00  0.00    -0.550 OA
ATOM      9  O   UNL     1      32.289   2.816  48.984  1.00  0.00    -0.550 OA
ENDBRANCH   6   7
ENDBRANCH   5   6
ENDBRANCH   4   5
ENDBRANCH   3   4
ENDBRANCH   2   3
ENDBRANCH   1   2
BRANCH   1  10
ATOM     10  C   UNL     1      31.105   8.486  44.254  1.00  0.00     0.000 C 
BRANCH  10  11
ATOM     11  C   UNL     1      32.451   8.105  44.905  1.00  0.00    -0.000 C 
BRANCH  11  12
ATOM     12  C   UNL     1      32.827   6.614  44.822  1.00  0.00    -0.000 C 
BRANCH  12  13
ATOM     13  C   UNL     1      32.977   6.114  43.375  1.00  0.00    -0.000 C 
BRANCH  13  14
ATOM     14  C   UNL     1      31.840   5.168  42.947  1.00  0.00    -0.000 C 
BRANCH  14  15
ATOM     15  C   UNL     1      30.991   4.598  44.099  1.00  0.00    -0.000 C 
BRANCH  15  16
ATOM     16  C   UNL     1      29.527   5.061  44.050  1.00  0.00    -0.003 C 
ATOM     17  C   UNL     1      29.198   5.702  42.704  1.00  0.00     0.004 C 
ENDBRANCH  15  16
ENDBRANCH  14  15
ENDBRANCH  13  14
ENDBRANCH  12  13
ENDBRANCH  11  12
ENDBRANCH  10  11
ENDBRANCH   1  10
TORSDOF 13
ENDMDL
MODEL 9
REMARK VINA RESULT:    -3.659     16.017     17.268
REMARK INTER + INTRA:          -7.844
REMARK INTER:                  -6.854
REMARK INTRA:                  -0.991
REMARK UNBOUND:                -1.405
REMARK SMILES CCCCCCCCCCCCCCC(=O)[O-]
REMARK SMILES IDX 9 1 10 2 11 3 12 4 13 5 14 6 15 7 16 8 17 9 8 10 7 11 6 12
REMARK SMILES IDX 5 13 4 14 3 15 2 16 1 17
REMARK H PARENT
REMARK Flexibility Score: inf
ROOT
ATOM      1  C   UNL     1      31.127   7.209  42.408  1.00  0.00     0.000 C 
ENDROOT
BRANCH   1   2
ATOM      2  C   UNL     1      31.984   7.639  43.614  1.00  0.00     0.000 C 
BRANCH   2   3
ATOM      3  C   UNL     1      31.993   6.611  44.767  1.00  0.00     0.000 C 
BRANCH   3   4
ATOM      4  C   UNL     1      32.114   7.277  46.149  1.00  0.00     0.000 C 
BRANCH   4   5
ATOM      5  C   UNL     1      31.267   6.572  47.219  1.00  0.00     0.006 C 
BRANCH   5   6
ATOM      6  C   UNL     1      31.481   5.053  47.235  1.00  0.00     0.053 C 
BRANCH   6   7
ATOM      7  C   UNL     1      31.813   4.588  48.618  1.00  0.00     0.041 C 
ATOM      8  O   UNL     1      31.828   5.406  49.576  1.00  0.00    -0.550 OA
ATOM      9  O   UNL     1      32.152   3.260  48.842  1.00  0.00    -0.550 OA
ENDBRANCH   6   7
ENDBRANCH   5   6
ENDBRANCH   4   5
ENDBRANCH   3   4
ENDBRANCH   2   3
ENDBRANCH   1   2
BRANCH   1  10
ATOM     10  C   UNL     1      31.186   5.707  42.075  1.00  0.00     0.000 C 
BRANCH  10  11
ATOM     11  C   UNL     1      31.905   5.355  40.757  1.00  0.00    -0.000 C 
BRANCH  11  12
ATOM     12  C   UNL     1      32.925   6.398  40.262  1.00  0.00    -0.000 C 
BRANCH  12  13
ATOM     13  C   UNL     1      34.342   6.157  40.809  1.00  0.00    -0.000 C 
BRANCH  13  14
ATOM     14  C   UNL     1      34.571   4.703  41.259  1.00  0.00    -0.000 C 
BRANCH  14  15
ATOM     15  C   UNL     1      35.665   3.941  40.488  1.00  0.00    -0.000 C 
BRANCH  15  16
ATOM     16  C   UNL     1      36.276   4.764  39.345  1.00  0.00    -0.003 C 
ATOM     17  C   UNL     1      36.682   3.867  38.178  1.00  0.00     0.004 C 
ENDBRANCH  15  16
ENDBRANCH  14  15
ENDBRANCH  13  14
ENDBRANCH  12  13
ENDBRANCH  11  12
ENDBRANCH  10  11
ENDBRANCH   1  10
TORSDOF 13
ENDMDL
