MODEL 1
REMARK VINA RESULT:    -5.374      0.000      0.000
REMARK INTER + INTRA:          -7.500
REMARK INTER:                  -7.259
REMARK INTRA:                  -0.241
REMARK UNBOUND:                -0.241
REMARK SMILES CCCCCCCC(=O)[O-]
REMARK SMILES IDX 5 1 6 2 7 3 8 4 9 5 10 6 4 7 3 8 2 9 1 10
REMARK H PARENT
REMARK Flexibility Score: inf
ROOT
ATOM      1  C   UNL     1     114.926 104.215 113.244  1.00  0.00     0.000 C 
ENDROOT
BRANCH   1   2
ATOM      2  C   UNL     1     116.183 105.055 113.516  1.00  0.00     0.006 C 
BRANCH   2   3
ATOM      3  C   UNL     1     117.378 104.624 112.656  1.00  0.00     0.053 C 
BRANCH   3   4
ATOM      4  C   UNL     1     118.645 105.213 113.191  1.00  0.00     0.041 C 
ATOM      5  O   UNL     1     119.135 104.790 114.271  1.00  0.00    -0.550 OA
ATOM      6  O   UNL     1     119.260 106.265 112.522  1.00  0.00    -0.550 OA
ENDBRANCH   3   4
ENDBRANCH   2   3
ENDBRANCH   1   2
BRANCH   1   7
ATOM      7  C   UNL     1     114.417 104.359 111.802  1.00  0.00     0.000 C 
BRANCH   7   8
ATOM      8  C   UNL     1     114.239 102.983 111.143  1.00  0.00    -0.000 C 
BRANCH   8   9
ATOM      9  C   UNL     1     113.290 102.068 111.933  1.00  0.00    -0.003 C 
ATOM     10  C   UNL     1     111.873 102.049 111.361  1.00  0.00     0.004 C 
ENDBRANCH   8   9
ENDBRANCH   7   8
ENDBRANCH   1   7
TORSDOF 6
ENDMDL
MODEL 2
REMARK VINA RESULT:    -5.358      0.145      1.026
REMARK INTER + INTRA:          -7.478
REMARK INTER:                  -7.233
REMARK INTRA:                  -0.245
REMARK UNBOUND:                -0.241
REMARK SMILES CCCCCCCC(=O)[O-]
REMARK SMILES IDX 5 1 6 2 7 3 8 4 9 5 10 6 4 7 3 8 2 9 1 10
REMARK H PARENT
REMARK Flexibility Score: inf
ROOT
ATOM      1  C   UNL     1     114.903 104.290 113.320  1.00  0.00     0.000 C 
ENDROOT
BRANCH   1   2
ATOM      2  C   UNL     1     116.193 105.079 113.595  1.00  0.00     0.006 C 
BRANCH   2   3
ATOM      3  C   UNL     1     117.363 104.622 112.714  1.00  0.00     0.053 C 
BRANCH   3   4
ATOM      4  C   UNL     1     118.616 105.346 113.096  1.00  0.00     0.041 C 
ATOM      5  O   UNL     1     119.078 106.251 112.351  1.00  0.00    -0.550 OA
ATOM      6  O   UNL     1     119.302 104.987 114.249  1.00  0.00    -0.550 OA
ENDBRANCH   3   4
ENDBRANCH   2   3
ENDBRANCH   1   2
BRANCH   1   7
ATOM      7  C   UNL     1     114.425 104.426 111.865  1.00  0.00     0.000 C 
BRANCH   7   8
ATOM      8  C   UNL     1     114.276 103.046 111.207  1.00  0.00    -0.000 C 
BRANCH   8   9
ATOM      9  C   UNL     1     113.329 102.119 111.985  1.00  0.00    -0.003 C 
ATOM     10  C   UNL     1     111.918 102.088 111.398  1.00  0.00     0.004 C 
ENDBRANCH   8   9
ENDBRANCH   7   8
ENDBRANCH   1   7
TORSDOF 6
ENDMDL
MODEL 3
REMARK VINA RESULT:    -5.057      3.819      5.780
REMARK INTER + INTRA:          -7.072
REMARK INTER:                  -6.733
REMARK INTRA:                  -0.339
REMARK UNBOUND:                -0.241
REMARK SMILES CCCCCCCC(=O)[O-]
REMARK SMILES IDX 5 1 6 2 7 3 8 4 9 5 10 6 4 7 3 8 2 9 1 10
REMARK H PARENT
REMARK Flexibility Score: inf
ROOT
ATOM      1  C   UNL     1     114.488 104.447 111.867  1.00  0.00     0.000 C 
ENDROOT
BRANCH   1   2
ATOM      2  C   UNL     1     114.312 103.097 111.155  1.00  0.00     0.006 C 
BRANCH   2   3
ATOM      3  C   UNL     1     113.569 102.068 112.017  1.00  0.00     0.053 C 
BRANCH   3   4
ATOM      4  C   UNL     1     112.093 102.305 111.957  1.00  0.00     0.041 C 
ATOM      5  O   UNL     1     111.484 102.767 112.958  1.00  0.00    -0.550 OA
ATOM      6  O   UNL     1     111.381 101.970 110.812  1.00  0.00    -0.550 OA
ENDBRANCH   3   4
ENDBRANCH   2   3
ENDBRANCH   1   2
BRANCH   1   7
ATOM      7  C   UNL     1     114.872 104.290 113.347  1.00  0.00     0.000 C 
BRANCH   7   8
ATOM      8  C   UNL     1     116.156 105.070 113.666  1.00  0.00    -0.000 C 
BRANCH   8   9
ATOM      9  C   UNL     1     117.344 104.634 112.795  1.00  0.00    -0.003 C 
ATOM     10  C   UNL     1     118.618 104.402 113.606  1.00  0.00     0.004 C 
ENDBRANCH   8   9
ENDBRANCH   7   8
ENDBRANCH   1   7
TORSDOF 6
ENDMDL
MODEL 4
REMARK VINA RESULT:    -4.760      0.957      1.758
REMARK INTER + INTRA:          -6.671
REMARK INTER:                  -6.481
REMARK INTRA:                  -0.189
REMARK UNBOUND:                -0.241
REMARK SMILES CCCCCCCC(=O)[O-]
REMARK SMILES IDX 5 1 6 2 7 3 8 4 9 5 10 6 4 7 3 8 2 9 1 10
REMARK H PARENT
REMARK Flexibility Score: inf
ROOT
ATOM      1  C   UNL     1     115.341 103.252 111.098  1.00  0.00     0.000 C 
ENDROOT
BRANCH   1   2
ATOM      2  C   UNL     1     116.628 103.971 111.532  1.00  0.00     0.006 C 
BRANCH   2   3
ATOM      3  C   UNL     1     116.569 104.460 112.985  1.00  0.00     0.053 C 
BRANCH   3   4
ATOM      4  C   UNL     1     117.913 104.949 113.425  1.00  0.00     0.041 C 
ATOM      5  O   UNL     1     118.456 105.923 112.839  1.00  0.00    -0.550 OA
ATOM      6  O   UNL     1     118.589 104.299 114.449  1.00  0.00    -0.550 OA
ENDBRANCH   3   4
ENDBRANCH   2   3
ENDBRANCH   1   2
BRANCH   1   7
ATOM      7  C   UNL     1     114.167 103.512 112.054  1.00  0.00     0.000 C 
BRANCH   7   8
ATOM      8  C   UNL     1     113.341 102.234 112.269  1.00  0.00    -0.000 C 
BRANCH   8   9
ATOM      9  C   UNL     1     111.829 102.503 112.284  1.00  0.00    -0.003 C 
ATOM     10  C   UNL     1     111.099 101.844 111.114  1.00  0.00     0.004 C 
ENDBRANCH   8   9
ENDBRANCH   7   8
ENDBRANCH   1   7
TORSDOF 6
ENDMDL
MODEL 5
REMARK VINA RESULT:    -3.827      3.278      5.557
REMARK INTER + INTRA:          -5.410
REMARK INTER:                  -5.221
REMARK INTRA:                  -0.188
REMARK UNBOUND:                -0.241
REMARK SMILES CCCCCCCC(=O)[O-]
REMARK SMILES IDX 5 1 6 2 7 3 8 4 9 5 10 6 4 7 3 8 2 9 1 10
REMARK H PARENT
REMARK Flexibility Score: inf
ROOT
ATOM      1  C   UNL     1     116.009 103.710 111.914  1.00  0.00     0.000 C 
ENDROOT
BRANCH   1   2
ATOM      2  C   UNL     1     115.051 104.240 112.992  1.00  0.00     0.006 C 
BRANCH   2   3
ATOM      3  C   UNL     1     113.576 104.031 112.625  1.00  0.00     0.053 C 
BRANCH   3   4
ATOM      4  C   UNL     1     113.348 102.627 112.162  1.00  0.00     0.041 C 
ATOM      5  O   UNL     1     113.683 101.656 112.892  1.00  0.00    -0.550 OA
ATOM      6  O   UNL     1     112.813 102.388 110.903  1.00  0.00    -0.550 OA
ENDBRANCH   3   4
ENDBRANCH   2   3
ENDBRANCH   1   2
BRANCH   1   7
ATOM      7  C   UNL     1     117.416 104.317 112.022  1.00  0.00     0.000 C 
BRANCH   7   8
ATOM      8  C   UNL     1     117.804 104.543 113.491  1.00  0.00    -0.000 C 
BRANCH   8   9
ATOM      9  C   UNL     1     119.090 105.371 113.642  1.00  0.00    -0.003 C 
ATOM     10  C   UNL     1     119.282 106.376 112.507  1.00  0.00     0.004 C 
ENDBRANCH   8   9
ENDBRANCH   7   8
ENDBRANCH   1   7
TORSDOF 6
ENDMDL
MODEL 6
REMARK VINA RESULT:    -3.510      2.888      5.114
REMARK INTER + INTRA:          -4.983
REMARK INTER:                  -4.607
REMARK INTRA:                  -0.375
REMARK UNBOUND:                -0.241
REMARK SMILES CCCCCCCC(=O)[O-]
REMARK SMILES IDX 5 1 6 2 7 3 8 4 9 5 10 6 4 7 3 8 2 9 1 10
REMARK H PARENT
REMARK Flexibility Score: inf
ROOT
ATOM      1  C   UNL     1     116.013 105.763 113.725  1.00  0.00     0.000 C 
ENDROOT
BRANCH   1   2
ATOM      2  C   UNL     1     115.284 104.421 113.554  1.00  0.00     0.006 C 
BRANCH   2   3
ATOM      3  C   UNL     1     114.241 104.455 112.430  1.00  0.00     0.053 C 
BRANCH   3   4
ATOM      4  C   UNL     1     114.440 103.302 111.498  1.00  0.00     0.041 C 
ATOM      5  O   UNL     1     113.683 102.297 111.562  1.00  0.00    -0.550 OA
ATOM      6  O   UNL     1     115.492 103.313 110.592  1.00  0.00    -0.550 OA
ENDBRANCH   3   4
ENDBRANCH   2   3
ENDBRANCH   1   2
BRANCH   1   7
ATOM      7  C   UNL     1     117.342 105.817 112.956  1.00  0.00     0.000 C 
BRANCH   7   8
ATOM      8  C   UNL     1     118.176 104.552 113.213  1.00  0.00    -0.000 C 
BRANCH   8   9
ATOM      9  C   UNL     1     119.116 104.700 114.420  1.00  0.00    -0.003 C 
ATOM     10  C   UNL     1     119.244 103.411 115.231  1.00  0.00     0.004 C 
ENDBRANCH   8   9
ENDBRANCH   7   8
ENDBRANCH   1   7
TORSDOF 6
ENDMDL
MODEL 7
REMARK VINA RESULT:    -3.196      2.244      3.430
REMARK INTER + INTRA:          -4.558
REMARK INTER:                  -4.344
REMARK INTRA:                  -0.213
REMARK UNBOUND:                -0.241
REMARK SMILES CCCCCCCC(=O)[O-]
REMARK SMILES IDX 5 1 6 2 7 3 8 4 9 5 10 6 4 7 3 8 2 9 1 10
REMARK H PARENT
REMARK Flexibility Score: inf
ROOT
ATOM      1  C   UNL     1     113.186 101.917 111.763  1.00  0.00     0.000 C 
ENDROOT
BRANCH   1   2
ATOM      2  C   UNL     1     113.707 103.309 112.153  1.00  0.00     0.006 C 
BRANCH   2   3
ATOM      3  C   UNL     1     115.061 103.634 111.510  1.00  0.00     0.053 C 
BRANCH   3   4
ATOM      4  C   UNL     1     115.988 104.232 112.521  1.00  0.00     0.041 C 
ATOM      5  O   UNL     1     117.235 104.149 112.365  1.00  0.00    -0.550 OA
ATOM      6  O   UNL     1     115.476 104.838 113.661  1.00  0.00    -0.550 OA
ENDBRANCH   3   4
ENDBRANCH   2   3
ENDBRANCH   1   2
BRANCH   1   7
ATOM      7  C   UNL     1     111.722 101.941 111.297  1.00  0.00     0.000 C 
BRANCH   7   8
ATOM      8  C   UNL     1     111.138 103.359 111.401  1.00  0.00    -0.000 C 
BRANCH   8   9
ATOM      9  C   UNL     1     109.782 103.492 110.690  1.00  0.00    -0.003 C 
ATOM     10  C   UNL     1     109.118 104.847 110.934  1.00  0.00     0.004 C 
ENDBRANCH   8   9
ENDBRANCH   7   8
ENDBRANCH   1   7
TORSDOF 6
ENDMDL
MODEL 8
REMARK VINA RESULT:    -2.888      3.903      5.432
REMARK INTER + INTRA:          -4.142
REMARK INTER:                  -3.940
REMARK INTRA:                  -0.201
REMARK UNBOUND:                -0.241
REMARK SMILES CCCCCCCC(=O)[O-]
REMARK SMILES IDX 5 1 6 2 7 3 8 4 9 5 10 6 4 7 3 8 2 9 1 10
REMARK H PARENT
REMARK Flexibility Score: inf
ROOT
ATOM      1  C   UNL     1     110.667 102.942 111.006  1.00  0.00     0.000 C 
ENDROOT
BRANCH   1   2
ATOM      2  C   UNL     1     111.587 102.414 112.117  1.00  0.00     0.006 C 
BRANCH   2   3
ATOM      3  C   UNL     1     112.972 102.011 111.594  1.00  0.00     0.053 C 
BRANCH   3   4
ATOM      4  C   UNL     1     113.942 103.138 111.765  1.00  0.00     0.041 C 
ATOM      5  O   UNL     1     114.041 103.727 112.874  1.00  0.00    -0.550 OA
ATOM      6  O   UNL     1     114.701 103.571 110.686  1.00  0.00    -0.550 OA
ENDBRANCH   3   4
ENDBRANCH   2   3
ENDBRANCH   1   2
BRANCH   1   7
ATOM      7  C   UNL     1     110.371 104.444 111.145  1.00  0.00     0.000 C 
BRANCH   7   8
ATOM      8  C   UNL     1     108.913 104.752 110.769  1.00  0.00    -0.000 C 
BRANCH   8   9
ATOM      9  C   UNL     1     108.512 106.199 111.096  1.00  0.00    -0.003 C 
ATOM     10  C   UNL     1     108.000 106.362 112.526  1.00  0.00     0.004 C 
ENDBRANCH   8   9
ENDBRANCH   7   8
ENDBRANCH   1   7
TORSDOF 6
ENDMDL
MODEL 9
REMARK VINA RESULT:    -2.669      5.546      7.320
REMARK INTER + INTRA:          -3.846
REMARK INTER:                  -3.635
REMARK INTRA:                  -0.211
REMARK UNBOUND:                -0.241
REMARK SMILES CCCCCCCC(=O)[O-]
REMARK SMILES IDX 5 1 6 2 7 3 8 4 9 5 10 6 4 7 3 8 2 9 1 10
REMARK H PARENT
REMARK Flexibility Score: inf
ROOT
ATOM      1  C   UNL     1     110.458 103.039 110.592  1.00  0.00     0.000 C 
ENDROOT
BRANCH   1   2
ATOM      2  C   UNL     1     109.942 104.220 111.429  1.00  0.00     0.006 C 
BRANCH   2   3
ATOM      3  C   UNL     1     108.838 105.011 110.716  1.00  0.00     0.053 C 
BRANCH   3   4
ATOM      4  C   UNL     1     108.458 106.215 111.519  1.00  0.00     0.041 C 
ATOM      5  O   UNL     1     107.943 106.079 112.660  1.00  0.00    -0.550 OA
ATOM      6  O   UNL     1     108.626 107.487 110.987  1.00  0.00    -0.550 OA
ENDBRANCH   3   4
ENDBRANCH   2   3
ENDBRANCH   1   2
BRANCH   1   7
ATOM      7  C   UNL     1     111.214 102.000 111.435  1.00  0.00     0.000 C 
BRANCH   7   8
ATOM      8  C   UNL     1     112.360 102.660 112.218  1.00  0.00    -0.000 C 
BRANCH   8   9
ATOM      9  C   UNL     1     113.681 102.672 111.433  1.00  0.00    -0.003 C 
ATOM     10  C   UNL     1     114.756 103.529 112.099  1.00  0.00     0.004 C 
ENDBRANCH   8   9
ENDBRANCH   7   8
ENDBRANCH   1   7
TORSDOF 6
ENDMDL
