MODEL 1
REMARK VINA RESULT:    -7.033      0.000      0.000
REMARK INTER + INTRA:          -7.239
REMARK INTER:                  -7.239
REMARK INTRA:                   0.000
REMARK UNBOUND:                 0.000
REMARK SMILES O=c1ccc2ccc(O)cc2o1
REMARK SMILES IDX 6 1 7 2 8 3 10 4 11 5 5 6 4 7 3 8 2 9 1 10 12 11 9 12
REMARK H PARENT 9 13
REMARK Flexibility Score: inf
ROOT
ATOM      1  C   UNL     1       9.372  68.027   1.414  1.00  0.00     0.016 A 
ATOM      2  C   UNL     1       9.543  68.791   2.573  1.00  0.00     0.047 A 
ATOM      3  C   UNL     1       9.892  70.147   2.483  1.00  0.00     0.119 A 
ATOM      4  C   UNL     1      10.073  70.739   1.226  1.00  0.00     0.094 A 
ATOM      5  C   UNL     1       9.904  69.983   0.062  1.00  0.00     0.142 A 
ATOM      6  C   UNL     1       9.551  68.619   0.155  1.00  0.00     0.018 A 
ATOM      7  C   UNL     1       9.391  67.889  -1.027  1.00  0.00     0.019 A 
ATOM      8  C   UNL     1       9.580  68.524  -2.254  1.00  0.00     0.094 A 
ATOM      9  C   UNL     1       9.929  69.879  -2.269  1.00  0.00     0.336 A 
ATOM     10  O   UNL     1      10.105  70.470  -3.367  1.00  0.00    -0.246 OA
ATOM     11  O   UNL     1      10.076  70.551  -1.130  1.00  0.00    -0.423 OA
ENDROOT
BRANCH   3  12
ATOM     12  O   UNL     1      10.064  70.912   3.633  1.00  0.00    -0.508 OA
ATOM     13  H   UNL     1      10.089  71.924   3.598  1.00  0.00     0.293 HD
ENDBRANCH   3  12
TORSDOF 1
ENDMDL
MODEL 2
REMARK VINA RESULT:    -7.009      0.803      4.230
REMARK INTER + INTRA:          -7.214
REMARK INTER:                  -7.214
REMARK INTRA:                   0.000
REMARK UNBOUND:                 0.000
REMARK SMILES O=c1ccc2ccc(O)cc2o1
REMARK SMILES IDX 6 1 7 2 8 3 10 4 11 5 5 6 4 7 3 8 2 9 1 10 12 11 9 12
REMARK H PARENT 9 13
REMARK Flexibility Score: inf
ROOT
ATOM      1  C   UNL     1       9.673  68.016  -0.922  1.00  0.00     0.016 A 
ATOM      2  C   UNL     1       9.720  68.714  -2.134  1.00  0.00     0.047 A 
ATOM      3  C   UNL     1       9.755  70.117  -2.142  1.00  0.00     0.119 A 
ATOM      4  C   UNL     1       9.743  70.823  -0.932  1.00  0.00     0.094 A 
ATOM      5  C   UNL     1       9.697  70.133   0.284  1.00  0.00     0.142 A 
ATOM      6  C   UNL     1       9.662  68.721   0.290  1.00  0.00     0.018 A 
ATOM      7  C   UNL     1       9.615  68.060   1.521  1.00  0.00     0.019 A 
ATOM      8  C   UNL     1       9.605  68.807   2.698  1.00  0.00     0.094 A 
ATOM      9  C   UNL     1       9.641  70.203   2.616  1.00  0.00     0.336 A 
ATOM     10  O   UNL     1       9.634  70.895   3.668  1.00  0.00    -0.246 OA
ATOM     11  O   UNL     1       9.685  70.808   1.431  1.00  0.00    -0.423 OA
ENDROOT
BRANCH   3  12
ATOM     12  O   UNL     1       9.801  70.817  -3.344  1.00  0.00    -0.508 OA
ATOM     13  H   UNL     1       9.582  71.806  -3.391  1.00  0.00     0.293 HD
ENDBRANCH   3  12
TORSDOF 1
ENDMDL
MODEL 3
REMARK VINA RESULT:    -6.849      1.519      2.395
REMARK INTER + INTRA:          -7.049
REMARK INTER:                  -7.049
REMARK INTRA:                   0.000
REMARK UNBOUND:                 0.000
REMARK SMILES O=c1ccc2ccc(O)cc2o1
REMARK SMILES IDX 6 1 7 2 8 3 10 4 11 5 5 6 4 7 3 8 2 9 1 10 12 11 9 12
REMARK H PARENT 9 13
REMARK Flexibility Score: inf
ROOT
ATOM      1  C   UNL     1      10.095  71.993   0.105  1.00  0.00     0.016 A 
ATOM      2  C   UNL     1      10.119  72.071   1.502  1.00  0.00     0.047 A 
ATOM      3  C   UNL     1       9.957  70.914   2.278  1.00  0.00     0.119 A 
ATOM      4  C   UNL     1       9.770  69.674   1.654  1.00  0.00     0.094 A 
ATOM      5  C   UNL     1       9.745  69.586   0.258  1.00  0.00     0.142 A 
ATOM      6  C   UNL     1       9.909  70.753  -0.522  1.00  0.00     0.018 A 
ATOM      7  C   UNL     1       9.878  70.633  -1.915  1.00  0.00     0.019 A 
ATOM      8  C   UNL     1       9.690  69.376  -2.489  1.00  0.00     0.094 A 
ATOM      9  C   UNL     1       9.534  68.265  -1.653  1.00  0.00     0.336 A 
ATOM     10  O   UNL     1       9.362  67.122  -2.153  1.00  0.00    -0.246 OA
ATOM     11  O   UNL     1       9.567  68.406  -0.330  1.00  0.00    -0.423 OA
ENDROOT
BRANCH   3  12
ATOM     12  O   UNL     1       9.980  70.986   3.669  1.00  0.00    -0.508 OA
ATOM     13  H   UNL     1       9.576  70.256   4.244  1.00  0.00     0.293 HD
ENDBRANCH   3  12
TORSDOF 1
ENDMDL
MODEL 4
REMARK VINA RESULT:    -6.813      1.745      4.542
REMARK INTER + INTRA:          -7.012
REMARK INTER:                  -7.012
REMARK INTRA:                   0.000
REMARK UNBOUND:                 0.000
REMARK SMILES O=c1ccc2ccc(O)cc2o1
REMARK SMILES IDX 6 1 7 2 8 3 10 4 11 5 5 6 4 7 3 8 2 9 1 10 12 11 9 12
REMARK H PARENT 9 13
REMARK Flexibility Score: inf
ROOT
ATOM      1  C   UNL     1      10.044  71.954   0.262  1.00  0.00     0.016 A 
ATOM      2  C   UNL     1      10.017  71.993  -1.137  1.00  0.00     0.047 A 
ATOM      3  C   UNL     1       9.809  70.817  -1.874  1.00  0.00     0.119 A 
ATOM      4  C   UNL     1       9.627  69.598  -1.209  1.00  0.00     0.094 A 
ATOM      5  C   UNL     1       9.652  69.549   0.189  1.00  0.00     0.142 A 
ATOM      6  C   UNL     1       9.861  70.734   0.930  1.00  0.00     0.018 A 
ATOM      7  C   UNL     1       9.882  70.653   2.326  1.00  0.00     0.019 A 
ATOM      8  C   UNL     1       9.695  69.416   2.941  1.00  0.00     0.094 A 
ATOM      9  C   UNL     1       9.494  68.285   2.144  1.00  0.00     0.336 A 
ATOM     10  O   UNL     1       9.324  67.159   2.681  1.00  0.00    -0.246 OA
ATOM     11  O   UNL     1       9.479  68.389   0.817  1.00  0.00    -0.423 OA
ENDROOT
BRANCH   3  12
ATOM     12  O   UNL     1       9.782  70.850  -3.266  1.00  0.00    -0.508 OA
ATOM     13  H   UNL     1      10.634  70.843  -3.813  1.00  0.00     0.293 HD
ENDBRANCH   3  12
TORSDOF 1
ENDMDL
MODEL 5
REMARK VINA RESULT:    -6.787      1.730      3.886
REMARK INTER + INTRA:          -6.985
REMARK INTER:                  -6.985
REMARK INTRA:                   0.000
REMARK UNBOUND:                 0.000
REMARK SMILES O=c1ccc2ccc(O)cc2o1
REMARK SMILES IDX 6 1 7 2 8 3 10 4 11 5 5 6 4 7 3 8 2 9 1 10 12 11 9 12
REMARK H PARENT 9 13
REMARK Flexibility Score: inf
ROOT
ATOM      1  C   UNL     1      10.031  69.437  -2.189  1.00  0.00     0.016 A 
ATOM      2  C   UNL     1      10.127  70.819  -2.388  1.00  0.00     0.047 A 
ATOM      3  C   UNL     1      10.063  71.697  -1.295  1.00  0.00     0.119 A 
ATOM      4  C   UNL     1       9.900  71.190   0.000  1.00  0.00     0.094 A 
ATOM      5  C   UNL     1       9.803  69.810   0.208  1.00  0.00     0.142 A 
ATOM      6  C   UNL     1       9.869  68.928  -0.893  1.00  0.00     0.018 A 
ATOM      7  C   UNL     1       9.768  67.554  -0.653  1.00  0.00     0.019 A 
ATOM      8  C   UNL     1       9.608  67.098   0.655  1.00  0.00     0.094 A 
ATOM      9  C   UNL     1       9.550  68.030   1.696  1.00  0.00     0.336 A 
ATOM     10  O   UNL     1       9.406  67.638   2.883  1.00  0.00    -0.246 OA
ATOM     11  O   UNL     1       9.649  69.333   1.440  1.00  0.00    -0.423 OA
ENDROOT
BRANCH   3  12
ATOM     12  O   UNL     1      10.158  73.073  -1.486  1.00  0.00    -0.508 OA
ATOM     13  H   UNL     1      10.985  73.591  -1.213  1.00  0.00     0.293 HD
ENDBRANCH   3  12
TORSDOF 1
ENDMDL
MODEL 6
REMARK VINA RESULT:    -6.695      1.594      2.190
REMARK INTER + INTRA:          -6.891
REMARK INTER:                  -6.891
REMARK INTRA:                   0.000
REMARK UNBOUND:                 0.000
REMARK SMILES O=c1ccc2ccc(O)cc2o1
REMARK SMILES IDX 6 1 7 2 8 3 10 4 11 5 5 6 4 7 3 8 2 9 1 10 12 11 9 12
REMARK H PARENT 9 13
REMARK Flexibility Score: inf
ROOT
ATOM      1  C   UNL     1       9.387  69.751   2.588  1.00  0.00     0.016 A 
ATOM      2  C   UNL     1       9.765  71.097   2.654  1.00  0.00     0.047 A 
ATOM      3  C   UNL     1      10.134  71.786   1.489  1.00  0.00     0.119 A 
ATOM      4  C   UNL     1      10.126  71.125   0.254  1.00  0.00     0.094 A 
ATOM      5  C   UNL     1       9.750  69.780   0.179  1.00  0.00     0.142 A 
ATOM      6  C   UNL     1       9.378  69.088   1.353  1.00  0.00     0.018 A 
ATOM      7  C   UNL     1       9.007  67.744   1.245  1.00  0.00     0.019 A 
ATOM      8  C   UNL     1       9.015  67.131  -0.007  1.00  0.00     0.094 A 
ATOM      9  C   UNL     1       9.395  67.878  -1.126  1.00  0.00     0.336 A 
ATOM     10  O   UNL     1       9.408  67.342  -2.265  1.00  0.00    -0.246 OA
ATOM     11  O   UNL     1       9.743  69.157  -0.997  1.00  0.00    -0.423 OA
ENDROOT
BRANCH   3  12
ATOM     12  O   UNL     1      10.511  73.125   1.548  1.00  0.00    -0.508 OA
ATOM     13  H   UNL     1      10.292  73.703   2.351  1.00  0.00     0.293 HD
ENDBRANCH   3  12
TORSDOF 1
ENDMDL
MODEL 7
REMARK VINA RESULT:    -6.621      1.951      3.071
REMARK INTER + INTRA:          -6.815
REMARK INTER:                  -6.815
REMARK INTRA:                   0.000
REMARK UNBOUND:                 0.000
REMARK SMILES O=c1ccc2ccc(O)cc2o1
REMARK SMILES IDX 6 1 7 2 8 3 10 4 11 5 5 6 4 7 3 8 2 9 1 10 12 11 9 12
REMARK H PARENT 9 13
REMARK Flexibility Score: inf
ROOT
ATOM      1  C   UNL     1       9.924  69.029   2.883  1.00  0.00     0.016 A 
ATOM      2  C   UNL     1       9.464  67.709   2.825  1.00  0.00     0.047 A 
ATOM      3  C   UNL     1       8.945  67.192   1.628  1.00  0.00     0.119 A 
ATOM      4  C   UNL     1       8.885  68.000   0.486  1.00  0.00     0.094 A 
ATOM      5  C   UNL     1       9.343  69.321   0.535  1.00  0.00     0.142 A 
ATOM      6  C   UNL     1       9.866  69.839   1.741  1.00  0.00     0.018 A 
ATOM      7  C   UNL     1      10.314  71.164   1.758  1.00  0.00     0.019 A 
ATOM      8  C   UNL     1      10.235  71.928   0.595  1.00  0.00     0.094 A 
ATOM      9  C   UNL     1       9.705  71.348  -0.563  1.00  0.00     0.336 A 
ATOM     10  O   UNL     1       9.624  72.023  -1.623  1.00  0.00    -0.246 OA
ATOM     11  O   UNL     1       9.284  70.086  -0.553  1.00  0.00    -0.423 OA
ENDROOT
BRANCH   3  12
ATOM     12  O   UNL     1       8.486  65.879   1.564  1.00  0.00    -0.508 OA
ATOM     13  H   UNL     1       9.102  65.093   1.735  1.00  0.00     0.293 HD
ENDBRANCH   3  12
TORSDOF 1
ENDMDL
MODEL 8
REMARK VINA RESULT:    -6.548      1.890      2.826
REMARK INTER + INTRA:          -6.739
REMARK INTER:                  -6.739
REMARK INTRA:                   0.000
REMARK UNBOUND:                 0.000
REMARK SMILES O=c1ccc2ccc(O)cc2o1
REMARK SMILES IDX 6 1 7 2 8 3 10 4 11 5 5 6 4 7 3 8 2 9 1 10 12 11 9 12
REMARK H PARENT 9 13
REMARK Flexibility Score: inf
ROOT
ATOM      1  C   UNL     1       9.747  67.498  -1.519  1.00  0.00     0.016 A 
ATOM      2  C   UNL     1       9.367  66.733  -0.411  1.00  0.00     0.047 A 
ATOM      3  C   UNL     1       9.024  67.358   0.797  1.00  0.00     0.119 A 
ATOM      4  C   UNL     1       9.062  68.755   0.896  1.00  0.00     0.094 A 
ATOM      5  C   UNL     1       9.441  69.528  -0.206  1.00  0.00     0.142 A 
ATOM      6  C   UNL     1       9.785  68.896  -1.422  1.00  0.00     0.018 A 
ATOM      7  C   UNL     1      10.161  69.696  -2.506  1.00  0.00     0.019 A 
ATOM      8  C   UNL     1      10.182  71.082  -2.358  1.00  0.00     0.094 A 
ATOM      9  C   UNL     1       9.829  71.638  -1.124  1.00  0.00     0.336 A 
ATOM     10  O   UNL     1       9.842  72.888  -0.971  1.00  0.00    -0.246 OA
ATOM     11  O   UNL     1       9.475  70.855  -0.108  1.00  0.00    -0.423 OA
ENDROOT
BRANCH   3  12
ATOM     12  O   UNL     1       8.645  66.602   1.903  1.00  0.00    -0.508 OA
ATOM     13  H   UNL     1       8.024  66.974   2.612  1.00  0.00     0.293 HD
ENDBRANCH   3  12
TORSDOF 1
ENDMDL
MODEL 9
REMARK VINA RESULT:    -6.508      1.680      3.904
REMARK INTER + INTRA:          -6.698
REMARK INTER:                  -6.698
REMARK INTRA:                   0.000
REMARK UNBOUND:                 0.000
REMARK SMILES O=c1ccc2ccc(O)cc2o1
REMARK SMILES IDX 6 1 7 2 8 3 10 4 11 5 5 6 4 7 3 8 2 9 1 10 12 11 9 12
REMARK H PARENT 9 13
REMARK Flexibility Score: inf
ROOT
ATOM      1  C   UNL     1       9.056  67.814   1.376  1.00  0.00     0.016 A 
ATOM      2  C   UNL     1       9.055  67.132   0.154  1.00  0.00     0.047 A 
ATOM      3  C   UNL     1       9.397  67.801  -1.030  1.00  0.00     0.119 A 
ATOM      4  C   UNL     1       9.741  69.159  -0.992  1.00  0.00     0.094 A 
ATOM      5  C   UNL     1       9.745  69.848   0.226  1.00  0.00     0.142 A 
ATOM      6  C   UNL     1       9.400  69.172   1.417  1.00  0.00     0.018 A 
ATOM      7  C   UNL     1       9.412  69.889   2.618  1.00  0.00     0.019 A 
ATOM      8  C   UNL     1       9.763  71.239   2.605  1.00  0.00     0.094 A 
ATOM      9  C   UNL     1      10.092  71.842   1.387  1.00  0.00     0.336 A 
ATOM     10  O   UNL     1      10.411  73.060   1.354  1.00  0.00    -0.246 OA
ATOM     11  O   UNL     1      10.073  71.138   0.258  1.00  0.00    -0.423 OA
ENDROOT
BRANCH   3  12
ATOM     12  O   UNL     1       9.398  67.128  -2.249  1.00  0.00    -0.508 OA
ATOM     13  H   UNL     1      10.257  66.793  -2.669  1.00  0.00     0.293 HD
ENDBRANCH   3  12
TORSDOF 1
ENDMDL
