MODEL 1
REMARK VINA RESULT:    -6.595      0.000      0.000
REMARK INTER + INTRA:          -6.595
REMARK INTER:                  -6.595
REMARK INTRA:                   0.000
REMARK UNBOUND:                 0.000
REMARK SMILES C[NH+]1CCN(C2=[NH+]c3ccccc3Oc3ccc(Cl)cc32)CC1
REMARK SMILES IDX 7 1 6 2 21 3 5 4 8 5 9 6 13 7 10 8 12 9 14 10 11 11 15 12
REMARK SMILES IDX 16 13 17 14 18 15 20 16 19 17 4 18 22 19 3 20 23 21 2 22
REMARK SMILES IDX 1 23
REMARK H PARENT 7 24 2 25
REMARK Flexibility Score: inf
ROOT
ATOM      1  N   UNL     1     104.265 115.777 136.937  1.00  0.00    -0.237 N 
ATOM      2  C   UNL     1     103.681 114.921 136.141  1.00  0.00     0.286 C 
ATOM      3  C   UNL     1     104.117 113.506 135.994  1.00  0.00     0.108 A 
ATOM      4  N   UNL     1     102.536 115.362 135.388  1.00  0.00    -0.250 N 
ATOM      5  C   UNL     1     105.404 115.550 137.785  1.00  0.00     0.168 A 
ATOM      6  C   UNL     1     105.486 116.269 138.991  1.00  0.00     0.056 A 
ATOM      7  C   UNL     1     106.518 114.797 137.364  1.00  0.00     0.173 A 
ATOM      8  C   UNL     1     106.645 116.230 139.769  1.00  0.00     0.005 A 
ATOM      9  C   UNL     1     107.689 114.792 138.133  1.00  0.00     0.052 A 
ATOM     10  O   UNL     1     106.502 114.037 136.198  1.00  0.00    -0.452 OA
ATOM     11  C   UNL     1     107.750 115.498 139.335  1.00  0.00     0.004 A 
ATOM     12  C   UNL     1     105.476 113.142 135.913  1.00  0.00     0.143 A 
ATOM     13  C   UNL     1     105.829 111.835 135.554  1.00  0.00     0.049 A 
ATOM     14  C   UNL     1     104.848 110.869 135.334  1.00  0.00     0.024 A 
ATOM     15  C   UNL     1     103.501 111.206 135.462  1.00  0.00     0.042 A 
ATOM     16  C   UNL     1     103.137 112.516 135.783  1.00  0.00     0.041 A 
ATOM     17  Cl  UNL     1     102.262 109.992 135.193  1.00  0.00    -0.084 Cl
ATOM     18  C   UNL     1     101.317 115.792 136.079  1.00  0.00     0.298 C 
ATOM     19  C   UNL     1     102.466 115.133 133.943  1.00  0.00     0.298 C 
ATOM     20  C   UNL     1     100.691 116.975 135.334  1.00  0.00     0.308 C 
ATOM     21  C   UNL     1     101.804 116.336 133.262  1.00  0.00     0.308 C 
ATOM     22  N   UNL     1     100.508 116.659 133.900  1.00  0.00    -0.331 N 
ATOM     23  C   UNL     1      99.875 117.796 133.209  1.00  0.00     0.332 C 
ATOM     24  H   UNL     1     103.846 116.735 136.996  1.00  0.00     0.312 HD
ATOM     25  H   UNL     1      99.867 115.835 133.811  1.00  0.00     0.348 HD
ENDROOT
TORSDOF 0
ENDMDL
MODEL 2
REMARK VINA RESULT:    -6.435     10.185     13.323
REMARK INTER + INTRA:          -6.435
REMARK INTER:                  -6.435
REMARK INTRA:                   0.000
REMARK UNBOUND:                 0.000
REMARK SMILES C[NH+]1CCN(C2=[NH+]c3ccccc3Oc3ccc(Cl)cc32)CC1
REMARK SMILES IDX 7 1 6 2 21 3 5 4 8 5 9 6 13 7 10 8 12 9 14 10 11 11 15 12
REMARK SMILES IDX 16 13 17 14 18 15 20 16 19 17 4 18 22 19 3 20 23 21 2 22
REMARK SMILES IDX 1 23
REMARK H PARENT 7 24 2 25
REMARK Flexibility Score: inf
ROOT
ATOM      1  N   UNL     1     111.115 103.388 137.536  1.00  0.00    -0.237 N 
ATOM      2  C   UNL     1     109.852 103.524 137.842  1.00  0.00     0.286 C 
ATOM      3  C   UNL     1     108.953 104.519 137.198  1.00  0.00     0.108 A 
ATOM      4  N   UNL     1     109.292 102.644 138.835  1.00  0.00    -0.250 N 
ATOM      5  C   UNL     1     111.870 104.141 136.573  1.00  0.00     0.168 A 
ATOM      6  C   UNL     1     112.923 103.494 135.901  1.00  0.00     0.056 A 
ATOM      7  C   UNL     1     111.724 105.536 136.425  1.00  0.00     0.173 A 
ATOM      8  C   UNL     1     113.804 104.213 135.091  1.00  0.00     0.005 A 
ATOM      9  C   UNL     1     112.634 106.254 135.639  1.00  0.00     0.052 A 
ATOM     10  O   UNL     1     110.691 106.241 137.034  1.00  0.00    -0.452 OA
ATOM     11  C   UNL     1     113.665 105.595 134.967  1.00  0.00     0.004 A 
ATOM     12  C   UNL     1     109.362 105.841 136.932  1.00  0.00     0.143 A 
ATOM     13  C   UNL     1     108.420 106.798 136.532  1.00  0.00     0.049 A 
ATOM     14  C   UNL     1     107.086 106.442 136.335  1.00  0.00     0.024 A 
ATOM     15  C   UNL     1     106.681 105.124 136.545  1.00  0.00     0.042 A 
ATOM     16  C   UNL     1     107.605 104.171 136.980  1.00  0.00     0.041 A 
ATOM     17  Cl  UNL     1     105.005 104.669 136.291  1.00  0.00    -0.084 Cl
ATOM     18  C   UNL     1     109.242 101.199 138.598  1.00  0.00     0.298 C 
ATOM     19  C   UNL     1     108.525 103.187 139.959  1.00  0.00     0.298 C 
ATOM     20  C   UNL     1     109.521 100.452 139.907  1.00  0.00     0.308 C 
ATOM     21  C   UNL     1     108.824 102.379 141.226  1.00  0.00     0.308 C 
ATOM     22  N   UNL     1     108.632 100.931 140.988  1.00  0.00    -0.331 N 
ATOM     23  C   UNL     1     108.894 100.177 142.227  1.00  0.00     0.332 C 
ATOM     24  H   UNL     1     111.642 102.624 138.021  1.00  0.00     0.312 HD
ATOM     25  H   UNL     1     107.636 100.757 140.714  1.00  0.00     0.348 HD
ENDROOT
TORSDOF 0
ENDMDL
MODEL 3
REMARK VINA RESULT:    -6.354      9.046     11.512
REMARK INTER + INTRA:          -6.354
REMARK INTER:                  -6.354
REMARK INTRA:                   0.000
REMARK UNBOUND:                 0.000
REMARK SMILES C[NH+]1CCN(C2=[NH+]c3ccccc3Oc3ccc(Cl)cc32)CC1
REMARK SMILES IDX 7 1 6 2 21 3 5 4 8 5 9 6 13 7 10 8 12 9 14 10 11 11 15 12
REMARK SMILES IDX 16 13 17 14 18 15 20 16 19 17 4 18 22 19 3 20 23 21 2 22
REMARK SMILES IDX 1 23
REMARK H PARENT 7 24 2 25
REMARK Flexibility Score: inf
ROOT
ATOM      1  N   UNL     1     109.207 105.734 136.218  1.00  0.00    -0.237 N 
ATOM      2  C   UNL     1     108.488 104.971 136.996  1.00  0.00     0.286 C 
ATOM      3  C   UNL     1     109.026 103.777 137.702  1.00  0.00     0.108 A 
ATOM      4  N   UNL     1     107.106 105.320 137.206  1.00  0.00    -0.250 N 
ATOM      5  C   UNL     1     110.597 105.583 135.882  1.00  0.00     0.168 A 
ATOM      6  C   UNL     1     111.349 106.745 135.632  1.00  0.00     0.056 A 
ATOM      7  C   UNL     1     111.172 104.326 135.605  1.00  0.00     0.173 A 
ATOM      8  C   UNL     1     112.649 106.660 135.129  1.00  0.00     0.005 A 
ATOM      9  C   UNL     1     112.464 104.253 135.067  1.00  0.00     0.052 A 
ATOM     10  O   UNL     1     110.501 103.133 135.854  1.00  0.00    -0.452 OA
ATOM     11  C   UNL     1     113.203 105.414 134.839  1.00  0.00     0.004 A 
ATOM     12  C   UNL     1     109.899 102.864 137.079  1.00  0.00     0.143 A 
ATOM     13  C   UNL     1     110.201 101.647 137.703  1.00  0.00     0.049 A 
ATOM     14  C   UNL     1     109.693 101.352 138.967  1.00  0.00     0.024 A 
ATOM     15  C   UNL     1     108.869 102.271 139.617  1.00  0.00     0.042 A 
ATOM     16  C   UNL     1     108.532 103.472 138.987  1.00  0.00     0.041 A 
ATOM     17  Cl  UNL     1     108.233 101.909 141.211  1.00  0.00    -0.084 Cl
ATOM     18  C   UNL     1     106.754 106.585 137.856  1.00  0.00     0.298 C 
ATOM     19  C   UNL     1     106.053 104.317 137.030  1.00  0.00     0.298 C 
ATOM     20  C   UNL     1     105.499 107.170 137.200  1.00  0.00     0.308 C 
ATOM     21  C   UNL     1     104.818 104.971 136.401  1.00  0.00     0.308 C 
ATOM     22  N   UNL     1     104.408 106.171 137.163  1.00  0.00    -0.331 N 
ATOM     23  C   UNL     1     103.201 106.764 136.560  1.00  0.00     0.332 C 
ATOM     24  H   UNL     1     108.736 106.575 135.807  1.00  0.00     0.312 HD
ATOM     25  H   UNL     1     104.168 105.890 138.143  1.00  0.00     0.348 HD
ENDROOT
TORSDOF 0
ENDMDL
MODEL 4
REMARK VINA RESULT:    -6.309      3.274      6.100
REMARK INTER + INTRA:          -6.309
REMARK INTER:                  -6.309
REMARK INTRA:                   0.000
REMARK UNBOUND:                 0.000
REMARK SMILES C[NH+]1CCN(C2=[NH+]c3ccccc3Oc3ccc(Cl)cc32)CC1
REMARK SMILES IDX 7 1 6 2 21 3 5 4 8 5 9 6 13 7 10 8 12 9 14 10 11 11 15 12
REMARK SMILES IDX 16 13 17 14 18 15 20 16 19 17 4 18 22 19 3 20 23 21 2 22
REMARK SMILES IDX 1 23
REMARK H PARENT 7 24 2 25
REMARK Flexibility Score: inf
ROOT
ATOM      1  N   UNL     1     102.745 113.190 136.253  1.00  0.00    -0.237 N 
ATOM      2  C   UNL     1     103.819 112.810 136.893  1.00  0.00     0.286 C 
ATOM      3  C   UNL     1     105.174 113.360 136.623  1.00  0.00     0.108 A 
ATOM      4  N   UNL     1     103.678 111.828 137.937  1.00  0.00    -0.250 N 
ATOM      5  C   UNL     1     102.651 114.158 135.194  1.00  0.00     0.168 A 
ATOM      6  C   UNL     1     101.469 114.913 135.088  1.00  0.00     0.056 A 
ATOM      7  C   UNL     1     103.604 114.235 134.158  1.00  0.00     0.173 A 
ATOM      8  C   UNL     1     101.244 115.737 133.983  1.00  0.00     0.005 A 
ATOM      9  C   UNL     1     103.353 115.038 133.037  1.00  0.00     0.052 A 
ATOM     10  O   UNL     1     104.809 113.542 134.205  1.00  0.00    -0.452 OA
ATOM     11  C   UNL     1     102.182 115.792 132.953  1.00  0.00     0.004 A 
ATOM     12  C   UNL     1     105.647 113.589 135.315  1.00  0.00     0.143 A 
ATOM     13  C   UNL     1     106.997 113.895 135.102  1.00  0.00     0.049 A 
ATOM     14  C   UNL     1     107.871 114.036 136.180  1.00  0.00     0.024 A 
ATOM     15  C   UNL     1     107.402 113.863 137.482  1.00  0.00     0.042 A 
ATOM     16  C   UNL     1     106.065 113.521 137.702  1.00  0.00     0.041 A 
ATOM     17  Cl  UNL     1     108.497 114.046 138.842  1.00  0.00    -0.084 Cl
ATOM     18  C   UNL     1     102.880 112.126 139.129  1.00  0.00     0.298 C 
ATOM     19  C   UNL     1     104.538 110.642 137.959  1.00  0.00     0.298 C 
ATOM     20  C   UNL     1     102.123 110.869 139.570  1.00  0.00     0.308 C 
ATOM     21  C   UNL     1     103.731 109.430 138.437  1.00  0.00     0.308 C 
ATOM     22  N   UNL     1     103.045 109.720 139.716  1.00  0.00    -0.331 N 
ATOM     23  C   UNL     1     102.303 108.532 140.171  1.00  0.00     0.332 C 
ATOM     24  H   UNL     1     101.836 112.768 136.556  1.00  0.00     0.312 HD
ATOM     25  H   UNL     1     103.762 109.948 140.445  1.00  0.00     0.348 HD
ENDROOT
TORSDOF 0
ENDMDL
MODEL 5
REMARK VINA RESULT:    -6.255     11.576     13.659
REMARK INTER + INTRA:          -6.255
REMARK INTER:                  -6.255
REMARK INTRA:                   0.000
REMARK UNBOUND:                 0.000
REMARK SMILES C[NH+]1CCN(C2=[NH+]c3ccccc3Oc3ccc(Cl)cc32)CC1
REMARK SMILES IDX 7 1 6 2 21 3 5 4 8 5 9 6 13 7 10 8 12 9 14 10 11 11 15 12
REMARK SMILES IDX 16 13 17 14 18 15 20 16 19 17 4 18 22 19 3 20 23 21 2 22
REMARK SMILES IDX 1 23
REMARK H PARENT 7 24 2 25
REMARK Flexibility Score: inf
ROOT
ATOM      1  N   UNL     1     109.364 103.906 138.198  1.00  0.00    -0.237 N 
ATOM      2  C   UNL     1     108.779 102.939 138.852  1.00  0.00     0.286 C 
ATOM      3  C   UNL     1     109.416 101.621 139.114  1.00  0.00     0.108 A 
ATOM      4  N   UNL     1     107.456 103.171 139.374  1.00  0.00    -0.250 N 
ATOM      5  C   UNL     1     110.675 103.898 137.608  1.00  0.00     0.168 A 
ATOM      6  C   UNL     1     111.386 105.110 137.555  1.00  0.00     0.056 A 
ATOM      7  C   UNL     1     111.182 102.781 136.913  1.00  0.00     0.173 A 
ATOM      8  C   UNL     1     112.581 105.208 136.840  1.00  0.00     0.005 A 
ATOM      9  C   UNL     1     112.363 102.898 136.169  1.00  0.00     0.052 A 
ATOM     10  O   UNL     1     110.550 101.541 136.943  1.00  0.00    -0.452 OA
ATOM     11  C   UNL     1     113.065 104.103 136.139  1.00  0.00     0.004 A 
ATOM     12  C   UNL     1     110.162 100.937 138.134  1.00  0.00     0.143 A 
ATOM     13  C   UNL     1     110.552  99.609 138.351  1.00  0.00     0.049 A 
ATOM     14  C   UNL     1     110.263  98.973 139.558  1.00  0.00     0.024 A 
ATOM     15  C   UNL     1     109.571  99.657 140.556  1.00  0.00     0.042 A 
ATOM     16  C   UNL     1     109.144 100.969 140.335  1.00  0.00     0.041 A 
ATOM     17  Cl  UNL     1     109.210  98.863 142.079  1.00  0.00    -0.084 Cl
ATOM     18  C   UNL     1     107.233 104.206 140.387  1.00  0.00     0.298 C 
ATOM     19  C   UNL     1     106.378 102.214 139.114  1.00  0.00     0.298 C 
ATOM     20  C   UNL     1     105.891 104.899 140.129  1.00  0.00     0.308 C 
ATOM     21  C   UNL     1     105.062 102.967 138.897  1.00  0.00     0.308 C 
ATOM     22  N   UNL     1     104.799 103.908 140.009  1.00  0.00    -0.331 N 
ATOM     23  C   UNL     1     103.514 104.596 139.794  1.00  0.00     0.332 C 
ATOM     24  H   UNL     1     108.839 104.808 138.111  1.00  0.00     0.312 HD
ATOM     25  H   UNL     1     104.726 103.368 140.904  1.00  0.00     0.348 HD
ENDROOT
TORSDOF 0
ENDMDL
MODEL 6
REMARK VINA RESULT:    -6.211     11.115     14.294
REMARK INTER + INTRA:          -6.211
REMARK INTER:                  -6.211
REMARK INTRA:                   0.000
REMARK UNBOUND:                 0.000
REMARK SMILES C[NH+]1CCN(C2=[NH+]c3ccccc3Oc3ccc(Cl)cc32)CC1
REMARK SMILES IDX 7 1 6 2 21 3 5 4 8 5 9 6 13 7 10 8 12 9 14 10 11 11 15 12
REMARK SMILES IDX 16 13 17 14 18 15 20 16 19 17 4 18 22 19 3 20 23 21 2 22
REMARK SMILES IDX 1 23
REMARK H PARENT 7 24 2 25
REMARK Flexibility Score: inf
ROOT
ATOM      1  N   UNL     1     107.559 102.581 138.881  1.00  0.00    -0.237 N 
ATOM      2  C   UNL     1     108.788 102.514 138.441  1.00  0.00     0.286 C 
ATOM      3  C   UNL     1     109.350 103.447 137.428  1.00  0.00     0.108 A 
ATOM      4  N   UNL     1     109.653 101.500 138.988  1.00  0.00    -0.250 N 
ATOM      5  C   UNL     1     106.537 103.513 138.488  1.00  0.00     0.168 A 
ATOM      6  C   UNL     1     105.579 103.889 139.447  1.00  0.00     0.056 A 
ATOM      7  C   UNL     1     106.346 103.901 137.146  1.00  0.00     0.173 A 
ATOM      8  C   UNL     1     104.463 104.645 139.083  1.00  0.00     0.005 A 
ATOM      9  C   UNL     1     105.205 104.629 136.785  1.00  0.00     0.052 A 
ATOM     10  O   UNL     1     107.265 103.591 136.148  1.00  0.00    -0.452 OA
ATOM     11  C   UNL     1     104.272 105.008 137.750  1.00  0.00     0.004 A 
ATOM     12  C   UNL     1     108.625 103.847 136.288  1.00  0.00     0.143 A 
ATOM     13  C   UNL     1     109.269 104.544 135.258  1.00  0.00     0.049 A 
ATOM     14  C   UNL     1     110.612 104.901 135.374  1.00  0.00     0.024 A 
ATOM     15  C   UNL     1     111.326 104.555 136.521  1.00  0.00     0.042 A 
ATOM     16  C   UNL     1     110.702 103.828 137.538  1.00  0.00     0.041 A 
ATOM     17  Cl  UNL     1     113.015 105.007 136.675  1.00  0.00    -0.084 Cl
ATOM     18  C   UNL     1     109.995 101.511 140.413  1.00  0.00     0.298 C 
ATOM     19  C   UNL     1     110.416 100.620 138.101  1.00  0.00     0.298 C 
ATOM     20  C   UNL     1     110.060 100.073 140.938  1.00  0.00     0.308 C 
ATOM     21  C   UNL     1     110.470  99.209 138.697  1.00  0.00     0.308 C 
ATOM     22  N   UNL     1     110.950  99.243 140.096  1.00  0.00    -0.331 N 
ATOM     23  C   UNL     1     111.025  97.875 140.637  1.00  0.00     0.332 C 
ATOM     24  H   UNL     1     107.282 101.901 139.627  1.00  0.00     0.312 HD
ATOM     25  H   UNL     1     111.916  99.648 140.118  1.00  0.00     0.348 HD
ENDROOT
TORSDOF 0
ENDMDL
MODEL 7
REMARK VINA RESULT:    -6.165      3.272      6.601
REMARK INTER + INTRA:          -6.165
REMARK INTER:                  -6.165
REMARK INTRA:                   0.000
REMARK UNBOUND:                 0.000
REMARK SMILES C[NH+]1CCN(C2=[NH+]c3ccccc3Oc3ccc(Cl)cc32)CC1
REMARK SMILES IDX 7 1 6 2 21 3 5 4 8 5 9 6 13 7 10 8 12 9 14 10 11 11 15 12
REMARK SMILES IDX 16 13 17 14 18 15 20 16 19 17 4 18 22 19 3 20 23 21 2 22
REMARK SMILES IDX 1 23
REMARK H PARENT 7 24 2 25
REMARK Flexibility Score: inf
ROOT
ATOM      1  N   UNL     1     103.182 112.707 136.592  1.00  0.00    -0.237 N 
ATOM      2  C   UNL     1     104.159 112.563 137.448  1.00  0.00     0.286 C 
ATOM      3  C   UNL     1     104.707 113.679 138.264  1.00  0.00     0.108 A 
ATOM      4  N   UNL     1     104.714 111.247 137.633  1.00  0.00    -0.250 N 
ATOM      5  C   UNL     1     102.476 113.915 136.261  1.00  0.00     0.168 A 
ATOM      6  C   UNL     1     101.123 113.813 135.891  1.00  0.00     0.056 A 
ATOM      7  C   UNL     1     103.134 115.153 136.105  1.00  0.00     0.173 A 
ATOM      8  C   UNL     1     100.434 114.919 135.389  1.00  0.00     0.005 A 
ATOM      9  C   UNL     1     102.444 116.247 135.567  1.00  0.00     0.052 A 
ATOM     10  O   UNL     1     104.462 115.339 136.476  1.00  0.00    -0.452 OA
ATOM     11  C   UNL     1     101.097 116.133 135.218  1.00  0.00     0.004 A 
ATOM     12  C   UNL     1     104.940 114.961 137.726  1.00  0.00     0.143 A 
ATOM     13  C   UNL     1     105.659 115.909 138.465  1.00  0.00     0.049 A 
ATOM     14  C   UNL     1     106.097 115.620 139.757  1.00  0.00     0.024 A 
ATOM     15  C   UNL     1     105.827 114.372 140.319  1.00  0.00     0.042 A 
ATOM     16  C   UNL     1     105.142 113.406 139.576  1.00  0.00     0.041 A 
ATOM     17  Cl  UNL     1     106.369 114.005 141.947  1.00  0.00    -0.084 Cl
ATOM     18  C   UNL     1     103.882 110.161 138.158  1.00  0.00     0.298 C 
ATOM     19  C   UNL     1     106.162 111.038 137.566  1.00  0.00     0.298 C 
ATOM     20  C   UNL     1     104.248 108.848 137.458  1.00  0.00     0.308 C 
ATOM     21  C   UNL     1     106.458 109.697 136.885  1.00  0.00     0.308 C 
ATOM     22  N   UNL     1     105.704 108.599 137.529  1.00  0.00    -0.331 N 
ATOM     23  C   UNL     1     106.029 107.317 136.879  1.00  0.00     0.332 C 
ATOM     24  H   UNL     1     102.845 111.844 136.104  1.00  0.00     0.312 HD
ATOM     25  H   UNL     1     105.991 108.529 138.534  1.00  0.00     0.348 HD
ENDROOT
TORSDOF 0
ENDMDL
MODEL 8
REMARK VINA RESULT:    -6.142     10.007     13.135
REMARK INTER + INTRA:          -6.142
REMARK INTER:                  -6.142
REMARK INTRA:                   0.000
REMARK UNBOUND:                 0.000
REMARK SMILES C[NH+]1CCN(C2=[NH+]c3ccccc3Oc3ccc(Cl)cc32)CC1
REMARK SMILES IDX 7 1 6 2 21 3 5 4 8 5 9 6 13 7 10 8 12 9 14 10 11 11 15 12
REMARK SMILES IDX 16 13 17 14 18 15 20 16 19 17 4 18 22 19 3 20 23 21 2 22
REMARK SMILES IDX 1 23
REMARK H PARENT 7 24 2 25
REMARK Flexibility Score: inf
ROOT
ATOM      1  N   UNL     1     109.998 102.859 137.576  1.00  0.00    -0.237 N 
ATOM      2  C   UNL     1     109.712 104.018 137.045  1.00  0.00     0.286 C 
ATOM      3  C   UNL     1     108.326 104.537 136.901  1.00  0.00     0.108 A 
ATOM      4  N   UNL     1     110.800 104.851 136.601  1.00  0.00    -0.250 N 
ATOM      5  C   UNL     1     109.080 101.882 138.095  1.00  0.00     0.168 A 
ATOM      6  C   UNL     1     109.503 101.078 139.168  1.00  0.00     0.056 A 
ATOM      7  C   UNL     1     107.866 101.571 137.447  1.00  0.00     0.173 A 
ATOM      8  C   UNL     1     108.732  99.996 139.598  1.00  0.00     0.005 A 
ATOM      9  C   UNL     1     107.117 100.462 137.863  1.00  0.00     0.052 A 
ATOM     10  O   UNL     1     107.368 102.337 136.398  1.00  0.00    -0.452 OA
ATOM     11  C   UNL     1     107.543  99.683 138.940  1.00  0.00     0.004 A 
ATOM     12  C   UNL     1     107.256 103.721 136.481  1.00  0.00     0.143 A 
ATOM     13  C   UNL     1     106.024 104.299 136.148  1.00  0.00     0.049 A 
ATOM     14  C   UNL     1     105.824 105.672 136.287  1.00  0.00     0.024 A 
ATOM     15  C   UNL     1     106.859 106.482 136.751  1.00  0.00     0.042 A 
ATOM     16  C   UNL     1     108.103 105.921 137.050  1.00  0.00     0.041 A 
ATOM     17  Cl  UNL     1     106.610 108.209 136.933  1.00  0.00    -0.084 Cl
ATOM     18  C   UNL     1     111.785 105.356 137.562  1.00  0.00     0.298 C 
ATOM     19  C   UNL     1     110.791 105.428 135.254  1.00  0.00     0.298 C 
ATOM     20  C   UNL     1     113.176 105.359 136.921  1.00  0.00     0.308 C 
ATOM     21  C   UNL     1     112.213 105.430 134.684  1.00  0.00     0.308 C 
ATOM     22  N   UNL     1     113.160 106.071 135.624  1.00  0.00    -0.331 N 
ATOM     23  C   UNL     1     114.513 106.090 135.042  1.00  0.00     0.332 C 
ATOM     24  H   UNL     1     111.012 102.614 137.667  1.00  0.00     0.312 HD
ATOM     25  H   UNL     1     112.866 107.064 135.783  1.00  0.00     0.348 HD
ENDROOT
TORSDOF 0
ENDMDL
MODEL 9
REMARK VINA RESULT:    -6.113     11.295     13.634
REMARK INTER + INTRA:          -6.113
REMARK INTER:                  -6.113
REMARK INTRA:                   0.000
REMARK UNBOUND:                 0.000
REMARK SMILES C[NH+]1CCN(C2=[NH+]c3ccccc3Oc3ccc(Cl)cc32)CC1
REMARK SMILES IDX 7 1 6 2 21 3 5 4 8 5 9 6 13 7 10 8 12 9 14 10 11 11 15 12
REMARK SMILES IDX 16 13 17 14 18 15 20 16 19 17 4 18 22 19 3 20 23 21 2 22
REMARK SMILES IDX 1 23
REMARK H PARENT 7 24 2 25
REMARK Flexibility Score: inf
ROOT
ATOM      1  N   UNL     1     107.501 101.242 139.350  1.00  0.00    -0.237 N 
ATOM      2  C   UNL     1     107.320 102.414 138.802  1.00  0.00     0.286 C 
ATOM      3  C   UNL     1     108.107 102.908 137.641  1.00  0.00     0.108 A 
ATOM      4  N   UNL     1     106.284 103.262 139.333  1.00  0.00    -0.250 N 
ATOM      5  C   UNL     1     108.459 100.237 138.976  1.00  0.00     0.168 A 
ATOM      6  C   UNL     1     108.113  98.887 139.164  1.00  0.00     0.056 A 
ATOM      7  C   UNL     1     109.786 100.557 138.621  1.00  0.00     0.173 A 
ATOM      8  C   UNL     1     109.060  97.875 138.991  1.00  0.00     0.005 A 
ATOM      9  C   UNL     1     110.737  99.538 138.485  1.00  0.00     0.052 A 
ATOM     10  O   UNL     1     110.196 101.866 138.390  1.00  0.00    -0.452 OA
ATOM     11  C   UNL     1     110.374  98.202 138.660  1.00  0.00     0.004 A 
ATOM     12  C   UNL     1     109.500 102.720 137.540  1.00  0.00     0.143 A 
ATOM     13  C   UNL     1     110.227 103.390 136.548  1.00  0.00     0.049 A 
ATOM     14  C   UNL     1     109.577 104.198 135.615  1.00  0.00     0.024 A 
ATOM     15  C   UNL     1     108.192 104.350 135.673  1.00  0.00     0.042 A 
ATOM     16  C   UNL     1     107.462 103.716 136.682  1.00  0.00     0.041 A 
ATOM     17  Cl  UNL     1     107.368 105.360 134.498  1.00  0.00    -0.084 Cl
ATOM     18  C   UNL     1     104.881 102.841 139.272  1.00  0.00     0.298 C 
ATOM     19  C   UNL     1     106.573 104.654 139.685  1.00  0.00     0.298 C 
ATOM     20  C   UNL     1     104.156 103.280 140.548  1.00  0.00     0.308 C 
ATOM     21  C   UNL     1     105.794 105.038 140.948  1.00  0.00     0.308 C 
ATOM     22  N   UNL     1     104.356 104.724 140.800  1.00  0.00    -0.331 N 
ATOM     23  C   UNL     1     103.623 105.131 142.011  1.00  0.00     0.332 C 
ATOM     24  H   UNL     1     106.859 100.979 140.134  1.00  0.00     0.312 HD
ATOM     25  H   UNL     1     103.967 105.269 139.994  1.00  0.00     0.348 HD
ENDROOT
TORSDOF 0
ENDMDL
