MODEL 1
REMARK VINA RESULT:    -4.443      0.000      0.000
REMARK INTER + INTRA:          -7.423
REMARK INTER:                  -6.391
REMARK INTRA:                  -1.032
REMARK UNBOUND:                -1.032
REMARK SMILES O=c1cc(-c2ccc(O)c(O)c2)oc2cc(O[C@@H]3O[C@@H](CO)[C@H](O)[C@@H](O)[C@@H]3O)cc(O)c12
REMARK SMILES IDX 17 1 16 2 4 3 3 4 13 5 2 6 14 7 1 8 32 9 15 10 30 11 29 12
REMARK SMILES IDX 5 13 6 14 7 15 8 16 12 17 10 18 9 19 11 21 31 23 18 25 27 26
REMARK SMILES IDX 19 27 25 28 20 29 23 30 28 31 26 33 21 35 22 36 24 38
REMARK H PARENT 9 20 11 22 31 24 28 32 26 34 22 37 24 39
REMARK Flexibility Score: inf
ROOT
ATOM      1  O   UNL     1      -3.129   9.384   2.213  1.00  0.00    -0.462 OA
ENDROOT
BRANCH   1   2
ATOM      2  C   UNL     1      -3.202  10.715   1.775  1.00  0.00     0.130 A 
ATOM      3  C   UNL     1      -1.748  13.919  -1.444  1.00  0.00     0.138 A 
ATOM      4  C   UNL     1      -2.482  14.952  -0.840  1.00  0.00     0.100 A 
ATOM      5  O   UNL     1      -1.781  12.698  -0.916  1.00  0.00    -0.456 OA
ATOM      6  C   UNL     1      -3.245  14.680   0.295  1.00  0.00     0.197 A 
ATOM      7  C   UNL     1      -2.493  12.389   0.164  1.00  0.00     0.146 A 
ATOM      8  O   UNL     1      -3.900  15.615   0.831  1.00  0.00    -0.289 OA
ATOM      9  C   UNL     1      -3.267  13.373   0.822  1.00  0.00     0.107 A 
ATOM     10  C   UNL     1      -2.468  11.077   0.644  1.00  0.00     0.094 A 
ATOM     11  C   UNL     1      -4.013  13.010   1.966  1.00  0.00     0.134 A 
ATOM     12  C   UNL     1      -3.978  11.688   2.432  1.00  0.00     0.093 A 
BRANCH   3  13
ATOM     13  C   UNL     1      -0.917  14.150  -2.653  1.00  0.00     0.021 A 
ATOM     14  C   UNL     1      -0.057  15.261  -2.760  1.00  0.00     0.016 A 
ATOM     15  C   UNL     1       0.705  15.458  -3.913  1.00  0.00     0.051 A 
ATOM     16  C   UNL     1       0.619  14.558  -4.983  1.00  0.00     0.157 A 
ATOM     17  C   UNL     1      -1.008  13.258  -3.736  1.00  0.00     0.062 A 
ATOM     18  C   UNL     1      -0.244  13.453  -4.892  1.00  0.00     0.158 A 
BRANCH  16  19
ATOM     19  O   UNL     1       1.382  14.758  -6.131  1.00  0.00    -0.504 OA
ATOM     20  H   UNL     1       1.838  15.643  -6.317  1.00  0.00     0.293 HD
ENDBRANCH  16  19
BRANCH  18  21
ATOM     21  O   UNL     1      -0.355  12.539  -5.940  1.00  0.00    -0.504 OA
ATOM     22  H   UNL     1       0.212  11.700  -5.984  1.00  0.00     0.293 HD
ENDBRANCH  18  21
ENDBRANCH   3  13
BRANCH  11  23
ATOM     23  O   UNL     1      -4.790  13.953   2.643  1.00  0.00    -0.507 OA
ATOM     24  H   UNL     1      -5.355  13.701   3.445  1.00  0.00     0.293 HD
ENDBRANCH  11  23
ENDBRANCH   1   2
BRANCH   1  25
ATOM     25  C   UNL     1      -2.217   8.893   3.203  1.00  0.00     0.339 C 
ATOM     26  C   UNL     1      -2.689   7.535   3.749  1.00  0.00     0.214 C 
ATOM     27  O   UNL     1      -0.895   8.803   2.692  1.00  0.00    -0.332 OA
ATOM     28  C   UNL     1      -2.583   6.455   2.659  1.00  0.00     0.180 C 
ATOM     29  C   UNL     1      -0.819   7.907   1.594  1.00  0.00     0.179 C 
ATOM     30  C   UNL     1      -1.176   6.471   2.037  1.00  0.00     0.177 C 
BRANCH  26  31
ATOM     31  O   UNL     1      -4.017   7.651   4.194  1.00  0.00    -0.384 OA
ATOM     32  H   UNL     1      -4.534   8.067   3.455  1.00  0.00     0.211 HD
ENDBRANCH  26  31
BRANCH  28  33
ATOM     33  O   UNL     1      -2.827   5.187   3.215  1.00  0.00    -0.387 OA
ATOM     34  H   UNL     1      -1.998   4.913   3.685  1.00  0.00     0.211 HD
ENDBRANCH  28  33
BRANCH  29  35
ATOM     35  C   UNL     1       0.605   7.964   1.023  1.00  0.00     0.191 C 
BRANCH  35  36
ATOM     36  O   UNL     1       0.577   7.833  -0.373  1.00  0.00    -0.394 OA
ATOM     37  H   UNL     1       0.812   8.722  -0.748  1.00  0.00     0.210 HD
ENDBRANCH  35  36
ENDBRANCH  29  35
BRANCH  30  38
ATOM     38  O   UNL     1      -1.140   5.611   0.926  1.00  0.00    -0.387 OA
ATOM     39  H   UNL     1      -0.190   5.368   0.780  1.00  0.00     0.211 HD
ENDBRANCH  30  38
ENDBRANCH   1  25
TORSDOF 11
ENDMDL
MODEL 2
REMARK VINA RESULT:    -4.404      4.644     10.108
REMARK INTER + INTRA:          -7.367
REMARK INTER:                  -6.804
REMARK INTRA:                  -0.563
REMARK UNBOUND:                -1.032
REMARK SMILES O=c1cc(-c2ccc(O)c(O)c2)oc2cc(O[C@@H]3O[C@@H](CO)[C@H](O)[C@@H](O)[C@@H]3O)cc(O)c12
REMARK SMILES IDX 17 1 16 2 4 3 3 4 13 5 2 6 14 7 1 8 32 9 15 10 30 11 29 12
REMARK SMILES IDX 5 13 6 14 7 15 8 16 12 17 10 18 9 19 11 21 31 23 18 25 27 26
REMARK SMILES IDX 19 27 25 28 20 29 23 30 28 31 26 33 21 35 22 36 24 38
REMARK H PARENT 9 20 11 22 31 24 28 32 26 34 22 37 24 39
REMARK Flexibility Score: inf
ROOT
ATOM      1  O   UNL     1       0.792  13.060  -8.835  1.00  0.00    -0.462 OA
ENDROOT
BRANCH   1   2
ATOM      2  C   UNL     1       1.104  12.905  -7.476  1.00  0.00     0.130 A 
ATOM      3  C   UNL     1      -0.209  13.789  -2.977  1.00  0.00     0.138 A 
ATOM      4  C   UNL     1       0.928  13.154  -2.454  1.00  0.00     0.100 A 
ATOM      5  O   UNL     1      -0.374  13.853  -4.296  1.00  0.00    -0.456 OA
ATOM      6  C   UNL     1       1.860  12.588  -3.323  1.00  0.00     0.197 A 
ATOM      7  C   UNL     1       0.485  13.329  -5.166  1.00  0.00     0.146 A 
ATOM      8  O   UNL     1       2.879  12.022  -2.844  1.00  0.00    -0.289 OA
ATOM      9  C   UNL     1       1.649  12.664  -4.715  1.00  0.00     0.107 A 
ATOM     10  C   UNL     1       0.224  13.442  -6.534  1.00  0.00     0.094 A 
ATOM     11  C   UNL     1       2.541  12.116  -5.665  1.00  0.00     0.134 A 
ATOM     12  C   UNL     1       2.262  12.239  -7.035  1.00  0.00     0.093 A 
BRANCH   3  13
ATOM     13  C   UNL     1      -1.234  14.410  -2.100  1.00  0.00     0.021 A 
ATOM     14  C   UNL     1      -1.334  15.807  -1.951  1.00  0.00     0.016 A 
ATOM     15  C   UNL     1      -2.301  16.363  -1.111  1.00  0.00     0.051 A 
ATOM     16  C   UNL     1      -3.181  15.538  -0.400  1.00  0.00     0.157 A 
ATOM     17  C   UNL     1      -2.113  13.588  -1.373  1.00  0.00     0.062 A 
ATOM     18  C   UNL     1      -3.084  14.143  -0.531  1.00  0.00     0.158 A 
BRANCH  16  19
ATOM     19  O   UNL     1      -4.145  16.096   0.436  1.00  0.00    -0.504 OA
ATOM     20  H   UNL     1      -4.950  15.565   0.748  1.00  0.00     0.293 HD
ENDBRANCH  16  19
BRANCH  18  21
ATOM     21  O   UNL     1      -3.942  13.293   0.165  1.00  0.00    -0.504 OA
ATOM     22  H   UNL     1      -3.822  12.287   0.161  1.00  0.00     0.293 HD
ENDBRANCH  18  21
ENDBRANCH   3  13
BRANCH  11  23
ATOM     23  O   UNL     1       3.700  11.452  -5.260  1.00  0.00    -0.507 OA
ATOM     24  H   UNL     1       4.073  11.555  -4.324  1.00  0.00     0.293 HD
ENDBRANCH  11  23
ENDBRANCH   1   2
BRANCH   1  25
ATOM     25  C   UNL     1      -0.492  13.434  -9.347  1.00  0.00     0.339 C 
ATOM     26  C   UNL     1      -0.453  13.546 -10.880  1.00  0.00     0.214 C 
ATOM     27  O   UNL     1      -1.502  12.527  -8.929  1.00  0.00    -0.332 OA
ATOM     28  C   UNL     1      -0.254  12.158 -11.513  1.00  0.00     0.180 C 
ATOM     29  C   UNL     1      -1.249  11.212  -9.399  1.00  0.00     0.179 C 
ATOM     30  C   UNL     1      -1.284  11.168 -10.943  1.00  0.00     0.177 C 
BRANCH  26  31
ATOM     31  O   UNL     1       0.591  14.408 -11.255  1.00  0.00    -0.384 OA
ATOM     32  H   UNL     1       0.981  14.771 -10.417  1.00  0.00     0.211 HD
ENDBRANCH  26  31
BRANCH  28  33
ATOM     33  O   UNL     1      -0.415  12.239 -12.907  1.00  0.00    -0.387 OA
ATOM     34  H   UNL     1       0.029  13.076 -13.201  1.00  0.00     0.211 HD
ENDBRANCH  28  33
BRANCH  29  35
ATOM     35  C   UNL     1      -2.309  10.274  -8.802  1.00  0.00     0.191 C 
BRANCH  35  36
ATOM     36  O   UNL     1      -1.983   9.948  -7.478  1.00  0.00    -0.394 OA
ATOM     37  H   UNL     1      -2.474  10.586  -6.897  1.00  0.00     0.210 HD
ENDBRANCH  35  36
ENDBRANCH  29  35
BRANCH  30  38
ATOM     38  O   UNL     1      -0.984   9.868 -11.385  1.00  0.00    -0.387 OA
ATOM     39  H   UNL     1      -1.774   9.547 -11.893  1.00  0.00     0.211 HD
ENDBRANCH  30  38
ENDBRANCH   1  25
TORSDOF 11
ENDMDL
MODEL 3
REMARK VINA RESULT:    -4.363      4.073      9.485
REMARK INTER + INTRA:          -7.308
REMARK INTER:                  -6.554
REMARK INTRA:                  -0.754
REMARK UNBOUND:                -1.032
REMARK SMILES O=c1cc(-c2ccc(O)c(O)c2)oc2cc(O[C@@H]3O[C@@H](CO)[C@H](O)[C@@H](O)[C@@H]3O)cc(O)c12
REMARK SMILES IDX 17 1 16 2 4 3 3 4 13 5 2 6 14 7 1 8 32 9 15 10 30 11 29 12
REMARK SMILES IDX 5 13 6 14 7 15 8 16 12 17 10 18 9 19 11 21 31 23 18 25 27 26
REMARK SMILES IDX 19 27 25 28 20 29 23 30 28 31 26 33 21 35 22 36 24 38
REMARK H PARENT 9 20 11 22 31 24 28 32 26 34 22 37 24 39
REMARK Flexibility Score: inf
ROOT
ATOM      1  O   UNL     1       1.111  13.109  -7.249  1.00  0.00    -0.462 OA
ENDROOT
BRANCH   1   2
ATOM      2  C   UNL     1       1.183  12.954  -5.856  1.00  0.00     0.130 A 
ATOM      3  C   UNL     1      -1.036  13.555  -1.678  1.00  0.00     0.138 A 
ATOM      4  C   UNL     1       0.053  13.042  -0.955  1.00  0.00     0.100 A 
ATOM      5  O   UNL     1      -0.960  13.635  -3.004  1.00  0.00    -0.456 OA
ATOM      6  C   UNL     1       1.191  12.613  -1.638  1.00  0.00     0.197 A 
ATOM      7  C   UNL     1       0.101  13.238  -3.701  1.00  0.00     0.146 A 
ATOM      8  O   UNL     1       2.164  12.156  -0.980  1.00  0.00    -0.289 OA
ATOM      9  C   UNL     1       1.233  12.702  -3.044  1.00  0.00     0.107 A 
ATOM     10  C   UNL     1       0.086  13.359  -5.093  1.00  0.00     0.094 A 
ATOM     11  C   UNL     1       2.344  12.288  -3.814  1.00  0.00     0.134 A 
ATOM     12  C   UNL     1       2.310  12.415  -5.211  1.00  0.00     0.093 A 
BRANCH   3  13
ATOM     13  C   UNL     1      -2.272  14.028  -1.005  1.00  0.00     0.021 A 
ATOM     14  C   UNL     1      -2.801  15.311  -1.244  1.00  0.00     0.016 A 
ATOM     15  C   UNL     1      -3.960  15.733  -0.588  1.00  0.00     0.051 A 
ATOM     16  C   UNL     1      -4.607  14.888   0.322  1.00  0.00     0.157 A 
ATOM     17  C   UNL     1      -2.920  13.190  -0.079  1.00  0.00     0.062 A 
ATOM     18  C   UNL     1      -4.082  13.610   0.578  1.00  0.00     0.158 A 
BRANCH  16  19
ATOM     19  O   UNL     1      -5.763  15.312   0.973  1.00  0.00    -0.504 OA
ATOM     20  H   UNL     1      -5.800  16.195   1.468  1.00  0.00     0.293 HD
ENDBRANCH  16  19
BRANCH  18  21
ATOM     21  O   UNL     1      -4.700  12.746   1.480  1.00  0.00    -0.504 OA
ATOM     22  H   UNL     1      -5.166  11.898   1.179  1.00  0.00     0.293 HD
ENDBRANCH  18  21
ENDBRANCH   3  13
BRANCH  11  23
ATOM     23  O   UNL     1       3.479  11.753  -3.203  1.00  0.00    -0.507 OA
ATOM     24  H   UNL     1       3.498  11.532  -2.215  1.00  0.00     0.293 HD
ENDBRANCH  11  23
ENDBRANCH   1   2
BRANCH   1  25
ATOM     25  C   UNL     1      -0.101  13.224  -8.003  1.00  0.00     0.339 C 
ATOM     26  C   UNL     1       0.198  13.649  -9.450  1.00  0.00     0.214 C 
ATOM     27  O   UNL     1      -0.848  12.017  -7.973  1.00  0.00    -0.332 OA
ATOM     28  C   UNL     1       0.928  12.520 -10.199  1.00  0.00     0.180 C 
ATOM     29  C   UNL     1      -0.121  10.938  -8.541  1.00  0.00     0.179 C 
ATOM     30  C   UNL     1       0.158  11.199 -10.038  1.00  0.00     0.177 C 
BRANCH  26  31
ATOM     31  O   UNL     1       0.983  14.815  -9.438  1.00  0.00    -0.384 OA
ATOM     32  H   UNL     1       1.807  14.602  -8.926  1.00  0.00     0.211 HD
ENDBRANCH  26  31
BRANCH  28  33
ATOM     33  O   UNL     1       1.023  12.835 -11.565  1.00  0.00    -0.387 OA
ATOM     34  H   UNL     1       0.880  11.992 -12.067  1.00  0.00     0.211 HD
ENDBRANCH  28  33
BRANCH  29  35
ATOM     35  C   UNL     1      -0.941   9.653  -8.355  1.00  0.00     0.191 C 
BRANCH  35  36
ATOM     36  O   UNL     1      -2.024   9.884  -7.495  1.00  0.00    -0.394 OA
ATOM     37  H   UNL     1      -1.730   9.613  -6.586  1.00  0.00     0.210 HD
ENDBRANCH  35  36
ENDBRANCH  29  35
BRANCH  30  38
ATOM     38  O   UNL     1       0.919  10.141 -10.567  1.00  0.00    -0.387 OA
ATOM     39  H   UNL     1       1.151  10.392 -11.498  1.00  0.00     0.211 HD
ENDBRANCH  30  38
ENDBRANCH   1  25
TORSDOF 11
ENDMDL
MODEL 4
REMARK VINA RESULT:    -4.342      2.940      9.297
REMARK INTER + INTRA:          -7.278
REMARK INTER:                  -6.275
REMARK INTRA:                  -1.002
REMARK UNBOUND:                -1.032
REMARK SMILES O=c1cc(-c2ccc(O)c(O)c2)oc2cc(O[C@@H]3O[C@@H](CO)[C@H](O)[C@@H](O)[C@@H]3O)cc(O)c12
REMARK SMILES IDX 17 1 16 2 4 3 3 4 13 5 2 6 14 7 1 8 32 9 15 10 30 11 29 12
REMARK SMILES IDX 5 13 6 14 7 15 8 16 12 17 10 18 9 19 11 21 31 23 18 25 27 26
REMARK SMILES IDX 19 27 25 28 20 29 23 30 28 31 26 33 21 35 22 36 24 38
REMARK H PARENT 9 20 11 22 31 24 28 32 26 34 22 37 24 39
REMARK Flexibility Score: inf
ROOT
ATOM      1  O   UNL     1       0.701  13.074  -6.929  1.00  0.00    -0.462 OA
ENDROOT
BRANCH   1   2
ATOM      2  C   UNL     1       0.564  13.786  -5.728  1.00  0.00     0.130 A 
ATOM      3  C   UNL     1      -1.499  13.958  -1.432  1.00  0.00     0.138 A 
ATOM      4  C   UNL     1      -0.883  15.179  -1.115  1.00  0.00     0.100 A 
ATOM      5  O   UNL     1      -1.267  13.396  -2.615  1.00  0.00    -0.456 OA
ATOM      6  C   UNL     1      -0.027  15.777  -2.040  1.00  0.00     0.197 A 
ATOM      7  C   UNL     1      -0.460  13.926  -3.530  1.00  0.00     0.146 A 
ATOM      8  O   UNL     1       0.520  16.875  -1.748  1.00  0.00    -0.289 OA
ATOM      9  C   UNL     1       0.205  15.148  -3.280  1.00  0.00     0.107 A 
ATOM     10  C   UNL     1      -0.276  13.259  -4.743  1.00  0.00     0.094 A 
ATOM     11  C   UNL     1       1.057  15.684  -4.273  1.00  0.00     0.134 A 
ATOM     12  C   UNL     1       1.232  14.999  -5.485  1.00  0.00     0.093 A 
BRANCH   3  13
ATOM     13  C   UNL     1      -2.420  13.276  -0.487  1.00  0.00     0.021 A 
ATOM     14  C   UNL     1      -3.640  13.857  -0.092  1.00  0.00     0.016 A 
ATOM     15  C   UNL     1      -4.482  13.198   0.806  1.00  0.00     0.051 A 
ATOM     16  C   UNL     1      -4.119  11.952   1.333  1.00  0.00     0.157 A 
ATOM     17  C   UNL     1      -2.057  12.031   0.057  1.00  0.00     0.062 A 
ATOM     18  C   UNL     1      -2.899  11.367   0.956  1.00  0.00     0.158 A 
BRANCH  16  19
ATOM     19  O   UNL     1      -4.962  11.296   2.227  1.00  0.00    -0.504 OA
ATOM     20  H   UNL     1      -5.565  10.537   1.930  1.00  0.00     0.293 HD
ENDBRANCH  16  19
BRANCH  18  21
ATOM     21  O   UNL     1      -2.507  10.129   1.464  1.00  0.00    -0.504 OA
ATOM     22  H   UNL     1      -1.544   9.929   1.709  1.00  0.00     0.293 HD
ENDBRANCH  18  21
ENDBRANCH   3  13
BRANCH  11  23
ATOM     23  O   UNL     1       1.732  16.888  -4.065  1.00  0.00    -0.507 OA
ATOM     24  H   UNL     1       1.479  17.517  -3.311  1.00  0.00     0.293 HD
ENDBRANCH  11  23
ENDBRANCH   1   2
BRANCH   1  25
ATOM     25  C   UNL     1      -0.080  13.295  -8.110  1.00  0.00     0.339 C 
ATOM     26  C   UNL     1       0.808  13.248  -9.364  1.00  0.00     0.214 C 
ATOM     27  O   UNL     1      -1.148  12.364  -8.208  1.00  0.00    -0.332 OA
ATOM     28  C   UNL     1       1.331  11.819  -9.595  1.00  0.00     0.180 C 
ATOM     29  C   UNL     1      -0.672  11.029  -8.284  1.00  0.00     0.179 C 
ATOM     30  C   UNL     1       0.161  10.820  -9.568  1.00  0.00     0.177 C 
BRANCH  26  31
ATOM     31  O   UNL     1       1.881  14.141  -9.206  1.00  0.00    -0.384 OA
ATOM     32  H   UNL     1       1.523  14.943  -8.743  1.00  0.00     0.211 HD
ENDBRANCH  26  31
BRANCH  28  33
ATOM     33  O   UNL     1       1.975  11.741 -10.842  1.00  0.00    -0.387 OA
ATOM     34  H   UNL     1       2.908  11.452 -10.667  1.00  0.00     0.211 HD
ENDBRANCH  28  33
BRANCH  29  35
ATOM     35  C   UNL     1      -1.882  10.083  -8.259  1.00  0.00     0.191 C 
BRANCH  35  36
ATOM     36  O   UNL     1      -1.581   8.925  -7.527  1.00  0.00    -0.394 OA
ATOM     37  H   UNL     1      -1.339   8.225  -8.189  1.00  0.00     0.210 HD
ENDBRANCH  35  36
ENDBRANCH  29  35
BRANCH  30  38
ATOM     38  O   UNL     1       0.661   9.507  -9.598  1.00  0.00    -0.387 OA
ATOM     39  H   UNL     1       0.805   9.275 -10.552  1.00  0.00     0.211 HD
ENDBRANCH  30  38
ENDBRANCH   1  25
TORSDOF 11
ENDMDL
MODEL 5
REMARK VINA RESULT:    -4.304      9.052     10.234
REMARK INTER + INTRA:          -7.224
REMARK INTER:                  -6.177
REMARK INTRA:                  -1.047
REMARK UNBOUND:                -1.032
REMARK SMILES O=c1cc(-c2ccc(O)c(O)c2)oc2cc(O[C@@H]3O[C@@H](CO)[C@H](O)[C@@H](O)[C@@H]3O)cc(O)c12
REMARK SMILES IDX 17 1 16 2 4 3 3 4 13 5 2 6 14 7 1 8 32 9 15 10 30 11 29 12
REMARK SMILES IDX 5 13 6 14 7 15 8 16 12 17 10 18 9 19 11 21 31 23 18 25 27 26
REMARK SMILES IDX 19 27 25 28 20 29 23 30 28 31 26 33 21 35 22 36 24 38
REMARK H PARENT 9 20 11 22 31 24 28 32 26 34 22 37 24 39
REMARK Flexibility Score: inf
ROOT
ATOM      1  O   UNL     1       0.883   7.119  -6.450  1.00  0.00    -0.462 OA
ENDROOT
BRANCH   1   2
ATOM      2  C   UNL     1      -0.313   7.129  -7.184  1.00  0.00     0.130 A 
ATOM      3  C   UNL     1      -3.141   9.595 -10.127  1.00  0.00     0.138 A 
ATOM      4  C   UNL     1      -4.098   8.568 -10.170  1.00  0.00     0.100 A 
ATOM      5  O   UNL     1      -2.047   9.439  -9.387  1.00  0.00    -0.456 OA
ATOM      6  C   UNL     1      -3.879   7.394  -9.449  1.00  0.00     0.197 A 
ATOM      7  C   UNL     1      -1.792   8.340  -8.682  1.00  0.00     0.146 A 
ATOM      8  O   UNL     1      -4.744   6.479  -9.492  1.00  0.00    -0.289 OA
ATOM      9  C   UNL     1      -2.702   7.258  -8.684  1.00  0.00     0.107 A 
ATOM     10  C   UNL     1      -0.612   8.266  -7.937  1.00  0.00     0.094 A 
ATOM     11  C   UNL     1      -2.401   6.104  -7.925  1.00  0.00     0.134 A 
ATOM     12  C   UNL     1      -1.211   6.047  -7.185  1.00  0.00     0.093 A 
BRANCH   3  13
ATOM     13  C   UNL     1      -3.321  10.866 -10.873  1.00  0.00     0.021 A 
ATOM     14  C   UNL     1      -2.498  11.985 -10.641  1.00  0.00     0.016 A 
ATOM     15  C   UNL     1      -2.696  13.171 -11.351  1.00  0.00     0.051 A 
ATOM     16  C   UNL     1      -3.724  13.266 -12.299  1.00  0.00     0.157 A 
ATOM     17  C   UNL     1      -4.358  10.973 -11.817  1.00  0.00     0.062 A 
ATOM     18  C   UNL     1      -4.559  12.161 -12.531  1.00  0.00     0.158 A 
BRANCH  16  19
ATOM     19  O   UNL     1      -3.918  14.450 -13.006  1.00  0.00    -0.504 OA
ATOM     20  H   UNL     1      -4.665  15.092 -12.770  1.00  0.00     0.293 HD
ENDBRANCH  16  19
BRANCH  18  21
ATOM     21  O   UNL     1      -5.592  12.223 -13.465  1.00  0.00    -0.504 OA
ATOM     22  H   UNL     1      -5.424  12.450 -14.438  1.00  0.00     0.293 HD
ENDBRANCH  18  21
ENDBRANCH   3  13
BRANCH  11  23
ATOM     23  O   UNL     1      -3.274   5.014  -7.901  1.00  0.00    -0.507 OA
ATOM     24  H   UNL     1      -4.013   4.938  -7.212  1.00  0.00     0.293 HD
ENDBRANCH  11  23
ENDBRANCH   1   2
BRANCH   1  25
ATOM     25  C   UNL     1       2.198   7.119  -7.019  1.00  0.00     0.339 C 
ATOM     26  C   UNL     1       3.222   7.677  -6.016  1.00  0.00     0.214 C 
ATOM     27  O   UNL     1       2.573   5.822  -7.459  1.00  0.00    -0.332 OA
ATOM     28  C   UNL     1       3.392   6.710  -4.831  1.00  0.00     0.180 C 
ATOM     29  C   UNL     1       2.598   4.893  -6.387  1.00  0.00     0.179 C 
ATOM     30  C   UNL     1       3.671   5.289  -5.348  1.00  0.00     0.177 C 
BRANCH  26  31
ATOM     31  O   UNL     1       2.789   8.935  -5.563  1.00  0.00    -0.384 OA
ATOM     32  H   UNL     1       2.132   9.270  -6.227  1.00  0.00     0.211 HD
ENDBRANCH  26  31
BRANCH  28  33
ATOM     33  O   UNL     1       4.464   7.127  -4.024  1.00  0.00    -0.387 OA
ATOM     34  H   UNL     1       4.772   8.000  -4.380  1.00  0.00     0.211 HD
ENDBRANCH  28  33
BRANCH  29  35
ATOM     35  C   UNL     1       2.886   3.499  -6.964  1.00  0.00     0.191 C 
BRANCH  35  36
ATOM     36  O   UNL     1       2.394   2.504  -6.106  1.00  0.00    -0.394 OA
ATOM     37  H   UNL     1       3.095   2.345  -5.422  1.00  0.00     0.210 HD
ENDBRANCH  35  36
ENDBRANCH  29  35
BRANCH  30  38
ATOM     38  O   UNL     1       3.645   4.382  -4.274  1.00  0.00    -0.387 OA
ATOM     39  H   UNL     1       2.766   4.490  -3.827  1.00  0.00     0.211 HD
ENDBRANCH  30  38
ENDBRANCH   1  25
TORSDOF 11
ENDMDL
MODEL 6
REMARK VINA RESULT:    -4.301      7.951     10.926
REMARK INTER + INTRA:          -7.219
REMARK INTER:                  -6.225
REMARK INTRA:                  -0.994
REMARK UNBOUND:                -1.032
REMARK SMILES O=c1cc(-c2ccc(O)c(O)c2)oc2cc(O[C@@H]3O[C@@H](CO)[C@H](O)[C@@H](O)[C@@H]3O)cc(O)c12
REMARK SMILES IDX 17 1 16 2 4 3 3 4 13 5 2 6 14 7 1 8 32 9 15 10 30 11 29 12
REMARK SMILES IDX 5 13 6 14 7 15 8 16 12 17 10 18 9 19 11 21 31 23 18 25 27 26
REMARK SMILES IDX 19 27 25 28 20 29 23 30 28 31 26 33 21 35 22 36 24 38
REMARK H PARENT 9 20 11 22 31 24 28 32 26 34 22 37 24 39
REMARK Flexibility Score: inf
ROOT
ATOM      1  O   UNL     1       0.679  13.623  -7.352  1.00  0.00    -0.462 OA
ENDROOT
BRANCH   1   2
ATOM      2  C   UNL     1      -0.195  13.079  -8.306  1.00  0.00     0.130 A 
ATOM      3  C   UNL     1      -3.347   9.640  -9.295  1.00  0.00     0.138 A 
ATOM      4  C   UNL     1      -3.553  10.116 -10.600  1.00  0.00     0.100 A 
ATOM      5  O   UNL     1      -2.487  10.268  -8.497  1.00  0.00    -0.456 OA
ATOM      6  C   UNL     1      -2.862  11.248 -11.034  1.00  0.00     0.197 A 
ATOM      7  C   UNL     1      -1.806  11.350  -8.864  1.00  0.00     0.146 A 
ATOM      8  O   UNL     1      -3.052  11.667 -12.208  1.00  0.00    -0.289 OA
ATOM      9  C   UNL     1      -1.967  11.895 -10.159  1.00  0.00     0.107 A 
ATOM     10  C   UNL     1      -0.927  11.942  -7.955  1.00  0.00     0.094 A 
ATOM     11  C   UNL     1      -1.229  13.047 -10.517  1.00  0.00     0.134 A 
ATOM     12  C   UNL     1      -0.352  13.630  -9.590  1.00  0.00     0.093 A 
BRANCH   3  13
ATOM     13  C   UNL     1      -4.053   8.440  -8.778  1.00  0.00     0.021 A 
ATOM     14  C   UNL     1      -5.409   8.484  -8.399  1.00  0.00     0.016 A 
ATOM     15  C   UNL     1      -6.044   7.342  -7.907  1.00  0.00     0.051 A 
ATOM     16  C   UNL     1      -5.339   6.139  -7.776  1.00  0.00     0.157 A 
ATOM     17  C   UNL     1      -3.348   7.232  -8.631  1.00  0.00     0.062 A 
ATOM     18  C   UNL     1      -3.983   6.086  -8.139  1.00  0.00     0.158 A 
BRANCH  16  19
ATOM     19  O   UNL     1      -5.977   5.002  -7.286  1.00  0.00    -0.504 OA
ATOM     20  H   UNL     1      -5.456   4.243  -6.861  1.00  0.00     0.293 HD
ENDBRANCH  16  19
BRANCH  18  21
ATOM     21  O   UNL     1      -3.251   4.905  -8.019  1.00  0.00    -0.504 OA
ATOM     22  H   UNL     1      -3.674   4.040  -7.703  1.00  0.00     0.293 HD
ENDBRANCH  18  21
ENDBRANCH   3  13
BRANCH  11  23
ATOM     23  O   UNL     1      -1.360  13.616 -11.786  1.00  0.00    -0.507 OA
ATOM     24  H   UNL     1      -0.560  13.759 -12.390  1.00  0.00     0.293 HD
ENDBRANCH  11  23
ENDBRANCH   1   2
BRANCH   1  25
ATOM     25  C   UNL     1       2.101  13.715  -7.496  1.00  0.00     0.339 C 
ATOM     26  C   UNL     1       2.720  14.460  -6.302  1.00  0.00     0.214 C 
ATOM     27  O   UNL     1       2.691  12.434  -7.658  1.00  0.00    -0.332 OA
ATOM     28  C   UNL     1       2.588  13.617  -5.021  1.00  0.00     0.180 C 
ATOM     29  C   UNL     1       2.454  11.604  -6.531  1.00  0.00     0.179 C 
ATOM     30  C   UNL     1       3.120  12.196  -5.269  1.00  0.00     0.177 C 
BRANCH  26  31
ATOM     31  O   UNL     1       2.074  15.697  -6.141  1.00  0.00    -0.384 OA
ATOM     32  H   UNL     1       1.725  15.958  -7.034  1.00  0.00     0.211 HD
ENDBRANCH  26  31
BRANCH  28  33
ATOM     33  O   UNL     1       3.324  14.210  -3.980  1.00  0.00    -0.387 OA
ATOM     34  H   UNL     1       2.723  14.862  -3.536  1.00  0.00     0.211 HD
ENDBRANCH  28  33
BRANCH  29  35
ATOM     35  C   UNL     1       3.010  10.205  -6.836  1.00  0.00     0.191 C 
BRANCH  35  36
ATOM     36  O   UNL     1       2.483   9.263  -5.941  1.00  0.00    -0.394 OA
ATOM     37  H   UNL     1       1.927   8.640  -6.477  1.00  0.00     0.210 HD
ENDBRANCH  35  36
ENDBRANCH  29  35
BRANCH  30  38
ATOM     38  O   UNL     1       2.832  11.383  -4.158  1.00  0.00    -0.387 OA
ATOM     39  H   UNL     1       3.150  10.470  -4.380  1.00  0.00     0.211 HD
ENDBRANCH  30  38
ENDBRANCH   1  25
TORSDOF 11
ENDMDL
MODEL 7
REMARK VINA RESULT:    -4.298      5.082      9.355
REMARK INTER + INTRA:          -7.215
REMARK INTER:                  -6.250
REMARK INTRA:                  -0.965
REMARK UNBOUND:                -1.032
REMARK SMILES O=c1cc(-c2ccc(O)c(O)c2)oc2cc(O[C@@H]3O[C@@H](CO)[C@H](O)[C@@H](O)[C@@H]3O)cc(O)c12
REMARK SMILES IDX 17 1 16 2 4 3 3 4 13 5 2 6 14 7 1 8 32 9 15 10 30 11 29 12
REMARK SMILES IDX 5 13 6 14 7 15 8 16 12 17 10 18 9 19 11 21 31 23 18 25 27 26
REMARK SMILES IDX 19 27 25 28 20 29 23 30 28 31 26 33 21 35 22 36 24 38
REMARK H PARENT 9 20 11 22 31 24 28 32 26 34 22 37 24 39
REMARK Flexibility Score: inf
ROOT
ATOM      1  O   UNL     1       0.877  13.163  -4.658  1.00  0.00    -0.462 OA
ENDROOT
BRANCH   1   2
ATOM      2  C   UNL     1       0.926  13.438  -6.033  1.00  0.00     0.130 A 
ATOM      3  C   UNL     1      -1.310  13.092 -10.231  1.00  0.00     0.138 A 
ATOM      4  C   UNL     1      -0.253  13.713 -10.917  1.00  0.00     0.100 A 
ATOM      5  O   UNL     1      -1.216  12.904  -8.918  1.00  0.00    -0.456 OA
ATOM      6  C   UNL     1       0.872  14.135 -10.208  1.00  0.00     0.197 A 
ATOM      7  C   UNL     1      -0.166  13.288  -8.197  1.00  0.00     0.146 A 
ATOM      8  O   UNL     1       1.816  14.689 -10.832  1.00  0.00    -0.289 OA
ATOM      9  C   UNL     1       0.933  13.929  -8.814  1.00  0.00     0.107 A 
ATOM     10  C   UNL     1      -0.160  13.050  -6.821  1.00  0.00     0.094 A 
ATOM     11  C   UNL     1       2.033  14.326  -8.020  1.00  0.00     0.134 A 
ATOM     12  C   UNL     1       2.020  14.081  -6.639  1.00  0.00     0.093 A 
BRANCH   3  13
ATOM     13  C   UNL     1      -2.531  12.622 -10.933  1.00  0.00     0.021 A 
ATOM     14  C   UNL     1      -2.939  11.275 -10.889  1.00  0.00     0.016 A 
ATOM     15  C   UNL     1      -4.087  10.859 -11.567  1.00  0.00     0.051 A 
ATOM     16  C   UNL     1      -4.843  11.776 -12.309  1.00  0.00     0.157 A 
ATOM     17  C   UNL     1      -3.288  13.534 -11.691  1.00  0.00     0.062 A 
ATOM     18  C   UNL     1      -4.439  13.120 -12.371  1.00  0.00     0.158 A 
BRANCH  16  19
ATOM     19  O   UNL     1      -5.988  11.357 -12.983  1.00  0.00    -0.504 OA
ATOM     20  H   UNL     1      -6.901  11.384 -12.546  1.00  0.00     0.293 HD
ENDBRANCH  16  19
BRANCH  18  21
ATOM     21  O   UNL     1      -5.168  14.057 -13.102  1.00  0.00    -0.504 OA
ATOM     22  H   UNL     1      -5.560  13.843 -14.012  1.00  0.00     0.293 HD
ENDBRANCH  18  21
ENDBRANCH   3  13
BRANCH  11  23
ATOM     23  O   UNL     1       3.137  14.963  -8.592  1.00  0.00    -0.507 OA
ATOM     24  H   UNL     1       3.115  15.944  -8.842  1.00  0.00     0.293 HD
ENDBRANCH  11  23
ENDBRANCH   1   2
BRANCH   1  25
ATOM     25  C   UNL     1       1.576  13.898  -3.647  1.00  0.00     0.339 C 
ATOM     26  C   UNL     1       0.658  14.175  -2.445  1.00  0.00     0.214 C 
ATOM     27  O   UNL     1       2.757  13.223  -3.239  1.00  0.00    -0.332 OA
ATOM     28  C   UNL     1       0.328  12.864  -1.710  1.00  0.00     0.180 C 
ATOM     29  C   UNL     1       2.467  11.950  -2.683  1.00  0.00     0.179 C 
ATOM     30  C   UNL     1       1.624  12.097  -1.397  1.00  0.00     0.177 C 
BRANCH  26  31
ATOM     31  O   UNL     1      -0.521  14.793  -2.895  1.00  0.00    -0.384 OA
ATOM     32  H   UNL     1      -0.858  15.352  -2.147  1.00  0.00     0.211 HD
ENDBRANCH  26  31
BRANCH  28  33
ATOM     33  O   UNL     1      -0.344  13.144  -0.508  1.00  0.00    -0.387 OA
ATOM     34  H   UNL     1      -1.233  13.511  -0.753  1.00  0.00     0.211 HD
ENDBRANCH  28  33
BRANCH  29  35
ATOM     35  C   UNL     1       3.795  11.238  -2.387  1.00  0.00     0.191 C 
BRANCH  35  36
ATOM     36  O   UNL     1       3.617   9.847  -2.401  1.00  0.00    -0.394 OA
ATOM     37  H   UNL     1       2.777   9.671  -2.901  1.00  0.00     0.210 HD
ENDBRANCH  35  36
ENDBRANCH  29  35
BRANCH  30  38
ATOM     38  O   UNL     1       1.309  10.823  -0.891  1.00  0.00    -0.387 OA
ATOM     39  H   UNL     1       1.705  10.160  -1.514  1.00  0.00     0.211 HD
ENDBRANCH  30  38
ENDBRANCH   1  25
TORSDOF 11
ENDMDL
MODEL 8
REMARK VINA RESULT:    -4.284      3.735      7.441
REMARK INTER + INTRA:          -7.194
REMARK INTER:                  -6.223
REMARK INTRA:                  -0.970
REMARK UNBOUND:                -1.032
REMARK SMILES O=c1cc(-c2ccc(O)c(O)c2)oc2cc(O[C@@H]3O[C@@H](CO)[C@H](O)[C@@H](O)[C@@H]3O)cc(O)c12
REMARK SMILES IDX 17 1 16 2 4 3 3 4 13 5 2 6 14 7 1 8 32 9 15 10 30 11 29 12
REMARK SMILES IDX 5 13 6 14 7 15 8 16 12 17 10 18 9 19 11 21 31 23 18 25 27 26
REMARK SMILES IDX 19 27 25 28 20 29 23 30 28 31 26 33 21 35 22 36 24 38
REMARK H PARENT 9 20 11 22 31 24 28 32 26 34 22 37 24 39
REMARK Flexibility Score: inf
ROOT
ATOM      1  O   UNL     1      -0.062  13.280  -2.375  1.00  0.00    -0.462 OA
ENDROOT
BRANCH   1   2
ATOM      2  C   UNL     1       0.458  13.539  -3.653  1.00  0.00     0.130 A 
ATOM      3  C   UNL     1      -0.227  13.196  -8.359  1.00  0.00     0.138 A 
ATOM      4  C   UNL     1       1.015  13.785  -8.647  1.00  0.00     0.100 A 
ATOM      5  O   UNL     1      -0.590  13.021  -7.092  1.00  0.00    -0.456 OA
ATOM      6  C   UNL     1       1.842  14.188  -7.599  1.00  0.00     0.197 A 
ATOM      7  C   UNL     1       0.162  13.389  -6.059  1.00  0.00     0.146 A 
ATOM      8  O   UNL     1       2.956  14.714  -7.867  1.00  0.00    -0.289 OA
ATOM      9  C   UNL     1       1.421  13.997  -6.267  1.00  0.00     0.107 A 
ATOM     10  C   UNL     1      -0.306  13.166  -4.761  1.00  0.00     0.094 A 
ATOM     11  C   UNL     1       2.196  14.378  -5.148  1.00  0.00     0.134 A 
ATOM     12  C   UNL     1       1.709  14.149  -3.852  1.00  0.00     0.093 A 
BRANCH   3  13
ATOM     13  C   UNL     1      -1.149  12.746  -9.433  1.00  0.00     0.021 A 
ATOM     14  C   UNL     1      -1.422  13.547 -10.559  1.00  0.00     0.016 A 
ATOM     15  C   UNL     1      -2.301  13.102 -11.549  1.00  0.00     0.051 A 
ATOM     16  C   UNL     1      -2.930  11.856 -11.431  1.00  0.00     0.157 A 
ATOM     17  C   UNL     1      -1.794  11.502  -9.316  1.00  0.00     0.062 A 
ATOM     18  C   UNL     1      -2.675  11.054 -10.307  1.00  0.00     0.158 A 
BRANCH  16  19
ATOM     19  O   UNL     1      -3.805  11.416 -12.421  1.00  0.00    -0.504 OA
ATOM     20  H   UNL     1      -4.545  10.753 -12.219  1.00  0.00     0.293 HD
ENDBRANCH  16  19
BRANCH  18  21
ATOM     21  O   UNL     1      -3.286   9.810 -10.157  1.00  0.00    -0.504 OA
ATOM     22  H   UNL     1      -3.700   9.515  -9.280  1.00  0.00     0.293 HD
ENDBRANCH  18  21
ENDBRANCH   3  13
BRANCH  11  23
ATOM     23  O   UNL     1       3.444  14.982  -5.312  1.00  0.00    -0.507 OA
ATOM     24  H   UNL     1       4.007  15.267  -4.519  1.00  0.00     0.293 HD
ENDBRANCH  11  23
ENDBRANCH   1   2
BRANCH   1  25
ATOM     25  C   UNL     1       0.564  13.652  -1.142  1.00  0.00     0.339 C 
ATOM     26  C   UNL     1      -0.486  13.823  -0.031  1.00  0.00     0.214 C 
ATOM     27  O   UNL     1       1.558  12.712  -0.760  1.00  0.00    -0.332 OA
ATOM     28  C   UNL     1      -1.110  12.464   0.330  1.00  0.00     0.180 C 
ATOM     29  C   UNL     1       1.006  11.420  -0.559  1.00  0.00     0.179 C 
ATOM     30  C   UNL     1      -0.002  11.435   0.612  1.00  0.00     0.177 C 
BRANCH  26  31
ATOM     31  O   UNL     1      -1.479  14.717  -0.466  1.00  0.00    -0.384 OA
ATOM     32  H   UNL     1      -2.309  14.186  -0.595  1.00  0.00     0.211 HD
ENDBRANCH  26  31
BRANCH  28  33
ATOM     33  O   UNL     1      -1.919  12.596   1.471  1.00  0.00    -0.387 OA
ATOM     34  H   UNL     1      -2.687  13.169   1.217  1.00  0.00     0.211 HD
ENDBRANCH  28  33
BRANCH  29  35
ATOM     35  C   UNL     1       2.156  10.443  -0.276  1.00  0.00     0.191 C 
BRANCH  35  36
ATOM     36  O   UNL     1       1.749   9.124  -0.524  1.00  0.00    -0.394 OA
ATOM     37  H   UNL     1       0.856   9.177  -0.954  1.00  0.00     0.210 HD
ENDBRANCH  35  36
ENDBRANCH  29  35
BRANCH  30  38
ATOM     38  O   UNL     1      -0.570  10.158   0.762  1.00  0.00    -0.387 OA
ATOM     39  H   UNL     1      -1.219  10.218   1.509  1.00  0.00     0.211 HD
ENDBRANCH  30  38
ENDBRANCH   1  25
TORSDOF 11
ENDMDL
MODEL 9
REMARK VINA RESULT:    -4.145      4.822      9.753
REMARK INTER + INTRA:          -6.995
REMARK INTER:                  -6.179
REMARK INTRA:                  -0.816
REMARK UNBOUND:                -1.032
REMARK SMILES O=c1cc(-c2ccc(O)c(O)c2)oc2cc(O[C@@H]3O[C@@H](CO)[C@H](O)[C@@H](O)[C@@H]3O)cc(O)c12
REMARK SMILES IDX 17 1 16 2 4 3 3 4 13 5 2 6 14 7 1 8 32 9 15 10 30 11 29 12
REMARK SMILES IDX 5 13 6 14 7 15 8 16 12 17 10 18 9 19 11 21 31 23 18 25 27 26
REMARK SMILES IDX 19 27 25 28 20 29 23 30 28 31 26 33 21 35 22 36 24 38
REMARK H PARENT 9 20 11 22 31 24 28 32 26 34 22 37 24 39
REMARK Flexibility Score: inf
ROOT
ATOM      1  O   UNL     1      -1.055  10.929  -9.544  1.00  0.00    -0.462 OA
ENDROOT
BRANCH   1   2
ATOM      2  C   UNL     1      -0.259  11.852  -8.849  1.00  0.00     0.130 A 
ATOM      3  C   UNL     1       0.365  14.298  -4.803  1.00  0.00     0.138 A 
ATOM      4  C   UNL     1       1.518  14.934  -5.290  1.00  0.00     0.100 A 
ATOM      5  O   UNL     1      -0.286  13.436  -5.580  1.00  0.00    -0.456 OA
ATOM      6  C   UNL     1       1.971  14.641  -6.577  1.00  0.00     0.197 A 
ATOM      7  C   UNL     1       0.107  13.124  -6.812  1.00  0.00     0.146 A 
ATOM      8  O   UNL     1       3.006  15.218  -7.006  1.00  0.00    -0.289 OA
ATOM      9  C   UNL     1       1.264  13.714  -7.369  1.00  0.00     0.107 A 
ATOM     10  C   UNL     1      -0.640  12.203  -7.552  1.00  0.00     0.094 A 
ATOM     11  C   UNL     1       1.655  13.359  -8.681  1.00  0.00     0.134 A 
ATOM     12  C   UNL     1       0.894  12.432  -9.408  1.00  0.00     0.093 A 
BRANCH   3  13
ATOM     13  C   UNL     1      -0.165  14.571  -3.442  1.00  0.00     0.021 A 
ATOM     14  C   UNL     1       0.041  15.808  -2.801  1.00  0.00     0.016 A 
ATOM     15  C   UNL     1      -0.460  16.033  -1.517  1.00  0.00     0.051 A 
ATOM     16  C   UNL     1      -1.168  15.027  -0.847  1.00  0.00     0.157 A 
ATOM     17  C   UNL     1      -0.866  13.562  -2.757  1.00  0.00     0.062 A 
ATOM     18  C   UNL     1      -1.370  13.786  -1.471  1.00  0.00     0.158 A 
BRANCH  16  19
ATOM     19  O   UNL     1      -1.668  15.256   0.434  1.00  0.00    -0.504 OA
ATOM     20  H   UNL     1      -2.589  15.651   0.581  1.00  0.00     0.293 HD
ENDBRANCH  16  19
BRANCH  18  21
ATOM     21  O   UNL     1      -2.068  12.763  -0.830  1.00  0.00    -0.504 OA
ATOM     22  H   UNL     1      -2.046  12.644   0.176  1.00  0.00     0.293 HD
ENDBRANCH  18  21
ENDBRANCH   3  13
BRANCH  11  23
ATOM     23  O   UNL     1       2.792  13.920  -9.266  1.00  0.00    -0.507 OA
ATOM     24  H   UNL     1       2.735  14.488 -10.103  1.00  0.00     0.293 HD
ENDBRANCH  11  23
ENDBRANCH   1   2
BRANCH   1  25
ATOM     25  C   UNL     1      -2.264  10.346  -9.046  1.00  0.00     0.339 C 
ATOM     26  C   UNL     1      -3.187   9.935 -10.206  1.00  0.00     0.214 C 
ATOM     27  O   UNL     1      -1.996   9.242  -8.195  1.00  0.00    -0.332 OA
ATOM     28  C   UNL     1      -2.571   8.762 -10.988  1.00  0.00     0.180 C 
ATOM     29  C   UNL     1      -1.304   8.210  -8.880  1.00  0.00     0.179 C 
ATOM     30  C   UNL     1      -2.174   7.635 -10.021  1.00  0.00     0.177 C 
BRANCH  26  31
ATOM     31  O   UNL     1      -3.384  11.038 -11.054  1.00  0.00    -0.384 OA
ATOM     32  H   UNL     1      -3.768  11.765 -10.497  1.00  0.00     0.211 HD
ENDBRANCH  26  31
BRANCH  28  33
ATOM     33  O   UNL     1      -3.501   8.266 -11.919  1.00  0.00    -0.387 OA
ATOM     34  H   UNL     1      -3.489   7.277 -11.839  1.00  0.00     0.211 HD
ENDBRANCH  28  33
BRANCH  29  35
ATOM     35  C   UNL     1      -0.942   7.115  -7.866  1.00  0.00     0.191 C 
BRANCH  35  36
ATOM     36  O   UNL     1      -1.211   7.550  -6.560  1.00  0.00    -0.394 OA
ATOM     37  H   UNL     1      -2.196   7.502  -6.441  1.00  0.00     0.210 HD
ENDBRANCH  35  36
ENDBRANCH  29  35
BRANCH  30  38
ATOM     38  O   UNL     1      -1.451   6.649 -10.714  1.00  0.00    -0.387 OA
ATOM     39  H   UNL     1      -0.692   7.107 -11.158  1.00  0.00     0.211 HD
ENDBRANCH  30  38
ENDBRANCH   1  25
TORSDOF 11
ENDMDL
