MODEL 1
REMARK VINA RESULT:    -7.796      0.000      0.000
REMARK INTER + INTRA:          -9.472
REMARK INTER:                  -9.163
REMARK INTRA:                  -0.309
REMARK UNBOUND:                -0.309
REMARK SMILES O=c1cc(-c2ccc(O)c(O)c2)oc2cc(O)cc(O)c12
REMARK SMILES IDX 4 1 3 2 2 3 1 4 21 5 19 6 18 7 16 8 15 9 14 10 13 11 5 12
REMARK SMILES IDX 6 13 7 14 8 15 12 16 10 17 9 18 11 20 20 22 17 24
REMARK H PARENT 9 19 11 21 20 23 17 25
REMARK Flexibility Score: inf
ROOT
ATOM      1  C   UNL     1     127.763 -12.620 193.216  1.00  0.00     0.138 A 
ATOM      2  C   UNL     1     127.863 -11.340 193.789  1.00  0.00     0.100 A 
ATOM      3  C   UNL     1     128.941 -11.044 194.624  1.00  0.00     0.197 A 
ATOM      4  O   UNL     1     129.021  -9.894 195.133  1.00  0.00    -0.289 OA
ATOM      5  C   UNL     1     129.910 -12.032 194.885  1.00  0.00     0.107 A 
ATOM      6  C   UNL     1     131.033 -11.815 195.719  1.00  0.00     0.134 A 
ATOM      7  C   UNL     1     131.951 -12.854 195.933  1.00  0.00     0.093 A 
ATOM      8  C   UNL     1     131.769 -14.101 195.332  1.00  0.00     0.123 A 
ATOM      9  C   UNL     1     130.661 -14.322 194.507  1.00  0.00     0.094 A 
ATOM     10  C   UNL     1     129.735 -13.300 194.280  1.00  0.00     0.146 A 
ATOM     11  O   UNL     1     128.691 -13.533 193.491  1.00  0.00    -0.456 OA
ENDROOT
BRANCH   1  12
ATOM     12  C   UNL     1     126.639 -12.992 192.321  1.00  0.00     0.021 A 
ATOM     13  C   UNL     1     125.407 -12.327 192.446  1.00  0.00     0.016 A 
ATOM     14  C   UNL     1     124.330 -12.662 191.621  1.00  0.00     0.051 A 
ATOM     15  C   UNL     1     124.464 -13.675 190.663  1.00  0.00     0.157 A 
ATOM     16  C   UNL     1     126.762 -14.019 191.363  1.00  0.00     0.062 A 
ATOM     17  C   UNL     1     125.681 -14.356 190.537  1.00  0.00     0.158 A 
BRANCH  15  18
ATOM     18  O   UNL     1     123.394 -14.012 189.837  1.00  0.00    -0.504 OA
ATOM     19  H   UNL     1     123.514 -14.142 188.840  1.00  0.00     0.293 HD
ENDBRANCH  15  18
BRANCH  17  20
ATOM     20  O   UNL     1     125.807 -15.371 189.590  1.00  0.00    -0.504 OA
ATOM     21  H   UNL     1     126.572 -16.035 189.621  1.00  0.00     0.293 HD
ENDBRANCH  17  20
ENDBRANCH   1  12
BRANCH   6  22
ATOM     22  O   UNL     1     131.242 -10.579 196.333  1.00  0.00    -0.507 OA
ATOM     23  H   UNL     1     131.624 -10.508 197.269  1.00  0.00     0.293 HD
ENDBRANCH   6  22
BRANCH   8  24
ATOM     24  O   UNL     1     132.696 -15.116 195.561  1.00  0.00    -0.508 OA
ATOM     25  H   UNL     1     132.732 -15.944 194.977  1.00  0.00     0.293 HD
ENDBRANCH   8  24
TORSDOF 5
ENDMDL
MODEL 2
REMARK VINA RESULT:    -7.640      4.839     10.957
REMARK INTER + INTRA:          -9.289
REMARK INTER:                  -9.001
REMARK INTRA:                  -0.288
REMARK UNBOUND:                -0.309
REMARK SMILES O=c1cc(-c2ccc(O)c(O)c2)oc2cc(O)cc(O)c12
REMARK SMILES IDX 4 1 3 2 2 3 1 4 21 5 19 6 18 7 16 8 15 9 14 10 13 11 5 12
REMARK SMILES IDX 6 13 7 14 8 15 12 16 10 17 9 18 11 20 20 22 17 24
REMARK H PARENT 9 19 11 21 20 23 17 25
REMARK Flexibility Score: inf
ROOT
ATOM      1  C   UNL     1     122.715 -14.650 188.097  1.00  0.00     0.138 A 
ATOM      2  C   UNL     1     123.134 -15.033 186.811  1.00  0.00     0.100 A 
ATOM      3  C   UNL     1     122.181 -15.282 185.823  1.00  0.00     0.197 A 
ATOM      4  O   UNL     1     122.567 -15.626 184.674  1.00  0.00    -0.289 OA
ATOM      5  C   UNL     1     120.812 -15.149 186.129  1.00  0.00     0.107 A 
ATOM      6  C   UNL     1     119.782 -15.381 185.186  1.00  0.00     0.134 A 
ATOM      7  C   UNL     1     118.441 -15.232 185.572  1.00  0.00     0.093 A 
ATOM      8  C   UNL     1     118.112 -14.857 186.876  1.00  0.00     0.123 A 
ATOM      9  C   UNL     1     119.126 -14.627 187.812  1.00  0.00     0.094 A 
ATOM     10  C   UNL     1     120.468 -14.769 187.448  1.00  0.00     0.146 A 
ATOM     11  O   UNL     1     121.414 -14.543 188.354  1.00  0.00    -0.456 OA
ENDROOT
BRANCH   1  12
ATOM     12  C   UNL     1     123.683 -14.374 189.187  1.00  0.00     0.021 A 
ATOM     13  C   UNL     1     123.346 -13.453 190.194  1.00  0.00     0.016 A 
ATOM     14  C   UNL     1     124.242 -13.170 191.229  1.00  0.00     0.051 A 
ATOM     15  C   UNL     1     125.495 -13.794 191.267  1.00  0.00     0.157 A 
ATOM     16  C   UNL     1     124.952 -14.988 189.225  1.00  0.00     0.062 A 
ATOM     17  C   UNL     1     125.851 -14.701 190.262  1.00  0.00     0.158 A 
BRANCH  15  18
ATOM     18  O   UNL     1     126.391 -13.515 192.296  1.00  0.00    -0.504 OA
ATOM     19  H   UNL     1     126.072 -13.295 193.233  1.00  0.00     0.293 HD
ENDBRANCH  15  18
BRANCH  17  20
ATOM     20  O   UNL     1     127.103 -15.312 190.297  1.00  0.00    -0.504 OA
ATOM     21  H   UNL     1     127.953 -14.792 190.109  1.00  0.00     0.293 HD
ENDBRANCH  17  20
ENDBRANCH   1  12
BRANCH   6  22
ATOM     22  O   UNL     1     120.080 -15.756 183.875  1.00  0.00    -0.507 OA
ATOM     23  H   UNL     1     119.370 -15.774 183.152  1.00  0.00     0.293 HD
ENDBRANCH   6  22
BRANCH   8  24
ATOM     24  O   UNL     1     116.772 -14.717 187.233  1.00  0.00    -0.508 OA
ATOM     25  H   UNL     1     116.373 -15.233 188.008  1.00  0.00     0.293 HD
ENDBRANCH   8  24
TORSDOF 5
ENDMDL
MODEL 3
REMARK VINA RESULT:    -7.364      5.672      8.629
REMARK INTER + INTRA:          -8.965
REMARK INTER:                  -8.670
REMARK INTRA:                  -0.295
REMARK UNBOUND:                -0.309
REMARK SMILES O=c1cc(-c2ccc(O)c(O)c2)oc2cc(O)cc(O)c12
REMARK SMILES IDX 4 1 3 2 2 3 1 4 21 5 19 6 18 7 16 8 15 9 14 10 13 11 5 12
REMARK SMILES IDX 6 13 7 14 8 15 12 16 10 17 9 18 11 20 20 22 17 24
REMARK H PARENT 9 19 11 21 20 23 17 25
REMARK Flexibility Score: inf
ROOT
ATOM      1  C   UNL     1     121.946 -14.357 187.631  1.00  0.00     0.138 A 
ATOM      2  C   UNL     1     121.907 -14.277 189.033  1.00  0.00     0.100 A 
ATOM      3  C   UNL     1     123.070 -13.954 189.735  1.00  0.00     0.197 A 
ATOM      4  O   UNL     1     123.025 -13.886 190.993  1.00  0.00    -0.289 OA
ATOM      5  C   UNL     1     124.265 -13.718 189.028  1.00  0.00     0.107 A 
ATOM      6  C   UNL     1     125.487 -13.386 189.661  1.00  0.00     0.134 A 
ATOM      7  C   UNL     1     126.635 -13.171 188.886  1.00  0.00     0.093 A 
ATOM      8  C   UNL     1     126.587 -13.283 187.495  1.00  0.00     0.123 A 
ATOM      9  C   UNL     1     125.384 -13.611 186.863  1.00  0.00     0.094 A 
ATOM     10  C   UNL     1     124.227 -13.828 187.618  1.00  0.00     0.146 A 
ATOM     11  O   UNL     1     123.094 -14.137 186.995  1.00  0.00    -0.456 OA
ENDROOT
BRANCH   1  12
ATOM     12  C   UNL     1     120.741 -14.697 186.832  1.00  0.00     0.021 A 
ATOM     13  C   UNL     1     120.886 -15.044 185.478  1.00  0.00     0.016 A 
ATOM     14  C   UNL     1     119.768 -15.361 184.702  1.00  0.00     0.051 A 
ATOM     15  C   UNL     1     118.485 -15.326 185.264  1.00  0.00     0.157 A 
ATOM     16  C   UNL     1     119.447 -14.651 187.388  1.00  0.00     0.062 A 
ATOM     17  C   UNL     1     118.325 -14.968 186.608  1.00  0.00     0.158 A 
BRANCH  15  18
ATOM     18  O   UNL     1     117.368 -15.643 184.494  1.00  0.00    -0.504 OA
ATOM     19  H   UNL     1     117.193 -16.589 184.177  1.00  0.00     0.293 HD
ENDBRANCH  15  18
BRANCH  17  20
ATOM     20  O   UNL     1     117.047 -14.924 187.161  1.00  0.00    -0.504 OA
ATOM     21  H   UNL     1     116.726 -15.630 187.814  1.00  0.00     0.293 HD
ENDBRANCH  17  20
ENDBRANCH   1  12
BRANCH   6  22
ATOM     22  O   UNL     1     125.566 -13.267 191.050  1.00  0.00    -0.507 OA
ATOM     23  H   UNL     1     125.778 -12.383 191.498  1.00  0.00     0.293 HD
ENDBRANCH   6  22
BRANCH   8  24
ATOM     24  O   UNL     1     127.743 -13.065 186.748  1.00  0.00    -0.508 OA
ATOM     25  H   UNL     1     128.269 -12.201 186.824  1.00  0.00     0.293 HD
ENDBRANCH   8  24
TORSDOF 5
ENDMDL
MODEL 4
REMARK VINA RESULT:    -7.340      1.333      3.079
REMARK INTER + INTRA:          -8.936
REMARK INTER:                  -8.621
REMARK INTRA:                  -0.315
REMARK UNBOUND:                -0.309
REMARK SMILES O=c1cc(-c2ccc(O)c(O)c2)oc2cc(O)cc(O)c12
REMARK SMILES IDX 4 1 3 2 2 3 1 4 21 5 19 6 18 7 16 8 15 9 14 10 13 11 5 12
REMARK SMILES IDX 6 13 7 14 8 15 12 16 10 17 9 18 11 20 20 22 17 24
REMARK H PARENT 9 19 11 21 20 23 17 25
REMARK Flexibility Score: inf
ROOT
ATOM      1  C   UNL     1     127.788 -13.256 193.072  1.00  0.00     0.138 A 
ATOM      2  C   UNL     1     128.859 -14.147 193.257  1.00  0.00     0.100 A 
ATOM      3  C   UNL     1     129.907 -13.792 194.108  1.00  0.00     0.197 A 
ATOM      4  O   UNL     1     130.864 -14.597 194.267  1.00  0.00    -0.289 OA
ATOM      5  C   UNL     1     129.878 -12.546 194.765  1.00  0.00     0.107 A 
ATOM      6  C   UNL     1     130.898 -12.110 195.644  1.00  0.00     0.134 A 
ATOM      7  C   UNL     1     130.798 -10.851 196.255  1.00  0.00     0.093 A 
ATOM      8  C   UNL     1     129.701 -10.023 196.005  1.00  0.00     0.123 A 
ATOM      9  C   UNL     1     128.690 -10.449 195.137  1.00  0.00     0.094 A 
ATOM     10  C   UNL     1     128.771 -11.700 194.519  1.00  0.00     0.146 A 
ATOM     11  O   UNL     1     127.796 -12.083 193.700  1.00  0.00    -0.456 OA
ENDROOT
BRANCH   1  12
ATOM     12  C   UNL     1     126.647 -13.580 192.179  1.00  0.00     0.021 A 
ATOM     13  C   UNL     1     126.765 -14.639 191.263  1.00  0.00     0.016 A 
ATOM     14  C   UNL     1     125.709 -14.960 190.406  1.00  0.00     0.051 A 
ATOM     15  C   UNL     1     124.521 -14.220 190.443  1.00  0.00     0.157 A 
ATOM     16  C   UNL     1     125.453 -12.831 192.201  1.00  0.00     0.062 A 
ATOM     17  C   UNL     1     124.394 -13.152 191.340  1.00  0.00     0.158 A 
BRANCH  15  18
ATOM     18  O   UNL     1     123.465 -14.537 189.591  1.00  0.00    -0.504 OA
ATOM     19  H   UNL     1     122.971 -13.822 189.069  1.00  0.00     0.293 HD
ENDBRANCH  15  18
BRANCH  17  20
ATOM     20  O   UNL     1     123.215 -12.411 191.366  1.00  0.00    -0.504 OA
ATOM     21  H   UNL     1     122.421 -12.654 190.784  1.00  0.00     0.293 HD
ENDBRANCH  17  20
ENDBRANCH   1  12
BRANCH   6  22
ATOM     22  O   UNL     1     132.006 -12.915 195.913  1.00  0.00    -0.507 OA
ATOM     23  H   UNL     1     132.036 -13.527 196.720  1.00  0.00     0.293 HD
ENDBRANCH   6  22
BRANCH   8  24
ATOM     24  O   UNL     1     129.626  -8.778 196.625  1.00  0.00    -0.508 OA
ATOM     25  H   UNL     1     129.908  -8.648 197.590  1.00  0.00     0.293 HD
ENDBRANCH   8  24
TORSDOF 5
ENDMDL
MODEL 5
REMARK VINA RESULT:    -7.283      2.110      6.883
REMARK INTER + INTRA:          -8.869
REMARK INTER:                  -8.570
REMARK INTRA:                  -0.300
REMARK UNBOUND:                -0.309
REMARK SMILES O=c1cc(-c2ccc(O)c(O)c2)oc2cc(O)cc(O)c12
REMARK SMILES IDX 4 1 3 2 2 3 1 4 21 5 19 6 18 7 16 8 15 9 14 10 13 11 5 12
REMARK SMILES IDX 6 13 7 14 8 15 12 16 10 17 9 18 11 20 20 22 17 24
REMARK H PARENT 9 19 11 21 20 23 17 25
REMARK Flexibility Score: inf
ROOT
ATOM      1  C   UNL     1     129.648 -11.948 193.653  1.00  0.00     0.138 A 
ATOM      2  C   UNL     1     129.799 -10.813 192.837  1.00  0.00     0.100 A 
ATOM      3  C   UNL     1     128.933 -10.621 191.760  1.00  0.00     0.197 A 
ATOM      4  O   UNL     1     129.077  -9.601 191.034  1.00  0.00    -0.289 OA
ATOM      5  C   UNL     1     127.922 -11.569 191.503  1.00  0.00     0.107 A 
ATOM      6  C   UNL     1     127.003 -11.450 190.434  1.00  0.00     0.134 A 
ATOM      7  C   UNL     1     126.028 -12.441 190.242  1.00  0.00     0.093 A 
ATOM      8  C   UNL     1     125.956 -13.544 191.096  1.00  0.00     0.123 A 
ATOM      9  C   UNL     1     126.861 -13.667 192.154  1.00  0.00     0.094 A 
ATOM     10  C   UNL     1     127.839 -12.690 192.363  1.00  0.00     0.146 A 
ATOM     11  O   UNL     1     128.688 -12.828 193.377  1.00  0.00    -0.456 OA
ENDROOT
BRANCH   1  12
ATOM     12  C   UNL     1     130.540 -12.204 194.811  1.00  0.00     0.021 A 
ATOM     13  C   UNL     1     130.982 -11.124 195.595  1.00  0.00     0.016 A 
ATOM     14  C   UNL     1     131.828 -11.336 196.687  1.00  0.00     0.051 A 
ATOM     15  C   UNL     1     132.254 -12.632 197.007  1.00  0.00     0.157 A 
ATOM     16  C   UNL     1     130.983 -13.503 195.133  1.00  0.00     0.062 A 
ATOM     17  C   UNL     1     131.833 -13.715 196.227  1.00  0.00     0.158 A 
BRANCH  15  18
ATOM     18  O   UNL     1     133.097 -12.848 198.095  1.00  0.00    -0.504 OA
ATOM     19  H   UNL     1     133.145 -12.193 198.867  1.00  0.00     0.293 HD
ENDBRANCH  15  18
BRANCH  17  20
ATOM     20  O   UNL     1     132.268 -15.001 196.543  1.00  0.00    -0.504 OA
ATOM     21  H   UNL     1     133.252 -15.244 196.545  1.00  0.00     0.293 HD
ENDBRANCH  17  20
ENDBRANCH   1  12
BRANCH   6  22
ATOM     22  O   UNL     1     127.050 -10.359 189.564  1.00  0.00    -0.507 OA
ATOM     23  H   UNL     1     126.531  -9.509 189.748  1.00  0.00     0.293 HD
ENDBRANCH   6  22
BRANCH   8  24
ATOM     24  O   UNL     1     124.978 -14.514 190.883  1.00  0.00    -0.508 OA
ATOM     25  H   UNL     1     124.693 -15.149 191.619  1.00  0.00     0.293 HD
ENDBRANCH   8  24
TORSDOF 5
ENDMDL
MODEL 6
REMARK VINA RESULT:    -7.240      5.678      9.157
REMARK INTER + INTRA:          -8.818
REMARK INTER:                  -8.501
REMARK INTRA:                  -0.317
REMARK UNBOUND:                -0.309
REMARK SMILES O=c1cc(-c2ccc(O)c(O)c2)oc2cc(O)cc(O)c12
REMARK SMILES IDX 4 1 3 2 2 3 1 4 21 5 19 6 18 7 16 8 15 9 14 10 13 11 5 12
REMARK SMILES IDX 6 13 7 14 8 15 12 16 10 17 9 18 11 20 20 22 17 24
REMARK H PARENT 9 19 11 21 20 23 17 25
REMARK Flexibility Score: inf
ROOT
ATOM      1  C   UNL     1     121.901 -14.707 186.906  1.00  0.00     0.138 A 
ATOM      2  C   UNL     1     123.166 -14.856 186.311  1.00  0.00     0.100 A 
ATOM      3  C   UNL     1     124.312 -14.556 187.049  1.00  0.00     0.197 A 
ATOM      4  O   UNL     1     125.441 -14.693 186.506  1.00  0.00    -0.289 OA
ATOM      5  C   UNL     1     124.185 -14.104 188.377  1.00  0.00     0.107 A 
ATOM      6  C   UNL     1     125.294 -13.779 189.194  1.00  0.00     0.134 A 
ATOM      7  C   UNL     1     125.083 -13.330 190.506  1.00  0.00     0.093 A 
ATOM      8  C   UNL     1     123.789 -13.199 191.015  1.00  0.00     0.123 A 
ATOM      9  C   UNL     1     122.689 -13.518 190.213  1.00  0.00     0.094 A 
ATOM     10  C   UNL     1     122.878 -13.969 188.903  1.00  0.00     0.146 A 
ATOM     11  O   UNL     1     121.817 -14.268 188.160  1.00  0.00    -0.456 OA
ENDROOT
BRANCH   1  12
ATOM     12  C   UNL     1     120.648 -15.010 186.170  1.00  0.00     0.021 A 
ATOM     13  C   UNL     1     120.705 -15.280 184.792  1.00  0.00     0.016 A 
ATOM     14  C   UNL     1     119.540 -15.562 184.074  1.00  0.00     0.051 A 
ATOM     15  C   UNL     1     118.297 -15.568 184.720  1.00  0.00     0.157 A 
ATOM     16  C   UNL     1     119.393 -15.004 186.810  1.00  0.00     0.062 A 
ATOM     17  C   UNL     1     118.224 -15.285 186.089  1.00  0.00     0.158 A 
BRANCH  15  18
ATOM     18  O   UNL     1     117.133 -15.849 184.008  1.00  0.00    -0.504 OA
ATOM     19  H   UNL     1     116.992 -16.744 183.554  1.00  0.00     0.293 HD
ENDBRANCH  15  18
BRANCH  17  20
ATOM     20  O   UNL     1     116.984 -15.281 186.726  1.00  0.00    -0.504 OA
ATOM     21  H   UNL     1     116.268 -14.604 186.490  1.00  0.00     0.293 HD
ENDBRANCH  17  20
ENDBRANCH   1  12
BRANCH   6  22
ATOM     22  O   UNL     1     126.599 -13.899 188.713  1.00  0.00    -0.507 OA
ATOM     23  H   UNL     1     127.170 -14.711 188.919  1.00  0.00     0.293 HD
ENDBRANCH   6  22
BRANCH   8  24
ATOM     24  O   UNL     1     123.607 -12.750 192.321  1.00  0.00    -0.508 OA
ATOM     25  H   UNL     1     123.900 -11.823 192.609  1.00  0.00     0.293 HD
ENDBRANCH   8  24
TORSDOF 5
ENDMDL
MODEL 7
REMARK VINA RESULT:    -7.191      3.280      9.121
REMARK INTER + INTRA:          -8.761
REMARK INTER:                  -8.483
REMARK INTRA:                  -0.278
REMARK UNBOUND:                -0.309
REMARK SMILES O=c1cc(-c2ccc(O)c(O)c2)oc2cc(O)cc(O)c12
REMARK SMILES IDX 4 1 3 2 2 3 1 4 21 5 19 6 18 7 16 8 15 9 14 10 13 11 5 12
REMARK SMILES IDX 6 13 7 14 8 15 12 16 10 17 9 18 11 20 20 22 17 24
REMARK H PARENT 9 19 11 21 20 23 17 25
REMARK Flexibility Score: inf
ROOT
ATOM      1  C   UNL     1     124.749 -13.903 189.516  1.00  0.00     0.138 A 
ATOM      2  C   UNL     1     125.544 -14.133 188.379  1.00  0.00     0.100 A 
ATOM      3  C   UNL     1     124.939 -14.542 187.190  1.00  0.00     0.197 A 
ATOM      4  O   UNL     1     125.661 -14.746 186.177  1.00  0.00    -0.289 OA
ATOM      5  C   UNL     1     123.543 -14.724 187.146  1.00  0.00     0.107 A 
ATOM      6  C   UNL     1     122.851 -15.137 185.983  1.00  0.00     0.134 A 
ATOM      7  C   UNL     1     121.459 -15.300 186.023  1.00  0.00     0.093 A 
ATOM      8  C   UNL     1     120.747 -15.061 187.201  1.00  0.00     0.123 A 
ATOM      9  C   UNL     1     121.425 -14.653 188.354  1.00  0.00     0.094 A 
ATOM     10  C   UNL     1     122.812 -14.483 188.334  1.00  0.00     0.146 A 
ATOM     11  O   UNL     1     123.434 -14.094 189.443  1.00  0.00    -0.456 OA
ENDROOT
BRANCH   1  12
ATOM     12  C   UNL     1     125.337 -13.468 190.807  1.00  0.00     0.021 A 
ATOM     13  C   UNL     1     124.725 -12.428 191.529  1.00  0.00     0.016 A 
ATOM     14  C   UNL     1     125.262 -11.994 192.744  1.00  0.00     0.051 A 
ATOM     15  C   UNL     1     126.425 -12.584 193.252  1.00  0.00     0.157 A 
ATOM     16  C   UNL     1     126.515 -14.048 191.319  1.00  0.00     0.062 A 
ATOM     17  C   UNL     1     127.054 -13.611 192.537  1.00  0.00     0.158 A 
BRANCH  15  18
ATOM     18  O   UNL     1     126.963 -12.155 194.464  1.00  0.00    -0.504 OA
ATOM     19  H   UNL     1     127.678 -12.688 194.946  1.00  0.00     0.293 HD
ENDBRANCH  15  18
BRANCH  17  20
ATOM     20  O   UNL     1     128.217 -14.189 193.041  1.00  0.00    -0.504 OA
ATOM     21  H   UNL     1     128.402 -14.231 194.037  1.00  0.00     0.293 HD
ENDBRANCH  17  20
ENDBRANCH   1  12
BRANCH   6  22
ATOM     22  O   UNL     1     123.535 -15.383 184.791  1.00  0.00    -0.507 OA
ATOM     23  H   UNL     1     124.378 -15.945 184.767  1.00  0.00     0.293 HD
ENDBRANCH   6  22
BRANCH   8  24
ATOM     24  O   UNL     1     119.364 -15.231 187.214  1.00  0.00    -0.508 OA
ATOM     25  H   UNL     1     118.786 -14.934 186.436  1.00  0.00     0.293 HD
ENDBRANCH   8  24
TORSDOF 5
ENDMDL
MODEL 8
REMARK VINA RESULT:    -7.173      1.978      7.509
REMARK INTER + INTRA:          -8.740
REMARK INTER:                  -8.450
REMARK INTRA:                  -0.290
REMARK UNBOUND:                -0.309
REMARK SMILES O=c1cc(-c2ccc(O)c(O)c2)oc2cc(O)cc(O)c12
REMARK SMILES IDX 4 1 3 2 2 3 1 4 21 5 19 6 18 7 16 8 15 9 14 10 13 11 5 12
REMARK SMILES IDX 6 13 7 14 8 15 12 16 10 17 9 18 11 20 20 22 17 24
REMARK H PARENT 9 19 11 21 20 23 17 25
REMARK Flexibility Score: inf
ROOT
ATOM      1  C   UNL     1     128.106 -12.072 192.883  1.00  0.00     0.138 A 
ATOM      2  C   UNL     1     127.746 -13.415 192.678  1.00  0.00     0.100 A 
ATOM      3  C   UNL     1     126.809 -13.732 191.693  1.00  0.00     0.197 A 
ATOM      4  O   UNL     1     126.492 -14.939 191.518  1.00  0.00    -0.289 OA
ATOM      5  C   UNL     1     126.236 -12.703 190.921  1.00  0.00     0.107 A 
ATOM      6  C   UNL     1     125.281 -12.937 189.904  1.00  0.00     0.134 A 
ATOM      7  C   UNL     1     124.753 -11.856 189.183  1.00  0.00     0.093 A 
ATOM      8  C   UNL     1     125.160 -10.549 189.460  1.00  0.00     0.123 A 
ATOM      9  C   UNL     1     126.103 -10.310 190.464  1.00  0.00     0.094 A 
ATOM     10  C   UNL     1     126.642 -11.374 191.193  1.00  0.00     0.146 A 
ATOM     11  O   UNL     1     127.539 -11.123 192.142  1.00  0.00    -0.456 OA
ENDROOT
BRANCH   1  12
ATOM     12  C   UNL     1     129.096 -11.675 193.916  1.00  0.00     0.021 A 
ATOM     13  C   UNL     1     130.310 -12.376 194.014  1.00  0.00     0.016 A 
ATOM     14  C   UNL     1     131.256 -12.028 194.982  1.00  0.00     0.051 A 
ATOM     15  C   UNL     1     130.999 -10.979 195.875  1.00  0.00     0.157 A 
ATOM     16  C   UNL     1     128.839 -10.630 194.826  1.00  0.00     0.062 A 
ATOM     17  C   UNL     1     129.787 -10.282 195.798  1.00  0.00     0.158 A 
BRANCH  15  18
ATOM     18  O   UNL     1     131.939 -10.628 196.840  1.00  0.00    -0.504 OA
ATOM     19  H   UNL     1     132.593  -9.867 196.693  1.00  0.00     0.293 HD
ENDBRANCH  15  18
BRANCH  17  20
ATOM     20  O   UNL     1     129.530  -9.247 196.694  1.00  0.00    -0.504 OA
ATOM     21  H   UNL     1     128.612  -8.825 196.770  1.00  0.00     0.293 HD
ENDBRANCH  17  20
ENDBRANCH   1  12
BRANCH   6  22
ATOM     22  O   UNL     1     124.855 -14.232 189.604  1.00  0.00    -0.507 OA
ATOM     23  H   UNL     1     125.043 -15.011 190.225  1.00  0.00     0.293 HD
ENDBRANCH   6  22
BRANCH   8  24
ATOM     24  O   UNL     1     124.619  -9.492 188.729  1.00  0.00    -0.508 OA
ATOM     25  H   UNL     1     123.700  -9.120 188.936  1.00  0.00     0.293 HD
ENDBRANCH   8  24
TORSDOF 5
ENDMDL
MODEL 9
REMARK VINA RESULT:    -7.147      2.132      3.651
REMARK INTER + INTRA:          -8.709
REMARK INTER:                  -8.432
REMARK INTRA:                  -0.277
REMARK UNBOUND:                -0.309
REMARK SMILES O=c1cc(-c2ccc(O)c(O)c2)oc2cc(O)cc(O)c12
REMARK SMILES IDX 4 1 3 2 2 3 1 4 21 5 19 6 18 7 16 8 15 9 14 10 13 11 5 12
REMARK SMILES IDX 6 13 7 14 8 15 12 16 10 17 9 18 11 20 20 22 17 24
REMARK H PARENT 9 19 11 21 20 23 17 25
REMARK Flexibility Score: inf
ROOT
ATOM      1  C   UNL     1     125.587 -13.304 190.857  1.00  0.00     0.138 A 
ATOM      2  C   UNL     1     125.385 -11.933 191.094  1.00  0.00     0.100 A 
ATOM      3  C   UNL     1     126.166 -11.279 192.047  1.00  0.00     0.197 A 
ATOM      4  O   UNL     1     125.977 -10.050 192.253  1.00  0.00    -0.289 OA
ATOM      5  C   UNL     1     127.142 -12.002 192.762  1.00  0.00     0.107 A 
ATOM      6  C   UNL     1     127.975 -11.416 193.744  1.00  0.00     0.134 A 
ATOM      7  C   UNL     1     128.919 -12.207 194.416  1.00  0.00     0.093 A 
ATOM      8  C   UNL     1     129.045 -13.567 194.126  1.00  0.00     0.123 A 
ATOM      9  C   UNL     1     128.224 -14.152 193.157  1.00  0.00     0.094 A 
ATOM     10  C   UNL     1     127.278 -13.381 192.475  1.00  0.00     0.146 A 
ATOM     11  O   UNL     1     126.510 -13.959 191.556  1.00  0.00    -0.456 OA
ENDROOT
BRANCH   1  12
ATOM     12  C   UNL     1     124.786 -14.052 189.856  1.00  0.00     0.021 A 
ATOM     13  C   UNL     1     125.434 -14.925 188.966  1.00  0.00     0.016 A 
ATOM     14  C   UNL     1     124.704 -15.636 188.009  1.00  0.00     0.051 A 
ATOM     15  C   UNL     1     123.316 -15.478 187.919  1.00  0.00     0.157 A 
ATOM     16  C   UNL     1     123.390 -13.888 189.751  1.00  0.00     0.062 A 
ATOM     17  C   UNL     1     122.659 -14.600 188.790  1.00  0.00     0.158 A 
BRANCH  15  18
ATOM     18  O   UNL     1     122.585 -16.185 186.967  1.00  0.00    -0.504 OA
ATOM     19  H   UNL     1     122.613 -17.197 186.922  1.00  0.00     0.293 HD
ENDBRANCH  15  18
BRANCH  17  20
ATOM     20  O   UNL     1     121.278 -14.436 188.690  1.00  0.00    -0.504 OA
ATOM     21  H   UNL     1     120.791 -14.551 187.809  1.00  0.00     0.293 HD
ENDBRANCH  17  20
ENDBRANCH   1  12
BRANCH   6  22
ATOM     22  O   UNL     1     127.872 -10.059 194.056  1.00  0.00    -0.507 OA
ATOM     23  H   UNL     1     127.645  -9.367 193.352  1.00  0.00     0.293 HD
ENDBRANCH   6  22
BRANCH   8  24
ATOM     24  O   UNL     1     129.991 -14.330 194.808  1.00  0.00    -0.508 OA
ATOM     25  H   UNL     1     130.952 -14.390 194.491  1.00  0.00     0.293 HD
ENDBRANCH   8  24
TORSDOF 5
ENDMDL
