MODEL 1
REMARK VINA RESULT:    -5.498      0.000      0.000
REMARK INTER + INTRA:          -5.980
REMARK INTER:                  -5.980
REMARK INTRA:                   0.000
REMARK UNBOUND:                 0.000
REMARK SMILES Cc1cc(O)c2c(c1)C(=O)c1cc(O)cc(O)c1C2=O
REMARK SMILES IDX 1 1 2 2 8 3 7 4 6 5 4 6 3 7 19 8 20 9 18 10 11 11 9 12 10 13
REMARK SMILES IDX 12 14 13 15 15 16 16 17 5 18 17 20 14 22
REMARK H PARENT 5 19 17 21 14 23
REMARK Flexibility Score: inf
ROOT
ATOM      1  C   UNL     1      48.125  43.053 101.155  1.00  0.00     0.044 C 
ATOM      2  C   UNL     1      47.269  44.284 101.227  1.00  0.00    -0.047 A 
ATOM      3  C   UNL     1      45.877  44.181 101.128  1.00  0.00     0.016 A 
ATOM      4  C   UNL     1      45.068  45.331 101.160  1.00  0.00     0.038 A 
ATOM      5  C   UNL     1      45.665  46.604 101.272  1.00  0.00     0.076 A 
ATOM      6  C   UNL     1      47.072  46.705 101.359  1.00  0.00     0.127 A 
ATOM      7  C   UNL     1      47.860  45.547 101.328  1.00  0.00     0.050 A 
ATOM      8  C   UNL     1      44.797  47.812 101.265  1.00  0.00     0.201 C 
ATOM      9  O   UNL     1      45.302  48.937 101.003  1.00  0.00    -0.288 OA
ATOM     10  C   UNL     1      43.326  47.678 101.452  1.00  0.00     0.076 A 
ATOM     11  C   UNL     1      42.739  46.403 101.273  1.00  0.00     0.041 A 
ATOM     12  C   UNL     1      43.596  45.211 101.071  1.00  0.00     0.194 C 
ATOM     13  O   UNL     1      43.068  44.088 100.841  1.00  0.00    -0.289 OA
ATOM     14  C   UNL     1      41.340  46.268 101.296  1.00  0.00     0.059 A 
ATOM     15  C   UNL     1      40.521  47.379 101.510  1.00  0.00     0.120 A 
ATOM     16  C   UNL     1      41.096  48.628 101.735  1.00  0.00     0.093 A 
ATOM     17  C   UNL     1      42.485  48.787 101.745  1.00  0.00     0.131 A 
ENDROOT
BRANCH   6  18
ATOM     18  O   UNL     1      47.690  47.950 101.484  1.00  0.00    -0.507 OA
ATOM     19  H   UNL     1      48.258  48.340 100.739  1.00  0.00     0.293 HD
ENDBRANCH   6  18
BRANCH  17  20
ATOM     20  O   UNL     1      42.979  50.050 102.084  1.00  0.00    -0.507 OA
ATOM     21  H   UNL     1      42.972  50.841 101.457  1.00  0.00     0.293 HD
ENDBRANCH  17  20
BRANCH  15  22
ATOM     22  O   UNL     1      39.135  47.250 101.517  1.00  0.00    -0.508 OA
ATOM     23  H   UNL     1      38.687  46.342 101.559  1.00  0.00     0.293 HD
ENDBRANCH  15  22
TORSDOF 3
ENDMDL
MODEL 2
REMARK VINA RESULT:    -5.043      1.394      1.741
REMARK INTER + INTRA:          -5.486
REMARK INTER:                  -5.486
REMARK INTRA:                   0.000
REMARK UNBOUND:                 0.000
REMARK SMILES Cc1cc(O)c2c(c1)C(=O)c1cc(O)cc(O)c1C2=O
REMARK SMILES IDX 1 1 2 2 8 3 7 4 6 5 4 6 3 7 19 8 20 9 18 10 11 11 9 12 10 13
REMARK SMILES IDX 12 14 13 15 15 16 16 17 5 18 17 20 14 22
REMARK H PARENT 5 19 17 21 14 23
REMARK Flexibility Score: inf
ROOT
ATOM      1  C   UNL     1      46.103  40.891 100.751  1.00  0.00     0.044 C 
ATOM      2  C   UNL     1      45.921  42.362 100.989  1.00  0.00    -0.047 A 
ATOM      3  C   UNL     1      44.642  42.927 100.964  1.00  0.00     0.016 A 
ATOM      4  C   UNL     1      44.463  44.310 101.151  1.00  0.00     0.038 A 
ATOM      5  C   UNL     1      45.586  45.141 101.347  1.00  0.00     0.076 A 
ATOM      6  C   UNL     1      46.878  44.567 101.359  1.00  0.00     0.127 A 
ATOM      7  C   UNL     1      47.035  43.188 101.173  1.00  0.00     0.050 A 
ATOM      8  C   UNL     1      45.383  46.605 101.505  1.00  0.00     0.201 C 
ATOM      9  O   UNL     1      46.353  47.389 101.320  1.00  0.00    -0.288 OA
ATOM     10  C   UNL     1      44.021  47.149 101.765  1.00  0.00     0.076 A 
ATOM     11  C   UNL     1      42.905  46.319 101.502  1.00  0.00     0.041 A 
ATOM     12  C   UNL     1      43.105  44.896 101.139  1.00  0.00     0.194 C 
ATOM     13  O   UNL     1      42.111  44.178 100.836  1.00  0.00    -0.289 OA
ATOM     14  C   UNL     1      41.605  46.846 101.595  1.00  0.00     0.059 A 
ATOM     15  C   UNL     1      41.402  48.178 101.961  1.00  0.00     0.120 A 
ATOM     16  C   UNL     1      42.495  48.985 102.268  1.00  0.00     0.093 A 
ATOM     17  C   UNL     1      43.798  48.481 102.210  1.00  0.00     0.131 A 
ENDROOT
BRANCH   6  18
ATOM     18  O   UNL     1      48.007  45.362 101.563  1.00  0.00    -0.507 OA
ATOM     19  H   UNL     1      48.237  45.737 102.477  1.00  0.00     0.293 HD
ENDBRANCH   6  18
BRANCH  17  20
ATOM     20  O   UNL     1      44.827  49.324 102.636  1.00  0.00    -0.507 OA
ATOM     21  H   UNL     1      44.975  50.256 102.275  1.00  0.00     0.293 HD
ENDBRANCH  17  20
BRANCH  15  22
ATOM     22  O   UNL     1      40.116  48.706 102.037  1.00  0.00    -0.508 OA
ATOM     23  H   UNL     1      39.823  49.477 101.449  1.00  0.00     0.293 HD
ENDBRANCH  15  22
TORSDOF 3
ENDMDL
MODEL 3
REMARK VINA RESULT:    -4.843     10.874     13.535
REMARK INTER + INTRA:          -5.268
REMARK INTER:                  -5.268
REMARK INTRA:                   0.000
REMARK UNBOUND:                 0.000
REMARK SMILES Cc1cc(O)c2c(c1)C(=O)c1cc(O)cc(O)c1C2=O
REMARK SMILES IDX 1 1 2 2 8 3 7 4 6 5 4 6 3 7 19 8 20 9 18 10 11 11 9 12 10 13
REMARK SMILES IDX 12 14 13 15 15 16 16 17 5 18 17 20 14 22
REMARK H PARENT 5 19 17 21 14 23
REMARK Flexibility Score: inf
ROOT
ATOM      1  C   UNL     1      47.641  36.963 104.125  1.00  0.00     0.044 C 
ATOM      2  C   UNL     1      47.386  35.950 103.047  1.00  0.00    -0.047 A 
ATOM      3  C   UNL     1      47.092  36.367 101.744  1.00  0.00     0.016 A 
ATOM      4  C   UNL     1      46.817  35.428 100.734  1.00  0.00     0.038 A 
ATOM      5  C   UNL     1      46.816  34.051 101.040  1.00  0.00     0.076 A 
ATOM      6  C   UNL     1      47.100  33.634 102.361  1.00  0.00     0.127 A 
ATOM      7  C   UNL     1      47.375  34.585 103.352  1.00  0.00     0.050 A 
ATOM      8  C   UNL     1      46.484  33.072  99.970  1.00  0.00     0.201 C 
ATOM      9  O   UNL     1      46.128  31.906 100.285  1.00  0.00    -0.288 OA
ATOM     10  C   UNL     1      46.462  33.502  98.544  1.00  0.00     0.076 A 
ATOM     11  C   UNL     1      46.399  34.887  98.260  1.00  0.00     0.041 A 
ATOM     12  C   UNL     1      46.523  35.877  99.355  1.00  0.00     0.194 C 
ATOM     13  O   UNL     1      46.396  37.109  99.108  1.00  0.00    -0.289 OA
ATOM     14  C   UNL     1      46.228  35.322  96.934  1.00  0.00     0.059 A 
ATOM     15  C   UNL     1      46.136  34.400  95.890  1.00  0.00     0.120 A 
ATOM     16  C   UNL     1      46.246  33.037  96.158  1.00  0.00     0.093 A 
ATOM     17  C   UNL     1      46.443  32.577  97.463  1.00  0.00     0.131 A 
ENDROOT
BRANCH   6  18
ATOM     18  O   UNL     1      47.119  32.278 102.690  1.00  0.00    -0.507 OA
ATOM     19  H   UNL     1      46.782  31.942 103.586  1.00  0.00     0.293 HD
ENDBRANCH   6  18
BRANCH  17  20
ATOM     20  O   UNL     1      46.649  31.205  97.631  1.00  0.00    -0.507 OA
ATOM     21  H   UNL     1      47.431  30.704  97.235  1.00  0.00     0.293 HD
ENDBRANCH  17  20
BRANCH  15  22
ATOM     22  O   UNL     1      45.950  34.829  94.578  1.00  0.00    -0.508 OA
ATOM     23  H   UNL     1      46.366  34.337  93.795  1.00  0.00     0.293 HD
ENDBRANCH  15  22
TORSDOF 3
ENDMDL
MODEL 4
REMARK VINA RESULT:    -4.215      1.753      3.640
REMARK INTER + INTRA:          -4.585
REMARK INTER:                  -4.585
REMARK INTRA:                   0.000
REMARK UNBOUND:                 0.000
REMARK SMILES Cc1cc(O)c2c(c1)C(=O)c1cc(O)cc(O)c1C2=O
REMARK SMILES IDX 1 1 2 2 8 3 7 4 6 5 4 6 3 7 19 8 20 9 18 10 11 11 9 12 10 13
REMARK SMILES IDX 12 14 13 15 15 16 16 17 5 18 17 20 14 22
REMARK H PARENT 5 19 17 21 14 23
REMARK Flexibility Score: inf
ROOT
ATOM      1  C   UNL     1      48.125  50.081 101.305  1.00  0.00     0.044 C 
ATOM      2  C   UNL     1      47.024  49.061 101.287  1.00  0.00    -0.047 A 
ATOM      3  C   UNL     1      45.698  49.451 101.504  1.00  0.00     0.016 A 
ATOM      4  C   UNL     1      44.663  48.499 101.524  1.00  0.00     0.038 A 
ATOM      5  C   UNL     1      44.965  47.133 101.345  1.00  0.00     0.076 A 
ATOM      6  C   UNL     1      46.308  46.741 101.140  1.00  0.00     0.127 A 
ATOM      7  C   UNL     1      47.324  47.705 101.120  1.00  0.00     0.050 A 
ATOM      8  C   UNL     1      43.864  46.135 101.408  1.00  0.00     0.201 C 
ATOM      9  O   UNL     1      44.138  44.922 101.612  1.00  0.00    -0.288 OA
ATOM     10  C   UNL     1      42.445  46.581 101.347  1.00  0.00     0.076 A 
ATOM     11  C   UNL     1      42.158  47.945 101.592  1.00  0.00     0.041 A 
ATOM     12  C   UNL     1      43.262  48.923 101.738  1.00  0.00     0.194 C 
ATOM     13  O   UNL     1      43.004  50.125 102.026  1.00  0.00    -0.289 OA
ATOM     14  C   UNL     1      40.822  48.373 101.689  1.00  0.00     0.059 A 
ATOM     15  C   UNL     1      39.772  47.466 101.528  1.00  0.00     0.120 A 
ATOM     16  C   UNL     1      40.049  46.132 101.239  1.00  0.00     0.093 A 
ATOM     17  C   UNL     1      41.367  45.684 101.111  1.00  0.00     0.131 A 
ENDROOT
BRANCH   6  18
ATOM     18  O   UNL     1      46.635  45.398 100.947  1.00  0.00    -0.507 OA
ATOM     19  H   UNL     1      46.485  44.703 101.670  1.00  0.00     0.293 HD
ENDBRANCH   6  18
BRANCH  17  20
ATOM     20  O   UNL     1      41.553  44.357 100.714  1.00  0.00    -0.507 OA
ATOM     21  H   UNL     1      40.906  43.612 100.927  1.00  0.00     0.293 HD
ENDBRANCH  17  20
BRANCH  15  22
ATOM     22  O   UNL     1      38.449  47.885 101.639  1.00  0.00    -0.508 OA
ATOM     23  H   UNL     1      37.677  47.267 101.418  1.00  0.00     0.293 HD
ENDBRANCH  15  22
TORSDOF 3
ENDMDL
MODEL 5
REMARK VINA RESULT:    -3.895     12.426     14.478
REMARK INTER + INTRA:          -4.236
REMARK INTER:                  -4.236
REMARK INTRA:                   0.000
REMARK UNBOUND:                 0.000
REMARK SMILES Cc1cc(O)c2c(c1)C(=O)c1cc(O)cc(O)c1C2=O
REMARK SMILES IDX 1 1 2 2 8 3 7 4 6 5 4 6 3 7 19 8 20 9 18 10 11 11 9 12 10 13
REMARK SMILES IDX 12 14 13 15 15 16 16 17 5 18 17 20 14 22
REMARK H PARENT 5 19 17 21 14 23
REMARK Flexibility Score: inf
ROOT
ATOM      1  C   UNL     1      47.265  36.635  94.852  1.00  0.00     0.044 C 
ATOM      2  C   UNL     1      46.954  35.525  95.813  1.00  0.00    -0.047 A 
ATOM      3  C   UNL     1      47.315  35.637  97.160  1.00  0.00     0.016 A 
ATOM      4  C   UNL     1      47.060  34.588  98.061  1.00  0.00     0.038 A 
ATOM      5  C   UNL     1      46.452  33.401  97.601  1.00  0.00     0.076 A 
ATOM      6  C   UNL     1      46.101  33.287  96.237  1.00  0.00     0.127 A 
ATOM      7  C   UNL     1      46.361  34.344  95.355  1.00  0.00     0.050 A 
ATOM      8  C   UNL     1      46.225  32.287  98.559  1.00  0.00     0.201 C 
ATOM      9  O   UNL     1      46.029  31.122  98.120  1.00  0.00    -0.288 OA
ATOM     10  C   UNL     1      46.343  32.524 100.025  1.00  0.00     0.076 A 
ATOM     11  C   UNL     1      47.012  33.690 100.465  1.00  0.00     0.041 A 
ATOM     12  C   UNL     1      47.431  34.722  99.488  1.00  0.00     0.194 C 
ATOM     13  O   UNL     1      48.090  35.726  99.876  1.00  0.00    -0.289 OA
ATOM     14  C   UNL     1      47.272  33.872 101.835  1.00  0.00     0.059 A 
ATOM     15  C   UNL     1      46.860  32.920 102.770  1.00  0.00     0.120 A 
ATOM     16  C   UNL     1      46.158  31.794 102.346  1.00  0.00     0.093 A 
ATOM     17  C   UNL     1      45.862  31.599 100.994  1.00  0.00     0.131 A 
ENDROOT
BRANCH   6  18
ATOM     18  O   UNL     1      45.486  32.130  95.755  1.00  0.00    -0.507 OA
ATOM     19  H   UNL     1      45.720  31.740  94.848  1.00  0.00     0.293 HD
ENDBRANCH   6  18
BRANCH  17  20
ATOM     20  O   UNL     1      45.063  30.500 100.667  1.00  0.00    -0.507 OA
ATOM     21  H   UNL     1      45.234  29.899  99.874  1.00  0.00     0.293 HD
ENDBRANCH  17  20
BRANCH  15  22
ATOM     22  O   UNL     1      47.130  33.091 104.125  1.00  0.00    -0.508 OA
ATOM     23  H   UNL     1      46.390  33.261 104.796  1.00  0.00     0.293 HD
ENDBRANCH  15  22
TORSDOF 3
ENDMDL
MODEL 6
REMARK VINA RESULT:    -3.715      9.262     12.968
REMARK INTER + INTRA:          -4.041
REMARK INTER:                  -4.041
REMARK INTRA:                   0.000
REMARK UNBOUND:                 0.000
REMARK SMILES Cc1cc(O)c2c(c1)C(=O)c1cc(O)cc(O)c1C2=O
REMARK SMILES IDX 1 1 2 2 8 3 7 4 6 5 4 6 3 7 19 8 20 9 18 10 11 11 9 12 10 13
REMARK SMILES IDX 12 14 13 15 15 16 16 17 5 18 17 20 14 22
REMARK H PARENT 5 19 17 21 14 23
REMARK Flexibility Score: inf
ROOT
ATOM      1  C   UNL     1      47.564  40.153 101.085  1.00  0.00     0.044 C 
ATOM      2  C   UNL     1      47.488  38.677 101.350  1.00  0.00    -0.047 A 
ATOM      3  C   UNL     1      46.998  37.810 100.367  1.00  0.00     0.016 A 
ATOM      4  C   UNL     1      46.890  36.430 100.617  1.00  0.00     0.038 A 
ATOM      5  C   UNL     1      47.259  35.915 101.877  1.00  0.00     0.076 A 
ATOM      6  C   UNL     1      47.740  36.797 102.871  1.00  0.00     0.127 A 
ATOM      7  C   UNL     1      47.843  38.167 102.603  1.00  0.00     0.050 A 
ATOM      8  C   UNL     1      47.101  34.459 102.138  1.00  0.00     0.201 C 
ATOM      9  O   UNL     1      47.075  34.042 103.326  1.00  0.00    -0.288 OA
ATOM     10  C   UNL     1      46.861  33.519 101.008  1.00  0.00     0.076 A 
ATOM     11  C   UNL     1      46.430  34.051  99.770  1.00  0.00     0.041 A 
ATOM     12  C   UNL     1      46.386  35.518  99.566  1.00  0.00     0.194 C 
ATOM     13  O   UNL     1      45.935  35.990  98.485  1.00  0.00    -0.289 OA
ATOM     14  C   UNL     1      46.053  33.184  98.729  1.00  0.00     0.059 A 
ATOM     15  C   UNL     1      46.114  31.800  98.900  1.00  0.00     0.120 A 
ATOM     16  C   UNL     1      46.583  31.271 100.101  1.00  0.00     0.093 A 
ATOM     17  C   UNL     1      46.990  32.108 101.143  1.00  0.00     0.131 A 
ENDROOT
BRANCH   6  18
ATOM     18  O   UNL     1      48.125  36.315 104.123  1.00  0.00    -0.507 OA
ATOM     19  H   UNL     1      49.035  35.894 104.276  1.00  0.00     0.293 HD
ENDBRANCH   6  18
BRANCH  17  20
ATOM     20  O   UNL     1      47.547  31.499 102.270  1.00  0.00    -0.507 OA
ATOM     21  H   UNL     1      48.538  31.352 102.396  1.00  0.00     0.293 HD
ENDBRANCH  17  20
BRANCH  15  22
ATOM     22  O   UNL     1      45.725  30.939  97.876  1.00  0.00    -0.508 OA
ATOM     23  H   UNL     1      45.059  31.225  97.168  1.00  0.00     0.293 HD
ENDBRANCH  15  22
TORSDOF 3
ENDMDL
MODEL 7
REMARK VINA RESULT:    -3.668     11.647     14.299
REMARK INTER + INTRA:          -3.990
REMARK INTER:                  -3.990
REMARK INTRA:                   0.000
REMARK UNBOUND:                 0.000
REMARK SMILES Cc1cc(O)c2c(c1)C(=O)c1cc(O)cc(O)c1C2=O
REMARK SMILES IDX 1 1 2 2 8 3 7 4 6 5 4 6 3 7 19 8 20 9 18 10 11 11 9 12 10 13
REMARK SMILES IDX 12 14 13 15 15 16 16 17 5 18 17 20 14 22
REMARK H PARENT 5 19 17 21 14 23
REMARK Flexibility Score: inf
ROOT
ATOM      1  C   UNL     1      45.859  34.341  94.411  1.00  0.00     0.044 C 
ATOM      2  C   UNL     1      46.039  34.406  95.900  1.00  0.00    -0.047 A 
ATOM      3  C   UNL     1      46.306  33.242  96.629  1.00  0.00     0.016 A 
ATOM      4  C   UNL     1      46.442  33.286  98.028  1.00  0.00     0.038 A 
ATOM      5  C   UNL     1      46.287  34.512  98.709  1.00  0.00     0.076 A 
ATOM      6  C   UNL     1      46.004  35.684  97.970  1.00  0.00     0.127 A 
ATOM      7  C   UNL     1      45.875  35.620  96.577  1.00  0.00     0.050 A 
ATOM      8  C   UNL     1      46.395  34.535 100.192  1.00  0.00     0.201 C 
ATOM      9  O   UNL     1      45.915  35.507 100.834  1.00  0.00    -0.288 OA
ATOM     10  C   UNL     1      46.960  33.364 100.919  1.00  0.00     0.076 A 
ATOM     11  C   UNL     1      47.048  32.128 100.237  1.00  0.00     0.041 A 
ATOM     12  C   UNL     1      46.740  32.053  98.789  1.00  0.00     0.194 C 
ATOM     13  O   UNL     1      46.752  30.936  98.200  1.00  0.00    -0.289 OA
ATOM     14  C   UNL     1      47.437  30.970 100.934  1.00  0.00     0.059 A 
ATOM     15  C   UNL     1      47.755  31.032 102.292  1.00  0.00     0.120 A 
ATOM     16  C   UNL     1      47.716  32.256 102.957  1.00  0.00     0.093 A 
ATOM     17  C   UNL     1      47.359  33.427 102.283  1.00  0.00     0.131 A 
ENDROOT
BRANCH   6  18
ATOM     18  O   UNL     1      45.858  36.913  98.614  1.00  0.00    -0.507 OA
ATOM     19  H   UNL     1      45.495  36.980  99.559  1.00  0.00     0.293 HD
ENDBRANCH   6  18
BRANCH  17  20
ATOM     20  O   UNL     1      47.449  34.626 102.996  1.00  0.00    -0.507 OA
ATOM     21  H   UNL     1      46.943  35.464 102.749  1.00  0.00     0.293 HD
ENDBRANCH  17  20
BRANCH  15  22
ATOM     22  O   UNL     1      48.125  29.884 102.988  1.00  0.00    -0.508 OA
ATOM     23  H   UNL     1      48.572  29.935 103.896  1.00  0.00     0.293 HD
ENDBRANCH  15  22
TORSDOF 3
ENDMDL
MODEL 8
REMARK VINA RESULT:    -3.596      1.731      5.610
REMARK INTER + INTRA:          -3.911
REMARK INTER:                  -3.911
REMARK INTRA:                   0.000
REMARK UNBOUND:                 0.000
REMARK SMILES Cc1cc(O)c2c(c1)C(=O)c1cc(O)cc(O)c1C2=O
REMARK SMILES IDX 1 1 2 2 8 3 7 4 6 5 4 6 3 7 19 8 20 9 18 10 11 11 9 12 10 13
REMARK SMILES IDX 12 14 13 15 15 16 16 17 5 18 17 20 14 22
REMARK H PARENT 5 19 17 21 14 23
REMARK Flexibility Score: inf
ROOT
ATOM      1  C   UNL     1      39.620  48.242 101.495  1.00  0.00     0.044 C 
ATOM      2  C   UNL     1      41.059  48.037 101.873  1.00  0.00    -0.047 A 
ATOM      3  C   UNL     1      41.738  46.884 101.463  1.00  0.00     0.016 A 
ATOM      4  C   UNL     1      43.074  46.666 101.841  1.00  0.00     0.038 A 
ATOM      5  C   UNL     1      43.734  47.607 102.659  1.00  0.00     0.076 A 
ATOM      6  C   UNL     1      43.040  48.763 103.083  1.00  0.00     0.127 A 
ATOM      7  C   UNL     1      41.710  48.964 102.693  1.00  0.00     0.050 A 
ATOM      8  C   UNL     1      45.135  47.341 103.082  1.00  0.00     0.201 C 
ATOM      9  O   UNL     1      45.610  47.956 104.075  1.00  0.00    -0.288 OA
ATOM     10  C   UNL     1      45.930  46.275 102.411  1.00  0.00     0.076 A 
ATOM     11  C   UNL     1      45.242  45.304 101.647  1.00  0.00     0.041 A 
ATOM     12  C   UNL     1      43.790  45.452 101.389  1.00  0.00     0.194 C 
ATOM     13  O   UNL     1      43.165  44.548 100.767  1.00  0.00    -0.289 OA
ATOM     14  C   UNL     1      45.940  44.202 101.122  1.00  0.00     0.059 A 
ATOM     15  C   UNL     1      47.313  44.065 101.336  1.00  0.00     0.120 A 
ATOM     16  C   UNL     1      48.004  45.043 102.047  1.00  0.00     0.093 A 
ATOM     17  C   UNL     1      47.340  46.163 102.557  1.00  0.00     0.131 A 
ENDROOT
BRANCH   6  18
ATOM     18  O   UNL     1      43.670  49.718 103.882  1.00  0.00    -0.507 OA
ATOM     19  H   UNL     1      43.903  49.532 104.852  1.00  0.00     0.293 HD
ENDBRANCH   6  18
BRANCH  17  20
ATOM     20  O   UNL     1      48.124  47.147 103.164  1.00  0.00    -0.507 OA
ATOM     21  H   UNL     1      47.743  47.946 103.651  1.00  0.00     0.293 HD
ENDBRANCH  17  20
BRANCH  15  22
ATOM     22  O   UNL     1      48.004  42.966 100.832  1.00  0.00    -0.508 OA
ATOM     23  H   UNL     1      48.473  43.000  99.934  1.00  0.00     0.293 HD
ENDBRANCH  15  22
TORSDOF 3
ENDMDL
MODEL 9
REMARK VINA RESULT:    -3.512     11.043     13.843
REMARK INTER + INTRA:          -3.820
REMARK INTER:                  -3.820
REMARK INTRA:                   0.000
REMARK UNBOUND:                 0.000
REMARK SMILES Cc1cc(O)c2c(c1)C(=O)c1cc(O)cc(O)c1C2=O
REMARK SMILES IDX 1 1 2 2 8 3 7 4 6 5 4 6 3 7 19 8 20 9 18 10 11 11 9 12 10 13
REMARK SMILES IDX 12 14 13 15 15 16 16 17 5 18 17 20 14 22
REMARK H PARENT 5 19 17 21 14 23
REMARK Flexibility Score: inf
ROOT
ATOM      1  C   UNL     1      46.248  33.037  95.400  1.00  0.00     0.044 C 
ATOM      2  C   UNL     1      46.396  32.958  96.892  1.00  0.00    -0.047 A 
ATOM      3  C   UNL     1      46.747  34.097  97.626  1.00  0.00     0.016 A 
ATOM      4  C   UNL     1      46.923  34.026  99.020  1.00  0.00     0.038 A 
ATOM      5  C   UNL     1      46.765  32.792  99.684  1.00  0.00     0.076 A 
ATOM      6  C   UNL     1      46.424  31.642  98.937  1.00  0.00     0.127 A 
ATOM      7  C   UNL     1      46.250  31.733  97.550  1.00  0.00     0.050 A 
ATOM      8  C   UNL     1      46.993  32.727 101.153  1.00  0.00     0.201 C 
ATOM      9  O   UNL     1      47.212  31.612 101.697  1.00  0.00    -0.288 OA
ATOM     10  C   UNL     1      47.077  33.980 101.953  1.00  0.00     0.076 A 
ATOM     11  C   UNL     1      47.299  35.200 101.271  1.00  0.00     0.041 A 
ATOM     12  C   UNL     1      47.279  35.239  99.790  1.00  0.00     0.194 C 
ATOM     13  O   UNL     1      47.547  36.314  99.184  1.00  0.00    -0.289 OA
ATOM     14  C   UNL     1      47.530  36.378 102.003  1.00  0.00     0.059 A 
ATOM     15  C   UNL     1      47.526  36.361 103.399  1.00  0.00     0.120 A 
ATOM     16  C   UNL     1      47.261  35.172 104.075  1.00  0.00     0.093 A 
ATOM     17  C   UNL     1      47.001  33.991 103.374  1.00  0.00     0.131 A 
ENDROOT
BRANCH   6  18
ATOM     18  O   UNL     1      46.248  30.410  99.569  1.00  0.00    -0.507 OA
ATOM     19  H   UNL     1      46.461  29.535  99.101  1.00  0.00     0.293 HD
ENDBRANCH   6  18
BRANCH  17  20
ATOM     20  O   UNL     1      46.638  32.870 104.125  1.00  0.00    -0.507 OA
ATOM     21  H   UNL     1      46.377  32.909 105.100  1.00  0.00     0.293 HD
ENDBRANCH  17  20
BRANCH  15  22
ATOM     22  O   UNL     1      47.772  37.523 104.125  1.00  0.00    -0.508 OA
ATOM     23  H   UNL     1      47.125  37.853 104.832  1.00  0.00     0.293 HD
ENDBRANCH  15  22
TORSDOF 3
ENDMDL
