MODEL 1
REMARK VINA RESULT:    -4.169      0.000      0.000
REMARK INTER + INTRA:          -9.592
REMARK INTER:                  -8.069
REMARK INTRA:                  -1.523
REMARK UNBOUND:                -1.523
REMARK SMILES CCCCCCCCCCCCCCCCCC(=O)[O-]
REMARK SMILES IDX 10 1 11 2 12 3 13 4 14 5 15 6 16 7 17 8 18 9 19 10 20 11
REMARK SMILES IDX 9 12 8 13 7 14 6 15 5 16 4 17 3 18 2 19 1 20
REMARK H PARENT
REMARK Flexibility Score: inf
ROOT
ATOM      1  C   UNL     1      -2.424  14.221 -17.417  1.00  0.00     0.000 C 
ENDROOT
BRANCH   1   2
ATOM      2  C   UNL     1      -1.207  14.335 -18.352  1.00  0.00     0.000 C 
BRANCH   2   3
ATOM      3  C   UNL     1      -0.493  15.702 -18.337  1.00  0.00     0.000 C 
BRANCH   3   4
ATOM      4  C   UNL     1       0.990  15.673 -18.758  1.00  0.00     0.000 C 
BRANCH   4   5
ATOM      5  C   UNL     1       1.655  17.055 -18.879  1.00  0.00     0.000 C 
BRANCH   5   6
ATOM      6  C   UNL     1       1.156  17.849 -20.099  1.00  0.00     0.000 C 
BRANCH   6   7
ATOM      7  C   UNL     1       0.701  19.270 -19.732  1.00  0.00     0.006 C 
BRANCH   7   8
ATOM      8  C   UNL     1       0.734  19.528 -18.221  1.00  0.00     0.053 C 
BRANCH   8   9
ATOM      9  C   UNL     1      -0.655  19.559 -17.667  1.00  0.00     0.041 C 
ATOM     10  O   UNL     1      -0.874  20.054 -16.529  1.00  0.00    -0.550 OA
ATOM     11  O   UNL     1      -1.718  19.094 -18.429  1.00  0.00    -0.550 OA
ENDBRANCH   8   9
ENDBRANCH   7   8
ENDBRANCH   6   7
ENDBRANCH   5   6
ENDBRANCH   4   5
ENDBRANCH   3   4
ENDBRANCH   2   3
ENDBRANCH   1   2
BRANCH   1  12
ATOM     12  C   UNL     1      -2.051  13.739 -16.005  1.00  0.00     0.000 C 
BRANCH  12  13
ATOM     13  C   UNL     1      -3.251  13.163 -15.231  1.00  0.00    -0.000 C 
BRANCH  13  14
ATOM     14  C   UNL     1      -3.027  11.770 -14.616  1.00  0.00    -0.000 C 
BRANCH  14  15
ATOM     15  C   UNL     1      -3.947  10.693 -15.221  1.00  0.00    -0.000 C 
BRANCH  15  16
ATOM     16  C   UNL     1      -4.180  10.900 -16.727  1.00  0.00    -0.000 C 
BRANCH  16  17
ATOM     17  C   UNL     1      -3.035  10.326 -17.581  1.00  0.00    -0.000 C 
BRANCH  17  18
ATOM     18  C   UNL     1      -3.308  10.429 -19.092  1.00  0.00    -0.000 C 
BRANCH  18  19
ATOM     19  C   UNL     1      -4.209  11.604 -19.509  1.00  0.00    -0.003 C 
ATOM     20  C   UNL     1      -5.430  11.164 -20.318  1.00  0.00     0.004 C 
ENDBRANCH  18  19
ENDBRANCH  17  18
ENDBRANCH  16  17
ENDBRANCH  15  16
ENDBRANCH  14  15
ENDBRANCH  13  14
ENDBRANCH  12  13
ENDBRANCH   1  12
TORSDOF 16
ENDMDL
MODEL 2
REMARK VINA RESULT:    -4.079      2.831      8.070
REMARK INTER + INTRA:          -9.418
REMARK INTER:                  -8.064
REMARK INTRA:                  -1.354
REMARK UNBOUND:                -1.523
REMARK SMILES CCCCCCCCCCCCCCCCCC(=O)[O-]
REMARK SMILES IDX 10 1 11 2 12 3 13 4 14 5 15 6 16 7 17 8 18 9 19 10 20 11
REMARK SMILES IDX 9 12 8 13 7 14 6 15 5 16 4 17 3 18 2 19 1 20
REMARK H PARENT
REMARK Flexibility Score: inf
ROOT
ATOM      1  C   UNL     1      -1.819  14.146 -16.603  1.00  0.00     0.000 C 
ENDROOT
BRANCH   1   2
ATOM      2  C   UNL     1      -3.131  13.420 -16.254  1.00  0.00     0.000 C 
BRANCH   2   3
ATOM      3  C   UNL     1      -3.087  12.567 -14.969  1.00  0.00     0.000 C 
BRANCH   3   4
ATOM      4  C   UNL     1      -3.535  11.102 -15.140  1.00  0.00     0.000 C 
BRANCH   4   5
ATOM      5  C   UNL     1      -4.013  10.734 -16.555  1.00  0.00     0.000 C 
BRANCH   5   6
ATOM      6  C   UNL     1      -2.871  10.235 -17.457  1.00  0.00     0.000 C 
BRANCH   6   7
ATOM      7  C   UNL     1      -2.838  10.951 -18.817  1.00  0.00     0.006 C 
BRANCH   7   8
ATOM      8  C   UNL     1      -3.792  10.320 -19.838  1.00  0.00     0.053 C 
BRANCH   8   9
ATOM      9  C   UNL     1      -4.962  11.219 -20.084  1.00  0.00     0.041 C 
ATOM     10  O   UNL     1      -5.031  12.340 -19.514  1.00  0.00    -0.550 OA
ATOM     11  O   UNL     1      -5.949  10.844 -20.986  1.00  0.00    -0.550 OA
ENDBRANCH   8   9
ENDBRANCH   7   8
ENDBRANCH   6   7
ENDBRANCH   5   6
ENDBRANCH   4   5
ENDBRANCH   3   4
ENDBRANCH   2   3
ENDBRANCH   1   2
BRANCH   1  12
ATOM     12  C   UNL     1      -1.703  14.484 -18.099  1.00  0.00     0.000 C 
BRANCH  12  13
ATOM     13  C   UNL     1      -0.778  15.684 -18.372  1.00  0.00    -0.000 C 
BRANCH  13  14
ATOM     14  C   UNL     1       0.675  15.324 -18.735  1.00  0.00    -0.000 C 
BRANCH  14  15
ATOM     15  C   UNL     1       1.600  16.554 -18.795  1.00  0.00    -0.000 C 
BRANCH  15  16
ATOM     16  C   UNL     1       1.784  17.079 -20.228  1.00  0.00    -0.000 C 
BRANCH  16  17
ATOM     17  C   UNL     1       1.153  18.469 -20.427  1.00  0.00    -0.000 C 
BRANCH  17  18
ATOM     18  C   UNL     1       0.773  19.149 -19.100  1.00  0.00    -0.000 C 
BRANCH  18  19
ATOM     19  C   UNL     1      -0.600  19.844 -19.098  1.00  0.00    -0.003 C 
ATOM     20  C   UNL     1      -1.502  19.386 -17.954  1.00  0.00     0.004 C 
ENDBRANCH  18  19
ENDBRANCH  17  18
ENDBRANCH  16  17
ENDBRANCH  15  16
ENDBRANCH  14  15
ENDBRANCH  13  14
ENDBRANCH  12  13
ENDBRANCH   1  12
TORSDOF 16
ENDMDL
MODEL 3
REMARK VINA RESULT:    -3.956      0.926      2.454
REMARK INTER + INTRA:          -9.180
REMARK INTER:                  -8.135
REMARK INTRA:                  -1.046
REMARK UNBOUND:                -1.523
REMARK SMILES CCCCCCCCCCCCCCCCCC(=O)[O-]
REMARK SMILES IDX 10 1 11 2 12 3 13 4 14 5 15 6 16 7 17 8 18 9 19 10 20 11
REMARK SMILES IDX 9 12 8 13 7 14 6 15 5 16 4 17 3 18 2 19 1 20
REMARK H PARENT
REMARK Flexibility Score: inf
ROOT
ATOM      1  C   UNL     1      -2.146  13.159 -15.311  1.00  0.00     0.000 C 
ENDROOT
BRANCH   1   2
ATOM      2  C   UNL     1      -2.182  14.229 -16.417  1.00  0.00     0.000 C 
BRANCH   2   3
ATOM      3  C   UNL     1      -2.213  13.682 -17.859  1.00  0.00     0.000 C 
BRANCH   3   4
ATOM      4  C   UNL     1      -1.458  14.533 -18.899  1.00  0.00     0.000 C 
BRANCH   4   5
ATOM      5  C   UNL     1      -0.588  15.656 -18.306  1.00  0.00     0.000 C 
BRANCH   5   6
ATOM      6  C   UNL     1       0.880  15.570 -18.756  1.00  0.00     0.000 C 
BRANCH   6   7
ATOM      7  C   UNL     1       1.576  16.941 -18.765  1.00  0.00     0.006 C 
BRANCH   7   8
ATOM      8  C   UNL     1       0.804  17.987 -19.579  1.00  0.00     0.053 C 
BRANCH   8   9
ATOM      9  C   UNL     1       0.088  18.933 -18.668  1.00  0.00     0.041 C 
ATOM     10  O   UNL     1      -1.168  19.017 -18.700  1.00  0.00    -0.550 OA
ATOM     11  O   UNL     1       0.804  19.680 -17.742  1.00  0.00    -0.550 OA
ENDBRANCH   8   9
ENDBRANCH   7   8
ENDBRANCH   6   7
ENDBRANCH   5   6
ENDBRANCH   4   5
ENDBRANCH   3   4
ENDBRANCH   2   3
ENDBRANCH   1   2
BRANCH   1  12
ATOM     12  C   UNL     1      -3.541  12.622 -14.952  1.00  0.00     0.000 C 
BRANCH  12  13
ATOM     13  C   UNL     1      -3.749  11.158 -15.381  1.00  0.00    -0.000 C 
BRANCH  13  14
ATOM     14  C   UNL     1      -4.048  10.947 -16.876  1.00  0.00    -0.000 C 
BRANCH  14  15
ATOM     15  C   UNL     1      -2.895  10.255 -17.626  1.00  0.00    -0.000 C 
BRANCH  15  16
ATOM     16  C   UNL     1      -3.148  10.170 -19.140  1.00  0.00    -0.000 C 
BRANCH  16  17
ATOM     17  C   UNL     1      -4.077  11.290 -19.643  1.00  0.00    -0.000 C 
BRANCH  17  18
ATOM     18  C   UNL     1      -5.151  10.782 -20.621  1.00  0.00    -0.000 C 
BRANCH  18  19
ATOM     19  C   UNL     1      -6.588  11.220 -20.290  1.00  0.00    -0.003 C 
ATOM     20  C   UNL     1      -7.649  10.374 -20.994  1.00  0.00     0.004 C 
ENDBRANCH  18  19
ENDBRANCH  17  18
ENDBRANCH  16  17
ENDBRANCH  15  16
ENDBRANCH  14  15
ENDBRANCH  13  14
ENDBRANCH  12  13
ENDBRANCH   1  12
TORSDOF 16
ENDMDL
MODEL 4
REMARK VINA RESULT:    -3.927      1.091      2.660
REMARK INTER + INTRA:          -9.124
REMARK INTER:                  -7.412
REMARK INTRA:                  -1.712
REMARK UNBOUND:                -1.523
REMARK SMILES CCCCCCCCCCCCCCCCCC(=O)[O-]
REMARK SMILES IDX 10 1 11 2 12 3 13 4 14 5 15 6 16 7 17 8 18 9 19 10 20 11
REMARK SMILES IDX 9 12 8 13 7 14 6 15 5 16 4 17 3 18 2 19 1 20
REMARK H PARENT
REMARK Flexibility Score: inf
ROOT
ATOM      1  C   UNL     1      -1.353  15.333 -18.714  1.00  0.00     0.000 C 
ENDROOT
BRANCH   1   2
ATOM      2  C   UNL     1       0.048  15.598 -18.135  1.00  0.00     0.000 C 
BRANCH   2   3
ATOM      3  C   UNL     1       1.217  15.377 -19.117  1.00  0.00     0.000 C 
BRANCH   3   4
ATOM      4  C   UNL     1       2.053  16.632 -19.435  1.00  0.00     0.000 C 
BRANCH   4   5
ATOM      5  C   UNL     1       1.476  17.528 -20.545  1.00  0.00     0.000 C 
BRANCH   5   6
ATOM      6  C   UNL     1       1.876  19.004 -20.384  1.00  0.00     0.000 C 
BRANCH   6   7
ATOM      7  C   UNL     1       0.681  19.903 -20.024  1.00  0.00     0.006 C 
BRANCH   7   8
ATOM      8  C   UNL     1      -0.488  19.115 -19.420  1.00  0.00     0.053 C 
BRANCH   8   9
ATOM      9  C   UNL     1      -0.774  19.590 -18.031  1.00  0.00     0.041 C 
ATOM     10  O   UNL     1       0.172  19.873 -17.249  1.00  0.00    -0.550 OA
ATOM     11  O   UNL     1      -2.086  19.775 -17.617  1.00  0.00    -0.550 OA
ENDBRANCH   8   9
ENDBRANCH   7   8
ENDBRANCH   6   7
ENDBRANCH   5   6
ENDBRANCH   4   5
ENDBRANCH   3   4
ENDBRANCH   2   3
ENDBRANCH   1   2
BRANCH   1  12
ATOM     12  C   UNL     1      -2.006  14.063 -18.142  1.00  0.00     0.000 C 
BRANCH  12  13
ATOM     13  C   UNL     1      -2.167  12.947 -19.191  1.00  0.00    -0.000 C 
BRANCH  13  14
ATOM     14  C   UNL     1      -3.572  12.323 -19.275  1.00  0.00    -0.000 C 
BRANCH  14  15
ATOM     15  C   UNL     1      -3.547  10.784 -19.225  1.00  0.00    -0.000 C 
BRANCH  15  16
ATOM     16  C   UNL     1      -2.889  10.249 -17.943  1.00  0.00    -0.000 C 
BRANCH  16  17
ATOM     17  C   UNL     1      -3.772  10.460 -16.700  1.00  0.00    -0.000 C 
BRANCH  17  18
ATOM     18  C   UNL     1      -3.145  11.427 -15.679  1.00  0.00    -0.000 C 
BRANCH  18  19
ATOM     19  C   UNL     1      -4.026  12.630 -15.301  1.00  0.00    -0.003 C 
ATOM     20  C   UNL     1      -5.316  12.708 -16.117  1.00  0.00     0.004 C 
ENDBRANCH  18  19
ENDBRANCH  17  18
ENDBRANCH  16  17
ENDBRANCH  15  16
ENDBRANCH  14  15
ENDBRANCH  13  14
ENDBRANCH  12  13
ENDBRANCH   1  12
TORSDOF 16
ENDMDL
MODEL 5
REMARK VINA RESULT:    -3.890      2.315      8.008
REMARK INTER + INTRA:          -9.052
REMARK INTER:                  -7.413
REMARK INTRA:                  -1.639
REMARK UNBOUND:                -1.523
REMARK SMILES CCCCCCCCCCCCCCCCCC(=O)[O-]
REMARK SMILES IDX 10 1 11 2 12 3 13 4 14 5 15 6 16 7 17 8 18 9 19 10 20 11
REMARK SMILES IDX 9 12 8 13 7 14 6 15 5 16 4 17 3 18 2 19 1 20
REMARK H PARENT
REMARK Flexibility Score: inf
ROOT
ATOM      1  C   UNL     1      -1.091  14.750 -17.875  1.00  0.00     0.000 C 
ENDROOT
BRANCH   1   2
ATOM      2  C   UNL     1      -2.056  14.215 -18.949  1.00  0.00     0.000 C 
BRANCH   2   3
ATOM      3  C   UNL     1      -2.167  12.678 -19.024  1.00  0.00     0.000 C 
BRANCH   3   4
ATOM      4  C   UNL     1      -3.562  12.138 -19.395  1.00  0.00     0.000 C 
BRANCH   4   5
ATOM      5  C   UNL     1      -3.840  10.697 -18.935  1.00  0.00     0.000 C 
BRANCH   5   6
ATOM      6  C   UNL     1      -3.149  10.355 -17.604  1.00  0.00     0.000 C 
BRANCH   6   7
ATOM      7  C   UNL     1      -4.047  10.623 -16.386  1.00  0.00     0.006 C 
BRANCH   7   8
ATOM      8  C   UNL     1      -3.287  11.281 -15.228  1.00  0.00     0.053 C 
BRANCH   8   9
ATOM      9  C   UNL     1      -3.174  12.756 -15.449  1.00  0.00     0.041 C 
ATOM     10  O   UNL     1      -4.079  13.377 -16.068  1.00  0.00    -0.550 OA
ATOM     11  O   UNL     1      -2.097  13.457 -14.923  1.00  0.00    -0.550 OA
ENDBRANCH   8   9
ENDBRANCH   7   8
ENDBRANCH   6   7
ENDBRANCH   5   6
ENDBRANCH   4   5
ENDBRANCH   3   4
ENDBRANCH   2   3
ENDBRANCH   1   2
BRANCH   1  12
ATOM     12  C   UNL     1      -0.126  15.817 -18.418  1.00  0.00     0.000 C 
BRANCH  12  13
ATOM     13  C   UNL     1       1.092  15.212 -19.141  1.00  0.00    -0.000 C 
BRANCH  13  14
ATOM     14  C   UNL     1       2.028  16.232 -19.817  1.00  0.00    -0.000 C 
BRANCH  14  15
ATOM     15  C   UNL     1       1.804  17.672 -19.319  1.00  0.00    -0.000 C 
BRANCH  15  16
ATOM     16  C   UNL     1       1.193  18.577 -20.401  1.00  0.00    -0.000 C 
BRANCH  16  17
ATOM     17  C   UNL     1       0.646  19.895 -19.821  1.00  0.00    -0.000 C 
BRANCH  17  18
ATOM     18  C   UNL     1       0.885  20.025 -18.306  1.00  0.00    -0.000 C 
BRANCH  18  19
ATOM     19  C   UNL     1      -0.393  20.115 -17.455  1.00  0.00    -0.003 C 
ATOM     20  C   UNL     1      -1.570  19.349 -18.059  1.00  0.00     0.004 C 
ENDBRANCH  18  19
ENDBRANCH  17  18
ENDBRANCH  16  17
ENDBRANCH  15  16
ENDBRANCH  14  15
ENDBRANCH  13  14
ENDBRANCH  12  13
ENDBRANCH   1  12
TORSDOF 16
ENDMDL
MODEL 6
REMARK VINA RESULT:    -3.808      3.160      8.389
REMARK INTER + INTRA:          -8.894
REMARK INTER:                  -7.759
REMARK INTRA:                  -1.135
REMARK UNBOUND:                -1.523
REMARK SMILES CCCCCCCCCCCCCCCCCC(=O)[O-]
REMARK SMILES IDX 10 1 11 2 12 3 13 4 14 5 15 6 16 7 17 8 18 9 19 10 20 11
REMARK SMILES IDX 9 12 8 13 7 14 6 15 5 16 4 17 3 18 2 19 1 20
REMARK H PARENT
REMARK Flexibility Score: inf
ROOT
ATOM      1  C   UNL     1      -0.393  15.796 -18.579  1.00  0.00     0.000 C 
ENDROOT
BRANCH   1   2
ATOM      2  C   UNL     1      -1.157  14.671 -17.859  1.00  0.00     0.000 C 
BRANCH   2   3
ATOM      3  C   UNL     1      -2.375  14.111 -18.622  1.00  0.00     0.000 C 
BRANCH   3   4
ATOM      4  C   UNL     1      -2.221  12.665 -19.133  1.00  0.00     0.000 C 
BRANCH   4   5
ATOM      5  C   UNL     1      -3.542  11.896 -19.305  1.00  0.00     0.000 C 
BRANCH   5   6
ATOM      6  C   UNL     1      -3.468  10.458 -18.764  1.00  0.00     0.000 C 
BRANCH   6   7
ATOM      7  C   UNL     1      -2.942  10.397 -17.321  1.00  0.00     0.006 C 
BRANCH   7   8
ATOM      8  C   UNL     1      -3.646  11.397 -16.395  1.00  0.00     0.053 C 
BRANCH   8   9
ATOM      9  C   UNL     1      -3.513  10.969 -14.968  1.00  0.00     0.041 C 
ATOM     10  O   UNL     1      -2.685  11.540 -14.208  1.00  0.00    -0.550 OA
ATOM     11  O   UNL     1      -4.342   9.979 -14.459  1.00  0.00    -0.550 OA
ENDBRANCH   8   9
ENDBRANCH   7   8
ENDBRANCH   6   7
ENDBRANCH   5   6
ENDBRANCH   4   5
ENDBRANCH   3   4
ENDBRANCH   2   3
ENDBRANCH   1   2
BRANCH   1  12
ATOM     12  C   UNL     1       1.129  15.707 -18.382  1.00  0.00     0.000 C 
BRANCH  12  13
ATOM     13  C   UNL     1       1.896  15.530 -19.706  1.00  0.00    -0.000 C 
BRANCH  13  14
ATOM     14  C   UNL     1       1.776  16.703 -20.696  1.00  0.00    -0.000 C 
BRANCH  14  15
ATOM     15  C   UNL     1       1.894  18.078 -20.013  1.00  0.00    -0.000 C 
BRANCH  15  16
ATOM     16  C   UNL     1       0.907  19.105 -20.591  1.00  0.00    -0.000 C 
BRANCH  16  17
ATOM     17  C   UNL     1       0.317  20.024 -19.506  1.00  0.00    -0.000 C 
BRANCH  17  18
ATOM     18  C   UNL     1      -0.894  19.400 -18.788  1.00  0.00    -0.000 C 
BRANCH  18  19
ATOM     19  C   UNL     1      -1.007  19.742 -17.292  1.00  0.00    -0.003 C 
ATOM     20  C   UNL     1       0.333  20.124 -16.663  1.00  0.00     0.004 C 
ENDBRANCH  18  19
ENDBRANCH  17  18
ENDBRANCH  16  17
ENDBRANCH  15  16
ENDBRANCH  14  15
ENDBRANCH  13  14
ENDBRANCH  12  13
ENDBRANCH   1  12
TORSDOF 16
ENDMDL
MODEL 7
REMARK VINA RESULT:    -3.705      3.446      7.891
REMARK INTER + INTRA:          -8.694
REMARK INTER:                  -7.183
REMARK INTRA:                  -1.511
REMARK UNBOUND:                -1.523
REMARK SMILES CCCCCCCCCCCCCCCCCC(=O)[O-]
REMARK SMILES IDX 10 1 11 2 12 3 13 4 14 5 15 6 16 7 17 8 18 9 19 10 20 11
REMARK SMILES IDX 9 12 8 13 7 14 6 15 5 16 4 17 3 18 2 19 1 20
REMARK H PARENT
REMARK Flexibility Score: inf
ROOT
ATOM      1  C   UNL     1      -2.235  12.883 -15.268  1.00  0.00     0.000 C 
ENDROOT
BRANCH   1   2
ATOM      2  C   UNL     1      -3.592  12.897 -14.543  1.00  0.00     0.000 C 
BRANCH   2   3
ATOM      3  C   UNL     1      -4.392  11.580 -14.619  1.00  0.00     0.000 C 
BRANCH   3   4
ATOM      4  C   UNL     1      -3.798  10.505 -15.551  1.00  0.00     0.000 C 
BRANCH   4   5
ATOM      5  C   UNL     1      -4.206  10.635 -17.028  1.00  0.00     0.000 C 
BRANCH   5   6
ATOM      6  C   UNL     1      -3.046  10.337 -17.994  1.00  0.00     0.000 C 
BRANCH   6   7
ATOM      7  C   UNL     1      -3.389  10.680 -19.452  1.00  0.00     0.006 C 
BRANCH   7   8
ATOM      8  C   UNL     1      -4.705  11.458 -19.580  1.00  0.00     0.053 C 
BRANCH   8   9
ATOM      9  C   UNL     1      -5.506  10.942 -20.733  1.00  0.00     0.041 C 
ATOM     10  O   UNL     1      -4.928  10.539 -21.778  1.00  0.00    -0.550 OA
ATOM     11  O   UNL     1      -6.887  10.850 -20.633  1.00  0.00    -0.550 OA
ENDBRANCH   8   9
ENDBRANCH   7   8
ENDBRANCH   6   7
ENDBRANCH   5   6
ENDBRANCH   4   5
ENDBRANCH   3   4
ENDBRANCH   2   3
ENDBRANCH   1   2
BRANCH   1  12
ATOM     12  C   UNL     1      -2.053  14.076 -16.221  1.00  0.00     0.000 C 
BRANCH  12  13
ATOM     13  C   UNL     1      -2.405  13.737 -17.681  1.00  0.00    -0.000 C 
BRANCH  13  14
ATOM     14  C   UNL     1      -1.561  14.463 -18.746  1.00  0.00    -0.000 C 
BRANCH  14  15
ATOM     15  C   UNL     1      -0.595  15.498 -18.141  1.00  0.00    -0.000 C 
BRANCH  15  16
ATOM     16  C   UNL     1       0.780  15.488 -18.828  1.00  0.00    -0.000 C 
BRANCH  16  17
ATOM     17  C   UNL     1       1.445  16.876 -18.827  1.00  0.00    -0.000 C 
BRANCH  17  18
ATOM     18  C   UNL     1       0.584  17.952 -19.512  1.00  0.00    -0.000 C 
BRANCH  18  19
ATOM     19  C   UNL     1       0.185  19.133 -18.611  1.00  0.00    -0.003 C 
ATOM     20  C   UNL     1      -1.305  19.150 -18.270  1.00  0.00     0.004 C 
ENDBRANCH  18  19
ENDBRANCH  17  18
ENDBRANCH  16  17
ENDBRANCH  15  16
ENDBRANCH  14  15
ENDBRANCH  13  14
ENDBRANCH  12  13
ENDBRANCH   1  12
TORSDOF 16
ENDMDL
MODEL 8
REMARK VINA RESULT:    -3.569      3.835      8.703
REMARK INTER + INTRA:          -8.430
REMARK INTER:                  -7.567
REMARK INTRA:                  -0.864
REMARK UNBOUND:                -1.523
REMARK SMILES CCCCCCCCCCCCCCCCCC(=O)[O-]
REMARK SMILES IDX 10 1 11 2 12 3 13 4 14 5 15 6 16 7 17 8 18 9 19 10 20 11
REMARK SMILES IDX 9 12 8 13 7 14 6 15 5 16 4 17 3 18 2 19 1 20
REMARK H PARENT
REMARK Flexibility Score: inf
ROOT
ATOM      1  C   UNL     1      -1.711  13.933 -18.921  1.00  0.00     0.000 C 
ENDROOT
BRANCH   1   2
ATOM      2  C   UNL     1      -2.769  13.024 -18.270  1.00  0.00     0.000 C 
BRANCH   2   3
ATOM      3  C   UNL     1      -3.327  11.910 -19.180  1.00  0.00     0.000 C 
BRANCH   3   4
ATOM      4  C   UNL     1      -3.270  10.489 -18.587  1.00  0.00     0.000 C 
BRANCH   4   5
ATOM      5  C   UNL     1      -3.211  10.432 -17.051  1.00  0.00     0.000 C 
BRANCH   5   6
ATOM      6  C   UNL     1      -4.405  11.138 -16.385  1.00  0.00     0.000 C 
BRANCH   6   7
ATOM      7  C   UNL     1      -4.118  11.534 -14.927  1.00  0.00     0.006 C 
BRANCH   7   8
ATOM      8  C   UNL     1      -3.174  10.551 -14.225  1.00  0.00     0.053 C 
BRANCH   8   9
ATOM      9  C   UNL     1      -3.956   9.471 -13.546  1.00  0.00     0.041 C 
ATOM     10  O   UNL     1      -5.210   9.558 -13.454  1.00  0.00    -0.550 OA
ATOM     11  O   UNL     1      -3.308   8.341 -13.067  1.00  0.00    -0.550 OA
ENDBRANCH   8   9
ENDBRANCH   7   8
ENDBRANCH   6   7
ENDBRANCH   5   6
ENDBRANCH   4   5
ENDBRANCH   3   4
ENDBRANCH   2   3
ENDBRANCH   1   2
BRANCH   1  12
ATOM     12  C   UNL     1      -1.080  14.922 -17.927  1.00  0.00     0.000 C 
BRANCH  12  13
ATOM     13  C   UNL     1      -0.221  15.998 -18.616  1.00  0.00    -0.000 C 
BRANCH  13  14
ATOM     14  C   UNL     1       1.264  15.634 -18.804  1.00  0.00    -0.000 C 
BRANCH  14  15
ATOM     15  C   UNL     1       1.911  16.352 -20.002  1.00  0.00    -0.000 C 
BRANCH  15  16
ATOM     16  C   UNL     1       1.295  17.737 -20.257  1.00  0.00    -0.000 C 
BRANCH  16  17
ATOM     17  C   UNL     1       1.980  18.843 -19.433  1.00  0.00    -0.000 C 
BRANCH  17  18
ATOM     18  C   UNL     1       1.012  19.966 -19.018  1.00  0.00    -0.000 C 
BRANCH  18  19
ATOM     19  C   UNL     1      -0.473  19.676 -19.298  1.00  0.00    -0.003 C 
ATOM     20  C   UNL     1      -1.302  19.515 -18.024  1.00  0.00     0.004 C 
ENDBRANCH  18  19
ENDBRANCH  17  18
ENDBRANCH  16  17
ENDBRANCH  15  16
ENDBRANCH  14  15
ENDBRANCH  13  14
ENDBRANCH  12  13
ENDBRANCH   1  12
TORSDOF 16
ENDMDL
MODEL 9
REMARK VINA RESULT:    -3.528      1.124      3.112
REMARK INTER + INTRA:          -8.352
REMARK INTER:                  -6.997
REMARK INTRA:                  -1.355
REMARK UNBOUND:                -1.523
REMARK SMILES CCCCCCCCCCCCCCCCCC(=O)[O-]
REMARK SMILES IDX 10 1 11 2 12 3 13 4 14 5 15 6 16 7 17 8 18 9 19 10 20 11
REMARK SMILES IDX 9 12 8 13 7 14 6 15 5 16 4 17 3 18 2 19 1 20
REMARK H PARENT
REMARK Flexibility Score: inf
ROOT
ATOM      1  C   UNL     1      -2.230  13.848 -19.119  1.00  0.00     0.000 C 
ENDROOT
BRANCH   1   2
ATOM      2  C   UNL     1      -1.360  14.499 -18.030  1.00  0.00     0.000 C 
BRANCH   2   3
ATOM      3  C   UNL     1      -0.591  15.762 -18.472  1.00  0.00     0.000 C 
BRANCH   3   4
ATOM      4  C   UNL     1       0.942  15.609 -18.531  1.00  0.00     0.000 C 
BRANCH   4   5
ATOM      5  C   UNL     1       1.650  16.576 -19.496  1.00  0.00     0.000 C 
BRANCH   5   6
ATOM      6  C   UNL     1       0.713  17.672 -20.032  1.00  0.00     0.000 C 
BRANCH   6   7
ATOM      7  C   UNL     1       1.118  19.078 -19.560  1.00  0.00     0.006 C 
BRANCH   7   8
ATOM      8  C   UNL     1      -0.086  20.013 -19.395  1.00  0.00     0.053 C 
BRANCH   8   9
ATOM      9  C   UNL     1      -0.724  19.811 -18.057  1.00  0.00     0.041 C 
ATOM     10  O   UNL     1      -1.913  19.403 -17.976  1.00  0.00    -0.550 OA
ATOM     11  O   UNL     1       0.012  20.017 -16.898  1.00  0.00    -0.550 OA
ENDBRANCH   8   9
ENDBRANCH   7   8
ENDBRANCH   6   7
ENDBRANCH   5   6
ENDBRANCH   4   5
ENDBRANCH   3   4
ENDBRANCH   2   3
ENDBRANCH   1   2
BRANCH   1  12
ATOM     12  C   UNL     1      -2.386  12.329 -18.930  1.00  0.00     0.000 C 
BRANCH  12  13
ATOM     13  C   UNL     1      -3.731  11.795 -19.456  1.00  0.00    -0.000 C 
BRANCH  13  14
ATOM     14  C   UNL     1      -4.844  11.664 -18.399  1.00  0.00    -0.000 C 
BRANCH  14  15
ATOM     15  C   UNL     1      -4.296  11.505 -16.969  1.00  0.00    -0.000 C 
BRANCH  15  16
ATOM     16  C   UNL     1      -4.713  12.665 -16.050  1.00  0.00    -0.000 C 
BRANCH  16  17
ATOM     17  C   UNL     1      -3.994  12.620 -14.689  1.00  0.00    -0.000 C 
BRANCH  17  18
ATOM     18  C   UNL     1      -2.926  11.514 -14.613  1.00  0.00    -0.000 C 
BRANCH  18  19
ATOM     19  C   UNL     1      -3.155  10.468 -13.508  1.00  0.00    -0.003 C 
ATOM     20  C   UNL     1      -4.396   9.609 -13.745  1.00  0.00     0.004 C 
ENDBRANCH  18  19
ENDBRANCH  17  18
ENDBRANCH  16  17
ENDBRANCH  15  16
ENDBRANCH  14  15
ENDBRANCH  13  14
ENDBRANCH  12  13
ENDBRANCH   1  12
TORSDOF 16
ENDMDL
