MODEL 1
REMARK VINA RESULT:    -2.916      0.000      0.000
REMARK INTER + INTRA:          -3.459
REMARK INTER:                  -3.428
REMARK INTRA:                  -0.031
REMARK UNBOUND:                -0.031
REMARK SMILES CCCCC(=O)[O-]
REMARK SMILES IDX 4 1 5 2 6 3 7 4 3 5 2 6 1 7
REMARK H PARENT
REMARK Flexibility Score: inf
ROOT
ATOM      1  C   UNL     1     155.686 156.138 165.912  1.00  0.00     0.053 C 
ENDROOT
BRANCH   1   2
ATOM      2  C   UNL     1     155.910 155.222 167.073  1.00  0.00     0.041 C 
ATOM      3  O   UNL     1     156.978 154.561 167.161  1.00  0.00    -0.550 OA
ATOM      4  O   UNL     1     154.920 155.061 168.034  1.00  0.00    -0.550 OA
ENDBRANCH   1   2
BRANCH   1   5
ATOM      5  C   UNL     1     154.211 156.554 165.835  1.00  0.00     0.006 C 
BRANCH   5   6
ATOM      6  C   UNL     1     154.035 158.038 165.479  1.00  0.00    -0.003 C 
ATOM      7  C   UNL     1     153.635 158.253 164.020  1.00  0.00     0.004 C 
ENDBRANCH   5   6
ENDBRANCH   1   5
TORSDOF 3
ENDMDL
MODEL 2
REMARK VINA RESULT:    -2.859      2.276      3.794
REMARK INTER + INTRA:          -3.391
REMARK INTER:                  -3.284
REMARK INTRA:                  -0.108
REMARK UNBOUND:                -0.031
REMARK SMILES CCCCC(=O)[O-]
REMARK SMILES IDX 4 1 5 2 6 3 7 4 3 5 2 6 1 7
REMARK H PARENT
REMARK Flexibility Score: inf
ROOT
ATOM      1  C   UNL     1     155.067 156.061 165.283  1.00  0.00     0.053 C 
ENDROOT
BRANCH   1   2
ATOM      2  C   UNL     1     154.077 157.069 165.776  1.00  0.00     0.041 C 
ATOM      3  O   UNL     1     154.240 158.292 165.525  1.00  0.00    -0.550 OA
ATOM      4  O   UNL     1     153.001 156.663 166.554  1.00  0.00    -0.550 OA
ENDBRANCH   1   2
BRANCH   1   5
ATOM      5  C   UNL     1     156.125 155.780 166.357  1.00  0.00     0.006 C 
BRANCH   5   6
ATOM      6  C   UNL     1     155.969 154.390 166.989  1.00  0.00    -0.003 C 
ATOM      7  C   UNL     1     155.143 154.414 168.276  1.00  0.00     0.004 C 
ENDBRANCH   5   6
ENDBRANCH   1   5
TORSDOF 3
ENDMDL
MODEL 3
REMARK VINA RESULT:    -2.832      2.984      4.218
REMARK INTER + INTRA:          -3.360
REMARK INTER:                  -3.311
REMARK INTRA:                  -0.049
REMARK UNBOUND:                -0.031
REMARK SMILES CCCCC(=O)[O-]
REMARK SMILES IDX 4 1 5 2 6 3 7 4 3 5 2 6 1 7
REMARK H PARENT
REMARK Flexibility Score: inf
ROOT
ATOM      1  C   UNL     1     154.151 157.625 165.252  1.00  0.00     0.053 C 
ENDROOT
BRANCH   1   2
ATOM      2  C   UNL     1     153.825 157.293 163.830  1.00  0.00     0.041 C 
ATOM      3  O   UNL     1     153.813 158.198 162.955  1.00  0.00    -0.550 OA
ATOM      4  O   UNL     1     153.487 155.992 163.480  1.00  0.00    -0.550 OA
ENDBRANCH   1   2
BRANCH   1   5
ATOM      5  C   UNL     1     154.492 156.351 166.035  1.00  0.00     0.006 C 
BRANCH   5   6
ATOM      6  C   UNL     1     155.992 156.022 165.999  1.00  0.00    -0.003 C 
ATOM      7  C   UNL     1     156.395 154.981 167.044  1.00  0.00     0.004 C 
ENDBRANCH   5   6
ENDBRANCH   1   5
TORSDOF 3
ENDMDL
MODEL 4
REMARK VINA RESULT:    -2.805      1.792      2.536
REMARK INTER + INTRA:          -3.328
REMARK INTER:                  -3.214
REMARK INTRA:                  -0.114
REMARK UNBOUND:                -0.031
REMARK SMILES CCCCC(=O)[O-]
REMARK SMILES IDX 4 1 5 2 6 3 7 4 3 5 2 6 1 7
REMARK H PARENT
REMARK Flexibility Score: inf
ROOT
ATOM      1  C   UNL     1     155.796 156.015 165.989  1.00  0.00     0.053 C 
ENDROOT
BRANCH   1   2
ATOM      2  C   UNL     1     154.998 155.381 167.085  1.00  0.00     0.041 C 
ATOM      3  O   UNL     1     153.798 155.715 167.268  1.00  0.00    -0.550 OA
ATOM      4  O   UNL     1     155.594 154.458 167.934  1.00  0.00    -0.550 OA
ENDBRANCH   1   2
BRANCH   1   5
ATOM      5  C   UNL     1     156.321 154.946 165.022  1.00  0.00     0.006 C 
BRANCH   5   6
ATOM      6  C   UNL     1     155.257 154.495 164.010  1.00  0.00    -0.003 C 
ATOM      7  C   UNL     1     154.537 155.667 163.345  1.00  0.00     0.004 C 
ENDBRANCH   5   6
ENDBRANCH   1   5
TORSDOF 3
ENDMDL
MODEL 5
REMARK VINA RESULT:    -2.803      2.711      3.895
REMARK INTER + INTRA:          -3.326
REMARK INTER:                  -3.224
REMARK INTRA:                  -0.102
REMARK UNBOUND:                -0.031
REMARK SMILES CCCCC(=O)[O-]
REMARK SMILES IDX 4 1 5 2 6 3 7 4 3 5 2 6 1 7
REMARK H PARENT
REMARK Flexibility Score: inf
ROOT
ATOM      1  C   UNL     1     155.321 155.275 164.554  1.00  0.00     0.053 C 
ENDROOT
BRANCH   1   2
ATOM      2  C   UNL     1     153.871 155.098 164.230  1.00  0.00     0.041 C 
ATOM      3  O   UNL     1     153.349 155.750 163.287  1.00  0.00    -0.550 OA
ATOM      4  O   UNL     1     153.085 154.250 164.998  1.00  0.00    -0.550 OA
ENDBRANCH   1   2
BRANCH   1   5
ATOM      5  C   UNL     1     155.485 156.058 165.863  1.00  0.00     0.006 C 
BRANCH   5   6
ATOM      6  C   UNL     1     156.250 155.264 166.932  1.00  0.00    -0.003 C 
ATOM      7  C   UNL     1     155.324 154.492 167.871  1.00  0.00     0.004 C 
ENDBRANCH   5   6
ENDBRANCH   1   5
TORSDOF 3
ENDMDL
MODEL 6
REMARK VINA RESULT:    -2.775      2.246      2.539
REMARK INTER + INTRA:          -3.293
REMARK INTER:                  -3.183
REMARK INTRA:                  -0.110
REMARK UNBOUND:                -0.031
REMARK SMILES CCCCC(=O)[O-]
REMARK SMILES IDX 4 1 5 2 6 3 7 4 3 5 2 6 1 7
REMARK H PARENT
REMARK Flexibility Score: inf
ROOT
ATOM      1  C   UNL     1     156.042 154.953 167.194  1.00  0.00     0.053 C 
ENDROOT
BRANCH   1   2
ATOM      2  C   UNL     1     154.798 155.003 168.026  1.00  0.00     0.041 C 
ATOM      3  O   UNL     1     154.766 154.437 169.150  1.00  0.00    -0.550 OA
ATOM      4  O   UNL     1     153.660 155.632 167.538  1.00  0.00    -0.550 OA
ENDBRANCH   1   2
BRANCH   1   5
ATOM      5  C   UNL     1     155.919 155.897 165.991  1.00  0.00     0.006 C 
BRANCH   5   6
ATOM      6  C   UNL     1     155.908 155.145 164.652  1.00  0.00    -0.003 C 
ATOM      7  C   UNL     1     154.497 154.784 164.188  1.00  0.00     0.004 C 
ENDBRANCH   5   6
ENDBRANCH   1   5
TORSDOF 3
ENDMDL
MODEL 7
REMARK VINA RESULT:    -2.754      2.169      2.468
REMARK INTER + INTRA:          -3.269
REMARK INTER:                  -3.153
REMARK INTRA:                  -0.115
REMARK UNBOUND:                -0.031
REMARK SMILES CCCCC(=O)[O-]
REMARK SMILES IDX 4 1 5 2 6 3 7 4 3 5 2 6 1 7
REMARK H PARENT
REMARK Flexibility Score: inf
ROOT
ATOM      1  C   UNL     1     154.828 155.165 164.334  1.00  0.00     0.053 C 
ENDROOT
BRANCH   1   2
ATOM      2  C   UNL     1     155.135 156.094 165.466  1.00  0.00     0.041 C 
ATOM      3  O   UNL     1     156.269 156.071 166.014  1.00  0.00    -0.550 OA
ATOM      4  O   UNL     1     154.154 156.950 165.949  1.00  0.00    -0.550 OA
ENDBRANCH   1   2
BRANCH   1   5
ATOM      5  C   UNL     1     153.762 155.775 163.415  1.00  0.00     0.006 C 
BRANCH   5   6
ATOM      6  C   UNL     1     154.371 156.611 162.279  1.00  0.00    -0.003 C 
ATOM      7  C   UNL     1     154.021 158.095 162.384  1.00  0.00     0.004 C 
ENDBRANCH   5   6
ENDBRANCH   1   5
TORSDOF 3
ENDMDL
MODEL 8
REMARK VINA RESULT:    -2.706      2.008      3.362
REMARK INTER + INTRA:          -3.212
REMARK INTER:                  -3.127
REMARK INTRA:                  -0.085
REMARK UNBOUND:                -0.031
REMARK SMILES CCCCC(=O)[O-]
REMARK SMILES IDX 4 1 5 2 6 3 7 4 3 5 2 6 1 7
REMARK H PARENT
REMARK Flexibility Score: inf
ROOT
ATOM      1  C   UNL     1     155.152 156.462 165.626  1.00  0.00     0.053 C 
ENDROOT
BRANCH   1   2
ATOM      2  C   UNL     1     153.850 156.500 166.362  1.00  0.00     0.041 C 
ATOM      3  O   UNL     1     153.616 155.669 167.278  1.00  0.00    -0.550 OA
ATOM      4  O   UNL     1     152.875 157.423 166.004  1.00  0.00    -0.550 OA
ENDBRANCH   1   2
BRANCH   1   5
ATOM      5  C   UNL     1     156.157 155.567 166.363  1.00  0.00     0.006 C 
BRANCH   5   6
ATOM      6  C   UNL     1     156.626 154.381 165.508  1.00  0.00    -0.003 C 
ATOM      7  C   UNL     1     155.972 154.352 164.126  1.00  0.00     0.004 C 
ENDBRANCH   5   6
ENDBRANCH   1   5
TORSDOF 3
ENDMDL
MODEL 9
REMARK VINA RESULT:    -2.698      2.052      2.812
REMARK INTER + INTRA:          -3.202
REMARK INTER:                  -3.106
REMARK INTRA:                  -0.097
REMARK UNBOUND:                -0.031
REMARK SMILES CCCCC(=O)[O-]
REMARK SMILES IDX 4 1 5 2 6 3 7 4 3 5 2 6 1 7
REMARK H PARENT
REMARK Flexibility Score: inf
ROOT
ATOM      1  C   UNL     1     155.147 154.659 167.955  1.00  0.00     0.053 C 
ENDROOT
BRANCH   1   2
ATOM      2  C   UNL     1     154.445 153.345 167.818  1.00  0.00     0.041 C 
ATOM      3  O   UNL     1     153.892 153.033 166.731  1.00  0.00    -0.550 OA
ATOM      4  O   UNL     1     154.361 152.485 168.905  1.00  0.00    -0.550 OA
ENDBRANCH   1   2
BRANCH   1   5
ATOM      5  C   UNL     1     156.168 154.841 166.824  1.00  0.00     0.006 C 
BRANCH   5   6
ATOM      6  C   UNL     1     155.930 156.125 166.016  1.00  0.00    -0.003 C 
ATOM      7  C   UNL     1     154.458 156.536 165.978  1.00  0.00     0.004 C 
ENDBRANCH   5   6
ENDBRANCH   1   5
TORSDOF 3
ENDMDL
