MODEL 1
REMARK VINA RESULT:    -1.689      0.000      0.000
REMARK INTER + INTRA:          -2.517
REMARK INTER:                  -2.183
REMARK INTRA:                  -0.335
REMARK UNBOUND:                -0.335
REMARK SMILES CCO[C@@H]1O[C@H](CO)[C@H](O)[C@H](O)[C@H]1O
REMARK SMILES IDX 4 1 13 2 11 3 9 4 6 5 5 6 3 7 2 8 1 9 14 10 12 12 7 14 8 15
REMARK SMILES IDX 10 17
REMARK H PARENT 14 11 12 13 8 16 10 18
REMARK Flexibility Score: inf
ROOT
ATOM      1  C   UNL     1       9.668  -8.910 -13.904  1.00  0.00     0.281 C 
ATOM      2  C   UNL     1      10.093 -10.377 -14.180  1.00  0.00     0.202 C 
ATOM      3  C   UNL     1      11.220 -10.778 -13.226  1.00  0.00     0.179 C 
ATOM      4  C   UNL     1      12.434  -9.860 -13.456  1.00  0.00     0.177 C 
ATOM      5  C   UNL     1      11.996  -8.374 -13.650  1.00  0.00     0.178 C 
ATOM      6  O   UNL     1      10.657  -8.123 -13.245  1.00  0.00    -0.341 OA
ENDROOT
BRANCH   1   7
ATOM      7  O   UNL     1       9.283  -8.293 -15.124  1.00  0.00    -0.350 OA
BRANCH   7   8
ATOM      8  C   UNL     1       8.815  -6.970 -14.934  1.00  0.00     0.160 C 
ATOM      9  C   UNL     1       7.302  -6.876 -15.118  1.00  0.00     0.035 C 
ENDBRANCH   7   8
ENDBRANCH   1   7
BRANCH   2  10
ATOM     10  O   UNL     1       8.999 -11.240 -14.007  1.00  0.00    -0.385 OA
ATOM     11  H   UNL     1       8.879 -11.354 -13.028  1.00  0.00     0.211 HD
ENDBRANCH   2  10
BRANCH   3  12
ATOM     12  O   UNL     1      11.585 -12.120 -13.430  1.00  0.00    -0.387 OA
ATOM     13  H   UNL     1      11.531 -12.574 -12.549  1.00  0.00     0.211 HD
ENDBRANCH   3  12
BRANCH   5  14
ATOM     14  C   UNL     1      12.324  -7.738 -15.022  1.00  0.00     0.191 C 
BRANCH  14  15
ATOM     15  O   UNL     1      13.674  -7.380 -15.121  1.00  0.00    -0.394 OA
ATOM     16  H   UNL     1      13.706  -6.591 -15.723  1.00  0.00     0.210 HD
ENDBRANCH  14  15
ENDBRANCH   5  14
BRANCH   4  17
ATOM     17  O   UNL     1      13.191 -10.307 -14.558  1.00  0.00    -0.387 OA
ATOM     18  H   UNL     1      12.991  -9.701 -15.318  1.00  0.00     0.211 HD
ENDBRANCH   4  17
TORSDOF 7
ENDMDL
MODEL 2
REMARK VINA RESULT:    -0.570      1.563      4.059
REMARK INTER + INTRA:          -1.072
REMARK INTER:                  -1.065
REMARK INTRA:                  -0.007
REMARK UNBOUND:                -0.335
REMARK SMILES CCO[C@@H]1O[C@H](CO)[C@H](O)[C@H](O)[C@H]1O
REMARK SMILES IDX 4 1 13 2 11 3 9 4 6 5 5 6 3 7 2 8 1 9 14 10 12 12 7 14 8 15
REMARK SMILES IDX 10 17
REMARK H PARENT 14 11 12 13 8 16 10 18
REMARK Flexibility Score: inf
ROOT
ATOM      1  C   UNL     1      11.665 -10.275 -14.258  1.00  0.00     0.281 C 
ATOM      2  C   UNL     1      10.160  -9.981 -14.018  1.00  0.00     0.202 C 
ATOM      3  C   UNL     1       9.626  -9.070 -15.125  1.00  0.00     0.179 C 
ATOM      4  C   UNL     1      10.398  -7.738 -15.105  1.00  0.00     0.177 C 
ATOM      5  C   UNL     1      11.926  -7.969 -14.880  1.00  0.00     0.178 C 
ATOM      6  O   UNL     1      12.329  -9.318 -15.079  1.00  0.00    -0.341 OA
ENDROOT
BRANCH   1   7
ATOM      7  O   UNL     1      12.327 -10.392 -13.008  1.00  0.00    -0.350 OA
BRANCH   7   8
ATOM      8  C   UNL     1      12.195 -11.687 -12.448  1.00  0.00     0.160 C 
ATOM      9  C   UNL     1      13.485 -12.492 -12.581  1.00  0.00     0.035 C 
ENDBRANCH   7   8
ENDBRANCH   1   7
BRANCH   2  10
ATOM     10  O   UNL     1       9.429 -11.180 -14.002  1.00  0.00    -0.385 OA
ATOM     11  H   UNL     1      10.061 -11.902 -14.256  1.00  0.00     0.211 HD
ENDBRANCH   2  10
BRANCH   3  12
ATOM     12  O   UNL     1       8.252  -8.833 -14.950  1.00  0.00    -0.387 OA
ATOM     13  H   UNL     1       8.038  -7.991 -15.431  1.00  0.00     0.211 HD
ENDBRANCH   3  12
BRANCH   5  14
ATOM     14  C   UNL     1      12.526  -7.361 -13.590  1.00  0.00     0.191 C 
BRANCH  14  15
ATOM     15  O   UNL     1      11.651  -7.476 -12.503  1.00  0.00    -0.394 OA
ATOM     16  H   UNL     1      11.014  -6.719 -12.582  1.00  0.00     0.210 HD
ENDBRANCH  14  15
ENDBRANCH   5  14
BRANCH   4  17
ATOM     17  O   UNL     1       9.872  -6.876 -14.124  1.00  0.00    -0.387 OA
ATOM     18  H   UNL     1      10.473  -6.087 -14.070  1.00  0.00     0.211 HD
ENDBRANCH   4  17
TORSDOF 7
ENDMDL
MODEL 3
REMARK VINA RESULT:     0.271      1.597      3.707
REMARK INTER + INTRA:           0.016
REMARK INTER:                   0.174
REMARK INTRA:                  -0.159
REMARK UNBOUND:                -0.335
REMARK SMILES CCO[C@@H]1O[C@H](CO)[C@H](O)[C@H](O)[C@H]1O
REMARK SMILES IDX 4 1 13 2 11 3 9 4 6 5 5 6 3 7 2 8 1 9 14 10 12 12 7 14 8 15
REMARK SMILES IDX 10 17
REMARK H PARENT 14 11 12 13 8 16 10 18
REMARK Flexibility Score: inf
ROOT
ATOM      1  C   UNL     1      12.453  -9.139 -14.246  1.00  0.00     0.281 C 
ATOM      2  C   UNL     1      12.112 -10.277 -13.247  1.00  0.00     0.202 C 
ATOM      3  C   UNL     1      10.941 -11.103 -13.782  1.00  0.00     0.179 C 
ATOM      4  C   UNL     1       9.706 -10.197 -13.938  1.00  0.00     0.177 C 
ATOM      5  C   UNL     1      10.091  -8.809 -14.542  1.00  0.00     0.178 C 
ATOM      6  O   UNL     1      11.387  -8.787 -15.125  1.00  0.00    -0.341 OA
ENDROOT
BRANCH   1   7
ATOM      7  O   UNL     1      12.892  -7.996 -13.526  1.00  0.00    -0.350 OA
BRANCH   7   8
ATOM      8  C   UNL     1      13.096  -6.875 -14.368  1.00  0.00     0.160 C 
ATOM      9  C   UNL     1      14.425  -6.965 -15.113  1.00  0.00     0.035 C 
ENDBRANCH   7   8
ENDBRANCH   1   7
BRANCH   2  10
ATOM     10  O   UNL     1      13.228 -11.107 -13.059  1.00  0.00    -0.385 OA
ATOM     11  H   UNL     1      14.000 -10.646 -13.480  1.00  0.00     0.211 HD
ENDBRANCH   2  10
BRANCH   3  12
ATOM     12  O   UNL     1      10.650 -12.168 -12.913  1.00  0.00    -0.387 OA
ATOM     13  H   UNL     1      10.233 -12.885 -13.458  1.00  0.00     0.211 HD
ENDBRANCH   3  12
BRANCH   5  14
ATOM     14  C   UNL     1       9.830  -7.577 -13.642  1.00  0.00     0.191 C 
BRANCH  14  15
ATOM     15  O   UNL     1       8.532  -7.079 -13.804  1.00  0.00    -0.394 OA
ATOM     16  H   UNL     1       7.945  -7.655 -13.249  1.00  0.00     0.210 HD
ENDBRANCH  14  15
ENDBRANCH   5  14
BRANCH   4  17
ATOM     17  O   UNL     1       9.048 -10.041 -12.703  1.00  0.00    -0.387 OA
ATOM     18  H   UNL     1       8.480  -9.229 -12.771  1.00  0.00     0.211 HD
ENDBRANCH   4  17
TORSDOF 7
ENDMDL
MODEL 4
REMARK VINA RESULT:     0.292      1.277      3.305
REMARK INTER + INTRA:           0.042
REMARK INTER:                   0.243
REMARK INTRA:                  -0.201
REMARK UNBOUND:                -0.335
REMARK SMILES CCO[C@@H]1O[C@H](CO)[C@H](O)[C@H](O)[C@H]1O
REMARK SMILES IDX 4 1 13 2 11 3 9 4 6 5 5 6 3 7 2 8 1 9 14 10 12 12 7 14 8 15
REMARK SMILES IDX 10 17
REMARK H PARENT 14 11 12 13 8 16 10 18
REMARK Flexibility Score: inf
ROOT
ATOM      1  C   UNL     1      10.216  -8.388 -14.589  1.00  0.00     0.281 C 
ATOM      2  C   UNL     1      11.689  -8.181 -14.144  1.00  0.00     0.202 C 
ATOM      3  C   UNL     1      12.592  -9.189 -14.857  1.00  0.00     0.179 C 
ATOM      4  C   UNL     1      12.159 -10.617 -14.481  1.00  0.00     0.177 C 
ATOM      5  C   UNL     1      10.603 -10.756 -14.468  1.00  0.00     0.178 C 
ATOM      6  O   UNL     1       9.935  -9.682 -15.117  1.00  0.00    -0.341 OA
ENDROOT
BRANCH   1   7
ATOM      7  O   UNL     1       9.351  -8.104 -13.498  1.00  0.00    -0.350 OA
BRANCH   7   8
ATOM      8  C   UNL     1       8.665  -6.875 -13.661  1.00  0.00     0.160 C 
ATOM      9  C   UNL     1       7.800  -6.875 -14.919  1.00  0.00     0.035 C 
ENDBRANCH   7   8
ENDBRANCH   1   7
BRANCH   2  10
ATOM     10  O   UNL     1      12.107  -6.875 -14.447  1.00  0.00    -0.385 OA
ATOM     11  H   UNL     1      11.583  -6.585 -15.239  1.00  0.00     0.211 HD
ENDBRANCH   2  10
BRANCH   3  12
ATOM     12  O   UNL     1      13.936  -8.984 -14.503  1.00  0.00    -0.387 OA
ATOM     13  H   UNL     1      13.941  -8.396 -13.703  1.00  0.00     0.211 HD
ENDBRANCH   3  12
BRANCH   5  14
ATOM     14  C   UNL     1       9.960 -11.111 -13.106  1.00  0.00     0.191 C 
BRANCH  14  15
ATOM     15  O   UNL     1       8.978 -12.101 -13.235  1.00  0.00    -0.394 OA
ATOM     16  H   UNL     1       8.196 -11.781 -12.716  1.00  0.00     0.210 HD
ENDBRANCH  14  15
ENDBRANCH   5  14
BRANCH   4  17
ATOM     17  O   UNL     1      12.705 -10.989 -13.237  1.00  0.00    -0.387 OA
ATOM     18  H   UNL     1      12.560 -10.231 -12.613  1.00  0.00     0.211 HD
ENDBRANCH   4  17
TORSDOF 7
ENDMDL
MODEL 5
REMARK VINA RESULT:     0.332      1.365      3.761
REMARK INTER + INTRA:           0.094
REMARK INTER:                   0.211
REMARK INTRA:                  -0.117
REMARK UNBOUND:                -0.335
REMARK SMILES CCO[C@@H]1O[C@H](CO)[C@H](O)[C@H](O)[C@H]1O
REMARK SMILES IDX 4 1 13 2 11 3 9 4 6 5 5 6 3 7 2 8 1 9 14 10 12 12 7 14 8 15
REMARK SMILES IDX 10 17
REMARK H PARENT 14 11 12 13 8 16 10 18
REMARK Flexibility Score: inf
ROOT
ATOM      1  C   UNL     1      10.764 -10.135 -13.372  1.00  0.00     0.281 C 
ATOM      2  C   UNL     1      12.129  -9.776 -14.017  1.00  0.00     0.202 C 
ATOM      3  C   UNL     1      12.629  -8.440 -13.464  1.00  0.00     0.179 C 
ATOM      4  C   UNL     1      11.615  -7.334 -13.807  1.00  0.00     0.177 C 
ATOM      5  C   UNL     1      10.147  -7.824 -13.601  1.00  0.00     0.178 C 
ATOM      6  O   UNL     1      10.052  -9.021 -12.839  1.00  0.00    -0.341 OA
ENDROOT
BRANCH   1   7
ATOM      7  O   UNL     1       9.961 -10.822 -14.321  1.00  0.00    -0.350 OA
BRANCH   7   8
ATOM      8  C   UNL     1       9.577 -12.109 -13.870  1.00  0.00     0.160 C 
ATOM      9  C   UNL     1       9.555 -12.187 -12.345  1.00  0.00     0.035 C 
ENDBRANCH   7   8
ENDBRANCH   1   7
BRANCH   2  10
ATOM     10  O   UNL     1      13.072 -10.781 -13.748  1.00  0.00    -0.385 OA
ATOM     11  H   UNL     1      13.949 -10.327 -13.644  1.00  0.00     0.211 HD
ENDBRANCH   2  10
BRANCH   3  12
ATOM     12  O   UNL     1      13.888  -8.123 -14.002  1.00  0.00    -0.387 OA
ATOM     13  H   UNL     1      14.040  -7.156 -13.839  1.00  0.00     0.211 HD
ENDBRANCH   3  12
BRANCH   5  14
ATOM     14  C   UNL     1       9.255  -7.860 -14.865  1.00  0.00     0.191 C 
BRANCH  14  15
ATOM     15  O   UNL     1       8.018  -7.242 -14.648  1.00  0.00    -0.394 OA
ATOM     16  H   UNL     1       8.051  -6.874 -13.727  1.00  0.00     0.210 HD
ENDBRANCH  14  15
ENDBRANCH   5  14
BRANCH   4  17
ATOM     17  O   UNL     1      11.810  -6.875 -15.124  1.00  0.00    -0.387 OA
ATOM     18  H   UNL     1      12.615  -7.335 -15.481  1.00  0.00     0.211 HD
ENDBRANCH   4  17
TORSDOF 7
ENDMDL
MODEL 6
REMARK VINA RESULT:     0.984      1.766      3.748
REMARK INTER + INTRA:           0.937
REMARK INTER:                   1.074
REMARK INTRA:                  -0.137
REMARK UNBOUND:                -0.335
REMARK SMILES CCO[C@@H]1O[C@H](CO)[C@H](O)[C@H](O)[C@H]1O
REMARK SMILES IDX 4 1 13 2 11 3 9 4 6 5 5 6 3 7 2 8 1 9 14 10 12 12 7 14 8 15
REMARK SMILES IDX 10 17
REMARK H PARENT 14 11 12 13 8 16 10 18
REMARK Flexibility Score: inf
ROOT
ATOM      1  C   UNL     1      10.654 -10.537 -15.015  1.00  0.00     0.281 C 
ATOM      2  C   UNL     1       9.944  -9.268 -14.470  1.00  0.00     0.202 C 
ATOM      3  C   UNL     1      10.833  -8.043 -14.687  1.00  0.00     0.179 C 
ATOM      4  C   UNL     1      12.157  -8.231 -13.926  1.00  0.00     0.177 C 
ATOM      5  C   UNL     1      12.697  -9.689 -14.075  1.00  0.00     0.178 C 
ATOM      6  O   UNL     1      12.070 -10.419 -15.123  1.00  0.00    -0.341 OA
ENDROOT
BRANCH   1   7
ATOM      7  O   UNL     1      10.315 -11.651 -14.203  1.00  0.00    -0.350 OA
BRANCH   7   8
ATOM      8  C   UNL     1       9.551 -11.279 -13.069  1.00  0.00     0.160 C 
ATOM      9  C   UNL     1       9.284 -12.471 -12.154  1.00  0.00     0.035 C 
ENDBRANCH   7   8
ENDBRANCH   1   7
BRANCH   2  10
ATOM     10  O   UNL     1       8.715  -9.082 -15.125  1.00  0.00    -0.385 OA
ATOM     11  H   UNL     1       8.488  -8.119 -15.035  1.00  0.00     0.211 HD
ENDBRANCH   2  10
BRANCH   3  12
ATOM     12  O   UNL     1      10.184  -6.877 -14.243  1.00  0.00    -0.387 OA
ATOM     13  H   UNL     1       9.950  -6.349 -15.050  1.00  0.00     0.211 HD
ENDBRANCH   3  12
BRANCH   5  14
ATOM     14  C   UNL     1      12.809 -10.514 -12.771  1.00  0.00     0.191 C 
BRANCH  14  15
ATOM     15  O   UNL     1      13.217 -11.830 -13.019  1.00  0.00    -0.394 OA
ATOM     16  H   UNL     1      14.056 -11.764 -13.545  1.00  0.00     0.210 HD
ENDBRANCH  14  15
ENDBRANCH   5  14
BRANCH   4  17
ATOM     17  O   UNL     1      12.000  -7.892 -12.568  1.00  0.00    -0.387 OA
ATOM     18  H   UNL     1      11.295  -8.484 -12.196  1.00  0.00     0.211 HD
ENDBRANCH   4  17
TORSDOF 7
ENDMDL
