MODEL 1
REMARK VINA RESULT:    -7.300      0.000      0.000
REMARK INTER + INTRA:          -8.616
REMARK INTER:                  -8.580
REMARK INTRA:                  -0.036
REMARK UNBOUND:                -0.036
REMARK SMILES O=c1c(O)c(-c2ccc(O)cc2)oc2cc(O)cc(O)c12
REMARK SMILES IDX 5 1 3 2 2 3 1 4 21 5 19 6 18 7 16 8 15 9 14 10 13 11 6 12
REMARK SMILES IDX 7 13 8 14 9 15 12 16 11 17 10 18 4 20 20 22 17 24
REMARK H PARENT 10 19 4 21 20 23 17 25
REMARK Flexibility Score: inf
ROOT
ATOM      1  C   UNL     1      61.767 151.739   3.862  1.00  0.00     0.180 A 
ATOM      2  C   UNL     1      60.594 152.099   4.549  1.00  0.00     0.208 A 
ATOM      3  C   UNL     1      59.646 152.906   3.902  1.00  0.00     0.238 A 
ATOM      4  O   UNL     1      58.565 153.161   4.495  1.00  0.00    -0.285 OA
ATOM      5  C   UNL     1      59.905 153.391   2.597  1.00  0.00     0.111 A 
ATOM      6  C   UNL     1      59.035 154.253   1.862  1.00  0.00     0.134 A 
ATOM      7  C   UNL     1      59.346 154.582   0.537  1.00  0.00     0.093 A 
ATOM      8  C   UNL     1      60.525 154.135  -0.058  1.00  0.00     0.123 A 
ATOM      9  C   UNL     1      61.410 153.337   0.668  1.00  0.00     0.094 A 
ATOM     10  C   UNL     1      61.109 152.960   1.979  1.00  0.00     0.146 A 
ATOM     11  O   UNL     1      61.967 152.183   2.627  1.00  0.00    -0.452 OA
ENDROOT
BRANCH   1  12
ATOM     12  C   UNL     1      62.806 150.880   4.472  1.00  0.00     0.021 A 
ATOM     13  C   UNL     1      64.146 151.302   4.460  1.00  0.00     0.016 A 
ATOM     14  C   UNL     1      65.148 150.496   5.009  1.00  0.00     0.047 A 
ATOM     15  C   UNL     1      64.824 149.251   5.565  1.00  0.00     0.115 A 
ATOM     16  C   UNL     1      62.491 149.619   5.013  1.00  0.00     0.016 A 
ATOM     17  C   UNL     1      63.495 148.815   5.562  1.00  0.00     0.047 A 
BRANCH  15  18
ATOM     18  O   UNL     1      65.813 148.440   6.116  1.00  0.00    -0.508 OA
ATOM     19  H   UNL     1      65.712 147.431   6.149  1.00  0.00     0.293 HD
ENDBRANCH  15  18
ENDBRANCH   1  12
BRANCH   2  20
ATOM     20  O   UNL     1      60.392 151.673   5.865  1.00  0.00    -0.502 OA
ATOM     21  H   UNL     1      60.306 152.321   6.639  1.00  0.00     0.293 HD
ENDBRANCH   2  20
BRANCH   6  22
ATOM     22  O   UNL     1      57.875 154.829   2.389  1.00  0.00    -0.507 OA
ATOM     23  H   UNL     1      57.831 155.359   3.246  1.00  0.00     0.293 HD
ENDBRANCH   6  22
BRANCH   8  24
ATOM     24  O   UNL     1      60.811 154.497  -1.373  1.00  0.00    -0.508 OA
ATOM     25  H   UNL     1      61.734 154.365  -1.771  1.00  0.00     0.293 HD
ENDBRANCH   8  24
TORSDOF 5
ENDMDL
MODEL 2
REMARK VINA RESULT:    -6.807      1.646      6.666
REMARK INTER + INTRA:          -8.037
REMARK INTER:                  -8.161
REMARK INTRA:                   0.124
REMARK UNBOUND:                -0.036
REMARK SMILES O=c1c(O)c(-c2ccc(O)cc2)oc2cc(O)cc(O)c12
REMARK SMILES IDX 5 1 3 2 2 3 1 4 21 5 19 6 18 7 16 8 15 9 14 10 13 11 6 12
REMARK SMILES IDX 7 13 8 14 9 15 12 16 11 17 10 18 4 20 20 22 17 24
REMARK H PARENT 10 19 4 21 20 23 17 25
REMARK Flexibility Score: inf
ROOT
ATOM      1  C   UNL     1      60.164 152.389   4.469  1.00  0.00     0.180 A 
ATOM      2  C   UNL     1      59.502 151.928   5.620  1.00  0.00     0.208 A 
ATOM      3  C   UNL     1      60.158 151.018   6.465  1.00  0.00     0.238 A 
ATOM      4  O   UNL     1      59.589 150.668   7.532  1.00  0.00    -0.285 OA
ATOM      5  C   UNL     1      61.443 150.536   6.119  1.00  0.00     0.111 A 
ATOM      6  C   UNL     1      62.183 149.577   6.878  1.00  0.00     0.134 A 
ATOM      7  C   UNL     1      63.491 149.255   6.496  1.00  0.00     0.093 A 
ATOM      8  C   UNL     1      64.063 149.805   5.349  1.00  0.00     0.123 A 
ATOM      9  C   UNL     1      63.330 150.701   4.570  1.00  0.00     0.094 A 
ATOM     10  C   UNL     1      62.037 151.072   4.946  1.00  0.00     0.146 A 
ATOM     11  O   UNL     1      61.382 151.943   4.189  1.00  0.00    -0.452 OA
ENDROOT
BRANCH   1  12
ATOM     12  C   UNL     1      59.544 153.359   3.539  1.00  0.00     0.021 A 
ATOM     13  C   UNL     1      59.734 153.207   2.154  1.00  0.00     0.016 A 
ATOM     14  C   UNL     1      59.177 154.124   1.259  1.00  0.00     0.047 A 
ATOM     15  C   UNL     1      58.437 155.214   1.735  1.00  0.00     0.115 A 
ATOM     16  C   UNL     1      58.817 154.467   4.011  1.00  0.00     0.016 A 
ATOM     17  C   UNL     1      58.261 155.383   3.112  1.00  0.00     0.047 A 
BRANCH  15  18
ATOM     18  O   UNL     1      57.877 156.134   0.852  1.00  0.00    -0.508 OA
ATOM     19  H   UNL     1      56.929 156.474   0.972  1.00  0.00     0.293 HD
ENDBRANCH  15  18
ENDBRANCH   1  12
BRANCH   2  20
ATOM     20  O   UNL     1      58.202 152.357   5.903  1.00  0.00    -0.502 OA
ATOM     21  H   UNL     1      57.902 152.602   6.839  1.00  0.00     0.293 HD
ENDBRANCH   2  20
BRANCH   6  22
ATOM     22  O   UNL     1      61.676 148.899   7.990  1.00  0.00    -0.507 OA
ATOM     23  H   UNL     1      61.001 148.151   7.953  1.00  0.00     0.293 HD
ENDBRANCH   6  22
BRANCH   8  24
ATOM     24  O   UNL     1      65.361 149.448   4.990  1.00  0.00    -0.508 OA
ATOM     25  H   UNL     1      66.122 149.475   5.658  1.00  0.00     0.293 HD
ENDBRANCH   8  24
TORSDOF 5
ENDMDL
MODEL 3
REMARK VINA RESULT:    -6.374      2.206      7.206
REMARK INTER + INTRA:          -7.528
REMARK INTER:                  -7.671
REMARK INTRA:                   0.142
REMARK UNBOUND:                -0.036
REMARK SMILES O=c1c(O)c(-c2ccc(O)cc2)oc2cc(O)cc(O)c12
REMARK SMILES IDX 5 1 3 2 2 3 1 4 21 5 19 6 18 7 16 8 15 9 14 10 13 11 6 12
REMARK SMILES IDX 7 13 8 14 9 15 12 16 11 17 10 18 4 20 20 22 17 24
REMARK H PARENT 10 19 4 21 20 23 17 25
REMARK Flexibility Score: inf
ROOT
ATOM      1  C   UNL     1      60.339 152.290   4.177  1.00  0.00     0.180 A 
ATOM      2  C   UNL     1      61.637 151.790   3.974  1.00  0.00     0.208 A 
ATOM      3  C   UNL     1      62.152 150.845   4.875  1.00  0.00     0.238 A 
ATOM      4  O   UNL     1      63.284 150.346   4.644  1.00  0.00    -0.285 OA
ATOM      5  C   UNL     1      61.386 150.452   6.000  1.00  0.00     0.111 A 
ATOM      6  C   UNL     1      61.826 149.535   7.002  1.00  0.00     0.134 A 
ATOM      7  C   UNL     1      60.941 149.140   8.013  1.00  0.00     0.093 A 
ATOM      8  C   UNL     1      59.656 149.676   8.096  1.00  0.00     0.123 A 
ATOM      9  C   UNL     1      59.234 150.614   7.153  1.00  0.00     0.094 A 
ATOM     10  C   UNL     1      60.081 150.999   6.111  1.00  0.00     0.146 A 
ATOM     11  O   UNL     1      59.633 151.879   5.224  1.00  0.00    -0.452 OA
ENDROOT
BRANCH   1  12
ATOM     12  C   UNL     1      59.722 153.277   3.263  1.00  0.00     0.021 A 
ATOM     13  C   UNL     1      58.910 154.295   3.792  1.00  0.00     0.016 A 
ATOM     14  C   UNL     1      58.298 155.224   2.945  1.00  0.00     0.047 A 
ATOM     15  C   UNL     1      58.479 155.139   1.559  1.00  0.00     0.115 A 
ATOM     16  C   UNL     1      59.882 153.186   1.868  1.00  0.00     0.016 A 
ATOM     17  C   UNL     1      59.269 154.117   1.024  1.00  0.00     0.047 A 
BRANCH  15  18
ATOM     18  O   UNL     1      57.875 156.060   0.705  1.00  0.00    -0.508 OA
ATOM     19  H   UNL     1      57.090 155.801   0.118  1.00  0.00     0.293 HD
ENDBRANCH  15  18
ENDBRANCH   1  12
BRANCH   2  20
ATOM     20  O   UNL     1      62.406 152.248   2.901  1.00  0.00    -0.502 OA
ATOM     21  H   UNL     1      63.419 152.251   2.920  1.00  0.00     0.293 HD
ENDBRANCH   2  20
BRANCH   6  22
ATOM     22  O   UNL     1      63.118 149.005   7.067  1.00  0.00    -0.507 OA
ATOM     23  H   UNL     1      63.710 148.828   6.270  1.00  0.00     0.293 HD
ENDBRANCH   6  22
BRANCH   8  24
ATOM     24  O   UNL     1      58.808 149.273   9.125  1.00  0.00    -0.508 OA
ATOM     25  H   UNL     1      58.246 148.433   9.049  1.00  0.00     0.293 HD
ENDBRANCH   8  24
TORSDOF 5
ENDMDL
MODEL 4
REMARK VINA RESULT:    -6.360      1.626      3.230
REMARK INTER + INTRA:          -7.512
REMARK INTER:                  -7.233
REMARK INTRA:                  -0.278
REMARK UNBOUND:                -0.036
REMARK SMILES O=c1c(O)c(-c2ccc(O)cc2)oc2cc(O)cc(O)c12
REMARK SMILES IDX 5 1 3 2 2 3 1 4 21 5 19 6 18 7 16 8 15 9 14 10 13 11 6 12
REMARK SMILES IDX 7 13 8 14 9 15 12 16 11 17 10 18 4 20 20 22 17 24
REMARK H PARENT 10 19 4 21 20 23 17 25
REMARK Flexibility Score: inf
ROOT
ATOM      1  C   UNL     1      61.594 152.010   4.253  1.00  0.00     0.180 A 
ATOM      2  C   UNL     1      61.229 152.103   2.899  1.00  0.00     0.208 A 
ATOM      3  C   UNL     1      60.220 153.004   2.525  1.00  0.00     0.238 A 
ATOM      4  O   UNL     1      59.952 153.136   1.302  1.00  0.00    -0.285 OA
ATOM      5  C   UNL     1      59.547 153.760   3.515  1.00  0.00     0.111 A 
ATOM      6  C   UNL     1      58.478 154.671   3.255  1.00  0.00     0.134 A 
ATOM      7  C   UNL     1      57.959 155.444   4.302  1.00  0.00     0.093 A 
ATOM      8  C   UNL     1      58.426 155.294   5.608  1.00  0.00     0.123 A 
ATOM      9  C   UNL     1      59.433 154.368   5.882  1.00  0.00     0.094 A 
ATOM     10  C   UNL     1      59.997 153.610   4.854  1.00  0.00     0.146 A 
ATOM     11  O   UNL     1      60.966 152.756   5.155  1.00  0.00    -0.452 OA
ENDROOT
BRANCH   1  12
ATOM     12  C   UNL     1      62.658 151.095   4.723  1.00  0.00     0.021 A 
ATOM     13  C   UNL     1      64.001 151.501   4.649  1.00  0.00     0.016 A 
ATOM     14  C   UNL     1      65.024 150.644   5.065  1.00  0.00     0.047 A 
ATOM     15  C   UNL     1      64.718 149.365   5.546  1.00  0.00     0.115 A 
ATOM     16  C   UNL     1      62.360 149.800   5.187  1.00  0.00     0.016 A 
ATOM     17  C   UNL     1      63.386 148.945   5.603  1.00  0.00     0.047 A 
BRANCH  15  18
ATOM     18  O   UNL     1      65.729 148.502   5.964  1.00  0.00    -0.508 OA
ATOM     19  H   UNL     1      66.659 148.542   5.561  1.00  0.00     0.293 HD
ENDBRANCH  15  18
ENDBRANCH   1  12
BRANCH   2  20
ATOM     20  O   UNL     1      61.852 151.292   1.946  1.00  0.00    -0.502 OA
ATOM     21  H   UNL     1      62.841 151.076   1.979  1.00  0.00     0.293 HD
ENDBRANCH   2  20
BRANCH   6  22
ATOM     22  O   UNL     1      57.875 154.835   2.004  1.00  0.00    -0.507 OA
ATOM     23  H   UNL     1      56.899 155.040   1.856  1.00  0.00     0.293 HD
ENDBRANCH   6  22
BRANCH   8  24
ATOM     24  O   UNL     1      57.875 156.068   6.626  1.00  0.00    -0.508 OA
ATOM     25  H   UNL     1      57.039 155.778   7.120  1.00  0.00     0.293 HD
ENDBRANCH   8  24
TORSDOF 5
ENDMDL
MODEL 5
REMARK VINA RESULT:    -6.349      1.789      2.506
REMARK INTER + INTRA:          -7.499
REMARK INTER:                  -7.211
REMARK INTRA:                  -0.287
REMARK UNBOUND:                -0.036
REMARK SMILES O=c1c(O)c(-c2ccc(O)cc2)oc2cc(O)cc(O)c12
REMARK SMILES IDX 5 1 3 2 2 3 1 4 21 5 19 6 18 7 16 8 15 9 14 10 13 11 6 12
REMARK SMILES IDX 7 13 8 14 9 15 12 16 11 17 10 18 4 20 20 22 17 24
REMARK H PARENT 10 19 4 21 20 23 17 25
REMARK Flexibility Score: inf
ROOT
ATOM      1  C   UNL     1      60.760 152.286   5.001  1.00  0.00     0.180 A 
ATOM      2  C   UNL     1      60.369 153.113   6.067  1.00  0.00     0.208 A 
ATOM      3  C   UNL     1      59.521 154.201   5.810  1.00  0.00     0.238 A 
ATOM      4  O   UNL     1      59.115 154.893   6.781  1.00  0.00    -0.285 OA
ATOM      5  C   UNL     1      59.120 154.484   4.482  1.00  0.00     0.111 A 
ATOM      6  C   UNL     1      58.298 155.588   4.099  1.00  0.00     0.134 A 
ATOM      7  C   UNL     1      57.878 155.707   2.768  1.00  0.00     0.093 A 
ATOM      8  C   UNL     1      58.300 154.801   1.796  1.00  0.00     0.123 A 
ATOM      9  C   UNL     1      59.147 153.750   2.148  1.00  0.00     0.094 A 
ATOM     10  C   UNL     1      59.553 153.582   3.474  1.00  0.00     0.146 A 
ATOM     11  O   UNL     1      60.341 152.558   3.771  1.00  0.00    -0.452 OA
ENDROOT
BRANCH   1  12
ATOM     12  C   UNL     1      61.640 151.111   5.195  1.00  0.00     0.021 A 
ATOM     13  C   UNL     1      61.074 149.874   5.549  1.00  0.00     0.016 A 
ATOM     14  C   UNL     1      61.888 148.758   5.760  1.00  0.00     0.047 A 
ATOM     15  C   UNL     1      63.279 148.867   5.636  1.00  0.00     0.115 A 
ATOM     16  C   UNL     1      63.039 151.218   5.093  1.00  0.00     0.016 A 
ATOM     17  C   UNL     1      63.851 150.099   5.305  1.00  0.00     0.047 A 
BRANCH  15  18
ATOM     18  O   UNL     1      64.100 147.761   5.843  1.00  0.00    -0.508 OA
ATOM     19  H   UNL     1      63.794 146.972   6.401  1.00  0.00     0.293 HD
ENDBRANCH  15  18
ENDBRANCH   1  12
BRANCH   2  20
ATOM     20  O   UNL     1      60.838 152.862   7.360  1.00  0.00    -0.502 OA
ATOM     21  H   UNL     1      61.550 152.169   7.555  1.00  0.00     0.293 HD
ENDBRANCH   2  20
BRANCH   6  22
ATOM     22  O   UNL     1      57.891 156.602   4.971  1.00  0.00    -0.507 OA
ATOM     23  H   UNL     1      56.998 156.638   5.439  1.00  0.00     0.293 HD
ENDBRANCH   6  22
BRANCH   8  24
ATOM     24  O   UNL     1      57.875 154.960   0.478  1.00  0.00    -0.508 OA
ATOM     25  H   UNL     1      56.970 155.359   0.258  1.00  0.00     0.293 HD
ENDBRANCH   8  24
TORSDOF 5
ENDMDL
MODEL 6
REMARK VINA RESULT:    -6.321      3.679      7.080
REMARK INTER + INTRA:          -7.465
REMARK INTER:                  -7.196
REMARK INTRA:                  -0.269
REMARK UNBOUND:                -0.036
REMARK SMILES O=c1c(O)c(-c2ccc(O)cc2)oc2cc(O)cc(O)c12
REMARK SMILES IDX 5 1 3 2 2 3 1 4 21 5 19 6 18 7 16 8 15 9 14 10 13 11 6 12
REMARK SMILES IDX 7 13 8 14 9 15 12 16 11 17 10 18 4 20 20 22 17 24
REMARK H PARENT 10 19 4 21 20 23 17 25
REMARK Flexibility Score: inf
ROOT
ATOM      1  C   UNL     1      61.721 152.445   6.327  1.00  0.00     0.180 A 
ATOM      2  C   UNL     1      63.074 152.654   6.013  1.00  0.00     0.208 A 
ATOM      3  C   UNL     1      63.870 151.554   5.659  1.00  0.00     0.238 A 
ATOM      4  O   UNL     1      65.061 151.758   5.307  1.00  0.00    -0.285 OA
ATOM      5  C   UNL     1      63.319 150.249   5.679  1.00  0.00     0.111 A 
ATOM      6  C   UNL     1      64.045 149.055   5.382  1.00  0.00     0.134 A 
ATOM      7  C   UNL     1      63.368 147.831   5.330  1.00  0.00     0.093 A 
ATOM      8  C   UNL     1      62.007 147.746   5.626  1.00  0.00     0.123 A 
ATOM      9  C   UNL     1      61.300 148.898   5.970  1.00  0.00     0.094 A 
ATOM     10  C   UNL     1      61.939 150.140   5.993  1.00  0.00     0.146 A 
ATOM     11  O   UNL     1      61.224 151.214   6.306  1.00  0.00    -0.452 OA
ENDROOT
BRANCH   1  12
ATOM     12  C   UNL     1      60.815 153.557   6.695  1.00  0.00     0.021 A 
ATOM     13  C   UNL     1      59.997 154.136   5.710  1.00  0.00     0.016 A 
ATOM     14  C   UNL     1      59.151 155.202   6.030  1.00  0.00     0.047 A 
ATOM     15  C   UNL     1      59.124 155.713   7.334  1.00  0.00     0.115 A 
ATOM     16  C   UNL     1      60.799 154.089   7.997  1.00  0.00     0.016 A 
ATOM     17  C   UNL     1      59.951 155.155   8.314  1.00  0.00     0.047 A 
BRANCH  15  18
ATOM     18  O   UNL     1      58.286 156.775   7.665  1.00  0.00    -0.508 OA
ATOM     19  H   UNL     1      58.253 157.150   8.606  1.00  0.00     0.293 HD
ENDBRANCH  15  18
ENDBRANCH   1  12
BRANCH   2  20
ATOM     20  O   UNL     1      63.619 153.940   6.074  1.00  0.00    -0.502 OA
ATOM     21  H   UNL     1      63.216 154.675   6.642  1.00  0.00     0.293 HD
ENDBRANCH   2  20
BRANCH   6  22
ATOM     22  O   UNL     1      65.424 149.012   5.159  1.00  0.00    -0.507 OA
ATOM     23  H   UNL     1      65.937 148.195   4.866  1.00  0.00     0.293 HD
ENDBRANCH   6  22
BRANCH   8  24
ATOM     24  O   UNL     1      61.370 146.508   5.580  1.00  0.00    -0.508 OA
ATOM     25  H   UNL     1      60.586 146.293   6.185  1.00  0.00     0.293 HD
ENDBRANCH   8  24
TORSDOF 5
ENDMDL
MODEL 7
REMARK VINA RESULT:    -5.991      4.278      6.263
REMARK INTER + INTRA:          -7.079
REMARK INTER:                  -7.563
REMARK INTRA:                   0.485
REMARK UNBOUND:                -0.036
REMARK SMILES O=c1c(O)c(-c2ccc(O)cc2)oc2cc(O)cc(O)c12
REMARK SMILES IDX 5 1 3 2 2 3 1 4 21 5 19 6 18 7 16 8 15 9 14 10 13 11 6 12
REMARK SMILES IDX 7 13 8 14 9 15 12 16 11 17 10 18 4 20 20 22 17 24
REMARK H PARENT 10 19 4 21 20 23 17 25
REMARK Flexibility Score: inf
ROOT
ATOM      1  C   UNL     1      61.035 148.793   7.134  1.00  0.00     0.180 A 
ATOM      2  C   UNL     1      60.759 150.138   7.431  1.00  0.00     0.208 A 
ATOM      3  C   UNL     1      61.566 151.140   6.870  1.00  0.00     0.238 A 
ATOM      4  O   UNL     1      61.267 152.345   7.080  1.00  0.00    -0.285 OA
ATOM      5  C   UNL     1      62.674 150.783   6.063  1.00  0.00     0.111 A 
ATOM      6  C   UNL     1      63.586 151.713   5.478  1.00  0.00     0.134 A 
ATOM      7  C   UNL     1      64.583 151.250   4.610  1.00  0.00     0.093 A 
ATOM      8  C   UNL     1      64.742 149.888   4.357  1.00  0.00     0.123 A 
ATOM      9  C   UNL     1      63.890 148.965   4.966  1.00  0.00     0.094 A 
ATOM     10  C   UNL     1      62.862 149.399   5.806  1.00  0.00     0.146 A 
ATOM     11  O   UNL     1      62.061 148.491   6.348  1.00  0.00    -0.452 OA
ENDROOT
BRANCH   1  12
ATOM     12  C   UNL     1      60.221 147.682   7.677  1.00  0.00     0.021 A 
ATOM     13  C   UNL     1      60.401 146.382   7.173  1.00  0.00     0.016 A 
ATOM     14  C   UNL     1      59.627 145.323   7.655  1.00  0.00     0.047 A 
ATOM     15  C   UNL     1      58.652 145.551   8.634  1.00  0.00     0.115 A 
ATOM     16  C   UNL     1      59.225 147.907   8.645  1.00  0.00     0.016 A 
ATOM     17  C   UNL     1      58.452 146.845   9.125  1.00  0.00     0.047 A 
BRANCH  15  18
ATOM     18  O   UNL     1      57.875 144.503   9.121  1.00  0.00    -0.508 OA
ATOM     19  H   UNL     1      58.296 143.647   9.465  1.00  0.00     0.293 HD
ENDBRANCH  15  18
ENDBRANCH   1  12
BRANCH   2  20
ATOM     20  O   UNL     1      59.708 150.467   8.292  1.00  0.00    -0.502 OA
ATOM     21  H   UNL     1      58.991 149.801   8.554  1.00  0.00     0.293 HD
ENDBRANCH   2  20
BRANCH   6  22
ATOM     22  O   UNL     1      63.575 153.088   5.733  1.00  0.00    -0.507 OA
ATOM     23  H   UNL     1      63.466 153.805   5.032  1.00  0.00     0.293 HD
ENDBRANCH   6  22
BRANCH   8  24
ATOM     24  O   UNL     1      65.755 149.462   3.501  1.00  0.00    -0.508 OA
ATOM     25  H   UNL     1      66.559 150.045   3.300  1.00  0.00     0.293 HD
ENDBRANCH   8  24
TORSDOF 5
ENDMDL
MODEL 8
REMARK VINA RESULT:    -5.917      2.984      7.350
REMARK INTER + INTRA:          -6.991
REMARK INTER:                  -6.700
REMARK INTRA:                  -0.291
REMARK UNBOUND:                -0.036
REMARK SMILES O=c1c(O)c(-c2ccc(O)cc2)oc2cc(O)cc(O)c12
REMARK SMILES IDX 5 1 3 2 2 3 1 4 21 5 19 6 18 7 16 8 15 9 14 10 13 11 6 12
REMARK SMILES IDX 7 13 8 14 9 15 12 16 11 17 10 18 4 20 20 22 17 24
REMARK H PARENT 10 19 4 21 20 23 17 25
REMARK Flexibility Score: inf
ROOT
ATOM      1  C   UNL     1      60.420 151.812   5.581  1.00  0.00     0.180 A 
ATOM      2  C   UNL     1      61.571 151.376   4.903  1.00  0.00     0.208 A 
ATOM      3  C   UNL     1      61.992 150.047   5.060  1.00  0.00     0.238 A 
ATOM      4  O   UNL     1      62.979 149.644   4.391  1.00  0.00    -0.285 OA
ATOM      5  C   UNL     1      61.292 149.184   5.938  1.00  0.00     0.111 A 
ATOM      6  C   UNL     1      61.657 147.829   6.208  1.00  0.00     0.134 A 
ATOM      7  C   UNL     1      60.827 147.039   7.013  1.00  0.00     0.093 A 
ATOM      8  C   UNL     1      59.682 147.569   7.608  1.00  0.00     0.123 A 
ATOM      9  C   UNL     1      59.346 148.906   7.394  1.00  0.00     0.094 A 
ATOM     10  C   UNL     1      60.132 149.710   6.566  1.00  0.00     0.146 A 
ATOM     11  O   UNL     1      59.765 150.970   6.373  1.00  0.00    -0.452 OA
ENDROOT
BRANCH   1  12
ATOM     12  C   UNL     1      59.905 153.194   5.455  1.00  0.00     0.021 A 
ATOM     13  C   UNL     1      60.213 154.140   6.448  1.00  0.00     0.016 A 
ATOM     14  C   UNL     1      59.718 155.444   6.361  1.00  0.00     0.047 A 
ATOM     15  C   UNL     1      58.898 155.816   5.288  1.00  0.00     0.115 A 
ATOM     16  C   UNL     1      59.063 153.569   4.392  1.00  0.00     0.016 A 
ATOM     17  C   UNL     1      58.570 154.875   4.307  1.00  0.00     0.047 A 
BRANCH  15  18
ATOM     18  O   UNL     1      58.399 157.113   5.190  1.00  0.00    -0.508 OA
ATOM     19  H   UNL     1      57.485 157.358   5.554  1.00  0.00     0.293 HD
ENDBRANCH  15  18
ENDBRANCH   1  12
BRANCH   2  20
ATOM     20  O   UNL     1      62.293 152.265   4.101  1.00  0.00    -0.502 OA
ATOM     21  H   UNL     1      61.887 152.721   3.293  1.00  0.00     0.293 HD
ENDBRANCH   2  20
BRANCH   6  22
ATOM     22  O   UNL     1      62.826 147.224   5.738  1.00  0.00    -0.507 OA
ATOM     23  H   UNL     1      63.178 147.302   4.796  1.00  0.00     0.293 HD
ENDBRANCH   6  22
BRANCH   8  24
ATOM     24  O   UNL     1      58.889 146.757   8.416  1.00  0.00    -0.508 OA
ATOM     25  H   UNL     1      57.968 147.050   8.719  1.00  0.00     0.293 HD
ENDBRANCH   8  24
TORSDOF 5
ENDMDL
MODEL 9
REMARK VINA RESULT:    -5.830      2.132      6.503
REMARK INTER + INTRA:          -6.889
REMARK INTER:                  -7.295
REMARK INTRA:                   0.407
REMARK UNBOUND:                -0.036
REMARK SMILES O=c1c(O)c(-c2ccc(O)cc2)oc2cc(O)cc(O)c12
REMARK SMILES IDX 5 1 3 2 2 3 1 4 21 5 19 6 18 7 16 8 15 9 14 10 13 11 6 12
REMARK SMILES IDX 7 13 8 14 9 15 12 16 11 17 10 18 4 20 20 22 17 24
REMARK H PARENT 10 19 4 21 20 23 17 25
REMARK Flexibility Score: inf
ROOT
ATOM      1  C   UNL     1      59.844 152.909   4.137  1.00  0.00     0.180 A 
ATOM      2  C   UNL     1      58.969 153.539   5.038  1.00  0.00     0.208 A 
ATOM      3  C   UNL     1      58.943 153.111   6.374  1.00  0.00     0.238 A 
ATOM      4  O   UNL     1      58.212 153.729   7.192  1.00  0.00    -0.285 OA
ATOM      5  C   UNL     1      59.750 152.021   6.782  1.00  0.00     0.111 A 
ATOM      6  C   UNL     1      59.771 151.474   8.101  1.00  0.00     0.134 A 
ATOM      7  C   UNL     1      60.689 150.463   8.415  1.00  0.00     0.093 A 
ATOM      8  C   UNL     1      61.541 149.937   7.444  1.00  0.00     0.123 A 
ATOM      9  C   UNL     1      61.491 150.426   6.138  1.00  0.00     0.094 A 
ATOM     10  C   UNL     1      60.613 151.460   5.804  1.00  0.00     0.146 A 
ATOM     11  O   UNL     1      60.612 151.911   4.556  1.00  0.00    -0.452 OA
ENDROOT
BRANCH   1  12
ATOM     12  C   UNL     1      59.938 153.314   2.716  1.00  0.00     0.021 A 
ATOM     13  C   UNL     1      61.108 153.027   1.992  1.00  0.00     0.016 A 
ATOM     14  C   UNL     1      61.229 153.420   0.656  1.00  0.00     0.047 A 
ATOM     15  C   UNL     1      60.188 154.119   0.031  1.00  0.00     0.115 A 
ATOM     16  C   UNL     1      58.906 154.034   2.088  1.00  0.00     0.016 A 
ATOM     17  C   UNL     1      59.029 154.426   0.751  1.00  0.00     0.047 A 
BRANCH  15  18
ATOM     18  O   UNL     1      60.296 154.516  -1.299  1.00  0.00    -0.508 OA
ATOM     19  H   UNL     1      61.192 154.756  -1.709  1.00  0.00     0.293 HD
ENDBRANCH  15  18
ENDBRANCH   1  12
BRANCH   2  20
ATOM     20  O   UNL     1      58.124 154.562   4.599  1.00  0.00    -0.502 OA
ATOM     21  H   UNL     1      57.265 154.379   4.094  1.00  0.00     0.293 HD
ENDBRANCH   2  20
BRANCH   6  22
ATOM     22  O   UNL     1      58.903 151.864   9.125  1.00  0.00    -0.507 OA
ATOM     23  H   UNL     1      58.060 152.402   8.994  1.00  0.00     0.293 HD
ENDBRANCH   6  22
BRANCH   8  24
ATOM     24  O   UNL     1      62.429 148.921   7.788  1.00  0.00    -0.508 OA
ATOM     25  H   UNL     1      63.188 148.649   7.173  1.00  0.00     0.293 HD
ENDBRANCH   8  24
TORSDOF 5
ENDMDL
