MODEL 1
REMARK VINA RESULT:    -6.194      0.000      0.000
REMARK INTER + INTRA:          -7.956
REMARK INTER:                  -7.643
REMARK INTRA:                  -0.313
REMARK UNBOUND:                -0.313
REMARK SMILES O=c1c(O)c(-c2cc(O)c(O)c(O)c2)oc2cc(O)cc(O)c12
REMARK SMILES IDX 5 1 3 2 2 3 1 4 23 5 21 6 20 7 18 8 17 9 16 10 15 11 6 12
REMARK SMILES IDX 7 13 8 14 14 15 10 16 12 17 9 18 11 20 13 22 4 24 22 26
REMARK SMILES IDX 19 28
REMARK H PARENT 9 19 11 21 13 23 4 25 22 27 19 29
REMARK Flexibility Score: inf
ROOT
ATOM      1  C   UNL     1      56.209  72.930  41.565  1.00  0.00     0.180 A 
ATOM      2  C   UNL     1      54.973  72.974  42.233  1.00  0.00     0.208 A 
ATOM      3  C   UNL     1      53.795  72.754  41.502  1.00  0.00     0.238 A 
ATOM      4  O   UNL     1      52.689  72.848  42.095  1.00  0.00    -0.285 OA
ATOM      5  C   UNL     1      53.868  72.479  40.115  1.00  0.00     0.111 A 
ATOM      6  C   UNL     1      52.741  72.201  39.284  1.00  0.00     0.134 A 
ATOM      7  C   UNL     1      52.919  72.071  37.901  1.00  0.00     0.093 A 
ATOM      8  C   UNL     1      54.191  72.143  37.328  1.00  0.00     0.123 A 
ATOM      9  C   UNL     1      55.304  72.355  38.139  1.00  0.00     0.094 A 
ATOM     10  C   UNL     1      55.155  72.524  39.517  1.00  0.00     0.146 A 
ATOM     11  O   UNL     1      56.240  72.734  40.252  1.00  0.00    -0.452 OA
ENDROOT
BRANCH   1  12
ATOM     12  C   UNL     1      57.495  73.126  42.273  1.00  0.00     0.029 A 
ATOM     13  C   UNL     1      58.265  72.009  42.629  1.00  0.00     0.062 A 
ATOM     14  C   UNL     1      59.475  72.169  43.318  1.00  0.00     0.162 A 
ATOM     15  C   UNL     1      57.934  74.407  42.648  1.00  0.00     0.062 A 
ATOM     16  C   UNL     1      59.918  73.449  43.671  1.00  0.00     0.200 A 
ATOM     17  C   UNL     1      59.143  74.573  43.338  1.00  0.00     0.162 A 
BRANCH  14  18
ATOM     18  O   UNL     1      60.243  71.056  43.657  1.00  0.00    -0.504 OA
ATOM     19  H   UNL     1      59.923  70.113  43.471  1.00  0.00     0.293 HD
ENDBRANCH  14  18
BRANCH  16  20
ATOM     20  O   UNL     1      61.127  73.588  44.354  1.00  0.00    -0.502 OA
ATOM     21  H   UNL     1      61.594  72.802  44.787  1.00  0.00     0.293 HD
ENDBRANCH  16  20
BRANCH  17  22
ATOM     22  O   UNL     1      59.573  75.849  43.700  1.00  0.00    -0.504 OA
ATOM     23  H   UNL     1      59.468  76.197  44.645  1.00  0.00     0.293 HD
ENDBRANCH  17  22
ENDBRANCH   1  12
BRANCH   2  24
ATOM     24  O   UNL     1      54.923  73.269  43.599  1.00  0.00    -0.502 OA
ATOM     25  H   UNL     1      54.887  74.218  43.949  1.00  0.00     0.293 HD
ENDBRANCH   2  24
BRANCH   6  26
ATOM     26  O   UNL     1      51.442  72.017  39.765  1.00  0.00    -0.507 OA
ATOM     27  H   UNL     1      51.182  71.353  40.479  1.00  0.00     0.293 HD
ENDBRANCH   6  26
BRANCH   8  28
ATOM     28  O   UNL     1      54.361  71.998  35.953  1.00  0.00    -0.508 OA
ATOM     29  H   UNL     1      54.933  71.256  35.565  1.00  0.00     0.293 HD
ENDBRANCH   8  28
TORSDOF 7
ENDMDL
MODEL 2
REMARK VINA RESULT:    -6.151      0.122      1.753
REMARK INTER + INTRA:          -7.902
REMARK INTER:                  -7.584
REMARK INTRA:                  -0.318
REMARK UNBOUND:                -0.313
REMARK SMILES O=c1c(O)c(-c2cc(O)c(O)c(O)c2)oc2cc(O)cc(O)c12
REMARK SMILES IDX 5 1 3 2 2 3 1 4 23 5 21 6 20 7 18 8 17 9 16 10 15 11 6 12
REMARK SMILES IDX 7 13 8 14 14 15 10 16 12 17 9 18 11 20 13 22 4 24 22 26
REMARK SMILES IDX 19 28
REMARK H PARENT 9 19 11 21 13 23 4 25 22 27 19 29
REMARK Flexibility Score: inf
ROOT
ATOM      1  C   UNL     1      56.141  72.971  41.645  1.00  0.00     0.180 A 
ATOM      2  C   UNL     1      54.902  73.026  42.306  1.00  0.00     0.208 A 
ATOM      3  C   UNL     1      53.726  72.806  41.570  1.00  0.00     0.238 A 
ATOM      4  O   UNL     1      52.617  72.910  42.157  1.00  0.00    -0.285 OA
ATOM      5  C   UNL     1      53.805  72.520  40.186  1.00  0.00     0.111 A 
ATOM      6  C   UNL     1      52.681  72.241  39.351  1.00  0.00     0.134 A 
ATOM      7  C   UNL     1      52.865  72.099  37.971  1.00  0.00     0.093 A 
ATOM      8  C   UNL     1      54.140  72.161  37.404  1.00  0.00     0.123 A 
ATOM      9  C   UNL     1      55.250  72.374  38.219  1.00  0.00     0.094 A 
ATOM     10  C   UNL     1      55.095  72.554  39.595  1.00  0.00     0.146 A 
ATOM     11  O   UNL     1      56.177  72.764  40.333  1.00  0.00    -0.452 OA
ENDROOT
BRANCH   1  12
ATOM     12  C   UNL     1      57.423  73.166  42.357  1.00  0.00     0.029 A 
ATOM     13  C   UNL     1      57.855  74.467  42.659  1.00  0.00     0.062 A 
ATOM     14  C   UNL     1      59.075  74.679  43.314  1.00  0.00     0.162 A 
ATOM     15  C   UNL     1      58.250  72.079  42.687  1.00  0.00     0.062 A 
ATOM     16  C   UNL     1      59.884  73.590  43.659  1.00  0.00     0.200 A 
ATOM     17  C   UNL     1      59.473  72.285  43.342  1.00  0.00     0.162 A 
BRANCH  14  18
ATOM     18  O   UNL     1      59.492  75.973  43.624  1.00  0.00    -0.504 OA
ATOM     19  H   UNL     1      58.925  76.782  43.398  1.00  0.00     0.293 HD
ENDBRANCH  14  18
BRANCH  16  20
ATOM     20  O   UNL     1      61.095  73.821  44.314  1.00  0.00    -0.502 OA
ATOM     21  H   UNL     1      61.670  73.065  44.666  1.00  0.00     0.293 HD
ENDBRANCH  16  20
BRANCH  17  22
ATOM     22  O   UNL     1      60.282  71.198  43.671  1.00  0.00    -0.504 OA
ATOM     23  H   UNL     1      61.292  71.270  43.676  1.00  0.00     0.293 HD
ENDBRANCH  17  22
ENDBRANCH   1  12
BRANCH   2  24
ATOM     24  O   UNL     1      54.846  73.332  43.670  1.00  0.00    -0.502 OA
ATOM     25  H   UNL     1      55.466  72.907  44.348  1.00  0.00     0.293 HD
ENDBRANCH   2  24
BRANCH   6  26
ATOM     26  O   UNL     1      51.378  72.067  39.828  1.00  0.00    -0.507 OA
ATOM     27  H   UNL     1      50.716  71.400  39.461  1.00  0.00     0.293 HD
ENDBRANCH   6  26
BRANCH   8  28
ATOM     28  O   UNL     1      54.316  72.004  36.031  1.00  0.00    -0.508 OA
ATOM     29  H   UNL     1      54.950  72.596  35.507  1.00  0.00     0.293 HD
ENDBRANCH   8  28
TORSDOF 7
ENDMDL
MODEL 3
REMARK VINA RESULT:    -5.914      3.410      7.689
REMARK INTER + INTRA:          -7.610
REMARK INTER:                  -7.244
REMARK INTRA:                  -0.365
REMARK UNBOUND:                -0.313
REMARK SMILES O=c1c(O)c(-c2cc(O)c(O)c(O)c2)oc2cc(O)cc(O)c12
REMARK SMILES IDX 5 1 3 2 2 3 1 4 23 5 21 6 20 7 18 8 17 9 16 10 15 11 6 12
REMARK SMILES IDX 7 13 8 14 14 15 10 16 12 17 9 18 11 20 13 22 4 24 22 26
REMARK SMILES IDX 19 28
REMARK H PARENT 9 19 11 21 13 23 4 25 22 27 19 29
REMARK Flexibility Score: inf
ROOT
ATOM      1  C   UNL     1      51.598  73.191  41.538  1.00  0.00     0.180 A 
ATOM      2  C   UNL     1      52.284  73.396  42.747  1.00  0.00     0.208 A 
ATOM      3  C   UNL     1      53.669  73.173  42.790  1.00  0.00     0.238 A 
ATOM      4  O   UNL     1      54.269  73.306  43.889  1.00  0.00    -0.285 OA
ATOM      5  C   UNL     1      54.354  72.762  41.621  1.00  0.00     0.111 A 
ATOM      6  C   UNL     1      55.762  72.545  41.540  1.00  0.00     0.134 A 
ATOM      7  C   UNL     1      56.313  72.015  40.367  1.00  0.00     0.093 A 
ATOM      8  C   UNL     1      55.515  71.755  39.250  1.00  0.00     0.123 A 
ATOM      9  C   UNL     1      54.148  72.019  39.300  1.00  0.00     0.094 A 
ATOM     10  C   UNL     1      53.564  72.515  40.467  1.00  0.00     0.146 A 
ATOM     11  O   UNL     1      52.257  72.743  40.475  1.00  0.00    -0.452 OA
ENDROOT
BRANCH   1  12
ATOM     12  C   UNL     1      50.142  73.430  41.408  1.00  0.00     0.029 A 
ATOM     13  C   UNL     1      49.252  72.352  41.529  1.00  0.00     0.062 A 
ATOM     14  C   UNL     1      47.872  72.549  41.388  1.00  0.00     0.162 A 
ATOM     15  C   UNL     1      49.635  74.705  41.107  1.00  0.00     0.062 A 
ATOM     16  C   UNL     1      47.370  73.826  41.110  1.00  0.00     0.200 A 
ATOM     17  C   UNL     1      48.254  74.908  40.965  1.00  0.00     0.162 A 
BRANCH  14  18
ATOM     18  O   UNL     1      46.991  71.477  41.524  1.00  0.00    -0.504 OA
ATOM     19  H   UNL     1      47.263  70.622  41.994  1.00  0.00     0.293 HD
ENDBRANCH  14  18
BRANCH  16  20
ATOM     20  O   UNL     1      45.992  74.003  40.977  1.00  0.00    -0.502 OA
ATOM     21  H   UNL     1      45.575  74.368  40.129  1.00  0.00     0.293 HD
ENDBRANCH  16  20
BRANCH  17  22
ATOM     22  O   UNL     1      47.761  76.179  40.673  1.00  0.00    -0.504 OA
ATOM     23  H   UNL     1      46.768  76.380  40.688  1.00  0.00     0.293 HD
ENDBRANCH  17  22
ENDBRANCH   1  12
BRANCH   2  24
ATOM     24  O   UNL     1      51.585  73.781  43.896  1.00  0.00    -0.502 OA
ATOM     25  H   UNL     1      51.134  73.112  44.507  1.00  0.00     0.293 HD
ENDBRANCH   2  24
BRANCH   6  26
ATOM     26  O   UNL     1      56.660  72.858  42.565  1.00  0.00    -0.507 OA
ATOM     27  H   UNL     1      57.105  73.756  42.685  1.00  0.00     0.293 HD
ENDBRANCH   6  26
BRANCH   8  28
ATOM     28  O   UNL     1      56.074  71.242  38.082  1.00  0.00    -0.508 OA
ATOM     29  H   UNL     1      55.859  71.637  37.174  1.00  0.00     0.293 HD
ENDBRANCH   8  28
TORSDOF 7
ENDMDL
MODEL 4
REMARK VINA RESULT:    -5.647      3.539      7.190
REMARK INTER + INTRA:          -7.281
REMARK INTER:                  -6.914
REMARK INTRA:                  -0.367
REMARK UNBOUND:                -0.313
REMARK SMILES O=c1c(O)c(-c2cc(O)c(O)c(O)c2)oc2cc(O)cc(O)c12
REMARK SMILES IDX 5 1 3 2 2 3 1 4 23 5 21 6 20 7 18 8 17 9 16 10 15 11 6 12
REMARK SMILES IDX 7 13 8 14 14 15 10 16 12 17 9 18 11 20 13 22 4 24 22 26
REMARK SMILES IDX 19 28
REMARK H PARENT 9 19 11 21 13 23 4 25 22 27 19 29
REMARK Flexibility Score: inf
ROOT
ATOM      1  C   UNL     1      51.903  73.028  42.357  1.00  0.00     0.180 A 
ATOM      2  C   UNL     1      51.525  72.726  41.037  1.00  0.00     0.208 A 
ATOM      3  C   UNL     1      52.523  72.445  40.090  1.00  0.00     0.238 A 
ATOM      4  O   UNL     1      52.182  72.228  38.898  1.00  0.00    -0.285 OA
ATOM      5  C   UNL     1      53.885  72.452  40.478  1.00  0.00     0.111 A 
ATOM      6  C   UNL     1      54.976  72.142  39.611  1.00  0.00     0.134 A 
ATOM      7  C   UNL     1      56.289  72.308  40.068  1.00  0.00     0.093 A 
ATOM      8  C   UNL     1      56.550  72.710  41.381  1.00  0.00     0.123 A 
ATOM      9  C   UNL     1      55.491  72.958  42.251  1.00  0.00     0.094 A 
ATOM     10  C   UNL     1      54.170  72.836  41.815  1.00  0.00     0.146 A 
ATOM     11  O   UNL     1      53.191  73.091  42.674  1.00  0.00    -0.452 OA
ENDROOT
BRANCH   1  12
ATOM     12  C   UNL     1      50.908  73.311  43.416  1.00  0.00     0.029 A 
ATOM     13  C   UNL     1      50.580  74.642  43.718  1.00  0.00     0.062 A 
ATOM     14  C   UNL     1      49.658  74.936  44.731  1.00  0.00     0.162 A 
ATOM     15  C   UNL     1      50.326  72.276  44.167  1.00  0.00     0.062 A 
ATOM     16  C   UNL     1      49.065  73.899  45.462  1.00  0.00     0.200 A 
ATOM     17  C   UNL     1      49.402  72.565  45.183  1.00  0.00     0.162 A 
BRANCH  14  18
ATOM     18  O   UNL     1      49.325  76.259  45.017  1.00  0.00    -0.504 OA
ATOM     19  H   UNL     1      48.930  76.527  45.910  1.00  0.00     0.293 HD
ENDBRANCH  14  18
BRANCH  16  20
ATOM     20  O   UNL     1      48.146  74.212  46.465  1.00  0.00    -0.502 OA
ATOM     21  H   UNL     1      48.036  73.639  47.292  1.00  0.00     0.293 HD
ENDBRANCH  16  20
BRANCH  17  22
ATOM     22  O   UNL     1      48.826  71.530  45.918  1.00  0.00    -0.504 OA
ATOM     23  H   UNL     1      47.824  71.377  45.925  1.00  0.00     0.293 HD
ENDBRANCH  17  22
ENDBRANCH   1  12
BRANCH   2  24
ATOM     24  O   UNL     1      50.176  72.745  40.670  1.00  0.00    -0.502 OA
ATOM     25  H   UNL     1      49.694  73.598  40.414  1.00  0.00     0.293 HD
ENDBRANCH   2  24
BRANCH   6  26
ATOM     26  O   UNL     1      54.825  71.645  38.314  1.00  0.00    -0.507 OA
ATOM     27  H   UNL     1      55.574  71.552  37.643  1.00  0.00     0.293 HD
ENDBRANCH   6  26
BRANCH   8  28
ATOM     28  O   UNL     1      57.859  72.859  41.832  1.00  0.00    -0.508 OA
ATOM     29  H   UNL     1      58.644  72.488  41.310  1.00  0.00     0.293 HD
ENDBRANCH   8  28
TORSDOF 7
ENDMDL
MODEL 5
REMARK VINA RESULT:    -5.624      1.406      7.175
REMARK INTER + INTRA:          -7.252
REMARK INTER:                  -6.919
REMARK INTRA:                  -0.333
REMARK UNBOUND:                -0.313
REMARK SMILES O=c1c(O)c(-c2cc(O)c(O)c(O)c2)oc2cc(O)cc(O)c12
REMARK SMILES IDX 5 1 3 2 2 3 1 4 23 5 21 6 20 7 18 8 17 9 16 10 15 11 6 12
REMARK SMILES IDX 7 13 8 14 14 15 10 16 12 17 9 18 11 20 13 22 4 24 22 26
REMARK SMILES IDX 19 28
REMARK H PARENT 9 19 11 21 13 23 4 25 22 27 19 29
REMARK Flexibility Score: inf
ROOT
ATOM      1  C   UNL     1      56.545  73.116  41.459  1.00  0.00     0.180 A 
ATOM      2  C   UNL     1      57.505  72.197  41.916  1.00  0.00     0.208 A 
ATOM      3  C   UNL     1      58.527  72.645  42.767  1.00  0.00     0.238 A 
ATOM      4  O   UNL     1      59.414  71.828  43.129  1.00  0.00    -0.285 OA
ATOM      5  C   UNL     1      58.570  74.004  43.163  1.00  0.00     0.111 A 
ATOM      6  C   UNL     1      59.537  74.558  44.054  1.00  0.00     0.134 A 
ATOM      7  C   UNL     1      59.560  75.941  44.273  1.00  0.00     0.093 A 
ATOM      8  C   UNL     1      58.611  76.780  43.685  1.00  0.00     0.123 A 
ATOM      9  C   UNL     1      57.627  76.240  42.861  1.00  0.00     0.094 A 
ATOM     10  C   UNL     1      57.598  74.869  42.595  1.00  0.00     0.146 A 
ATOM     11  O   UNL     1      56.650  74.397  41.796  1.00  0.00    -0.452 OA
ENDROOT
BRANCH   1  12
ATOM     12  C   UNL     1      55.424  72.714  40.580  1.00  0.00     0.029 A 
ATOM     13  C   UNL     1      54.174  72.421  41.145  1.00  0.00     0.062 A 
ATOM     14  C   UNL     1      53.103  72.017  40.336  1.00  0.00     0.162 A 
ATOM     15  C   UNL     1      55.600  72.563  39.194  1.00  0.00     0.062 A 
ATOM     16  C   UNL     1      53.279  71.889  38.953  1.00  0.00     0.200 A 
ATOM     17  C   UNL     1      54.533  72.159  38.379  1.00  0.00     0.162 A 
BRANCH  14  18
ATOM     18  O   UNL     1      51.860  71.741  40.901  1.00  0.00    -0.504 OA
ATOM     19  H   UNL     1      51.770  71.179  41.739  1.00  0.00     0.293 HD
ENDBRANCH  14  18
BRANCH  16  20
ATOM     20  O   UNL     1      52.200  71.489  38.163  1.00  0.00    -0.502 OA
ATOM     21  H   UNL     1      51.243  71.707  38.408  1.00  0.00     0.293 HD
ENDBRANCH  16  20
BRANCH  17  22
ATOM     22  O   UNL     1      54.717  72.018  37.005  1.00  0.00    -0.504 OA
ATOM     23  H   UNL     1      55.111  72.762  36.442  1.00  0.00     0.293 HD
ENDBRANCH  17  22
ENDBRANCH   1  12
BRANCH   2  24
ATOM     24  O   UNL     1      57.457  70.864  41.495  1.00  0.00    -0.502 OA
ATOM     25  H   UNL     1      57.163  70.598  40.563  1.00  0.00     0.293 HD
ENDBRANCH   2  24
BRANCH   6  26
ATOM     26  O   UNL     1      60.470  73.798  44.764  1.00  0.00    -0.507 OA
ATOM     27  H   UNL     1      60.413  72.800  44.904  1.00  0.00     0.293 HD
ENDBRANCH   6  26
BRANCH   8  28
ATOM     28  O   UNL     1      58.632  78.153  43.920  1.00  0.00    -0.508 OA
ATOM     29  H   UNL     1      57.848  78.629  44.349  1.00  0.00     0.293 HD
ENDBRANCH   8  28
TORSDOF 7
ENDMDL
MODEL 6
REMARK VINA RESULT:    -5.577      3.484      6.566
REMARK INTER + INTRA:          -7.194
REMARK INTER:                  -6.842
REMARK INTRA:                  -0.352
REMARK UNBOUND:                -0.313
REMARK SMILES O=c1c(O)c(-c2cc(O)c(O)c(O)c2)oc2cc(O)cc(O)c12
REMARK SMILES IDX 5 1 3 2 2 3 1 4 23 5 21 6 20 7 18 8 17 9 16 10 15 11 6 12
REMARK SMILES IDX 7 13 8 14 14 15 10 16 12 17 9 18 11 20 13 22 4 24 22 26
REMARK SMILES IDX 19 28
REMARK H PARENT 9 19 11 21 13 23 4 25 22 27 19 29
REMARK Flexibility Score: inf
ROOT
ATOM      1  C   UNL     1      52.281  72.786  41.418  1.00  0.00     0.180 A 
ATOM      2  C   UNL     1      53.660  72.705  41.677  1.00  0.00     0.208 A 
ATOM      3  C   UNL     1      54.545  72.514  40.604  1.00  0.00     0.238 A 
ATOM      4  O   UNL     1      55.774  72.388  40.848  1.00  0.00    -0.285 OA
ATOM      5  C   UNL     1      54.042  72.421  39.284  1.00  0.00     0.111 A 
ATOM      6  C   UNL     1      54.850  72.267  38.117  1.00  0.00     0.134 A 
ATOM      7  C   UNL     1      54.237  72.056  36.876  1.00  0.00     0.093 A 
ATOM      8  C   UNL     1      52.846  72.058  36.750  1.00  0.00     0.123 A 
ATOM      9  C   UNL     1      52.050  72.266  37.874  1.00  0.00     0.094 A 
ATOM     10  C   UNL     1      52.631  72.445  39.131  1.00  0.00     0.146 A 
ATOM     11  O   UNL     1      51.835  72.630  40.177  1.00  0.00    -0.452 OA
ENDROOT
BRANCH   1  12
ATOM     12  C   UNL     1      51.290  73.011  42.494  1.00  0.00     0.029 A 
ATOM     13  C   UNL     1      50.908  74.322  42.818  1.00  0.00     0.062 A 
ATOM     14  C   UNL     1      49.987  74.562  43.847  1.00  0.00     0.162 A 
ATOM     15  C   UNL     1      50.765  71.942  43.239  1.00  0.00     0.062 A 
ATOM     16  C   UNL     1      49.451  73.491  44.572  1.00  0.00     0.200 A 
ATOM     17  C   UNL     1      49.843  72.176  44.270  1.00  0.00     0.162 A 
BRANCH  14  18
ATOM     18  O   UNL     1      49.601  75.865  44.155  1.00  0.00    -0.504 OA
ATOM     19  H   UNL     1      49.286  76.509  43.440  1.00  0.00     0.293 HD
ENDBRANCH  14  18
BRANCH  16  20
ATOM     20  O   UNL     1      48.533  73.749  45.591  1.00  0.00    -0.502 OA
ATOM     21  H   UNL     1      47.547  73.539  45.494  1.00  0.00     0.293 HD
ENDBRANCH  16  20
BRANCH  17  22
ATOM     22  O   UNL     1      49.323  71.108  44.999  1.00  0.00    -0.504 OA
ATOM     23  H   UNL     1      48.324  70.971  45.103  1.00  0.00     0.293 HD
ENDBRANCH  17  22
ENDBRANCH   1  12
BRANCH   2  24
ATOM     24  O   UNL     1      54.135  72.778  42.991  1.00  0.00    -0.502 OA
ATOM     25  H   UNL     1      54.603  73.598  43.355  1.00  0.00     0.293 HD
ENDBRANCH   2  24
BRANCH   6  26
ATOM     26  O   UNL     1      56.246  72.342  38.119  1.00  0.00    -0.507 OA
ATOM     27  H   UNL     1      56.849  71.818  38.736  1.00  0.00     0.293 HD
ENDBRANCH   6  26
BRANCH   8  28
ATOM     28  O   UNL     1      52.245  71.862  35.508  1.00  0.00    -0.508 OA
ATOM     29  H   UNL     1      51.685  72.584  35.071  1.00  0.00     0.293 HD
ENDBRANCH   8  28
TORSDOF 7
ENDMDL
MODEL 7
REMARK VINA RESULT:    -5.492      1.532      6.904
REMARK INTER + INTRA:          -7.090
REMARK INTER:                  -7.531
REMARK INTRA:                   0.442
REMARK UNBOUND:                -0.313
REMARK SMILES O=c1c(O)c(-c2cc(O)c(O)c(O)c2)oc2cc(O)cc(O)c12
REMARK SMILES IDX 5 1 3 2 2 3 1 4 23 5 21 6 20 7 18 8 17 9 16 10 15 11 6 12
REMARK SMILES IDX 7 13 8 14 14 15 10 16 12 17 9 18 11 20 13 22 4 24 22 26
REMARK SMILES IDX 19 28
REMARK H PARENT 9 19 11 21 13 23 4 25 22 27 19 29
REMARK Flexibility Score: inf
ROOT
ATOM      1  C   UNL     1      55.811  73.079  42.249  1.00  0.00     0.180 A 
ATOM      2  C   UNL     1      55.325  73.478  43.506  1.00  0.00     0.208 A 
ATOM      3  C   UNL     1      56.240  73.866  44.498  1.00  0.00     0.238 A 
ATOM      4  O   UNL     1      55.802  74.171  45.638  1.00  0.00    -0.285 OA
ATOM      5  C   UNL     1      57.627  73.866  44.217  1.00  0.00     0.111 A 
ATOM      6  C   UNL     1      58.640  74.279  45.134  1.00  0.00     0.134 A 
ATOM      7  C   UNL     1      59.988  74.113  44.793  1.00  0.00     0.093 A 
ATOM      8  C   UNL     1      60.360  73.611  43.544  1.00  0.00     0.123 A 
ATOM      9  C   UNL     1      59.378  73.261  42.620  1.00  0.00     0.094 A 
ATOM     10  C   UNL     1      58.025  73.381  42.943  1.00  0.00     0.146 A 
ATOM     11  O   UNL     1      57.122  73.026  42.038  1.00  0.00    -0.452 OA
ENDROOT
BRANCH   1  12
ATOM     12  C   UNL     1      54.909  72.679  41.146  1.00  0.00     0.029 A 
ATOM     13  C   UNL     1      55.445  72.407  39.878  1.00  0.00     0.062 A 
ATOM     14  C   UNL     1      54.609  72.048  38.813  1.00  0.00     0.162 A 
ATOM     15  C   UNL     1      53.516  72.623  41.325  1.00  0.00     0.062 A 
ATOM     16  C   UNL     1      53.224  71.973  39.003  1.00  0.00     0.200 A 
ATOM     17  C   UNL     1      52.674  72.265  40.263  1.00  0.00     0.162 A 
BRANCH  14  18
ATOM     18  O   UNL     1      55.149  71.765  37.560  1.00  0.00    -0.504 OA
ATOM     19  H   UNL     1      56.004  71.232  37.457  1.00  0.00     0.293 HD
ENDBRANCH  14  18
BRANCH  16  20
ATOM     20  O   UNL     1      52.407  71.611  37.931  1.00  0.00    -0.502 OA
ATOM     21  H   UNL     1      52.757  71.082  37.142  1.00  0.00     0.293 HD
ENDBRANCH  16  20
BRANCH  17  22
ATOM     22  O   UNL     1      51.294  72.205  40.453  1.00  0.00    -0.504 OA
ATOM     23  H   UNL     1      50.852  71.405  40.889  1.00  0.00     0.293 HD
ENDBRANCH  17  22
ENDBRANCH   1  12
BRANCH   2  24
ATOM     24  O   UNL     1      53.952  73.450  43.770  1.00  0.00    -0.502 OA
ATOM     25  H   UNL     1      53.526  74.017  44.493  1.00  0.00     0.293 HD
ENDBRANCH   2  24
BRANCH   6  26
ATOM     26  O   UNL     1      58.378  74.878  46.369  1.00  0.00    -0.507 OA
ATOM     27  H   UNL     1      57.991  75.802  46.490  1.00  0.00     0.293 HD
ENDBRANCH   6  26
BRANCH   8  28
ATOM     28  O   UNL     1      61.703  73.463  43.207  1.00  0.00    -0.508 OA
ATOM     29  H   UNL     1      62.162  74.101  42.567  1.00  0.00     0.293 HD
ENDBRANCH   8  28
TORSDOF 7
ENDMDL
MODEL 8
REMARK VINA RESULT:    -5.413      4.592      7.403
REMARK INTER + INTRA:          -6.992
REMARK INTER:                  -6.729
REMARK INTRA:                  -0.264
REMARK UNBOUND:                -0.313
REMARK SMILES O=c1c(O)c(-c2cc(O)c(O)c(O)c2)oc2cc(O)cc(O)c12
REMARK SMILES IDX 5 1 3 2 2 3 1 4 23 5 21 6 20 7 18 8 17 9 16 10 15 11 6 12
REMARK SMILES IDX 7 13 8 14 14 15 10 16 12 17 9 18 11 20 13 22 4 24 22 26
REMARK SMILES IDX 19 28
REMARK H PARENT 9 19 11 21 13 23 4 25 22 27 19 29
REMARK Flexibility Score: inf
ROOT
ATOM      1  C   UNL     1      51.548  72.656  41.029  1.00  0.00     0.180 A 
ATOM      2  C   UNL     1      51.260  71.559  41.859  1.00  0.00     0.208 A 
ATOM      3  C   UNL     1      50.577  71.779  43.066  1.00  0.00     0.238 A 
ATOM      4  O   UNL     1      50.370  70.801  43.831  1.00  0.00    -0.285 OA
ATOM      5  C   UNL     1      50.177  73.090  43.421  1.00  0.00     0.111 A 
ATOM      6  C   UNL     1      49.445  73.423  44.600  1.00  0.00     0.134 A 
ATOM      7  C   UNL     1      49.217  74.769  44.913  1.00  0.00     0.093 A 
ATOM      8  C   UNL     1      49.637  75.790  44.057  1.00  0.00     0.123 A 
ATOM      9  C   UNL     1      50.300  75.471  42.874  1.00  0.00     0.094 A 
ATOM     10  C   UNL     1      50.574  74.140  42.551  1.00  0.00     0.146 A 
ATOM     11  O   UNL     1      51.217  73.881  41.420  1.00  0.00    -0.452 OA
ENDROOT
BRANCH   1  12
ATOM     12  C   UNL     1      52.242  72.500  39.731  1.00  0.00     0.029 A 
ATOM     13  C   UNL     1      51.512  72.615  38.538  1.00  0.00     0.062 A 
ATOM     14  C   UNL     1      52.142  72.450  37.298  1.00  0.00     0.162 A 
ATOM     15  C   UNL     1      53.609  72.181  39.667  1.00  0.00     0.062 A 
ATOM     16  C   UNL     1      53.509  72.153  37.240  1.00  0.00     0.200 A 
ATOM     17  C   UNL     1      54.246  72.015  38.428  1.00  0.00     0.162 A 
BRANCH  14  18
ATOM     18  O   UNL     1      51.414  72.580  36.116  1.00  0.00    -0.504 OA
ATOM     19  H   UNL     1      51.849  72.463  35.208  1.00  0.00     0.293 HD
ENDBRANCH  14  18
BRANCH  16  20
ATOM     20  O   UNL     1      54.121  71.996  35.995  1.00  0.00    -0.502 OA
ATOM     21  H   UNL     1      55.124  71.909  35.895  1.00  0.00     0.293 HD
ENDBRANCH  16  20
BRANCH  17  22
ATOM     22  O   UNL     1      55.604  71.705  38.376  1.00  0.00    -0.504 OA
ATOM     23  H   UNL     1      56.068  71.495  37.500  1.00  0.00     0.293 HD
ENDBRANCH  17  22
ENDBRANCH   1  12
BRANCH   2  24
ATOM     24  O   UNL     1      51.684  70.275  41.501  1.00  0.00    -0.502 OA
ATOM     25  H   UNL     1      51.294  69.439  41.917  1.00  0.00     0.293 HD
ENDBRANCH   2  24
BRANCH   6  26
ATOM     26  O   UNL     1      48.901  72.478  45.474  1.00  0.00    -0.507 OA
ATOM     27  H   UNL     1      48.604  71.551  45.206  1.00  0.00     0.293 HD
ENDBRANCH   6  26
BRANCH   8  28
ATOM     28  O   UNL     1      49.392  77.125  44.369  1.00  0.00    -0.508 OA
ATOM     29  H   UNL     1      49.300  77.830  43.647  1.00  0.00     0.293 HD
ENDBRANCH   8  28
TORSDOF 7
ENDMDL
MODEL 9
REMARK VINA RESULT:    -5.281      4.728      7.650
REMARK INTER + INTRA:          -6.828
REMARK INTER:                  -6.782
REMARK INTRA:                  -0.047
REMARK UNBOUND:                -0.313
REMARK SMILES O=c1c(O)c(-c2cc(O)c(O)c(O)c2)oc2cc(O)cc(O)c12
REMARK SMILES IDX 5 1 3 2 2 3 1 4 23 5 21 6 20 7 18 8 17 9 16 10 15 11 6 12
REMARK SMILES IDX 7 13 8 14 14 15 10 16 12 17 9 18 11 20 13 22 4 24 22 26
REMARK SMILES IDX 19 28
REMARK H PARENT 9 19 11 21 13 23 4 25 22 27 19 29
REMARK Flexibility Score: inf
ROOT
ATOM      1  C   UNL     1      51.102  73.056  41.210  1.00  0.00     0.180 A 
ATOM      2  C   UNL     1      50.501  74.303  41.453  1.00  0.00     0.208 A 
ATOM      3  C   UNL     1      49.909  74.543  42.703  1.00  0.00     0.238 A 
ATOM      4  O   UNL     1      49.326  75.642  42.896  1.00  0.00    -0.285 OA
ATOM      5  C   UNL     1      49.938  73.538  43.701  1.00  0.00     0.111 A 
ATOM      6  C   UNL     1      49.405  73.687  45.016  1.00  0.00     0.134 A 
ATOM      7  C   UNL     1      49.374  72.583  45.877  1.00  0.00     0.093 A 
ATOM      8  C   UNL     1      49.915  71.354  45.493  1.00  0.00     0.123 A 
ATOM      9  C   UNL     1      50.491  71.216  44.232  1.00  0.00     0.094 A 
ATOM     10  C   UNL     1      50.506  72.289  43.338  1.00  0.00     0.146 A 
ATOM     11  O   UNL     1      51.055  72.111  42.143  1.00  0.00    -0.452 OA
ENDROOT
BRANCH   1  12
ATOM     12  C   UNL     1      51.767  72.738  39.927  1.00  0.00     0.029 A 
ATOM     13  C   UNL     1      53.104  72.311  39.928  1.00  0.00     0.062 A 
ATOM     14  C   UNL     1      53.762  72.025  38.724  1.00  0.00     0.162 A 
ATOM     15  C   UNL     1      51.106  72.911  38.698  1.00  0.00     0.062 A 
ATOM     16  C   UNL     1      53.091  72.179  37.505  1.00  0.00     0.200 A 
ATOM     17  C   UNL     1      51.760  72.627  37.491  1.00  0.00     0.162 A 
BRANCH  14  18
ATOM     18  O   UNL     1      55.085  71.588  38.733  1.00  0.00    -0.504 OA
ATOM     19  H   UNL     1      55.432  70.929  38.046  1.00  0.00     0.293 HD
ENDBRANCH  14  18
BRANCH  16  20
ATOM     20  O   UNL     1      53.762  71.886  36.317  1.00  0.00    -0.502 OA
ATOM     21  H   UNL     1      53.442  71.167  35.681  1.00  0.00     0.293 HD
ENDBRANCH  16  20
BRANCH  17  22
ATOM     22  O   UNL     1      51.093  72.796  36.278  1.00  0.00    -0.504 OA
ATOM     23  H   UNL     1      50.893  73.716  35.905  1.00  0.00     0.293 HD
ENDBRANCH  17  22
ENDBRANCH   1  12
BRANCH   2  24
ATOM     24  O   UNL     1      50.464  75.274  40.446  1.00  0.00    -0.502 OA
ATOM     25  H   UNL     1      50.793  75.094  39.506  1.00  0.00     0.293 HD
ENDBRANCH   2  24
BRANCH   6  26
ATOM     26  O   UNL     1      48.924  74.894  45.532  1.00  0.00    -0.507 OA
ATOM     27  H   UNL     1      49.443  75.505  46.145  1.00  0.00     0.293 HD
ENDBRANCH   6  26
BRANCH   8  28
ATOM     28  O   UNL     1      49.893  70.265  46.361  1.00  0.00    -0.508 OA
ATOM     29  H   UNL     1      50.434  69.428  46.175  1.00  0.00     0.293 HD
ENDBRANCH   8  28
TORSDOF 7
ENDMDL
