MODEL 1
REMARK VINA RESULT:    -7.008      0.000      0.000
REMARK INTER + INTRA:          -7.213
REMARK INTER:                  -7.213
REMARK INTRA:                   0.000
REMARK UNBOUND:                 0.000
REMARK SMILES C=C1[C@H](O)C[C@]23C[C@H]1C(C)(C)[C@@H]2CC[C@H]3C
REMARK SMILES IDX 16 1 15 2 14 3 13 4 12 5 6 6 7 7 8 8 9 9 10 10 11 11 2 12
REMARK SMILES IDX 1 13 3 14 5 15 4 16
REMARK H PARENT 4 17
REMARK Flexibility Score: inf
ROOT
ATOM      1  C   UNL     1     136.520 130.696 135.874  1.00  0.00     0.008 C 
ATOM      2  C   UNL     1     135.527 129.643 135.349  1.00  0.00    -0.008 C 
ATOM      3  C   UNL     1     134.075 129.883 135.876  1.00  0.00     0.004 C 
ATOM      4  C   UNL     1     133.746 128.751 136.884  1.00  0.00     0.005 C 
ATOM      5  C   UNL     1     135.112 128.149 137.136  1.00  0.00     0.002 C 
ATOM      6  C   UNL     1     135.833 128.192 135.797  1.00  0.00    -0.020 C 
ATOM      7  C   UNL     1     137.207 127.708 136.246  1.00  0.00     0.016 C 
ATOM      8  C   UNL     1     136.791 126.423 137.014  1.00  0.00     0.023 C 
ATOM      9  C   UNL     1     135.457 126.792 137.782  1.00  0.00    -0.025 C 
ATOM     10  C   UNL     1     135.767 126.961 139.288  1.00  0.00     0.012 C 
ATOM     11  C   UNL     1     134.296 125.773 137.658  1.00  0.00     0.012 C 
ATOM     12  C   UNL     1     136.556 125.357 135.969  1.00  0.00    -0.045 C 
ATOM     13  C   UNL     1     136.910 124.083 136.198  1.00  0.00     0.011 C 
ATOM     14  C   UNL     1     135.873 125.742 134.675  1.00  0.00     0.140 C 
ATOM     15  C   UNL     1     135.275 127.188 134.697  1.00  0.00     0.044 C 
ENDROOT
BRANCH  14  16
ATOM     16  O   UNL     1     136.808 125.624 133.632  1.00  0.00    -0.389 OA
ATOM     17  H   UNL     1     136.311 125.310 132.832  1.00  0.00     0.211 HD
ENDBRANCH  14  16
TORSDOF 1
ENDMDL
MODEL 2
REMARK VINA RESULT:    -6.892      3.517      5.735
REMARK INTER + INTRA:          -7.094
REMARK INTER:                  -7.094
REMARK INTRA:                   0.000
REMARK UNBOUND:                 0.000
REMARK SMILES C=C1[C@H](O)C[C@]23C[C@H]1C(C)(C)[C@@H]2CC[C@H]3C
REMARK SMILES IDX 16 1 15 2 14 3 13 4 12 5 6 6 7 7 8 8 9 9 10 10 11 11 2 12
REMARK SMILES IDX 1 13 3 14 5 15 4 16
REMARK H PARENT 4 17
REMARK Flexibility Score: inf
ROOT
ATOM      1  C   UNL     1     129.967 126.773 137.936  1.00  0.00     0.008 C 
ATOM      2  C   UNL     1     130.935 127.398 138.957  1.00  0.00    -0.008 C 
ATOM      3  C   UNL     1     130.189 128.222 140.055  1.00  0.00     0.004 C 
ATOM      4  C   UNL     1     130.499 129.722 139.811  1.00  0.00     0.005 C 
ATOM      5  C   UNL     1     131.098 129.696 138.421  1.00  0.00     0.002 C 
ATOM      6  C   UNL     1     131.928 128.423 138.356  1.00  0.00    -0.020 C 
ATOM      7  C   UNL     1     132.324 128.468 136.884  1.00  0.00     0.016 C 
ATOM      8  C   UNL     1     132.876 129.919 136.807  1.00  0.00     0.023 C 
ATOM      9  C   UNL     1     131.912 130.794 137.707  1.00  0.00    -0.025 C 
ATOM     10  C   UNL     1     131.003 131.651 136.795  1.00  0.00     0.012 C 
ATOM     11  C   UNL     1     132.603 131.755 138.709  1.00  0.00     0.012 C 
ATOM     12  C   UNL     1     134.277 129.874 137.371  1.00  0.00    -0.045 C 
ATOM     13  C   UNL     1     135.255 130.622 136.837  1.00  0.00     0.011 C 
ATOM     14  C   UNL     1     134.551 129.003 138.577  1.00  0.00     0.140 C 
ATOM     15  C   UNL     1     133.251 128.435 139.238  1.00  0.00     0.044 C 
ENDROOT
BRANCH  14  16
ATOM     16  O   UNL     1     135.388 127.947 138.177  1.00  0.00    -0.389 OA
ATOM     17  H   UNL     1     136.288 128.337 138.019  1.00  0.00     0.211 HD
ENDBRANCH  14  16
TORSDOF 1
ENDMDL
MODEL 3
REMARK VINA RESULT:    -6.857      1.733      4.245
REMARK INTER + INTRA:          -7.057
REMARK INTER:                  -7.057
REMARK INTRA:                   0.000
REMARK UNBOUND:                 0.000
REMARK SMILES C=C1[C@H](O)C[C@]23C[C@H]1C(C)(C)[C@@H]2CC[C@H]3C
REMARK SMILES IDX 16 1 15 2 14 3 13 4 12 5 6 6 7 7 8 8 9 9 10 10 11 11 2 12
REMARK SMILES IDX 1 13 3 14 5 15 4 16
REMARK H PARENT 4 17
REMARK Flexibility Score: inf
ROOT
ATOM      1  C   UNL     1     136.344 125.451 134.376  1.00  0.00     0.008 C 
ATOM      2  C   UNL     1     136.899 126.461 135.396  1.00  0.00    -0.008 C 
ATOM      3  C   UNL     1     137.028 125.848 136.828  1.00  0.00     0.004 C 
ATOM      4  C   UNL     1     135.951 126.514 137.724  1.00  0.00     0.005 C 
ATOM      5  C   UNL     1     135.065 127.189 136.700  1.00  0.00     0.002 C 
ATOM      6  C   UNL     1     136.004 127.705 135.620  1.00  0.00    -0.020 C 
ATOM      7  C   UNL     1     134.969 128.205 134.618  1.00  0.00     0.016 C 
ATOM      8  C   UNL     1     134.098 129.082 135.560  1.00  0.00     0.023 C 
ATOM      9  C   UNL     1     134.003 128.284 136.924  1.00  0.00    -0.025 C 
ATOM     10  C   UNL     1     132.591 127.666 137.055  1.00  0.00     0.012 C 
ATOM     11  C   UNL     1     134.272 129.104 138.212  1.00  0.00     0.012 C 
ATOM     12  C   UNL     1     134.835 130.390 135.730  1.00  0.00    -0.045 C 
ATOM     13  C   UNL     1     134.164 131.551 135.799  1.00  0.00     0.011 C 
ATOM     14  C   UNL     1     136.342 130.368 135.866  1.00  0.00     0.140 C 
ATOM     15  C   UNL     1     136.924 128.927 136.054  1.00  0.00     0.044 C 
ENDROOT
BRANCH  14  16
ATOM     16  O   UNL     1     136.895 130.965 134.720  1.00  0.00    -0.389 OA
ATOM     17  H   UNL     1     136.794 130.313 133.978  1.00  0.00     0.211 HD
ENDBRANCH  14  16
TORSDOF 1
ENDMDL
MODEL 4
REMARK VINA RESULT:    -6.850      4.176      5.872
REMARK INTER + INTRA:          -7.050
REMARK INTER:                  -7.050
REMARK INTRA:                   0.000
REMARK UNBOUND:                 0.000
REMARK SMILES C=C1[C@H](O)C[C@]23C[C@H]1C(C)(C)[C@@H]2CC[C@H]3C
REMARK SMILES IDX 16 1 15 2 14 3 13 4 12 5 6 6 7 7 8 8 9 9 10 10 11 11 2 12
REMARK SMILES IDX 1 13 3 14 5 15 4 16
REMARK H PARENT 4 17
REMARK Flexibility Score: inf
ROOT
ATOM      1  C   UNL     1     131.251 132.184 137.004  1.00  0.00     0.008 C 
ATOM      2  C   UNL     1     132.457 131.433 137.597  1.00  0.00    -0.008 C 
ATOM      3  C   UNL     1     133.425 130.899 136.493  1.00  0.00     0.004 C 
ATOM      4  C   UNL     1     133.298 129.354 136.461  1.00  0.00     0.005 C 
ATOM      5  C   UNL     1     132.045 129.126 137.279  1.00  0.00     0.002 C 
ATOM      6  C   UNL     1     132.090 130.157 138.395  1.00  0.00    -0.020 C 
ATOM      7  C   UNL     1     130.720 129.902 139.015  1.00  0.00     0.016 C 
ATOM      8  C   UNL     1     130.801 128.361 139.198  1.00  0.00     0.023 C 
ATOM      9  C   UNL     1     131.537 127.813 137.908  1.00  0.00    -0.025 C 
ATOM     10  C   UNL     1     130.502 127.123 136.987  1.00  0.00     0.012 C 
ATOM     11  C   UNL     1     132.684 126.801 138.157  1.00  0.00     0.012 C 
ATOM     12  C   UNL     1     131.615 128.119 140.448  1.00  0.00    -0.045 C 
ATOM     13  C   UNL     1     131.301 127.121 141.288  1.00  0.00     0.011 C 
ATOM     14  C   UNL     1     132.819 128.996 140.716  1.00  0.00     0.140 C 
ATOM     15  C   UNL     1     133.204 129.906 139.501  1.00  0.00     0.044 C 
ENDROOT
BRANCH  14  16
ATOM     16  O   UNL     1     132.544 129.789 141.843  1.00  0.00    -0.389 OA
ATOM     17  H   UNL     1     133.180 130.551 141.822  1.00  0.00     0.211 HD
ENDBRANCH  14  16
TORSDOF 1
ENDMDL
MODEL 5
REMARK VINA RESULT:    -6.735      3.554      5.282
REMARK INTER + INTRA:          -6.932
REMARK INTER:                  -6.932
REMARK INTRA:                   0.000
REMARK UNBOUND:                 0.000
REMARK SMILES C=C1[C@H](O)C[C@]23C[C@H]1C(C)(C)[C@@H]2CC[C@H]3C
REMARK SMILES IDX 16 1 15 2 14 3 13 4 12 5 6 6 7 7 8 8 9 9 10 10 11 11 2 12
REMARK SMILES IDX 1 13 3 14 5 15 4 16
REMARK H PARENT 4 17
REMARK Flexibility Score: inf
ROOT
ATOM      1  C   UNL     1     135.734 129.394 135.084  1.00  0.00     0.008 C 
ATOM      2  C   UNL     1     134.985 130.672 135.501  1.00  0.00    -0.008 C 
ATOM      3  C   UNL     1     135.935 131.735 136.142  1.00  0.00     0.004 C 
ATOM      4  C   UNL     1     135.599 131.818 137.653  1.00  0.00     0.005 C 
ATOM      5  C   UNL     1     134.746 130.584 137.853  1.00  0.00     0.002 C 
ATOM      6  C   UNL     1     133.905 130.457 136.591  1.00  0.00    -0.020 C 
ATOM      7  C   UNL     1     133.237 129.117 136.879  1.00  0.00     0.016 C 
ATOM      8  C   UNL     1     132.695 129.399 138.308  1.00  0.00     0.023 C 
ATOM      9  C   UNL     1     133.821 130.239 139.038  1.00  0.00    -0.025 C 
ATOM     10  C   UNL     1     134.549 129.333 140.060  1.00  0.00     0.012 C 
ATOM     11  C   UNL     1     133.344 131.504 139.795  1.00  0.00     0.012 C 
ATOM     12  C   UNL     1     131.427 130.202 138.135  1.00  0.00    -0.045 C 
ATOM     13  C   UNL     1     130.373 130.001 138.941  1.00  0.00     0.011 C 
ATOM     14  C   UNL     1     131.379 131.269 137.062  1.00  0.00     0.140 C 
ATOM     15  C   UNL     1     132.776 131.563 136.419  1.00  0.00     0.044 C 
ENDROOT
BRANCH  14  16
ATOM     16  O   UNL     1     130.470 130.858 136.072  1.00  0.00    -0.389 OA
ATOM     17  H   UNL     1     129.609 131.313 136.265  1.00  0.00     0.211 HD
ENDBRANCH  14  16
TORSDOF 1
ENDMDL
MODEL 6
REMARK VINA RESULT:    -6.728      3.407      5.816
REMARK INTER + INTRA:          -6.924
REMARK INTER:                  -6.924
REMARK INTRA:                   0.000
REMARK UNBOUND:                 0.000
REMARK SMILES C=C1[C@H](O)C[C@]23C[C@H]1C(C)(C)[C@@H]2CC[C@H]3C
REMARK SMILES IDX 16 1 15 2 14 3 13 4 12 5 6 6 7 7 8 8 9 9 10 10 11 11 2 12
REMARK SMILES IDX 1 13 3 14 5 15 4 16
REMARK H PARENT 4 17
REMARK Flexibility Score: inf
ROOT
ATOM      1  C   UNL     1     134.383 125.580 138.270  1.00  0.00     0.008 C 
ATOM      2  C   UNL     1     134.334 126.864 139.118  1.00  0.00    -0.008 C 
ATOM      3  C   UNL     1     133.870 126.589 140.585  1.00  0.00     0.004 C 
ATOM      4  C   UNL     1     132.451 127.194 140.752  1.00  0.00     0.005 C 
ATOM      5  C   UNL     1     132.053 127.461 139.317  1.00  0.00     0.002 C 
ATOM      6  C   UNL     1     133.322 127.926 138.618  1.00  0.00    -0.020 C 
ATOM      7  C   UNL     1     132.798 127.999 137.188  1.00  0.00     0.016 C 
ATOM      8  C   UNL     1     131.523 128.857 137.423  1.00  0.00     0.023 C 
ATOM      9  C   UNL     1     130.907 128.347 138.789  1.00  0.00    -0.025 C 
ATOM     10  C   UNL     1     129.646 127.500 138.493  1.00  0.00     0.012 C 
ATOM     11  C   UNL     1     130.500 129.445 139.805  1.00  0.00     0.012 C 
ATOM     12  C   UNL     1     131.985 130.293 137.523  1.00  0.00    -0.045 C 
ATOM     13  C   UNL     1     131.250 131.287 137.000  1.00  0.00     0.011 C 
ATOM     14  C   UNL     1     133.271 130.596 138.260  1.00  0.00     0.140 C 
ATOM     15  C   UNL     1     133.838 129.367 139.046  1.00  0.00     0.044 C 
ENDROOT
BRANCH  14  16
ATOM     16  O   UNL     1     134.218 131.049 137.325  1.00  0.00    -0.389 OA
ATOM     17  H   UNL     1     133.879 131.910 136.965  1.00  0.00     0.211 HD
ENDBRANCH  14  16
TORSDOF 1
ENDMDL
MODEL 7
REMARK VINA RESULT:    -6.644      3.791      4.765
REMARK INTER + INTRA:          -6.838
REMARK INTER:                  -6.838
REMARK INTRA:                   0.000
REMARK UNBOUND:                 0.000
REMARK SMILES C=C1[C@H](O)C[C@]23C[C@H]1C(C)(C)[C@@H]2CC[C@H]3C
REMARK SMILES IDX 16 1 15 2 14 3 13 4 12 5 6 6 7 7 8 8 9 9 10 10 11 11 2 12
REMARK SMILES IDX 1 13 3 14 5 15 4 16
REMARK H PARENT 4 17
REMARK Flexibility Score: inf
ROOT
ATOM      1  C   UNL     1     134.907 131.223 136.140  1.00  0.00     0.008 C 
ATOM      2  C   UNL     1     133.514 130.570 136.181  1.00  0.00    -0.008 C 
ATOM      3  C   UNL     1     132.362 131.618 136.048  1.00  0.00     0.004 C 
ATOM      4  C   UNL     1     131.649 131.712 137.422  1.00  0.00     0.005 C 
ATOM      5  C   UNL     1     132.625 130.996 138.331  1.00  0.00     0.002 C 
ATOM      6  C   UNL     1     133.182 129.844 137.509  1.00  0.00    -0.020 C 
ATOM      7  C   UNL     1     134.234 129.334 138.489  1.00  0.00     0.016 C 
ATOM      8  C   UNL     1     133.356 129.199 139.764  1.00  0.00     0.023 C 
ATOM      9  C   UNL     1     132.386 130.450 139.754  1.00  0.00    -0.025 C 
ATOM     10  C   UNL     1     132.856 131.467 140.821  1.00  0.00     0.012 C 
ATOM     11  C   UNL     1     130.889 130.153 140.023  1.00  0.00     0.012 C 
ATOM     12  C   UNL     1     132.593 127.902 139.624  1.00  0.00    -0.045 C 
ATOM     13  C   UNL     1     132.366 127.122 140.692  1.00  0.00     0.011 C 
ATOM     14  C   UNL     1     132.050 127.518 138.265  1.00  0.00     0.140 C 
ATOM     15  C   UNL     1     132.154 128.669 137.209  1.00  0.00     0.044 C 
ENDROOT
BRANCH  14  16
ATOM     16  O   UNL     1     132.753 126.387 137.814  1.00  0.00    -0.389 OA
ATOM     17  H   UNL     1     133.713 126.638 137.782  1.00  0.00     0.211 HD
ENDBRANCH  14  16
TORSDOF 1
ENDMDL
MODEL 8
REMARK VINA RESULT:    -6.604      4.508      6.467
REMARK INTER + INTRA:          -6.797
REMARK INTER:                  -6.797
REMARK INTRA:                   0.000
REMARK UNBOUND:                 0.000
REMARK SMILES C=C1[C@H](O)C[C@]23C[C@H]1C(C)(C)[C@@H]2CC[C@H]3C
REMARK SMILES IDX 16 1 15 2 14 3 13 4 12 5 6 6 7 7 8 8 9 9 10 10 11 11 2 12
REMARK SMILES IDX 1 13 3 14 5 15 4 16
REMARK H PARENT 4 17
REMARK Flexibility Score: inf
ROOT
ATOM      1  C   UNL     1     129.361 127.398 138.508  1.00  0.00     0.008 C 
ATOM      2  C   UNL     1     130.618 127.903 137.777  1.00  0.00    -0.008 C 
ATOM      3  C   UNL     1     131.727 126.807 137.678  1.00  0.00     0.004 C 
ATOM      4  C   UNL     1     132.890 127.226 138.614  1.00  0.00     0.005 C 
ATOM      5  C   UNL     1     132.249 128.322 139.438  1.00  0.00     0.002 C 
ATOM      6  C   UNL     1     131.341 129.079 138.480  1.00  0.00    -0.020 C 
ATOM      7  C   UNL     1     130.672 130.021 139.475  1.00  0.00     0.016 C 
ATOM      8  C   UNL     1     131.934 130.596 140.177  1.00  0.00     0.023 C 
ATOM      9  C   UNL     1     132.935 129.379 140.327  1.00  0.00    -0.025 C 
ATOM     10  C   UNL     1     132.963 128.923 141.806  1.00  0.00     0.012 C 
ATOM     11  C   UNL     1     134.400 129.645 139.895  1.00  0.00     0.012 C 
ATOM     12  C   UNL     1     132.487 131.662 139.259  1.00  0.00    -0.045 C 
ATOM     13  C   UNL     1     133.016 132.789 139.758  1.00  0.00     0.011 C 
ATOM     14  C   UNL     1     132.474 131.417 137.766  1.00  0.00     0.140 C 
ATOM     15  C   UNL     1     132.094 129.948 137.382  1.00  0.00     0.044 C 
ENDROOT
BRANCH  14  16
ATOM     16  O   UNL     1     131.566 132.317 137.180  1.00  0.00    -0.389 OA
ATOM     17  H   UNL     1     131.941 132.571 136.296  1.00  0.00     0.211 HD
ENDBRANCH  14  16
TORSDOF 1
ENDMDL
MODEL 9
REMARK VINA RESULT:    -6.498      2.943      4.233
REMARK INTER + INTRA:          -6.688
REMARK INTER:                  -6.688
REMARK INTRA:                   0.000
REMARK UNBOUND:                 0.000
REMARK SMILES C=C1[C@H](O)C[C@]23C[C@H]1C(C)(C)[C@@H]2CC[C@H]3C
REMARK SMILES IDX 16 1 15 2 14 3 13 4 12 5 6 6 7 7 8 8 9 9 10 10 11 11 2 12
REMARK SMILES IDX 1 13 3 14 5 15 4 16
REMARK H PARENT 4 17
REMARK Flexibility Score: inf
ROOT
ATOM      1  C   UNL     1     133.129 132.362 139.524  1.00  0.00     0.008 C 
ATOM      2  C   UNL     1     133.088 131.653 138.158  1.00  0.00    -0.008 C 
ATOM      3  C   UNL     1     131.768 131.948 137.376  1.00  0.00     0.004 C 
ATOM      4  C   UNL     1     130.931 130.642 137.355  1.00  0.00     0.005 C 
ATOM      5  C   UNL     1     131.636 129.801 138.396  1.00  0.00     0.002 C 
ATOM      6  C   UNL     1     133.118 130.106 138.236  1.00  0.00    -0.020 C 
ATOM      7  C   UNL     1     133.656 129.321 139.427  1.00  0.00     0.016 C 
ATOM      8  C   UNL     1     132.977 127.948 139.162  1.00  0.00     0.023 C 
ATOM      9  C   UNL     1     131.520 128.283 138.642  1.00  0.00    -0.025 C 
ATOM     10  C   UNL     1     130.497 127.981 139.763  1.00  0.00     0.012 C 
ATOM     11  C   UNL     1     131.058 127.519 137.374  1.00  0.00     0.012 C 
ATOM     12  C   UNL     1     133.803 127.259 138.100  1.00  0.00    -0.045 C 
ATOM     13  C   UNL     1     134.009 125.934 138.146  1.00  0.00     0.011 C 
ATOM     14  C   UNL     1     134.359 128.083 136.959  1.00  0.00     0.140 C 
ATOM     15  C   UNL     1     133.784 129.538 136.909  1.00  0.00     0.044 C 
ENDROOT
BRANCH  14  16
ATOM     16  O   UNL     1     135.758 128.122 137.086  1.00  0.00    -0.389 OA
ATOM     17  H   UNL     1     136.128 128.206 136.168  1.00  0.00     0.211 HD
ENDBRANCH  14  16
TORSDOF 1
ENDMDL
