MODEL 1
REMARK VINA RESULT:    -3.591      0.000      0.000
REMARK INTER + INTRA:          -3.755
REMARK INTER:                  -3.800
REMARK INTRA:                   0.045
REMARK UNBOUND:                 0.045
REMARK SMILES O=C([O-])[C@@H]1CCC[NH2+]1
REMARK SMILES IDX 4 1 8 2 7 3 5 4 6 5 2 8 1 9 3 10
REMARK H PARENT 8 6 8 7
REMARK Flexibility Score: inf
ROOT
ATOM      1  C   UNL     1      23.108   2.519  40.710  1.00  0.00     0.229 C 
ATOM      2  N   UNL     1      22.322   2.905  39.532  1.00  0.00    -0.339 N 
ATOM      3  C   UNL     1      22.678   1.981  38.447  1.00  0.00     0.261 C 
ATOM      4  C   UNL     1      23.444   1.043  40.546  1.00  0.00     0.077 C 
ATOM      5  C   UNL     1      23.455   0.813  39.049  1.00  0.00     0.068 C 
ATOM      6  H   UNL     1      21.303   2.799  39.751  1.00  0.00     0.346 HD
ATOM      7  H   UNL     1      22.494   3.899  39.246  1.00  0.00     0.346 HD
ENDROOT
BRANCH   1   8
ATOM      8  C   UNL     1      24.365   3.348  40.829  1.00  0.00     0.099 C 
ATOM      9  O   UNL     1      24.926   3.485  41.949  1.00  0.00    -0.544 OA
ATOM     10  O   UNL     1      24.924   3.946  39.706  1.00  0.00    -0.544 OA
ENDBRANCH   1   8
TORSDOF 1
ENDMDL
MODEL 2
REMARK VINA RESULT:    -3.495      2.128      3.162
REMARK INTER + INTRA:          -3.654
REMARK INTER:                  -3.653
REMARK INTRA:                  -0.001
REMARK UNBOUND:                 0.045
REMARK SMILES O=C([O-])[C@@H]1CCC[NH2+]1
REMARK SMILES IDX 4 1 8 2 7 3 5 4 6 5 2 8 1 9 3 10
REMARK H PARENT 8 6 8 7
REMARK Flexibility Score: inf
ROOT
ATOM      1  C   UNL     1      23.553   2.331  39.352  1.00  0.00     0.229 C 
ATOM      2  N   UNL     1      22.750   3.216  40.206  1.00  0.00    -0.339 N 
ATOM      3  C   UNL     1      23.671   3.880  41.137  1.00  0.00     0.261 C 
ATOM      4  C   UNL     1      24.962   2.907  39.333  1.00  0.00     0.077 C 
ATOM      5  C   UNL     1      25.098   3.645  40.649  1.00  0.00     0.068 C 
ATOM      6  H   UNL     1      22.288   3.942  39.606  1.00  0.00     0.346 HD
ATOM      7  H   UNL     1      22.003   2.697  40.726  1.00  0.00     0.346 HD
ENDROOT
BRANCH   1   8
ATOM      8  C   UNL     1      23.557   0.915  39.877  1.00  0.00     0.099 C 
ATOM      9  O   UNL     1      24.007  -0.020  39.164  1.00  0.00    -0.544 OA
ATOM     10  O   UNL     1      23.085   0.635  41.154  1.00  0.00    -0.544 OA
ENDBRANCH   1   8
TORSDOF 1
ENDMDL
MODEL 3
REMARK VINA RESULT:    -3.472     17.024     17.836
REMARK INTER + INTRA:          -3.630
REMARK INTER:                  -3.535
REMARK INTRA:                  -0.095
REMARK UNBOUND:                 0.045
REMARK SMILES O=C([O-])[C@@H]1CCC[NH2+]1
REMARK SMILES IDX 4 1 8 2 7 3 5 4 6 5 2 8 1 9 3 10
REMARK H PARENT 8 6 8 7
REMARK Flexibility Score: inf
ROOT
ATOM      1  C   UNL     1      21.991  -2.856  56.845  1.00  0.00     0.229 C 
ATOM      2  N   UNL     1      21.346  -2.492  58.112  1.00  0.00    -0.339 N 
ATOM      3  C   UNL     1      21.163  -1.035  58.108  1.00  0.00     0.261 C 
ATOM      4  C   UNL     1      21.636  -1.763  55.846  1.00  0.00     0.077 C 
ATOM      5  C   UNL     1      21.407  -0.526  56.691  1.00  0.00     0.068 C 
ATOM      6  H   UNL     1      20.407  -2.955  58.162  1.00  0.00     0.346 HD
ATOM      7  H   UNL     1      21.905  -2.795  58.945  1.00  0.00     0.346 HD
ENDROOT
BRANCH   1   8
ATOM      8  C   UNL     1      23.489  -2.974  57.004  1.00  0.00     0.099 C 
ATOM      9  O   UNL     1      23.983  -3.267  58.124  1.00  0.00    -0.544 OA
ATOM     10  O   UNL     1      24.330  -2.781  55.914  1.00  0.00    -0.544 OA
ENDBRANCH   1   8
TORSDOF 1
ENDMDL
MODEL 4
REMARK VINA RESULT:    -3.406      2.173      2.734
REMARK INTER + INTRA:          -3.560
REMARK INTER:                  -3.463
REMARK INTRA:                  -0.097
REMARK UNBOUND:                 0.045
REMARK SMILES O=C([O-])[C@@H]1CCC[NH2+]1
REMARK SMILES IDX 4 1 8 2 7 3 5 4 6 5 2 8 1 9 3 10
REMARK H PARENT 8 6 8 7
REMARK Flexibility Score: inf
ROOT
ATOM      1  C   UNL     1      23.194   2.706  40.130  1.00  0.00     0.229 C 
ATOM      2  N   UNL     1      24.027   1.580  40.566  1.00  0.00    -0.339 N 
ATOM      3  C   UNL     1      23.679   0.426  39.726  1.00  0.00     0.261 C 
ATOM      4  C   UNL     1      22.820   2.435  38.679  1.00  0.00     0.077 C 
ATOM      5  C   UNL     1      22.850   0.926  38.547  1.00  0.00     0.068 C 
ATOM      6  H   UNL     1      25.036   1.822  40.414  1.00  0.00     0.346 HD
ATOM      7  H   UNL     1      23.894   1.356  41.581  1.00  0.00     0.346 HD
ENDROOT
BRANCH   1   8
ATOM      8  C   UNL     1      21.958   2.842  40.987  1.00  0.00     0.099 C 
ATOM      9  O   UNL     1      20.952   3.462  40.551  1.00  0.00    -0.544 OA
ATOM     10  O   UNL     1      21.912   2.270  42.253  1.00  0.00    -0.544 OA
ENDBRANCH   1   8
TORSDOF 1
ENDMDL
MODEL 5
REMARK VINA RESULT:    -3.397      2.136      2.770
REMARK INTER + INTRA:          -3.551
REMARK INTER:                  -3.455
REMARK INTRA:                  -0.096
REMARK UNBOUND:                 0.045
REMARK SMILES O=C([O-])[C@@H]1CCC[NH2+]1
REMARK SMILES IDX 4 1 8 2 7 3 5 4 6 5 2 8 1 9 3 10
REMARK H PARENT 8 6 8 7
REMARK Flexibility Score: inf
ROOT
ATOM      1  C   UNL     1      22.912   2.714  40.262  1.00  0.00     0.229 C 
ATOM      2  N   UNL     1      23.401   3.943  40.899  1.00  0.00    -0.339 N 
ATOM      3  C   UNL     1      24.815   4.095  40.531  1.00  0.00     0.261 C 
ATOM      4  C   UNL     1      23.798   2.472  39.047  1.00  0.00     0.077 C 
ATOM      5  C   UNL     1      25.121   3.122  39.397  1.00  0.00     0.068 C 
ATOM      6  H   UNL     1      22.861   4.760  40.525  1.00  0.00     0.346 HD
ATOM      7  H   UNL     1      23.287   3.924  41.941  1.00  0.00     0.346 HD
ENDROOT
BRANCH   1   8
ATOM      8  C   UNL     1      22.969   1.542  41.212  1.00  0.00     0.099 C 
ATOM      9  O   UNL     1      22.634   1.689  42.417  1.00  0.00    -0.544 OA
ATOM     10  O   UNL     1      23.370   0.289  40.762  1.00  0.00    -0.544 OA
ENDBRANCH   1   8
TORSDOF 1
ENDMDL
MODEL 6
REMARK VINA RESULT:    -3.362     15.951     16.814
REMARK INTER + INTRA:          -3.514
REMARK INTER:                  -3.418
REMARK INTRA:                  -0.096
REMARK UNBOUND:                 0.045
REMARK SMILES O=C([O-])[C@@H]1CCC[NH2+]1
REMARK SMILES IDX 4 1 8 2 7 3 5 4 6 5 2 8 1 9 3 10
REMARK H PARENT 8 6 8 7
REMARK Flexibility Score: inf
ROOT
ATOM      1  C   UNL     1      23.463  -2.273  55.478  1.00  0.00     0.229 C 
ATOM      2  N   UNL     1      22.337  -1.657  56.191  1.00  0.00    -0.339 N 
ATOM      3  C   UNL     1      22.161  -2.393  57.450  1.00  0.00     0.261 C 
ATOM      4  C   UNL     1      24.337  -2.935  56.534  1.00  0.00     0.077 C 
ATOM      5  C   UNL     1      23.389  -3.271  57.667  1.00  0.00     0.068 C 
ATOM      6  H   UNL     1      22.576  -0.659  56.409  1.00  0.00     0.346 HD
ATOM      7  H   UNL     1      21.454  -1.667  55.626  1.00  0.00     0.346 HD
ENDROOT
BRANCH   1   8
ATOM      8  C   UNL     1      22.985  -3.285  54.464  1.00  0.00     0.099 C 
ATOM      9  O   UNL     1      21.853  -3.152  53.926  1.00  0.00    -0.544 OA
ATOM     10  O   UNL     1      23.793  -4.356  54.101  1.00  0.00    -0.544 OA
ENDBRANCH   1   8
TORSDOF 1
ENDMDL
MODEL 7
REMARK VINA RESULT:    -3.252     17.015     17.801
REMARK INTER + INTRA:          -3.397
REMARK INTER:                  -3.301
REMARK INTRA:                  -0.096
REMARK UNBOUND:                 0.045
REMARK SMILES O=C([O-])[C@@H]1CCC[NH2+]1
REMARK SMILES IDX 4 1 8 2 7 3 5 4 6 5 2 8 1 9 3 10
REMARK H PARENT 8 6 8 7
REMARK Flexibility Score: inf
ROOT
ATOM      1  C   UNL     1      22.367  -2.181  57.626  1.00  0.00     0.229 C 
ATOM      2  N   UNL     1      20.966  -2.270  58.053  1.00  0.00    -0.339 N 
ATOM      3  C   UNL     1      20.483  -3.609  57.690  1.00  0.00     0.261 C 
ATOM      4  C   UNL     1      22.903  -3.606  57.589  1.00  0.00     0.077 C 
ATOM      5  C   UNL     1      21.687  -4.469  57.322  1.00  0.00     0.068 C 
ATOM      6  H   UNL     1      20.918  -2.160  59.095  1.00  0.00     0.346 HD
ATOM      7  H   UNL     1      20.369  -1.527  57.618  1.00  0.00     0.346 HD
ENDROOT
BRANCH   1   8
ATOM      8  C   UNL     1      22.490  -1.524  56.272  1.00  0.00     0.099 C 
ATOM      9  O   UNL     1      21.729  -0.568  55.963  1.00  0.00    -0.544 OA
ATOM     10  O   UNL     1      23.452  -1.951  55.365  1.00  0.00    -0.544 OA
ENDBRANCH   1   8
TORSDOF 1
ENDMDL
MODEL 8
REMARK VINA RESULT:    -3.239      9.569     10.709
REMARK INTER + INTRA:          -3.384
REMARK INTER:                  -3.286
REMARK INTRA:                  -0.098
REMARK UNBOUND:                 0.045
REMARK SMILES O=C([O-])[C@@H]1CCC[NH2+]1
REMARK SMILES IDX 4 1 8 2 7 3 5 4 6 5 2 8 1 9 3 10
REMARK H PARENT 8 6 8 7
REMARK Flexibility Score: inf
ROOT
ATOM      1  C   UNL     1      30.363   6.266  47.485  1.00  0.00     0.229 C 
ATOM      2  N   UNL     1      29.085   6.096  48.187  1.00  0.00    -0.339 N 
ATOM      3  C   UNL     1      29.269   5.031  49.180  1.00  0.00     0.261 C 
ATOM      4  C   UNL     1      31.449   5.780  48.435  1.00  0.00     0.077 C 
ATOM      5  C   UNL     1      30.764   4.755  49.315  1.00  0.00     0.068 C 
ATOM      6  H   UNL     1      28.847   6.989  48.683  1.00  0.00     0.346 HD
ATOM      7  H   UNL     1      28.299   5.865  47.533  1.00  0.00     0.346 HD
ENDROOT
BRANCH   1   8
ATOM      8  C   UNL     1      30.389   5.485  46.192  1.00  0.00     0.099 C 
ATOM      9  O   UNL     1      31.481   5.047  45.742  1.00  0.00    -0.544 OA
ATOM     10  O   UNL     1      29.212   5.226  45.501  1.00  0.00    -0.544 OA
ENDBRANCH   1   8
TORSDOF 1
ENDMDL
MODEL 9
REMARK VINA RESULT:    -3.224     16.924     17.788
REMARK INTER + INTRA:          -3.367
REMARK INTER:                  -3.271
REMARK INTRA:                  -0.096
REMARK UNBOUND:                 0.045
REMARK SMILES O=C([O-])[C@@H]1CCC[NH2+]1
REMARK SMILES IDX 4 1 8 2 7 3 5 4 6 5 2 8 1 9 3 10
REMARK H PARENT 8 6 8 7
REMARK Flexibility Score: inf
ROOT
ATOM      1  C   UNL     1      21.825  -2.032  56.880  1.00  0.00     0.229 C 
ATOM      2  N   UNL     1      22.388  -2.567  58.125  1.00  0.00    -0.339 N 
ATOM      3  C   UNL     1      23.638  -3.256  57.779  1.00  0.00     0.261 C 
ATOM      4  C   UNL     1      22.991  -1.846  55.919  1.00  0.00     0.077 C 
ATOM      5  C   UNL     1      24.017  -2.872  56.352  1.00  0.00     0.068 C 
ATOM      6  H   UNL     1      22.604  -1.771  58.772  1.00  0.00     0.346 HD
ATOM      7  H   UNL     1      21.727  -3.217  58.614  1.00  0.00     0.346 HD
ENDROOT
BRANCH   1   8
ATOM      8  C   UNL     1      20.791  -2.966  56.297  1.00  0.00     0.099 C 
ATOM      9  O   UNL     1      20.678  -3.080  55.048  1.00  0.00    -0.544 OA
ATOM     10  O   UNL     1      19.972  -3.720  57.129  1.00  0.00    -0.544 OA
ENDBRANCH   1   8
TORSDOF 1
ENDMDL
