MODEL 1
REMARK VINA RESULT:    -3.194      0.000      0.000
REMARK INTER + INTRA:          -3.771
REMARK INTER:                  -3.755
REMARK INTRA:                  -0.016
REMARK UNBOUND:                -0.016
REMARK SMILES CCCCC(=O)[O-]
REMARK SMILES IDX 4 1 5 2 6 3 7 4 3 5 2 6 1 7
REMARK H PARENT
REMARK Flexibility Score: inf
ROOT
ATOM      1  C   UNL     1      -1.540 -10.283  -4.147  1.00  0.00     0.053 C 
ENDROOT
BRANCH   1   2
ATOM      2  C   UNL     1      -1.772  -9.598  -2.835  1.00  0.00     0.041 C 
ATOM      3  O   UNL     1      -1.622  -8.352  -2.734  1.00  0.00    -0.550 OA
ATOM      4  O   UNL     1      -2.123 -10.341  -1.715  1.00  0.00    -0.550 OA
ENDBRANCH   1   2
BRANCH   1   5
ATOM      5  C   UNL     1      -0.080 -10.163  -4.600  1.00  0.00     0.006 C 
BRANCH   5   6
ATOM      6  C   UNL     1       0.214 -11.015  -5.843  1.00  0.00    -0.003 C 
ATOM      7  C   UNL     1       1.716 -11.201  -6.039  1.00  0.00     0.004 C 
ENDBRANCH   5   6
ENDBRANCH   1   5
TORSDOF 3
ENDMDL
MODEL 2
REMARK VINA RESULT:    -3.113     13.330     13.998
REMARK INTER + INTRA:          -3.675
REMARK INTER:                  -3.651
REMARK INTRA:                  -0.024
REMARK UNBOUND:                -0.016
REMARK SMILES CCCCC(=O)[O-]
REMARK SMILES IDX 4 1 5 2 6 3 7 4 3 5 2 6 1 7
REMARK H PARENT
REMARK Flexibility Score: inf
ROOT
ATOM      1  C   UNL     1      -1.085   3.112  -8.083  1.00  0.00     0.053 C 
ENDROOT
BRANCH   1   2
ATOM      2  C   UNL     1      -0.044   2.056  -7.871  1.00  0.00     0.041 C 
ATOM      3  O   UNL     1       0.582   1.576  -8.852  1.00  0.00    -0.550 OA
ATOM      4  O   UNL     1       0.213   1.581  -6.591  1.00  0.00    -0.550 OA
ENDBRANCH   1   2
BRANCH   1   5
ATOM      5  C   UNL     1      -1.821   2.924  -9.416  1.00  0.00     0.006 C 
BRANCH   5   6
ATOM      6  C   UNL     1      -3.347   2.978  -9.249  1.00  0.00    -0.003 C 
ATOM      7  C   UNL     1      -3.818   4.399  -8.955  1.00  0.00     0.004 C 
ENDBRANCH   5   6
ENDBRANCH   1   5
TORSDOF 3
ENDMDL
MODEL 3
REMARK VINA RESULT:    -3.105     13.869     14.530
REMARK INTER + INTRA:          -3.666
REMARK INTER:                  -3.638
REMARK INTRA:                  -0.028
REMARK UNBOUND:                -0.016
REMARK SMILES CCCCC(=O)[O-]
REMARK SMILES IDX 4 1 5 2 6 3 7 4 3 5 2 6 1 7
REMARK H PARENT
REMARK Flexibility Score: inf
ROOT
ATOM      1  C   UNL     1      -1.243   3.020  -8.175  1.00  0.00     0.053 C 
ENDROOT
BRANCH   1   2
ATOM      2  C   UNL     1      -0.073   2.110  -7.961  1.00  0.00     0.041 C 
ATOM      3  O   UNL     1       0.638   1.750  -8.935  1.00  0.00    -0.550 OA
ATOM      4  O   UNL     1       0.215   1.635  -6.687  1.00  0.00    -0.550 OA
ENDBRANCH   1   2
BRANCH   1   5
ATOM      5  C   UNL     1      -0.797   4.447  -8.517  1.00  0.00     0.006 C 
BRANCH   5   6
ATOM      6  C   UNL     1      -1.972   5.436  -8.526  1.00  0.00    -0.003 C 
ATOM      7  C   UNL     1      -3.275   4.739  -8.906  1.00  0.00     0.004 C 
ENDBRANCH   5   6
ENDBRANCH   1   5
TORSDOF 3
ENDMDL
MODEL 4
REMARK VINA RESULT:    -3.076     14.162     14.672
REMARK INTER + INTRA:          -3.632
REMARK INTER:                  -3.588
REMARK INTRA:                  -0.044
REMARK UNBOUND:                -0.016
REMARK SMILES CCCCC(=O)[O-]
REMARK SMILES IDX 4 1 5 2 6 3 7 4 3 5 2 6 1 7
REMARK H PARENT
REMARK Flexibility Score: inf
ROOT
ATOM      1  C   UNL     1      -4.251   2.656  -9.418  1.00  0.00     0.053 C 
ENDROOT
BRANCH   1   2
ATOM      2  C   UNL     1      -5.602   2.081  -9.121  1.00  0.00     0.041 C 
ATOM      3  O   UNL     1      -6.243   1.471 -10.016  1.00  0.00    -0.550 OA
ATOM      4  O   UNL     1      -6.166   2.247  -7.862  1.00  0.00    -0.550 OA
ENDBRANCH   1   2
BRANCH   1   5
ATOM      5  C   UNL     1      -4.156   4.129  -9.000  1.00  0.00     0.006 C 
BRANCH   5   6
ATOM      6  C   UNL     1      -2.708   4.564  -8.733  1.00  0.00    -0.003 C 
ATOM      7  C   UNL     1      -1.793   3.355  -8.558  1.00  0.00     0.004 C 
ENDBRANCH   5   6
ENDBRANCH   1   5
TORSDOF 3
ENDMDL
MODEL 5
REMARK VINA RESULT:    -3.061     13.741     14.253
REMARK INTER + INTRA:          -3.614
REMARK INTER:                  -3.518
REMARK INTRA:                  -0.096
REMARK UNBOUND:                -0.016
REMARK SMILES CCCCC(=O)[O-]
REMARK SMILES IDX 4 1 5 2 6 3 7 4 3 5 2 6 1 7
REMARK H PARENT
REMARK Flexibility Score: inf
ROOT
ATOM      1  C   UNL     1      -0.941   3.818  -8.575  1.00  0.00     0.053 C 
ENDROOT
BRANCH   1   2
ATOM      2  C   UNL     1      -2.428   3.826  -8.758  1.00  0.00     0.041 C 
ATOM      3  O   UNL     1      -3.013   2.825  -9.248  1.00  0.00    -0.550 OA
ATOM      4  O   UNL     1      -3.165   4.953  -8.415  1.00  0.00    -0.550 OA
ENDBRANCH   1   2
BRANCH   1   5
ATOM      5  C   UNL     1      -0.467   2.555  -7.846  1.00  0.00     0.006 C 
BRANCH   5   6
ATOM      6  C   UNL     1       0.246   1.574  -8.788  1.00  0.00    -0.003 C 
ATOM      7  C   UNL     1       0.774   2.289 -10.029  1.00  0.00     0.004 C 
ENDBRANCH   5   6
ENDBRANCH   1   5
TORSDOF 3
ENDMDL
MODEL 6
REMARK VINA RESULT:    -3.060     14.277     14.785
REMARK INTER + INTRA:          -3.612
REMARK INTER:                  -3.587
REMARK INTRA:                  -0.025
REMARK UNBOUND:                -0.016
REMARK SMILES CCCCC(=O)[O-]
REMARK SMILES IDX 4 1 5 2 6 3 7 4 3 5 2 6 1 7
REMARK H PARENT
REMARK Flexibility Score: inf
ROOT
ATOM      1  C   UNL     1      -2.594   3.364  -8.950  1.00  0.00     0.053 C 
ENDROOT
BRANCH   1   2
ATOM      2  C   UNL     1      -3.557   4.504  -8.819  1.00  0.00     0.041 C 
ATOM      3  O   UNL     1      -3.155   5.632  -8.429  1.00  0.00    -0.550 OA
ATOM      4  O   UNL     1      -4.904   4.313  -9.098  1.00  0.00    -0.550 OA
ENDBRANCH   1   2
BRANCH   1   5
ATOM      5  C   UNL     1      -1.194   3.743  -8.453  1.00  0.00     0.006 C 
BRANCH   5   6
ATOM      6  C   UNL     1      -0.448   2.545  -7.849  1.00  0.00    -0.003 C 
ATOM      7  C   UNL     1       0.189   1.686  -8.938  1.00  0.00     0.004 C 
ENDBRANCH   5   6
ENDBRANCH   1   5
TORSDOF 3
ENDMDL
MODEL 7
REMARK VINA RESULT:    -2.838     13.836     14.530
REMARK INTER + INTRA:          -3.352
REMARK INTER:                  -3.318
REMARK INTRA:                  -0.034
REMARK UNBOUND:                -0.016
REMARK SMILES CCCCC(=O)[O-]
REMARK SMILES IDX 4 1 5 2 6 3 7 4 3 5 2 6 1 7
REMARK H PARENT
REMARK Flexibility Score: inf
ROOT
ATOM      1  C   UNL     1      -0.586   3.157  -8.558  1.00  0.00     0.053 C 
ENDROOT
BRANCH   1   2
ATOM      2  C   UNL     1      -0.006   1.843  -8.986  1.00  0.00     0.041 C 
ATOM      3  O   UNL     1       0.553   1.092  -8.145  1.00  0.00    -0.550 OA
ATOM      4  O   UNL     1      -0.057   1.463 -10.322  1.00  0.00    -0.550 OA
ENDBRANCH   1   2
BRANCH   1   5
ATOM      5  C   UNL     1      -2.104   3.204  -8.772  1.00  0.00     0.006 C 
BRANCH   5   6
ATOM      6  C   UNL     1      -2.615   4.635  -8.989  1.00  0.00    -0.003 C 
ATOM      7  C   UNL     1      -1.665   5.658  -8.374  1.00  0.00     0.004 C 
ENDBRANCH   5   6
ENDBRANCH   1   5
TORSDOF 3
ENDMDL
MODEL 8
REMARK VINA RESULT:    -2.747     14.679     15.283
REMARK INTER + INTRA:          -3.245
REMARK INTER:                  -3.157
REMARK INTRA:                  -0.089
REMARK UNBOUND:                -0.016
REMARK SMILES CCCCC(=O)[O-]
REMARK SMILES IDX 4 1 5 2 6 3 7 4 3 5 2 6 1 7
REMARK H PARENT
REMARK Flexibility Score: inf
ROOT
ATOM      1  C   UNL     1      -2.778   3.022  -9.076  1.00  0.00     0.053 C 
ENDROOT
BRANCH   1   2
ATOM      2  C   UNL     1      -2.456   4.392  -8.562  1.00  0.00     0.041 C 
ATOM      3  O   UNL     1      -3.376   5.226  -8.357  1.00  0.00    -0.550 OA
ATOM      4  O   UNL     1      -1.134   4.758  -8.339  1.00  0.00    -0.550 OA
ENDBRANCH   1   2
BRANCH   1   5
ATOM      5  C   UNL     1      -4.105   3.002  -9.844  1.00  0.00     0.006 C 
BRANCH   5   6
ATOM      6  C   UNL     1      -5.198   2.228  -9.093  1.00  0.00    -0.003 C 
ATOM      7  C   UNL     1      -6.474   3.057  -8.971  1.00  0.00     0.004 C 
ENDBRANCH   5   6
ENDBRANCH   1   5
TORSDOF 3
ENDMDL
MODEL 9
REMARK VINA RESULT:    -2.723     15.040     15.621
REMARK INTER + INTRA:          -3.217
REMARK INTER:                  -3.136
REMARK INTRA:                  -0.081
REMARK UNBOUND:                -0.016
REMARK SMILES CCCCC(=O)[O-]
REMARK SMILES IDX 4 1 5 2 6 3 7 4 3 5 2 6 1 7
REMARK H PARENT
REMARK Flexibility Score: inf
ROOT
ATOM      1  C   UNL     1      -0.623   4.300  -8.848  1.00  0.00     0.053 C 
ENDROOT
BRANCH   1   2
ATOM      2  C   UNL     1      -0.975   5.672  -8.362  1.00  0.00     0.041 C 
ATOM      3  O   UNL     1      -0.070   6.469  -7.998  1.00  0.00    -0.550 OA
ATOM      4  O   UNL     1      -2.306   6.062  -8.282  1.00  0.00    -0.550 OA
ENDBRANCH   1   2
BRANCH   1   5
ATOM      5  C   UNL     1      -1.689   3.269  -8.457  1.00  0.00     0.006 C 
BRANCH   5   6
ATOM      6  C   UNL     1      -2.460   2.742  -9.676  1.00  0.00    -0.003 C 
ATOM      7  C   UNL     1      -3.962   2.716  -9.407  1.00  0.00     0.004 C 
ENDBRANCH   5   6
ENDBRANCH   1   5
TORSDOF 3
ENDMDL
