MODEL 1
REMARK VINA RESULT:    -4.216      0.000      0.000
REMARK INTER + INTRA:          -6.888
REMARK INTER:                  -6.064
REMARK INTRA:                  -0.823
REMARK UNBOUND:                -0.823
REMARK SMILES O=C(CO)[C@H](O)[C@@H](O)[C@H](O)CO
REMARK SMILES IDX 7 1 9 2 11 3 12 4 10 6 5 8 2 9 1 10 3 11 4 12 6 14 8 16
REMARK H PARENT 12 5 10 7 4 13 6 15 8 17
REMARK Flexibility Score: inf
ROOT
ATOM      1  C   UNL     1      17.703  11.155   2.319  1.00  0.00     0.181 C 
ENDROOT
BRANCH   1   2
ATOM      2  C   UNL     1      16.834   9.876   2.165  1.00  0.00     0.171 C 
BRANCH   2   3
ATOM      3  C   UNL     1      17.697   8.629   1.892  1.00  0.00     0.190 C 
BRANCH   3   4
ATOM      4  O   UNL     1      18.483   8.322   3.012  1.00  0.00    -0.394 OA
ATOM      5  H   UNL     1      19.430   8.413   2.728  1.00  0.00     0.210 HD
ENDBRANCH   3   4
ENDBRANCH   2   3
BRANCH   2   6
ATOM      6  O   UNL     1      16.000   9.682   3.283  1.00  0.00    -0.388 OA
ATOM      7  H   UNL     1      16.578   9.559   4.080  1.00  0.00     0.211 HD
ENDBRANCH   2   6
ENDBRANCH   1   2
BRANCH   1   8
ATOM      8  C   UNL     1      17.757  11.675   3.781  1.00  0.00     0.214 C 
BRANCH   8   9
ATOM      9  C   UNL     1      18.299  13.084   3.852  1.00  0.00     0.189 C 
ATOM     10  O   UNL     1      18.981  13.418   4.809  1.00  0.00    -0.294 OA
BRANCH   9  11
ATOM     11  C   UNL     1      18.008  14.093   2.773  1.00  0.00     0.234 C 
BRANCH  11  12
ATOM     12  O   UNL     1      18.936  15.141   2.828  1.00  0.00    -0.388 OA
ATOM     13  H   UNL     1      19.223  15.216   3.775  1.00  0.00     0.211 HD
ENDBRANCH  11  12
ENDBRANCH   9  11
ENDBRANCH   8   9
BRANCH   8  14
ATOM     14  O   UNL     1      18.575  10.839   4.559  1.00  0.00    -0.382 OA
ATOM     15  H   UNL     1      19.022  10.207   3.939  1.00  0.00     0.211 HD
ENDBRANCH   8  14
ENDBRANCH   1   8
BRANCH   1  16
ATOM     16  O   UNL     1      19.001  10.942   1.815  1.00  0.00    -0.387 OA
ATOM     17  H   UNL     1      19.591  11.652   2.179  1.00  0.00     0.211 HD
ENDBRANCH   1  16
TORSDOF 10
ENDMDL
MODEL 2
REMARK VINA RESULT:    -4.110      1.467      2.066
REMARK INTER + INTRA:          -6.736
REMARK INTER:                  -5.279
REMARK INTRA:                  -1.457
REMARK UNBOUND:                -0.823
REMARK SMILES O=C(CO)[C@H](O)[C@@H](O)[C@H](O)CO
REMARK SMILES IDX 7 1 9 2 11 3 12 4 10 6 5 8 2 9 1 10 3 11 4 12 6 14 8 16
REMARK H PARENT 12 5 10 7 4 13 6 15 8 17
REMARK Flexibility Score: inf
ROOT
ATOM      1  C   UNL     1      17.336  10.604   1.892  1.00  0.00     0.181 C 
ENDROOT
BRANCH   1   2
ATOM      2  C   UNL     1      17.680   9.255   2.581  1.00  0.00     0.171 C 
BRANCH   2   3
ATOM      3  C   UNL     1      17.779   8.103   1.561  1.00  0.00     0.190 C 
BRANCH   3   4
ATOM      4  O   UNL     1      17.799   8.606   0.253  1.00  0.00    -0.394 OA
ATOM      5  H   UNL     1      18.696   8.397  -0.118  1.00  0.00     0.210 HD
ENDBRANCH   3   4
ENDBRANCH   2   3
BRANCH   2   6
ATOM      6  O   UNL     1      18.854   9.353   3.351  1.00  0.00    -0.388 OA
ATOM      7  H   UNL     1      19.185  10.287   3.289  1.00  0.00     0.211 HD
ENDBRANCH   2   6
ENDBRANCH   1   2
BRANCH   1   8
ATOM      8  C   UNL     1      16.633  11.606   2.848  1.00  0.00     0.214 C 
BRANCH   8   9
ATOM      9  C   UNL     1      17.367  12.926   2.908  1.00  0.00     0.189 C 
ATOM     10  O   UNL     1      17.213  13.740   2.011  1.00  0.00    -0.294 OA
BRANCH   9  11
ATOM     11  C   UNL     1      18.297  13.256   4.046  1.00  0.00     0.234 C 
BRANCH  11  12
ATOM     12  O   UNL     1      19.264  12.252   4.187  1.00  0.00    -0.388 OA
ATOM     13  H   UNL     1      19.553  12.006   3.270  1.00  0.00     0.211 HD
ENDBRANCH  11  12
ENDBRANCH   9  11
ENDBRANCH   8   9
BRANCH   8  14
ATOM     14  O   UNL     1      16.569  11.069   4.144  1.00  0.00    -0.382 OA
ATOM     15  H   UNL     1      16.714  10.091   4.064  1.00  0.00     0.211 HD
ENDBRANCH   8  14
ENDBRANCH   1   8
BRANCH   1  16
ATOM     16  O   UNL     1      18.485  11.181   1.318  1.00  0.00    -0.387 OA
ATOM     17  H   UNL     1      18.345  12.162   1.273  1.00  0.00     0.211 HD
ENDBRANCH   1  16
TORSDOF 10
ENDMDL
MODEL 3
REMARK VINA RESULT:    -3.917      1.769      4.490
REMARK INTER + INTRA:          -6.458
REMARK INTER:                  -5.245
REMARK INTRA:                  -1.212
REMARK UNBOUND:                -0.823
REMARK SMILES O=C(CO)[C@H](O)[C@@H](O)[C@H](O)CO
REMARK SMILES IDX 7 1 9 2 11 3 12 4 10 6 5 8 2 9 1 10 3 11 4 12 6 14 8 16
REMARK H PARENT 12 5 10 7 4 13 6 15 8 17
REMARK Flexibility Score: inf
ROOT
ATOM      1  C   UNL     1      17.594  10.458   3.268  1.00  0.00     0.181 C 
ENDROOT
BRANCH   1   2
ATOM      2  C   UNL     1      17.381  11.915   3.765  1.00  0.00     0.171 C 
BRANCH   2   3
ATOM      3  C   UNL     1      18.702  12.558   4.230  1.00  0.00     0.190 C 
BRANCH   3   4
ATOM      4  O   UNL     1      19.595  12.675   3.156  1.00  0.00    -0.394 OA
ATOM      5  H   UNL     1      19.609  11.793   2.701  1.00  0.00     0.210 HD
ENDBRANCH   3   4
ENDBRANCH   2   3
BRANCH   2   6
ATOM      6  O   UNL     1      16.747  12.706   2.788  1.00  0.00    -0.388 OA
ATOM      7  H   UNL     1      17.198  13.589   2.767  1.00  0.00     0.211 HD
ENDBRANCH   2   6
ENDBRANCH   1   2
BRANCH   1   8
ATOM      8  C   UNL     1      17.380  10.307   1.737  1.00  0.00     0.214 C 
BRANCH   8   9
ATOM      9  C   UNL     1      17.446   8.860   1.306  1.00  0.00     0.189 C 
ATOM     10  O   UNL     1      17.814   8.011   2.105  1.00  0.00    -0.294 OA
BRANCH   9  11
ATOM     11  C   UNL     1      17.082   8.440  -0.093  1.00  0.00     0.234 C 
BRANCH  11  12
ATOM     12  O   UNL     1      18.048   8.894  -1.001  1.00  0.00    -0.388 OA
ATOM     13  H   UNL     1      18.030   8.268  -1.771  1.00  0.00     0.211 HD
ENDBRANCH  11  12
ENDBRANCH   9  11
ENDBRANCH   8   9
BRANCH   8  14
ATOM     14  O   UNL     1      18.363  11.028   1.040  1.00  0.00    -0.382 OA
ATOM     15  H   UNL     1      19.154  10.435   0.950  1.00  0.00     0.211 HD
ENDBRANCH   8  14
ENDBRANCH   1   8
BRANCH   1  16
ATOM     16  O   UNL     1      18.865   9.981   3.646  1.00  0.00    -0.387 OA
ATOM     17  H   UNL     1      19.475  10.091   2.871  1.00  0.00     0.211 HD
ENDBRANCH   1  16
TORSDOF 10
ENDMDL
MODEL 4
REMARK VINA RESULT:    -3.911      1.856      5.346
REMARK INTER + INTRA:          -6.449
REMARK INTER:                  -5.686
REMARK INTRA:                  -0.763
REMARK UNBOUND:                -0.823
REMARK SMILES O=C(CO)[C@H](O)[C@@H](O)[C@H](O)CO
REMARK SMILES IDX 7 1 9 2 11 3 12 4 10 6 5 8 2 9 1 10 3 11 4 12 6 14 8 16
REMARK H PARENT 12 5 10 7 4 13 6 15 8 17
REMARK Flexibility Score: inf
ROOT
ATOM      1  C   UNL     1      17.478   9.498   2.422  1.00  0.00     0.181 C 
ENDROOT
BRANCH   1   2
ATOM      2  C   UNL     1      17.833  11.011   2.387  1.00  0.00     0.171 C 
BRANCH   2   3
ATOM      3  C   UNL     1      17.472  11.712   3.711  1.00  0.00     0.190 C 
BRANCH   3   4
ATOM      4  O   UNL     1      18.141  11.107   4.785  1.00  0.00    -0.394 OA
ATOM      5  H   UNL     1      18.798  11.771   5.121  1.00  0.00     0.210 HD
ENDBRANCH   3   4
ENDBRANCH   2   3
BRANCH   2   6
ATOM      6  O   UNL     1      19.186  11.216   2.055  1.00  0.00    -0.388 OA
ATOM      7  H   UNL     1      19.303  12.173   1.822  1.00  0.00     0.211 HD
ENDBRANCH   2   6
ENDBRANCH   1   2
BRANCH   1   8
ATOM      8  C   UNL     1      17.113   8.933   1.023  1.00  0.00     0.214 C 
BRANCH   8   9
ATOM      9  C   UNL     1      17.445   7.462   0.913  1.00  0.00     0.189 C 
ATOM     10  O   UNL     1      17.137   6.707   1.822  1.00  0.00    -0.294 OA
BRANCH   9  11
ATOM     11  C   UNL     1      18.160   6.906  -0.290  1.00  0.00     0.234 C 
BRANCH  11  12
ATOM     12  O   UNL     1      18.858   5.742   0.058  1.00  0.00    -0.388 OA
ATOM     13  H   UNL     1      18.875   5.707   1.050  1.00  0.00     0.211 HD
ENDBRANCH  11  12
ENDBRANCH   9  11
ENDBRANCH   8   9
BRANCH   8  14
ATOM     14  O   UNL     1      17.816   9.627   0.025  1.00  0.00    -0.382 OA
ATOM     15  H   UNL     1      17.196  10.302  -0.356  1.00  0.00     0.211 HD
ENDBRANCH   8  14
ENDBRANCH   1   8
BRANCH   1  16
ATOM     16  O   UNL     1      18.519   8.753   3.008  1.00  0.00    -0.387 OA
ATOM     17  H   UNL     1      18.940   8.204   2.297  1.00  0.00     0.211 HD
ENDBRANCH   1  16
TORSDOF 10
ENDMDL
MODEL 5
REMARK VINA RESULT:    -3.887      1.268      2.097
REMARK INTER + INTRA:          -6.414
REMARK INTER:                  -5.025
REMARK INTRA:                  -1.390
REMARK UNBOUND:                -0.823
REMARK SMILES O=C(CO)[C@H](O)[C@@H](O)[C@H](O)CO
REMARK SMILES IDX 7 1 9 2 11 3 12 4 10 6 5 8 2 9 1 10 3 11 4 12 6 14 8 16
REMARK H PARENT 12 5 10 7 4 13 6 15 8 17
REMARK Flexibility Score: inf
ROOT
ATOM      1  C   UNL     1      18.142  10.604   2.308  1.00  0.00     0.181 C 
ENDROOT
BRANCH   1   2
ATOM      2  C   UNL     1      17.081   9.485   2.119  1.00  0.00     0.171 C 
BRANCH   2   3
ATOM      3  C   UNL     1      17.737   8.113   1.868  1.00  0.00     0.190 C 
BRANCH   3   4
ATOM      4  O   UNL     1      18.524   7.737   2.966  1.00  0.00    -0.394 OA
ATOM      5  H   UNL     1      17.904   7.352   3.640  1.00  0.00     0.210 HD
ENDBRANCH   3   4
ENDBRANCH   2   3
BRANCH   2   6
ATOM      6  O   UNL     1      16.189   9.430   3.208  1.00  0.00    -0.388 OA
ATOM      7  H   UNL     1      15.399   8.898   2.931  1.00  0.00     0.211 HD
ENDBRANCH   2   6
ENDBRANCH   1   2
BRANCH   1   8
ATOM      8  C   UNL     1      17.518  12.026   2.334  1.00  0.00     0.214 C 
BRANCH   8   9
ATOM      9  C   UNL     1      17.835  12.749   3.623  1.00  0.00     0.189 C 
ATOM     10  O   UNL     1      18.908  13.321   3.743  1.00  0.00    -0.294 OA
BRANCH   9  11
ATOM     11  C   UNL     1      16.862  12.770   4.771  1.00  0.00     0.234 C 
BRANCH  11  12
ATOM     12  O   UNL     1      16.595  11.463   5.202  1.00  0.00    -0.388 OA
ATOM     13  H   UNL     1      15.652  11.454   5.513  1.00  0.00     0.211 HD
ENDBRANCH  11  12
ENDBRANCH   9  11
ENDBRANCH   8   9
BRANCH   8  14
ATOM     14  O   UNL     1      16.123  11.942   2.198  1.00  0.00    -0.382 OA
ATOM     15  H   UNL     1      15.918  11.043   1.830  1.00  0.00     0.211 HD
ENDBRANCH   8  14
ENDBRANCH   1   8
BRANCH   1  16
ATOM     16  O   UNL     1      18.913  10.374   3.463  1.00  0.00    -0.387 OA
ATOM     17  H   UNL     1      18.660  11.053   4.140  1.00  0.00     0.211 HD
ENDBRANCH   1  16
TORSDOF 10
ENDMDL
MODEL 6
REMARK VINA RESULT:    -3.865      1.241      4.488
REMARK INTER + INTRA:          -6.383
REMARK INTER:                  -5.112
REMARK INTRA:                  -1.271
REMARK UNBOUND:                -0.823
REMARK SMILES O=C(CO)[C@H](O)[C@@H](O)[C@H](O)CO
REMARK SMILES IDX 7 1 9 2 11 3 12 4 10 6 5 8 2 9 1 10 3 11 4 12 6 14 8 16
REMARK H PARENT 12 5 10 7 4 13 6 15 8 17
REMARK Flexibility Score: inf
ROOT
ATOM      1  C   UNL     1      16.815  11.566   2.930  1.00  0.00     0.181 C 
ENDROOT
BRANCH   1   2
ATOM      2  C   UNL     1      17.252  13.033   3.196  1.00  0.00     0.171 C 
BRANCH   2   3
ATOM      3  C   UNL     1      18.091  13.154   4.484  1.00  0.00     0.190 C 
BRANCH   3   4
ATOM      4  O   UNL     1      19.305  12.466   4.344  1.00  0.00    -0.394 OA
ATOM      5  H   UNL     1      19.107  11.643   3.824  1.00  0.00     0.210 HD
ENDBRANCH   3   4
ENDBRANCH   2   3
BRANCH   2   6
ATOM      6  O   UNL     1      17.935  13.577   2.092  1.00  0.00    -0.388 OA
ATOM      7  H   UNL     1      18.289  12.826   1.549  1.00  0.00     0.211 HD
ENDBRANCH   2   6
ENDBRANCH   1   2
BRANCH   1   8
ATOM      8  C   UNL     1      17.548  10.931   1.717  1.00  0.00     0.214 C 
BRANCH   8   9
ATOM      9  C   UNL     1      17.023   9.547   1.412  1.00  0.00     0.189 C 
ATOM     10  O   UNL     1      15.927   9.422   0.887  1.00  0.00    -0.294 OA
BRANCH   9  11
ATOM     11  C   UNL     1      17.817   8.313   1.753  1.00  0.00     0.234 C 
BRANCH  11  12
ATOM     12  O   UNL     1      18.325   8.411   3.056  1.00  0.00    -0.388 OA
ATOM     13  H   UNL     1      17.636   8.878   3.595  1.00  0.00     0.211 HD
ENDBRANCH  11  12
ENDBRANCH   9  11
ENDBRANCH   8   9
BRANCH   8  14
ATOM     14  O   UNL     1      18.925  10.841   1.980  1.00  0.00    -0.382 OA
ATOM     15  H   UNL     1      19.337  11.693   1.680  1.00  0.00     0.211 HD
ENDBRANCH   8  14
ENDBRANCH   1   8
BRANCH   1  16
ATOM     16  O   UNL     1      16.980  10.776   4.084  1.00  0.00    -0.387 OA
ATOM     17  H   UNL     1      17.189  11.382   4.842  1.00  0.00     0.211 HD
ENDBRANCH   1  16
TORSDOF 10
ENDMDL
MODEL 7
REMARK VINA RESULT:    -3.863      2.550      4.033
REMARK INTER + INTRA:          -6.380
REMARK INTER:                  -5.128
REMARK INTRA:                  -1.252
REMARK UNBOUND:                -0.823
REMARK SMILES O=C(CO)[C@H](O)[C@@H](O)[C@H](O)CO
REMARK SMILES IDX 7 1 9 2 11 3 12 4 10 6 5 8 2 9 1 10 3 11 4 12 6 14 8 16
REMARK H PARENT 12 5 10 7 4 13 6 15 8 17
REMARK Flexibility Score: inf
ROOT
ATOM      1  C   UNL     1      17.152   7.698   0.875  1.00  0.00     0.181 C 
ENDROOT
BRANCH   1   2
ATOM      2  C   UNL     1      17.733   6.604   1.813  1.00  0.00     0.171 C 
BRANCH   2   3
ATOM      3  C   UNL     1      18.003   5.288   1.057  1.00  0.00     0.190 C 
BRANCH   3   4
ATOM      4  O   UNL     1      18.927   5.497   0.023  1.00  0.00    -0.394 OA
ATOM      5  H   UNL     1      19.704   4.909   0.214  1.00  0.00     0.210 HD
ENDBRANCH   3   4
ENDBRANCH   2   3
BRANCH   2   6
ATOM      6  O   UNL     1      18.891   7.054   2.477  1.00  0.00    -0.388 OA
ATOM      7  H   UNL     1      18.879   6.688   3.399  1.00  0.00     0.211 HD
ENDBRANCH   2   6
ENDBRANCH   1   2
BRANCH   1   8
ATOM      8  C   UNL     1      16.504   8.875   1.653  1.00  0.00     0.214 C 
BRANCH   8   9
ATOM      9  C   UNL     1      17.365  10.116   1.604  1.00  0.00     0.189 C 
ATOM     10  O   UNL     1      17.492  10.718   0.549  1.00  0.00    -0.294 OA
BRANCH   9  11
ATOM     11  C   UNL     1      18.084  10.621   2.827  1.00  0.00     0.234 C 
BRANCH  11  12
ATOM     12  O   UNL     1      18.850   9.595   3.396  1.00  0.00    -0.388 OA
ATOM     13  H   UNL     1      19.452  10.024   4.058  1.00  0.00     0.211 HD
ENDBRANCH  11  12
ENDBRANCH   9  11
ENDBRANCH   8   9
BRANCH   8  14
ATOM     14  O   UNL     1      16.311   8.515   2.997  1.00  0.00    -0.382 OA
ATOM     15  H   UNL     1      17.013   7.853   3.227  1.00  0.00     0.211 HD
ENDBRANCH   8  14
ENDBRANCH   1   8
BRANCH   1  16
ATOM     16  O   UNL     1      18.136   8.167  -0.017  1.00  0.00    -0.387 OA
ATOM     17  H   UNL     1      18.798   7.441  -0.152  1.00  0.00     0.211 HD
ENDBRANCH   1  16
TORSDOF 10
ENDMDL
MODEL 8
REMARK VINA RESULT:    -3.644      1.436      4.610
REMARK INTER + INTRA:          -6.066
REMARK INTER:                  -5.112
REMARK INTRA:                  -0.954
REMARK UNBOUND:                -0.823
REMARK SMILES O=C(CO)[C@H](O)[C@@H](O)[C@H](O)CO
REMARK SMILES IDX 7 1 9 2 11 3 12 4 10 6 5 8 2 9 1 10 3 11 4 12 6 14 8 16
REMARK H PARENT 12 5 10 7 4 13 6 15 8 17
REMARK Flexibility Score: inf
ROOT
ATOM      1  C   UNL     1      18.419  10.633   3.300  1.00  0.00     0.181 C 
ENDROOT
BRANCH   1   2
ATOM      2  C   UNL     1      18.150  11.638   4.455  1.00  0.00     0.171 C 
BRANCH   2   3
ATOM      3  C   UNL     1      18.388  13.095   4.010  1.00  0.00     0.190 C 
BRANCH   3   4
ATOM      4  O   UNL     1      17.382  13.507   3.125  1.00  0.00    -0.394 OA
ATOM      5  H   UNL     1      16.543  13.563   3.654  1.00  0.00     0.210 HD
ENDBRANCH   3   4
ENDBRANCH   2   3
BRANCH   2   6
ATOM      6  O   UNL     1      16.859  11.474   4.991  1.00  0.00    -0.388 OA
ATOM      7  H   UNL     1      16.891  11.727   5.951  1.00  0.00     0.211 HD
ENDBRANCH   2   6
ENDBRANCH   1   2
BRANCH   1   8
ATOM      8  C   UNL     1      17.123   9.949   2.784  1.00  0.00     0.214 C 
BRANCH   8   9
ATOM      9  C   UNL     1      17.433   8.819   1.830  1.00  0.00     0.189 C 
ATOM     10  O   UNL     1      17.507   9.048   0.632  1.00  0.00    -0.294 OA
BRANCH   9  11
ATOM     11  C   UNL     1      17.639   7.411   2.320  1.00  0.00     0.234 C 
BRANCH  11  12
ATOM     12  O   UNL     1      18.780   7.343   3.132  1.00  0.00    -0.388 OA
ATOM     13  H   UNL     1      19.100   8.276   3.248  1.00  0.00     0.211 HD
ENDBRANCH  11  12
ENDBRANCH   9  11
ENDBRANCH   8   9
BRANCH   8  14
ATOM     14  O   UNL     1      16.314  10.887   2.123  1.00  0.00    -0.382 OA
ATOM     15  H   UNL     1      16.739  11.776   2.241  1.00  0.00     0.211 HD
ENDBRANCH   8  14
ENDBRANCH   1   8
BRANCH   1  16
ATOM     16  O   UNL     1      19.110  11.257   2.244  1.00  0.00    -0.387 OA
ATOM     17  H   UNL     1      18.756  12.179   2.149  1.00  0.00     0.211 HD
ENDBRANCH   1  16
TORSDOF 10
ENDMDL
MODEL 9
REMARK VINA RESULT:    -3.590      1.527      4.466
REMARK INTER + INTRA:          -5.987
REMARK INTER:                  -5.199
REMARK INTRA:                  -0.788
REMARK UNBOUND:                -0.823
REMARK SMILES O=C(CO)[C@H](O)[C@@H](O)[C@H](O)CO
REMARK SMILES IDX 7 1 9 2 11 3 12 4 10 6 5 8 2 9 1 10 3 11 4 12 6 14 8 16
REMARK H PARENT 12 5 10 7 4 13 6 15 8 17
REMARK Flexibility Score: inf
ROOT
ATOM      1  C   UNL     1      17.739  11.948   2.613  1.00  0.00     0.181 C 
ENDROOT
BRANCH   1   2
ATOM      2  C   UNL     1      18.899  12.858   3.105  1.00  0.00     0.171 C 
BRANCH   2   3
ATOM      3  C   UNL     1      18.525  14.351   3.026  1.00  0.00     0.190 C 
BRANCH   3   4
ATOM      4  O   UNL     1      17.312  14.518   2.343  1.00  0.00    -0.394 OA
ATOM      5  H   UNL     1      17.490  14.298   1.391  1.00  0.00     0.210 HD
ENDBRANCH   3   4
ENDBRANCH   2   3
BRANCH   2   6
ATOM      6  O   UNL     1      19.315  12.507   4.403  1.00  0.00    -0.388 OA
ATOM      7  H   UNL     1      20.200  12.063   4.333  1.00  0.00     0.211 HD
ENDBRANCH   2   6
ENDBRANCH   1   2
BRANCH   1   8
ATOM      8  C   UNL     1      18.210  10.511   2.259  1.00  0.00     0.214 C 
BRANCH   8   9
ATOM      9  C   UNL     1      17.112   9.714   1.594  1.00  0.00     0.189 C 
ATOM     10  O   UNL     1      16.177   9.302   2.265  1.00  0.00    -0.294 OA
BRANCH   9  11
ATOM     11  C   UNL     1      17.150   9.402   0.122  1.00  0.00     0.234 C 
BRANCH  11  12
ATOM     12  O   UNL     1      17.833  10.412  -0.569  1.00  0.00    -0.388 OA
ATOM     13  H   UNL     1      18.052  11.113   0.099  1.00  0.00     0.211 HD
ENDBRANCH  11  12
ENDBRANCH   9  11
ENDBRANCH   8   9
BRANCH   8  14
ATOM     14  O   UNL     1      18.612   9.837   3.424  1.00  0.00    -0.382 OA
ATOM     15  H   UNL     1      18.545  10.483   4.175  1.00  0.00     0.211 HD
ENDBRANCH   8  14
ENDBRANCH   1   8
BRANCH   1  16
ATOM     16  O   UNL     1      16.693  11.916   3.555  1.00  0.00    -0.387 OA
ATOM     17  H   UNL     1      17.098  11.913   4.461  1.00  0.00     0.211 HD
ENDBRANCH   1  16
TORSDOF 10
ENDMDL
