MODEL 1
REMARK VINA RESULT:    -7.272      0.000      0.000
REMARK INTER + INTRA:          -8.820
REMARK INTER:                  -8.548
REMARK INTRA:                  -0.273
REMARK UNBOUND:                -0.273
REMARK SMILES O=c1cc(-c2ccc(O)c(O)c2)oc2cc(O)cc(O)c12
REMARK SMILES IDX 4 1 3 2 2 3 1 4 21 5 19 6 18 7 16 8 15 9 14 10 13 11 5 12
REMARK SMILES IDX 6 13 7 14 8 15 12 16 10 17 9 18 11 20 20 22 17 24
REMARK H PARENT 9 19 11 21 20 23 17 25
REMARK Flexibility Score: inf
ROOT
ATOM      1  C   UNL     1       0.296  -8.003  14.785  1.00  0.00     0.138 A 
ATOM      2  C   UNL     1       1.146  -6.944  14.437  1.00  0.00     0.100 A 
ATOM      3  C   UNL     1       2.339  -6.759  15.136  1.00  0.00     0.197 A 
ATOM      4  O   UNL     1       3.053  -5.767  14.837  1.00  0.00    -0.289 OA
ATOM      5  C   UNL     1       2.701  -7.661  16.164  1.00  0.00     0.107 A 
ATOM      6  C   UNL     1       3.909  -7.592  16.921  1.00  0.00     0.134 A 
ATOM      7  C   UNL     1       4.111  -8.484  17.982  1.00  0.00     0.093 A 
ATOM      8  C   UNL     1       3.175  -9.479  18.275  1.00  0.00     0.123 A 
ATOM      9  C   UNL     1       2.017  -9.587  17.511  1.00  0.00     0.094 A 
ATOM     10  C   UNL     1       1.770  -8.691  16.469  1.00  0.00     0.146 A 
ATOM     11  O   UNL     1       0.643  -8.818  15.777  1.00  0.00    -0.456 OA
ENDROOT
BRANCH   1  12
ATOM     12  C   UNL     1      -0.984  -8.249  14.074  1.00  0.00     0.021 A 
ATOM     13  C   UNL     1      -1.326  -9.524  13.583  1.00  0.00     0.016 A 
ATOM     14  C   UNL     1      -2.534  -9.722  12.908  1.00  0.00     0.051 A 
ATOM     15  C   UNL     1      -3.415  -8.653  12.707  1.00  0.00     0.157 A 
ATOM     16  C   UNL     1      -1.870  -7.178  13.855  1.00  0.00     0.062 A 
ATOM     17  C   UNL     1      -3.082  -7.379  13.179  1.00  0.00     0.158 A 
BRANCH  15  18
ATOM     18  O   UNL     1      -4.622  -8.849  12.036  1.00  0.00    -0.504 OA
ATOM     19  H   UNL     1      -5.043  -9.767  11.961  1.00  0.00     0.293 HD
ENDBRANCH  15  18
BRANCH  17  20
ATOM     20  O   UNL     1      -3.959  -6.315  12.973  1.00  0.00    -0.504 OA
ATOM     21  H   UNL     1      -4.276  -6.061  12.045  1.00  0.00     0.293 HD
ENDBRANCH  17  20
ENDBRANCH   1  12
BRANCH   6  22
ATOM     22  O   UNL     1       4.945  -6.690  16.663  1.00  0.00    -0.507 OA
ATOM     23  H   UNL     1       4.910  -5.699  16.844  1.00  0.00     0.293 HD
ENDBRANCH   6  22
BRANCH   8  24
ATOM     24  O   UNL     1       3.392 -10.372  19.323  1.00  0.00    -0.508 OA
ATOM     25  H   UNL     1       3.945 -11.213  19.197  1.00  0.00     0.293 HD
ENDBRANCH   8  24
TORSDOF 5
ENDMDL
MODEL 2
REMARK VINA RESULT:    -7.209      3.464      4.444
REMARK INTER + INTRA:          -8.746
REMARK INTER:                  -8.433
REMARK INTRA:                  -0.312
REMARK UNBOUND:                -0.273
REMARK SMILES O=c1cc(-c2ccc(O)c(O)c2)oc2cc(O)cc(O)c12
REMARK SMILES IDX 4 1 3 2 2 3 1 4 21 5 19 6 18 7 16 8 15 9 14 10 13 11 5 12
REMARK SMILES IDX 6 13 7 14 8 15 12 16 10 17 9 18 11 20 20 22 17 24
REMARK H PARENT 9 19 11 21 20 23 17 25
REMARK Flexibility Score: inf
ROOT
ATOM      1  C   UNL     1      -1.607  -7.653  13.088  1.00  0.00     0.138 A 
ATOM      2  C   UNL     1      -0.846  -6.744  13.837  1.00  0.00     0.100 A 
ATOM      3  C   UNL     1       0.543  -6.728  13.697  1.00  0.00     0.197 A 
ATOM      4  O   UNL     1       1.202  -5.940  14.422  1.00  0.00    -0.289 OA
ATOM      5  C   UNL     1       1.168  -7.601  12.774  1.00  0.00     0.107 A 
ATOM      6  C   UNL     1       2.572  -7.648  12.522  1.00  0.00     0.134 A 
ATOM      7  C   UNL     1       3.085  -8.624  11.658  1.00  0.00     0.093 A 
ATOM      8  C   UNL     1       2.239  -9.515  10.993  1.00  0.00     0.123 A 
ATOM      9  C   UNL     1       0.864  -9.444  11.194  1.00  0.00     0.094 A 
ATOM     10  C   UNL     1       0.324  -8.505  12.075  1.00  0.00     0.146 A 
ATOM     11  O   UNL     1      -0.993  -8.484  12.252  1.00  0.00    -0.456 OA
ENDROOT
BRANCH   1  12
ATOM     12  C   UNL     1      -3.086  -7.712  13.195  1.00  0.00     0.021 A 
ATOM     13  C   UNL     1      -3.835  -6.642  13.724  1.00  0.00     0.016 A 
ATOM     14  C   UNL     1      -5.226  -6.732  13.822  1.00  0.00     0.051 A 
ATOM     15  C   UNL     1      -5.892  -7.889  13.401  1.00  0.00     0.157 A 
ATOM     16  C   UNL     1      -3.763  -8.877  12.787  1.00  0.00     0.062 A 
ATOM     17  C   UNL     1      -5.160  -8.964  12.885  1.00  0.00     0.158 A 
BRANCH  15  18
ATOM     18  O   UNL     1      -7.280  -7.979  13.496  1.00  0.00    -0.504 OA
ATOM     19  H   UNL     1      -7.888  -7.500  12.843  1.00  0.00     0.293 HD
ENDBRANCH  15  18
BRANCH  17  20
ATOM     20  O   UNL     1      -5.825 -10.117  12.471  1.00  0.00    -0.504 OA
ATOM     21  H   UNL     1      -6.187 -10.211  11.530  1.00  0.00     0.293 HD
ENDBRANCH  17  20
ENDBRANCH   1  12
BRANCH   6  22
ATOM     22  O   UNL     1       3.498  -6.756  13.070  1.00  0.00    -0.507 OA
ATOM     23  H   UNL     1       3.279  -5.840  13.428  1.00  0.00     0.293 HD
ENDBRANCH   6  22
BRANCH   8  24
ATOM     24  O   UNL     1       2.758 -10.472  10.123  1.00  0.00    -0.508 OA
ATOM     25  H   UNL     1       3.584 -11.011  10.359  1.00  0.00     0.293 HD
ENDBRANCH   8  24
TORSDOF 5
ENDMDL
MODEL 3
REMARK VINA RESULT:    -7.129      4.217      5.499
REMARK INTER + INTRA:          -8.652
REMARK INTER:                  -8.337
REMARK INTRA:                  -0.315
REMARK UNBOUND:                -0.273
REMARK SMILES O=c1cc(-c2ccc(O)c(O)c2)oc2cc(O)cc(O)c12
REMARK SMILES IDX 4 1 3 2 2 3 1 4 21 5 19 6 18 7 16 8 15 9 14 10 13 11 5 12
REMARK SMILES IDX 6 13 7 14 8 15 12 16 10 17 9 18 11 20 20 22 17 24
REMARK H PARENT 9 19 11 21 20 23 17 25
REMARK Flexibility Score: inf
ROOT
ATOM      1  C   UNL     1      -2.812  -9.450  13.833  1.00  0.00     0.138 A 
ATOM      2  C   UNL     1      -2.602  -8.097  14.135  1.00  0.00     0.100 A 
ATOM      3  C   UNL     1      -1.476  -7.444  13.632  1.00  0.00     0.197 A 
ATOM      4  O   UNL     1      -1.286  -6.247  13.967  1.00  0.00    -0.289 OA
ATOM      5  C   UNL     1      -0.575  -8.141  12.792  1.00  0.00     0.107 A 
ATOM      6  C   UNL     1       0.588  -7.569  12.193  1.00  0.00     0.134 A 
ATOM      7  C   UNL     1       1.459  -8.386  11.460  1.00  0.00     0.093 A 
ATOM      8  C   UNL     1       1.178  -9.739  11.255  1.00  0.00     0.123 A 
ATOM      9  C   UNL     1       0.020 -10.294  11.792  1.00  0.00     0.094 A 
ATOM     10  C   UNL     1      -0.850  -9.515  12.557  1.00  0.00     0.146 A 
ATOM     11  O   UNL     1      -1.934 -10.090  13.068  1.00  0.00    -0.456 OA
ENDROOT
BRANCH   1  12
ATOM     12  C   UNL     1      -3.994 -10.192  14.338  1.00  0.00     0.021 A 
ATOM     13  C   UNL     1      -5.096  -9.529  14.913  1.00  0.00     0.016 A 
ATOM     14  C   UNL     1      -6.190 -10.256  15.389  1.00  0.00     0.051 A 
ATOM     15  C   UNL     1      -6.201 -11.654  15.308  1.00  0.00     0.157 A 
ATOM     16  C   UNL     1      -4.008 -11.598  14.273  1.00  0.00     0.062 A 
ATOM     17  C   UNL     1      -5.107 -12.326  14.751  1.00  0.00     0.158 A 
BRANCH  15  18
ATOM     18  O   UNL     1      -7.292 -12.381  15.781  1.00  0.00    -0.504 OA
ATOM     19  H   UNL     1      -7.916 -12.003  16.484  1.00  0.00     0.293 HD
ENDBRANCH  15  18
BRANCH  17  20
ATOM     20  O   UNL     1      -5.118 -13.718  14.676  1.00  0.00    -0.504 OA
ATOM     21  H   UNL     1      -5.807 -14.214  14.124  1.00  0.00     0.293 HD
ENDBRANCH  17  20
ENDBRANCH   1  12
BRANCH   6  22
ATOM     22  O   UNL     1       0.922  -6.214  12.267  1.00  0.00    -0.507 OA
ATOM     23  H   UNL     1       1.795  -5.815  11.958  1.00  0.00     0.293 HD
ENDBRANCH   6  22
BRANCH   8  24
ATOM     24  O   UNL     1       2.042 -10.539  10.510  1.00  0.00    -0.508 OA
ATOM     25  H   UNL     1       3.048 -10.474  10.616  1.00  0.00     0.293 HD
ENDBRANCH   8  24
TORSDOF 5
ENDMDL
MODEL 4
REMARK VINA RESULT:    -6.970      5.121      6.988
REMARK INTER + INTRA:          -8.465
REMARK INTER:                  -8.149
REMARK INTRA:                  -0.316
REMARK UNBOUND:                -0.273
REMARK SMILES O=c1cc(-c2ccc(O)c(O)c2)oc2cc(O)cc(O)c12
REMARK SMILES IDX 4 1 3 2 2 3 1 4 21 5 19 6 18 7 16 8 15 9 14 10 13 11 5 12
REMARK SMILES IDX 6 13 7 14 8 15 12 16 10 17 9 18 11 20 20 22 17 24
REMARK H PARENT 9 19 11 21 20 23 17 25
REMARK Flexibility Score: inf
ROOT
ATOM      1  C   UNL     1      -5.296  -9.549  14.263  1.00  0.00     0.138 A 
ATOM      2  C   UNL     1      -4.769  -8.298  13.909  1.00  0.00     0.100 A 
ATOM      3  C   UNL     1      -3.529  -8.227  13.273  1.00  0.00     0.197 A 
ATOM      4  O   UNL     1      -3.058  -7.088  13.018  1.00  0.00    -0.289 OA
ATOM      5  C   UNL     1      -2.831  -9.417  12.956  1.00  0.00     0.107 A 
ATOM      6  C   UNL     1      -1.576  -9.468  12.277  1.00  0.00     0.134 A 
ATOM      7  C   UNL     1      -0.934 -10.701  12.106  1.00  0.00     0.093 A 
ATOM      8  C   UNL     1      -1.528 -11.889  12.538  1.00  0.00     0.123 A 
ATOM      9  C   UNL     1      -2.775 -11.855  13.156  1.00  0.00     0.094 A 
ATOM     10  C   UNL     1      -3.425 -10.638  13.372  1.00  0.00     0.146 A 
ATOM     11  O   UNL     1      -4.605 -10.649  13.983  1.00  0.00    -0.456 OA
ENDROOT
BRANCH   1  12
ATOM     12  C   UNL     1      -6.611  -9.683  14.939  1.00  0.00     0.021 A 
ATOM     13  C   UNL     1      -7.508  -8.602  15.036  1.00  0.00     0.016 A 
ATOM     14  C   UNL     1      -8.735  -8.757  15.688  1.00  0.00     0.051 A 
ATOM     15  C   UNL     1      -9.083  -9.987  16.259  1.00  0.00     0.157 A 
ATOM     16  C   UNL     1      -6.963 -10.912  15.527  1.00  0.00     0.062 A 
ATOM     17  C   UNL     1      -8.195 -11.066  16.180  1.00  0.00     0.158 A 
BRANCH  15  18
ATOM     18  O   UNL     1     -10.307 -10.143  16.908  1.00  0.00    -0.504 OA
ATOM     19  H   UNL     1     -10.454  -9.802  17.850  1.00  0.00     0.293 HD
ENDBRANCH  15  18
BRANCH  17  20
ATOM     20  O   UNL     1      -8.542 -12.288  16.753  1.00  0.00    -0.504 OA
ATOM     21  H   UNL     1      -7.918 -12.771  17.389  1.00  0.00     0.293 HD
ENDBRANCH  17  20
ENDBRANCH   1  12
BRANCH   6  22
ATOM     22  O   UNL     1      -0.932  -8.352  11.734  1.00  0.00    -0.507 OA
ATOM     23  H   UNL     1      -1.367  -7.664  11.140  1.00  0.00     0.293 HD
ENDBRANCH   6  22
BRANCH   8  24
ATOM     24  O   UNL     1      -0.889 -13.113  12.350  1.00  0.00    -0.508 OA
ATOM     25  H   UNL     1       0.032 -13.295  12.735  1.00  0.00     0.293 HD
ENDBRANCH   8  24
TORSDOF 5
ENDMDL
MODEL 5
REMARK VINA RESULT:    -6.968      3.829      6.946
REMARK INTER + INTRA:          -8.463
REMARK INTER:                  -8.145
REMARK INTRA:                  -0.318
REMARK UNBOUND:                -0.273
REMARK SMILES O=c1cc(-c2ccc(O)c(O)c2)oc2cc(O)cc(O)c12
REMARK SMILES IDX 4 1 3 2 2 3 1 4 21 5 19 6 18 7 16 8 15 9 14 10 13 11 5 12
REMARK SMILES IDX 6 13 7 14 8 15 12 16 10 17 9 18 11 20 20 22 17 24
REMARK H PARENT 9 19 11 21 20 23 17 25
REMARK Flexibility Score: inf
ROOT
ATOM      1  C   UNL     1      -0.197  -7.760  12.990  1.00  0.00     0.138 A 
ATOM      2  C   UNL     1      -0.365  -6.741  13.939  1.00  0.00     0.100 A 
ATOM      3  C   UNL     1      -1.642  -6.454  14.425  1.00  0.00     0.197 A 
ATOM      4  O   UNL     1      -1.767  -5.499  15.233  1.00  0.00    -0.289 OA
ATOM      5  C   UNL     1      -2.750  -7.218  13.986  1.00  0.00     0.107 A 
ATOM      6  C   UNL     1      -4.092  -7.039  14.439  1.00  0.00     0.134 A 
ATOM      7  C   UNL     1      -5.122  -7.790  13.857  1.00  0.00     0.093 A 
ATOM      8  C   UNL     1      -4.850  -8.753  12.882  1.00  0.00     0.123 A 
ATOM      9  C   UNL     1      -3.538  -8.970  12.470  1.00  0.00     0.094 A 
ATOM     10  C   UNL     1      -2.493  -8.214  13.005  1.00  0.00     0.146 A 
ATOM     11  O   UNL     1      -1.258  -8.440  12.570  1.00  0.00    -0.456 OA
ENDROOT
BRANCH   1  12
ATOM     12  C   UNL     1       1.138  -8.108  12.442  1.00  0.00     0.021 A 
ATOM     13  C   UNL     1       2.311  -7.466  12.883  1.00  0.00     0.016 A 
ATOM     14  C   UNL     1       3.553  -7.809  12.340  1.00  0.00     0.051 A 
ATOM     15  C   UNL     1       3.643  -8.789  11.345  1.00  0.00     0.157 A 
ATOM     16  C   UNL     1       1.237  -9.083  11.432  1.00  0.00     0.062 A 
ATOM     17  C   UNL     1       2.484  -9.426  10.889  1.00  0.00     0.158 A 
BRANCH  15  18
ATOM     18  O   UNL     1       4.881  -9.133  10.803  1.00  0.00    -0.504 OA
ATOM     19  H   UNL     1       5.268 -10.062  10.916  1.00  0.00     0.293 HD
ENDBRANCH  15  18
BRANCH  17  20
ATOM     20  O   UNL     1       2.576 -10.398   9.894  1.00  0.00    -0.504 OA
ATOM     21  H   UNL     1       2.702 -11.378  10.121  1.00  0.00     0.293 HD
ENDBRANCH  17  20
ENDBRANCH   1  12
BRANCH   6  22
ATOM     22  O   UNL     1      -4.464  -6.163  15.462  1.00  0.00    -0.507 OA
ATOM     23  H   UNL     1      -5.238  -6.304  16.092  1.00  0.00     0.293 HD
ENDBRANCH   6  22
BRANCH   8  24
ATOM     24  O   UNL     1      -5.879  -9.505  12.321  1.00  0.00    -0.508 OA
ATOM     25  H   UNL     1      -5.899  -9.722  11.330  1.00  0.00     0.293 HD
ENDBRANCH   8  24
TORSDOF 5
ENDMDL
MODEL 6
REMARK VINA RESULT:    -6.921      3.538      5.163
REMARK INTER + INTRA:          -8.407
REMARK INTER:                  -8.122
REMARK INTRA:                  -0.284
REMARK UNBOUND:                -0.273
REMARK SMILES O=c1cc(-c2ccc(O)c(O)c2)oc2cc(O)cc(O)c12
REMARK SMILES IDX 4 1 3 2 2 3 1 4 21 5 19 6 18 7 16 8 15 9 14 10 13 11 5 12
REMARK SMILES IDX 6 13 7 14 8 15 12 16 10 17 9 18 11 20 20 22 17 24
REMARK H PARENT 9 19 11 21 20 23 17 25
REMARK Flexibility Score: inf
ROOT
ATOM      1  C   UNL     1      -3.683  -7.369  14.004  1.00  0.00     0.138 A 
ATOM      2  C   UNL     1      -3.113  -6.576  15.010  1.00  0.00     0.100 A 
ATOM      3  C   UNL     1      -1.744  -6.307  14.984  1.00  0.00     0.197 A 
ATOM      4  O   UNL     1      -1.253  -5.639  15.930  1.00  0.00    -0.289 OA
ATOM      5  C   UNL     1      -0.949  -6.805  13.924  1.00  0.00     0.107 A 
ATOM      6  C   UNL     1       0.451  -6.565  13.775  1.00  0.00     0.134 A 
ATOM      7  C   UNL     1       1.151  -7.194  12.737  1.00  0.00     0.093 A 
ATOM      8  C   UNL     1       0.492  -8.005  11.810  1.00  0.00     0.123 A 
ATOM      9  C   UNL     1      -0.882  -8.204  11.918  1.00  0.00     0.094 A 
ATOM     10  C   UNL     1      -1.603  -7.620  12.961  1.00  0.00     0.146 A 
ATOM     11  O   UNL     1      -2.909  -7.851  13.038  1.00  0.00    -0.456 OA
ENDROOT
BRANCH   1  12
ATOM     12  C   UNL     1      -5.134  -7.684  13.981  1.00  0.00     0.021 A 
ATOM     13  C   UNL     1      -5.782  -8.270  15.086  1.00  0.00     0.016 A 
ATOM     14  C   UNL     1      -7.147  -8.565  15.031  1.00  0.00     0.051 A 
ATOM     15  C   UNL     1      -7.885  -8.289  13.874  1.00  0.00     0.157 A 
ATOM     16  C   UNL     1      -5.880  -7.422  12.818  1.00  0.00     0.062 A 
ATOM     17  C   UNL     1      -7.250  -7.718  12.765  1.00  0.00     0.158 A 
BRANCH  15  18
ATOM     18  O   UNL     1      -9.247  -8.580  13.817  1.00  0.00    -0.504 OA
ATOM     19  H   UNL     1      -9.603  -9.340  13.250  1.00  0.00     0.293 HD
ENDBRANCH  15  18
BRANCH  17  20
ATOM     20  O   UNL     1      -7.985  -7.448  11.611  1.00  0.00    -0.504 OA
ATOM     21  H   UNL     1      -8.987  -7.596  11.575  1.00  0.00     0.293 HD
ENDBRANCH  17  20
ENDBRANCH   1  12
BRANCH   6  22
ATOM     22  O   UNL     1       1.192  -5.711  14.595  1.00  0.00    -0.507 OA
ATOM     23  H   UNL     1       2.134  -5.882  14.911  1.00  0.00     0.293 HD
ENDBRANCH   6  22
BRANCH   8  24
ATOM     24  O   UNL     1       1.194  -8.613  10.772  1.00  0.00    -0.508 OA
ATOM     25  H   UNL     1       0.761  -9.308  10.174  1.00  0.00     0.293 HD
ENDBRANCH   8  24
TORSDOF 5
ENDMDL
MODEL 7
REMARK VINA RESULT:    -6.892      4.732      8.391
REMARK INTER + INTRA:          -8.373
REMARK INTER:                  -8.086
REMARK INTRA:                  -0.287
REMARK UNBOUND:                -0.273
REMARK SMILES O=c1cc(-c2ccc(O)c(O)c2)oc2cc(O)cc(O)c12
REMARK SMILES IDX 4 1 3 2 2 3 1 4 21 5 19 6 18 7 16 8 15 9 14 10 13 11 5 12
REMARK SMILES IDX 6 13 7 14 8 15 12 16 10 17 9 18 11 20 20 22 17 24
REMARK H PARENT 9 19 11 21 20 23 17 25
REMARK Flexibility Score: inf
ROOT
ATOM      1  C   UNL     1      -4.497  -9.671  13.487  1.00  0.00     0.138 A 
ATOM      2  C   UNL     1      -5.394  -8.760  12.911  1.00  0.00     0.100 A 
ATOM      3  C   UNL     1      -6.720  -8.731  13.345  1.00  0.00     0.197 A 
ATOM      4  O   UNL     1      -7.514  -7.941  12.771  1.00  0.00    -0.289 OA
ATOM      5  C   UNL     1      -7.140  -9.593  14.386  1.00  0.00     0.107 A 
ATOM      6  C   UNL     1      -8.458  -9.627  14.933  1.00  0.00     0.134 A 
ATOM      7  C   UNL     1      -8.781 -10.594  15.894  1.00  0.00     0.093 A 
ATOM      8  C   UNL     1      -7.819 -11.488  16.369  1.00  0.00     0.123 A 
ATOM      9  C   UNL     1      -6.518 -11.430  15.879  1.00  0.00     0.094 A 
ATOM     10  C   UNL     1      -6.173 -10.501  14.895  1.00  0.00     0.146 A 
ATOM     11  O   UNL     1      -4.924 -10.492  14.440  1.00  0.00    -0.456 OA
ENDROOT
BRANCH   1  12
ATOM     12  C   UNL     1      -3.075  -9.744  13.066  1.00  0.00     0.021 A 
ATOM     13  C   UNL     1      -2.324 -10.929  13.193  1.00  0.00     0.016 A 
ATOM     14  C   UNL     1      -0.984 -10.964  12.798  1.00  0.00     0.051 A 
ATOM     15  C   UNL     1      -0.370  -9.819  12.278  1.00  0.00     0.157 A 
ATOM     16  C   UNL     1      -2.445  -8.594  12.555  1.00  0.00     0.062 A 
ATOM     17  C   UNL     1      -1.100  -8.631  12.158  1.00  0.00     0.158 A 
BRANCH  15  18
ATOM     18  O   UNL     1       0.967  -9.852  11.881  1.00  0.00    -0.504 OA
ATOM     19  H   UNL     1       1.267  -9.454  11.000  1.00  0.00     0.293 HD
ENDBRANCH  15  18
BRANCH  17  20
ATOM     20  O   UNL     1      -0.485  -7.490  11.645  1.00  0.00    -0.504 OA
ATOM     21  H   UNL     1       0.521  -7.432  11.541  1.00  0.00     0.293 HD
ENDBRANCH  17  20
ENDBRANCH   1  12
BRANCH   6  22
ATOM     22  O   UNL     1      -9.473  -8.730  14.589  1.00  0.00    -0.507 OA
ATOM     23  H   UNL     1     -10.144  -8.869  13.849  1.00  0.00     0.293 HD
ENDBRANCH   6  22
BRANCH   8  24
ATOM     24  O   UNL     1      -8.147 -12.436  17.337  1.00  0.00    -0.508 OA
ATOM     25  H   UNL     1      -8.850 -12.251  18.044  1.00  0.00     0.293 HD
ENDBRANCH   8  24
TORSDOF 5
ENDMDL
MODEL 8
REMARK VINA RESULT:    -6.871      2.830      4.358
REMARK INTER + INTRA:          -8.349
REMARK INTER:                  -8.068
REMARK INTRA:                  -0.281
REMARK UNBOUND:                -0.273
REMARK SMILES O=c1cc(-c2ccc(O)c(O)c2)oc2cc(O)cc(O)c12
REMARK SMILES IDX 4 1 3 2 2 3 1 4 21 5 19 6 18 7 16 8 15 9 14 10 13 11 5 12
REMARK SMILES IDX 6 13 7 14 8 15 12 16 10 17 9 18 11 20 20 22 17 24
REMARK H PARENT 9 19 11 21 20 23 17 25
REMARK Flexibility Score: inf
ROOT
ATOM      1  C   UNL     1       1.044  -8.459  13.299  1.00  0.00     0.138 A 
ATOM      2  C   UNL     1       1.611  -7.979  14.489  1.00  0.00     0.100 A 
ATOM      3  C   UNL     1       2.816  -7.277  14.444  1.00  0.00     0.197 A 
ATOM      4  O   UNL     1       3.327  -6.908  15.532  1.00  0.00    -0.289 OA
ATOM      5  C   UNL     1       3.436  -7.021  13.198  1.00  0.00     0.107 A 
ATOM      6  C   UNL     1       4.648  -6.286  13.027  1.00  0.00     0.134 A 
ATOM      7  C   UNL     1       5.218  -6.183  11.752  1.00  0.00     0.093 A 
ATOM      8  C   UNL     1       4.592  -6.739  10.634  1.00  0.00     0.123 A 
ATOM      9  C   UNL     1       3.384  -7.415  10.783  1.00  0.00     0.094 A 
ATOM     10  C   UNL     1       2.807  -7.565  12.046  1.00  0.00     0.146 A 
ATOM     11  O   UNL     1       1.663  -8.234  12.145  1.00  0.00    -0.456 OA
ENDROOT
BRANCH   1  12
ATOM     12  C   UNL     1      -0.237  -9.210  13.288  1.00  0.00     0.021 A 
ATOM     13  C   UNL     1      -0.405 -10.400  14.023  1.00  0.00     0.016 A 
ATOM     14  C   UNL     1      -1.619 -11.090  13.985  1.00  0.00     0.051 A 
ATOM     15  C   UNL     1      -2.681 -10.611  13.208  1.00  0.00     0.157 A 
ATOM     16  C   UNL     1      -1.305  -8.743  12.500  1.00  0.00     0.062 A 
ATOM     17  C   UNL     1      -2.524  -9.437  12.463  1.00  0.00     0.158 A 
BRANCH  15  18
ATOM     18  O   UNL     1      -3.894 -11.298  13.170  1.00  0.00    -0.504 OA
ATOM     19  H   UNL     1      -4.758 -10.863  13.470  1.00  0.00     0.293 HD
ENDBRANCH  15  18
BRANCH  17  20
ATOM     20  O   UNL     1      -3.581  -8.965  11.687  1.00  0.00    -0.504 OA
ATOM     21  H   UNL     1      -3.824  -7.981  11.665  1.00  0.00     0.293 HD
ENDBRANCH  17  20
ENDBRANCH   1  12
BRANCH   6  22
ATOM     22  O   UNL     1       5.315  -5.623  14.061  1.00  0.00    -0.507 OA
ATOM     23  H   UNL     1       5.764  -4.724  13.979  1.00  0.00     0.293 HD
ENDBRANCH   6  22
BRANCH   8  24
ATOM     24  O   UNL     1       5.159  -6.618   9.368  1.00  0.00    -0.508 OA
ATOM     25  H   UNL     1       4.960  -5.823   8.771  1.00  0.00     0.293 HD
ENDBRANCH   8  24
TORSDOF 5
ENDMDL
MODEL 9
REMARK VINA RESULT:    -6.817      2.382      3.794
REMARK INTER + INTRA:          -8.285
REMARK INTER:                  -7.976
REMARK INTRA:                  -0.309
REMARK UNBOUND:                -0.273
REMARK SMILES O=c1cc(-c2ccc(O)c(O)c2)oc2cc(O)cc(O)c12
REMARK SMILES IDX 4 1 3 2 2 3 1 4 21 5 19 6 18 7 16 8 15 9 14 10 13 11 5 12
REMARK SMILES IDX 6 13 7 14 8 15 12 16 10 17 9 18 11 20 20 22 17 24
REMARK H PARENT 9 19 11 21 20 23 17 25
REMARK Flexibility Score: inf
ROOT
ATOM      1  C   UNL     1       0.402  -7.162  13.823  1.00  0.00     0.138 A 
ATOM      2  C   UNL     1       1.026  -6.789  15.022  1.00  0.00     0.100 A 
ATOM      3  C   UNL     1       2.418  -6.722  15.084  1.00  0.00     0.197 A 
ATOM      4  O   UNL     1       2.950  -6.438  16.188  1.00  0.00    -0.289 OA
ATOM      5  C   UNL     1       3.188  -6.995  13.928  1.00  0.00     0.107 A 
ATOM      6  C   UNL     1       4.613  -6.924  13.863  1.00  0.00     0.134 A 
ATOM      7  C   UNL     1       5.270  -7.314  12.689  1.00  0.00     0.093 A 
ATOM      8  C   UNL     1       4.552  -7.715  11.560  1.00  0.00     0.123 A 
ATOM      9  C   UNL     1       3.161  -7.738  11.597  1.00  0.00     0.094 A 
ATOM     10  C   UNL     1       2.477  -7.389  12.763  1.00  0.00     0.146 A 
ATOM     11  O   UNL     1       1.149  -7.444  12.761  1.00  0.00    -0.456 OA
ENDROOT
BRANCH   1  12
ATOM     12  C   UNL     1      -1.075  -7.247  13.700  1.00  0.00     0.021 A 
ATOM     13  C   UNL     1      -1.932  -6.496  14.529  1.00  0.00     0.016 A 
ATOM     14  C   UNL     1      -3.319  -6.605  14.397  1.00  0.00     0.051 A 
ATOM     15  C   UNL     1      -3.873  -7.467  13.443  1.00  0.00     0.157 A 
ATOM     16  C   UNL     1      -1.641  -8.120  12.753  1.00  0.00     0.062 A 
ATOM     17  C   UNL     1      -3.033  -8.227  12.621  1.00  0.00     0.158 A 
BRANCH  15  18
ATOM     18  O   UNL     1      -5.256  -7.575  13.308  1.00  0.00    -0.504 OA
ATOM     19  H   UNL     1      -5.739  -7.215  12.493  1.00  0.00     0.293 HD
ENDBRANCH  15  18
BRANCH  17  20
ATOM     20  O   UNL     1      -3.588  -9.088  11.675  1.00  0.00    -0.504 OA
ATOM     21  H   UNL     1      -4.430  -9.617  11.869  1.00  0.00     0.293 HD
ENDBRANCH  17  20
ENDBRANCH   1  12
BRANCH   6  22
ATOM     22  O   UNL     1       5.423  -6.463  14.904  1.00  0.00    -0.507 OA
ATOM     23  H   UNL     1       5.091  -5.996  15.734  1.00  0.00     0.293 HD
ENDBRANCH   6  22
BRANCH   8  24
ATOM     24  O   UNL     1       5.214  -8.085  10.391  1.00  0.00    -0.508 OA
ATOM     25  H   UNL     1       6.058  -8.646  10.415  1.00  0.00     0.293 HD
ENDBRANCH   8  24
TORSDOF 5
ENDMDL
