MODEL 1
REMARK VINA RESULT:    -6.096      0.000      0.000
REMARK INTER + INTRA:         -10.366
REMARK INTER:                  -8.948
REMARK INTRA:                  -1.419
REMARK UNBOUND:                -1.419
REMARK SMILES O=c1c(O[C@@H]2O[C@@H](CO)[C@H](O)[C@H](O)[C@H]2O)c(-c2ccc(O)c(O)c2)oc2cc(O)cc(O)c12
REMARK SMILES IDX 4 1 3 2 16 3 25 4 2 5 26 6 1 7 33 8 27 9 31 10 28 11 30 12
REMARK SMILES IDX 17 13 20 14 19 15 22 16 18 17 24 18 21 19 23 21 32 23 29 25
REMARK SMILES IDX 5 27 14 28 6 29 12 30 7 31 10 32 15 33 13 35 8 37 9 38 11 40
REMARK H PARENT 21 20 23 22 32 24 29 26 15 34 13 36 9 39 11 41
REMARK Flexibility Score: inf
ROOT
ATOM      1  O   UNL     1       4.869  30.090  68.712  1.00  0.00    -0.454 OA
ENDROOT
BRANCH   1   2
ATOM      2  C   UNL     1       4.174  31.158  68.062  1.00  0.00     0.214 A 
ATOM      3  C   UNL     1       4.706  32.453  67.826  1.00  0.00     0.180 A 
ATOM      4  O   UNL     1       3.937  33.515  68.097  1.00  0.00    -0.452 OA
ATOM      5  C   UNL     1       2.771  31.049  68.033  1.00  0.00     0.239 A 
ATOM      6  C   UNL     1       2.650  33.394  68.449  1.00  0.00     0.146 A 
ATOM      7  O   UNL     1       2.240  29.931  67.740  1.00  0.00    -0.285 OA
ATOM      8  C   UNL     1       1.961  32.195  68.279  1.00  0.00     0.111 A 
ATOM      9  C   UNL     1       1.959  34.521  68.983  1.00  0.00     0.094 A 
ATOM     10  C   UNL     1       0.603  32.089  68.657  1.00  0.00     0.134 A 
ATOM     11  C   UNL     1       0.633  34.399  69.406  1.00  0.00     0.123 A 
ATOM     12  C   UNL     1      -0.037  33.185  69.232  1.00  0.00     0.093 A 
BRANCH   3  13
ATOM     13  C   UNL     1       5.972  32.741  67.189  1.00  0.00     0.025 A 
ATOM     14  C   UNL     1       8.761  32.871  67.358  1.00  0.00     0.157 A 
ATOM     15  C   UNL     1       8.162  31.732  66.812  1.00  0.00     0.051 A 
ATOM     16  C   UNL     1       7.988  33.990  67.711  1.00  0.00     0.158 A 
ATOM     17  C   UNL     1       6.741  31.663  66.731  1.00  0.00     0.016 A 
ATOM     18  C   UNL     1       6.616  33.950  67.536  1.00  0.00     0.062 A 
BRANCH  14  19
ATOM     19  O   UNL     1      10.142  32.912  67.487  1.00  0.00    -0.504 OA
ATOM     20  H   UNL     1      10.623  32.357  68.194  1.00  0.00     0.293 HD
ENDBRANCH  14  19
BRANCH  16  21
ATOM     21  O   UNL     1       8.620  35.117  68.228  1.00  0.00    -0.504 OA
ATOM     22  H   UNL     1       9.260  35.049  68.998  1.00  0.00     0.293 HD
ENDBRANCH  16  21
ENDBRANCH   3  13
BRANCH  10  23
ATOM     23  O   UNL     1      -0.085  30.886  68.515  1.00  0.00    -0.507 OA
ATOM     24  H   UNL     1       0.083  30.215  67.769  1.00  0.00     0.293 HD
ENDBRANCH  10  23
BRANCH  11  25
ATOM     25  O   UNL     1      -0.034  35.504  69.939  1.00  0.00    -0.508 OA
ATOM     26  H   UNL     1      -0.058  35.599  70.975  1.00  0.00     0.293 HD
ENDBRANCH  11  25
ENDBRANCH   1   2
BRANCH   1  27
ATOM     27  C   UNL     1       5.356  30.042  70.030  1.00  0.00     0.339 C 
ATOM     28  C   UNL     1       6.717  30.858  70.121  1.00  0.00     0.214 C 
ATOM     29  O   UNL     1       4.255  30.520  70.849  1.00  0.00    -0.332 OA
ATOM     30  C   UNL     1       6.853  31.878  71.286  1.00  0.00     0.180 C 
ATOM     31  C   UNL     1       4.593  31.201  72.027  1.00  0.00     0.179 C 
ATOM     32  C   UNL     1       5.521  32.400  71.744  1.00  0.00     0.177 C 
BRANCH  28  33
ATOM     33  O   UNL     1       7.769  29.922  70.269  1.00  0.00    -0.384 OA
ATOM     34  H   UNL     1       8.549  30.163  69.688  1.00  0.00     0.211 HD
ENDBRANCH  28  33
BRANCH  30  35
ATOM     35  O   UNL     1       7.640  32.975  70.883  1.00  0.00    -0.387 OA
ATOM     36  H   UNL     1       7.040  33.636  70.405  1.00  0.00     0.211 HD
ENDBRANCH  30  35
BRANCH  31  37
ATOM     37  C   UNL     1       5.016  30.254  73.180  1.00  0.00     0.191 C 
BRANCH  37  38
ATOM     38  O   UNL     1       5.560  30.904  74.280  1.00  0.00    -0.394 OA
ATOM     39  H   UNL     1       5.450  30.323  75.087  1.00  0.00     0.210 HD
ENDBRANCH  37  38
ENDBRANCH  31  37
BRANCH  32  40
ATOM     40  O   UNL     1       4.998  33.268  70.761  1.00  0.00    -0.387 OA
ATOM     41  H   UNL     1       5.722  33.911  70.465  1.00  0.00     0.211 HD
ENDBRANCH  32  40
ENDBRANCH   1  27
TORSDOF 12
ENDMDL
MODEL 2
REMARK VINA RESULT:    -6.032      1.822      2.918
REMARK INTER + INTRA:         -10.271
REMARK INTER:                  -9.328
REMARK INTRA:                  -0.944
REMARK UNBOUND:                -1.419
REMARK SMILES O=c1c(O[C@@H]2O[C@@H](CO)[C@H](O)[C@H](O)[C@H]2O)c(-c2ccc(O)c(O)c2)oc2cc(O)cc(O)c12
REMARK SMILES IDX 4 1 3 2 16 3 25 4 2 5 26 6 1 7 33 8 27 9 31 10 28 11 30 12
REMARK SMILES IDX 17 13 20 14 19 15 22 16 18 17 24 18 21 19 23 21 32 23 29 25
REMARK SMILES IDX 5 27 14 28 6 29 12 30 7 31 10 32 15 33 13 35 8 37 9 38 11 40
REMARK H PARENT 21 20 23 22 32 24 29 26 15 34 13 36 9 39 11 41
REMARK Flexibility Score: inf
ROOT
ATOM      1  O   UNL     1       4.834  34.201  70.156  1.00  0.00    -0.454 OA
ENDROOT
BRANCH   1   2
ATOM      2  C   UNL     1       3.964  33.983  69.042  1.00  0.00     0.214 A 
ATOM      3  C   UNL     1       4.357  34.031  67.679  1.00  0.00     0.180 A 
ATOM      4  O   UNL     1       3.579  34.697  66.817  1.00  0.00    -0.452 OA
ATOM      5  C   UNL     1       2.588  34.141  69.297  1.00  0.00     0.239 A 
ATOM      6  C   UNL     1       2.387  35.196  67.169  1.00  0.00     0.146 A 
ATOM      7  O   UNL     1       2.090  33.639  70.355  1.00  0.00    -0.285 OA
ATOM      8  C   UNL     1       1.760  34.813  68.353  1.00  0.00     0.111 A 
ATOM      9  C   UNL     1       1.727  36.117  66.302  1.00  0.00     0.094 A 
ATOM     10  C   UNL     1       0.502  35.350  68.704  1.00  0.00     0.134 A 
ATOM     11  C   UNL     1       0.509  36.689  66.678  1.00  0.00     0.123 A 
ATOM     12  C   UNL     1      -0.098  36.294  67.873  1.00  0.00     0.093 A 
BRANCH   3  13
ATOM     13  C   UNL     1       5.467  33.310  67.096  1.00  0.00     0.025 A 
ATOM     14  C   UNL     1       7.724  31.697  67.451  1.00  0.00     0.157 A 
ATOM     15  C   UNL     1       6.501  31.100  67.128  1.00  0.00     0.051 A 
ATOM     16  C   UNL     1       7.855  33.096  67.483  1.00  0.00     0.158 A 
ATOM     17  C   UNL     1       5.350  31.921  66.953  1.00  0.00     0.016 A 
ATOM     18  C   UNL     1       6.752  33.886  67.214  1.00  0.00     0.062 A 
BRANCH  14  19
ATOM     19  O   UNL     1       8.830  30.889  67.676  1.00  0.00    -0.504 OA
ATOM     20  H   UNL     1       9.492  30.681  66.930  1.00  0.00     0.293 HD
ENDBRANCH  14  19
BRANCH  16  21
ATOM     21  O   UNL     1       9.093  33.655  67.782  1.00  0.00    -0.504 OA
ATOM     22  H   UNL     1       9.945  33.140  67.647  1.00  0.00     0.293 HD
ENDBRANCH  16  21
ENDBRANCH   3  13
BRANCH  10  23
ATOM     23  O   UNL     1      -0.118  34.992  69.899  1.00  0.00    -0.507 OA
ATOM     24  H   UNL     1      -0.473  35.658  70.582  1.00  0.00     0.293 HD
ENDBRANCH  10  23
BRANCH  11  25
ATOM     25  O   UNL     1      -0.125  37.600  65.830  1.00  0.00    -0.508 OA
ATOM     26  H   UNL     1      -0.911  37.248  65.247  1.00  0.00     0.293 HD
ENDBRANCH  11  25
ENDBRANCH   1   2
BRANCH   1  27
ATOM     27  C   UNL     1       5.060  33.365  71.264  1.00  0.00     0.339 C 
ATOM     28  C   UNL     1       4.924  31.845  70.814  1.00  0.00     0.214 C 
ATOM     29  O   UNL     1       6.353  33.777  71.782  1.00  0.00    -0.332 OA
ATOM     30  C   UNL     1       6.057  30.875  71.252  1.00  0.00     0.180 C 
ATOM     31  C   UNL     1       7.133  32.786  72.395  1.00  0.00     0.179 C 
ATOM     32  C   UNL     1       7.365  31.584  71.458  1.00  0.00     0.177 C 
BRANCH  28  33
ATOM     33  O   UNL     1       3.718  31.343  71.360  1.00  0.00    -0.384 OA
ATOM     34  H   UNL     1       3.598  30.374  71.135  1.00  0.00     0.211 HD
ENDBRANCH  28  33
BRANCH  30  35
ATOM     35  O   UNL     1       6.246  29.876  70.277  1.00  0.00    -0.387 OA
ATOM     36  H   UNL     1       6.689  29.081  70.721  1.00  0.00     0.211 HD
ENDBRANCH  30  35
BRANCH  31  37
ATOM     37  C   UNL     1       6.678  32.460  73.842  1.00  0.00     0.191 C 
BRANCH  37  38
ATOM     38  O   UNL     1       7.259  31.318  74.378  1.00  0.00    -0.394 OA
ATOM     39  H   UNL     1       6.710  30.523  74.118  1.00  0.00     0.210 HD
ENDBRANCH  37  38
ENDBRANCH  31  37
BRANCH  32  40
ATOM     40  O   UNL     1       7.888  31.969  70.204  1.00  0.00    -0.387 OA
ATOM     41  H   UNL     1       8.754  32.475  70.344  1.00  0.00     0.211 HD
ENDBRANCH  32  40
ENDBRANCH   1  27
TORSDOF 12
ENDMDL
MODEL 3
REMARK VINA RESULT:    -5.728     15.944     19.334
REMARK INTER + INTRA:          -9.825
REMARK INTER:                  -8.327
REMARK INTRA:                  -1.499
REMARK UNBOUND:                -1.419
REMARK SMILES O=c1c(O[C@@H]2O[C@@H](CO)[C@H](O)[C@H](O)[C@H]2O)c(-c2ccc(O)c(O)c2)oc2cc(O)cc(O)c12
REMARK SMILES IDX 4 1 3 2 16 3 25 4 2 5 26 6 1 7 33 8 27 9 31 10 28 11 30 12
REMARK SMILES IDX 17 13 20 14 19 15 22 16 18 17 24 18 21 19 23 21 32 23 29 25
REMARK SMILES IDX 5 27 14 28 6 29 12 30 7 31 10 32 15 33 13 35 8 37 9 38 11 40
REMARK H PARENT 21 20 23 22 32 24 29 26 15 34 13 36 9 39 11 41
REMARK Flexibility Score: inf
ROOT
ATOM      1  O   UNL     1      15.602  46.527  73.243  1.00  0.00    -0.454 OA
ENDROOT
BRANCH   1   2
ATOM      2  C   UNL     1      16.038  45.556  74.198  1.00  0.00     0.214 A 
ATOM      3  C   UNL     1      17.342  45.489  74.755  1.00  0.00     0.180 A 
ATOM      4  O   UNL     1      17.941  44.293  74.829  1.00  0.00    -0.452 OA
ATOM      5  C   UNL     1      15.272  44.377  74.268  1.00  0.00     0.239 A 
ATOM      6  C   UNL     1      17.304  43.155  74.523  1.00  0.00     0.146 A 
ATOM      7  O   UNL     1      14.003  44.459  74.266  1.00  0.00    -0.285 OA
ATOM      8  C   UNL     1      15.918  43.113  74.390  1.00  0.00     0.111 A 
ATOM      9  C   UNL     1      18.053  41.953  74.359  1.00  0.00     0.094 A 
ATOM     10  C   UNL     1      15.265  41.901  74.068  1.00  0.00     0.134 A 
ATOM     11  C   UNL     1      17.412  40.769  73.987  1.00  0.00     0.123 A 
ATOM     12  C   UNL     1      16.021  40.751  73.853  1.00  0.00     0.093 A 
BRANCH   3  13
ATOM     13  C   UNL     1      18.049  46.584  75.381  1.00  0.00     0.025 A 
ATOM     14  C   UNL     1      18.852  47.886  77.723  1.00  0.00     0.157 A 
ATOM     15  C   UNL     1      19.734  47.000  77.097  1.00  0.00     0.051 A 
ATOM     16  C   UNL     1      17.622  48.216  77.128  1.00  0.00     0.158 A 
ATOM     17  C   UNL     1      19.323  46.331  75.907  1.00  0.00     0.016 A 
ATOM     18  C   UNL     1      17.275  47.636  75.921  1.00  0.00     0.062 A 
BRANCH  14  19
ATOM     19  O   UNL     1      19.235  48.492  78.911  1.00  0.00    -0.504 OA
ATOM     20  H   UNL     1      18.580  48.595  79.686  1.00  0.00     0.293 HD
ENDBRANCH  14  19
BRANCH  16  21
ATOM     21  O   UNL     1      16.781  49.122  77.766  1.00  0.00    -0.504 OA
ATOM     22  H   UNL     1      15.782  49.050  77.689  1.00  0.00     0.293 HD
ENDBRANCH  16  21
ENDBRANCH   3  13
BRANCH  10  23
ATOM     23  O   UNL     1      13.882  41.857  73.907  1.00  0.00    -0.507 OA
ATOM     24  H   UNL     1      13.352  41.004  73.745  1.00  0.00     0.293 HD
ENDBRANCH  10  23
BRANCH  11  25
ATOM     25  O   UNL     1      18.154  39.598  73.815  1.00  0.00    -0.508 OA
ATOM     26  H   UNL     1      18.858  39.362  74.544  1.00  0.00     0.293 HD
ENDBRANCH  11  25
ENDBRANCH   1   2
BRANCH   1  27
ATOM     27  C   UNL     1      14.936  47.743  73.478  1.00  0.00     0.339 C 
ATOM     28  C   UNL     1      13.880  48.000  72.317  1.00  0.00     0.214 C 
ATOM     29  O   UNL     1      14.405  47.620  74.825  1.00  0.00    -0.332 OA
ATOM     30  C   UNL     1      12.443  48.407  72.746  1.00  0.00     0.180 C 
ATOM     31  C   UNL     1      13.208  48.297  75.096  1.00  0.00     0.179 C 
ATOM     32  C   UNL     1      12.090  47.892  74.113  1.00  0.00     0.177 C 
BRANCH  28  33
ATOM     33  O   UNL     1      14.380  49.049  71.508  1.00  0.00    -0.384 OA
ATOM     34  H   UNL     1      14.967  49.665  72.039  1.00  0.00     0.211 HD
ENDBRANCH  28  33
BRANCH  30  35
ATOM     35  O   UNL     1      11.500  47.902  71.829  1.00  0.00    -0.387 OA
ATOM     36  H   UNL     1      10.616  47.797  72.311  1.00  0.00     0.211 HD
ENDBRANCH  30  35
BRANCH  31  37
ATOM     37  C   UNL     1      13.405  49.817  75.332  1.00  0.00     0.191 C 
BRANCH  37  38
ATOM     38  O   UNL     1      14.301  50.125  76.348  1.00  0.00    -0.394 OA
ATOM     39  H   UNL     1      15.116  50.541  75.946  1.00  0.00     0.210 HD
ENDBRANCH  37  38
ENDBRANCH  31  37
BRANCH  32  40
ATOM     40  O   UNL     1      11.906  46.493  74.050  1.00  0.00    -0.387 OA
ATOM     41  H   UNL     1      12.647  46.084  73.495  1.00  0.00     0.211 HD
ENDBRANCH  32  40
ENDBRANCH   1  27
TORSDOF 12
ENDMDL
MODEL 4
REMARK VINA RESULT:    -5.582     16.002     19.584
REMARK INTER + INTRA:          -9.611
REMARK INTER:                  -8.302
REMARK INTRA:                  -1.309
REMARK UNBOUND:                -1.419
REMARK SMILES O=c1c(O[C@@H]2O[C@@H](CO)[C@H](O)[C@H](O)[C@H]2O)c(-c2ccc(O)c(O)c2)oc2cc(O)cc(O)c12
REMARK SMILES IDX 4 1 3 2 16 3 25 4 2 5 26 6 1 7 33 8 27 9 31 10 28 11 30 12
REMARK SMILES IDX 17 13 20 14 19 15 22 16 18 17 24 18 21 19 23 21 32 23 29 25
REMARK SMILES IDX 5 27 14 28 6 29 12 30 7 31 10 32 15 33 13 35 8 37 9 38 11 40
REMARK H PARENT 21 20 23 22 32 24 29 26 15 34 13 36 9 39 11 41
REMARK Flexibility Score: inf
ROOT
ATOM      1  O   UNL     1      16.048  45.988  73.991  1.00  0.00    -0.454 OA
ENDROOT
BRANCH   1   2
ATOM      2  C   UNL     1      17.258  45.406  74.484  1.00  0.00     0.214 A 
ATOM      3  C   UNL     1      17.405  44.054  74.893  1.00  0.00     0.180 A 
ATOM      4  O   UNL     1      18.051  43.804  76.039  1.00  0.00    -0.452 OA
ATOM      5  C   UNL     1      18.219  46.310  74.974  1.00  0.00     0.239 A 
ATOM      6  C   UNL     1      18.674  44.766  76.733  1.00  0.00     0.146 A 
ATOM      7  O   UNL     1      18.472  47.367  74.312  1.00  0.00    -0.285 OA
ATOM      8  C   UNL     1      18.933  46.014  76.170  1.00  0.00     0.111 A 
ATOM      9  C   UNL     1      19.110  44.502  78.065  1.00  0.00     0.094 A 
ATOM     10  C   UNL     1      19.593  47.014  76.919  1.00  0.00     0.134 A 
ATOM     11  C   UNL     1      19.712  45.509  78.822  1.00  0.00     0.123 A 
ATOM     12  C   UNL     1      19.957  46.756  78.239  1.00  0.00     0.093 A 
BRANCH   3  13
ATOM     13  C   UNL     1      17.032  42.893  74.116  1.00  0.00     0.025 A 
ATOM     14  C   UNL     1      16.030  40.282  74.048  1.00  0.00     0.157 A 
ATOM     15  C   UNL     1      15.163  41.353  73.813  1.00  0.00     0.051 A 
ATOM     16  C   UNL     1      17.411  40.495  74.200  1.00  0.00     0.158 A 
ATOM     17  C   UNL     1      15.671  42.684  73.854  1.00  0.00     0.016 A 
ATOM     18  C   UNL     1      17.908  41.785  74.139  1.00  0.00     0.062 A 
BRANCH  14  19
ATOM     19  O   UNL     1      15.520  38.992  74.063  1.00  0.00    -0.504 OA
ATOM     20  H   UNL     1      14.863  38.675  73.351  1.00  0.00     0.293 HD
ENDBRANCH  14  19
BRANCH  16  21
ATOM     21  O   UNL     1      18.248  39.403  74.405  1.00  0.00    -0.504 OA
ATOM     22  H   UNL     1      18.336  38.977  75.310  1.00  0.00     0.293 HD
ENDBRANCH  16  21
ENDBRANCH   3  13
BRANCH  10  23
ATOM     23  O   UNL     1      19.831  48.274  76.373  1.00  0.00    -0.507 OA
ATOM     24  H   UNL     1      20.483  48.952  76.761  1.00  0.00     0.293 HD
ENDBRANCH  10  23
BRANCH  11  25
ATOM     25  O   UNL     1      20.125  45.247  80.130  1.00  0.00    -0.508 OA
ATOM     26  H   UNL     1      20.006  44.278  80.488  1.00  0.00     0.293 HD
ENDBRANCH  11  25
ENDBRANCH   1   2
BRANCH   1  27
ATOM     27  C   UNL     1      14.992  46.556  74.725  1.00  0.00     0.339 C 
ATOM     28  C   UNL     1      15.083  48.141  74.641  1.00  0.00     0.214 C 
ATOM     29  O   UNL     1      13.792  45.944  74.181  1.00  0.00    -0.332 OA
ATOM     30  C   UNL     1      13.778  48.906  74.286  1.00  0.00     0.180 C 
ATOM     31  C   UNL     1      12.625  46.720  74.196  1.00  0.00     0.179 C 
ATOM     32  C   UNL     1      12.830  48.068  73.476  1.00  0.00     0.177 C 
BRANCH  28  33
ATOM     33  O   UNL     1      15.506  48.614  75.907  1.00  0.00    -0.384 OA
ATOM     34  H   UNL     1      15.789  47.855  76.498  1.00  0.00     0.211 HD
ENDBRANCH  28  33
BRANCH  30  35
ATOM     35  O   UNL     1      14.080  50.068  73.547  1.00  0.00    -0.387 OA
ATOM     36  H   UNL     1      13.354  50.751  73.722  1.00  0.00     0.211 HD
ENDBRANCH  30  35
BRANCH  31  37
ATOM     37  C   UNL     1      11.944  46.775  75.588  1.00  0.00     0.191 C 
BRANCH  37  38
ATOM     38  O   UNL     1      11.842  45.544  76.223  1.00  0.00    -0.394 OA
ATOM     39  H   UNL     1      12.232  44.841  75.629  1.00  0.00     0.210 HD
ENDBRANCH  37  38
ENDBRANCH  31  37
BRANCH  32  40
ATOM     40  O   UNL     1      13.347  47.911  72.171  1.00  0.00    -0.387 OA
ATOM     41  H   UNL     1      12.933  47.091  71.745  1.00  0.00     0.211 HD
ENDBRANCH  32  40
ENDBRANCH   1  27
TORSDOF 12
ENDMDL
MODEL 5
REMARK VINA RESULT:    -5.534     16.655     20.172
REMARK INTER + INTRA:          -9.540
REMARK INTER:                  -8.038
REMARK INTRA:                  -1.502
REMARK UNBOUND:                -1.419
REMARK SMILES O=c1c(O[C@@H]2O[C@@H](CO)[C@H](O)[C@H](O)[C@H]2O)c(-c2ccc(O)c(O)c2)oc2cc(O)cc(O)c12
REMARK SMILES IDX 4 1 3 2 16 3 25 4 2 5 26 6 1 7 33 8 27 9 31 10 28 11 30 12
REMARK SMILES IDX 17 13 20 14 19 15 22 16 18 17 24 18 21 19 23 21 32 23 29 25
REMARK SMILES IDX 5 27 14 28 6 29 12 30 7 31 10 32 15 33 13 35 8 37 9 38 11 40
REMARK H PARENT 21 20 23 22 32 24 29 26 15 34 13 36 9 39 11 41
REMARK Flexibility Score: inf
ROOT
ATOM      1  O   UNL     1      18.475  44.956  74.564  1.00  0.00    -0.454 OA
ENDROOT
BRANCH   1   2
ATOM      2  C   UNL     1      18.138  43.892  75.459  1.00  0.00     0.214 A 
ATOM      3  C   UNL     1      18.943  43.452  76.542  1.00  0.00     0.180 A 
ATOM      4  O   UNL     1      19.118  42.135  76.710  1.00  0.00    -0.452 OA
ATOM      5  C   UNL     1      17.175  42.978  74.991  1.00  0.00     0.239 A 
ATOM      6  C   UNL     1      18.456  41.228  75.980  1.00  0.00     0.146 A 
ATOM      7  O   UNL     1      16.131  43.418  74.410  1.00  0.00    -0.285 OA
ATOM      8  C   UNL     1      17.348  41.582  75.212  1.00  0.00     0.111 A 
ATOM      9  C   UNL     1      18.871  39.864  76.009  1.00  0.00     0.094 A 
ATOM     10  C   UNL     1      16.663  40.609  74.451  1.00  0.00     0.134 A 
ATOM     11  C   UNL     1      18.227  38.914  75.213  1.00  0.00     0.123 A 
ATOM     12  C   UNL     1      17.121  39.293  74.445  1.00  0.00     0.093 A 
BRANCH   3  13
ATOM     13  C   UNL     1      19.497  44.296  77.578  1.00  0.00     0.025 A 
ATOM     14  C   UNL     1      19.076  46.015  79.743  1.00  0.00     0.157 A 
ATOM     15  C   UNL     1      19.344  44.665  79.985  1.00  0.00     0.051 A 
ATOM     16  C   UNL     1      19.132  46.537  78.439  1.00  0.00     0.158 A 
ATOM     17  C   UNL     1      19.553  43.787  78.883  1.00  0.00     0.016 A 
ATOM     18  C   UNL     1      19.433  45.694  77.384  1.00  0.00     0.062 A 
BRANCH  14  19
ATOM     19  O   UNL     1      18.818  46.856  80.817  1.00  0.00    -0.504 OA
ATOM     20  H   UNL     1      17.958  47.400  80.867  1.00  0.00     0.293 HD
ENDBRANCH  14  19
BRANCH  16  21
ATOM     21  O   UNL     1      18.885  47.891  78.238  1.00  0.00    -0.504 OA
ATOM     22  H   UNL     1      17.953  48.263  78.274  1.00  0.00     0.293 HD
ENDBRANCH  16  21
ENDBRANCH   3  13
BRANCH  10  23
ATOM     23  O   UNL     1      15.571  40.961  73.660  1.00  0.00    -0.507 OA
ATOM     24  H   UNL     1      15.460  40.691  72.685  1.00  0.00     0.293 HD
ENDBRANCH  10  23
BRANCH  11  25
ATOM     25  O   UNL     1      18.647  37.583  75.237  1.00  0.00    -0.508 OA
ATOM     26  H   UNL     1      17.913  36.846  75.273  1.00  0.00     0.293 HD
ENDBRANCH  11  25
ENDBRANCH   1   2
BRANCH   1  27
ATOM     27  C   UNL     1      17.633  45.950  74.035  1.00  0.00     0.339 C 
ATOM     28  C   UNL     1      16.775  46.596  75.208  1.00  0.00     0.214 C 
ATOM     29  O   UNL     1      18.523  46.843  73.312  1.00  0.00    -0.332 OA
ATOM     30  C   UNL     1      16.723  48.148  75.273  1.00  0.00     0.180 C 
ATOM     31  C   UNL     1      18.152  48.194  73.255  1.00  0.00     0.179 C 
ATOM     32  C   UNL     1      17.939  48.785  74.664  1.00  0.00     0.177 C 
BRANCH  28  33
ATOM     33  O   UNL     1      15.441  46.144  75.062  1.00  0.00    -0.384 OA
ATOM     34  H   UNL     1      14.903  46.786  74.512  1.00  0.00     0.211 HD
ENDBRANCH  28  33
BRANCH  30  35
ATOM     35  O   UNL     1      16.625  48.576  76.612  1.00  0.00    -0.387 OA
ATOM     36  H   UNL     1      17.550  48.843  76.926  1.00  0.00     0.211 HD
ENDBRANCH  30  35
BRANCH  31  37
ATOM     37  C   UNL     1      17.044  48.481  72.209  1.00  0.00     0.191 C 
BRANCH  37  38
ATOM     38  O   UNL     1      17.420  48.229  70.896  1.00  0.00    -0.394 OA
ATOM     39  H   UNL     1      17.425  49.091  70.390  1.00  0.00     0.210 HD
ENDBRANCH  37  38
ENDBRANCH  31  37
BRANCH  32  40
ATOM     40  O   UNL     1      19.049  48.574  75.512  1.00  0.00    -0.387 OA
ATOM     41  H   UNL     1      19.045  49.272  76.245  1.00  0.00     0.211 HD
ENDBRANCH  32  40
ENDBRANCH   1  27
TORSDOF 12
ENDMDL
MODEL 6
REMARK VINA RESULT:    -5.445      1.637      5.618
REMARK INTER + INTRA:          -9.410
REMARK INTER:                  -8.220
REMARK INTRA:                  -1.190
REMARK UNBOUND:                -1.419
REMARK SMILES O=c1c(O[C@@H]2O[C@@H](CO)[C@H](O)[C@H](O)[C@H]2O)c(-c2ccc(O)c(O)c2)oc2cc(O)cc(O)c12
REMARK SMILES IDX 4 1 3 2 16 3 25 4 2 5 26 6 1 7 33 8 27 9 31 10 28 11 30 12
REMARK SMILES IDX 17 13 20 14 19 15 22 16 18 17 24 18 21 19 23 21 32 23 29 25
REMARK SMILES IDX 5 27 14 28 6 29 12 30 7 31 10 32 15 33 13 35 8 37 9 38 11 40
REMARK H PARENT 21 20 23 22 32 24 29 26 15 34 13 36 9 39 11 41
REMARK Flexibility Score: inf
ROOT
ATOM      1  O   UNL     1       6.746  32.202  70.676  1.00  0.00    -0.454 OA
ENDROOT
BRANCH   1   2
ATOM      2  C   UNL     1       5.367  32.326  71.036  1.00  0.00     0.214 A 
ATOM      3  C   UNL     1       4.547  31.263  71.497  1.00  0.00     0.180 A 
ATOM      4  O   UNL     1       3.318  31.139  70.980  1.00  0.00    -0.452 OA
ATOM      5  C   UNL     1       4.695  33.447  70.515  1.00  0.00     0.239 A 
ATOM      6  C   UNL     1       2.796  32.053  70.152  1.00  0.00     0.146 A 
ATOM      7  O   UNL     1       5.266  34.584  70.546  1.00  0.00    -0.285 OA
ATOM      8  C   UNL     1       3.372  33.313  70.006  1.00  0.00     0.111 A 
ATOM      9  C   UNL     1       1.607  31.745  69.425  1.00  0.00     0.094 A 
ATOM     10  C   UNL     1       2.803  34.264  69.129  1.00  0.00     0.134 A 
ATOM     11  C   UNL     1       1.079  32.666  68.517  1.00  0.00     0.123 A 
ATOM     12  C   UNL     1       1.678  33.922  68.382  1.00  0.00     0.093 A 
BRANCH   3  13
ATOM     13  C   UNL     1       4.864  30.363  72.584  1.00  0.00     0.025 A 
ATOM     14  C   UNL     1       5.529  30.004  75.277  1.00  0.00     0.157 A 
ATOM     15  C   UNL     1       4.195  29.876  74.880  1.00  0.00     0.051 A 
ATOM     16  C   UNL     1       6.547  30.194  74.326  1.00  0.00     0.158 A 
ATOM     17  C   UNL     1       3.855  30.064  73.509  1.00  0.00     0.016 A 
ATOM     18  C   UNL     1       6.216  30.277  72.986  1.00  0.00     0.062 A 
BRANCH  14  19
ATOM     19  O   UNL     1       5.849  29.875  76.621  1.00  0.00    -0.504 OA
ATOM     20  H   UNL     1       5.153  30.039  77.347  1.00  0.00     0.293 HD
ENDBRANCH  14  19
BRANCH  16  21
ATOM     21  O   UNL     1       7.868  30.291  74.755  1.00  0.00    -0.504 OA
ATOM     22  H   UNL     1       8.605  30.541  74.120  1.00  0.00     0.293 HD
ENDBRANCH  16  21
ENDBRANCH   3  13
BRANCH  10  23
ATOM     23  O   UNL     1       3.389  35.516  68.958  1.00  0.00    -0.507 OA
ATOM     24  H   UNL     1       3.567  36.173  69.714  1.00  0.00     0.293 HD
ENDBRANCH  10  23
BRANCH  11  25
ATOM     25  O   UNL     1      -0.077  32.353  67.799  1.00  0.00    -0.508 OA
ATOM     26  H   UNL     1      -0.767  31.718  68.249  1.00  0.00     0.293 HD
ENDBRANCH  11  25
ENDBRANCH   1   2
BRANCH   1  27
ATOM     27  C   UNL     1       7.294  31.877  69.422  1.00  0.00     0.339 C 
ATOM     28  C   UNL     1       6.124  31.731  68.356  1.00  0.00     0.214 C 
ATOM     29  O   UNL     1       8.279  32.915  69.169  1.00  0.00    -0.332 OA
ATOM     30  C   UNL     1       6.303  32.475  67.004  1.00  0.00     0.180 C 
ATOM     31  C   UNL     1       8.496  33.266  67.829  1.00  0.00     0.179 C 
ATOM     32  C   UNL     1       7.186  33.684  67.132  1.00  0.00     0.177 C 
BRANCH  28  33
ATOM     33  O   UNL     1       5.990  30.354  68.054  1.00  0.00    -0.384 OA
ATOM     34  H   UNL     1       6.143  30.183  67.078  1.00  0.00     0.211 HD
ENDBRANCH  28  33
BRANCH  30  35
ATOM     35  O   UNL     1       5.052  32.894  66.508  1.00  0.00    -0.387 OA
ATOM     36  H   UNL     1       4.589  33.429  67.232  1.00  0.00     0.211 HD
ENDBRANCH  30  35
BRANCH  31  37
ATOM     37  C   UNL     1       9.393  32.254  67.070  1.00  0.00     0.191 C 
BRANCH  37  38
ATOM     38  O   UNL     1      10.706  32.674  66.896  1.00  0.00    -0.394 OA
ATOM     39  H   UNL     1      11.204  32.543  67.752  1.00  0.00     0.210 HD
ENDBRANCH  37  38
ENDBRANCH  31  37
BRANCH  32  40
ATOM     40  O   UNL     1       6.494  34.691  67.839  1.00  0.00    -0.387 OA
ATOM     41  H   UNL     1       5.571  34.355  68.082  1.00  0.00     0.211 HD
ENDBRANCH  32  40
ENDBRANCH   1  27
TORSDOF 12
ENDMDL
MODEL 7
REMARK VINA RESULT:    -5.363     16.620     20.065
REMARK INTER + INTRA:          -9.290
REMARK INTER:                  -8.205
REMARK INTRA:                  -1.085
REMARK UNBOUND:                -1.419
REMARK SMILES O=c1c(O[C@@H]2O[C@@H](CO)[C@H](O)[C@H](O)[C@H]2O)c(-c2ccc(O)c(O)c2)oc2cc(O)cc(O)c12
REMARK SMILES IDX 4 1 3 2 16 3 25 4 2 5 26 6 1 7 33 8 27 9 31 10 28 11 30 12
REMARK SMILES IDX 17 13 20 14 19 15 22 16 18 17 24 18 21 19 23 21 32 23 29 25
REMARK SMILES IDX 5 27 14 28 6 29 12 30 7 31 10 32 15 33 13 35 8 37 9 38 11 40
REMARK H PARENT 21 20 23 22 32 24 29 26 15 34 13 36 9 39 11 41
REMARK Flexibility Score: inf
ROOT
ATOM      1  O   UNL     1      18.399  45.342  74.523  1.00  0.00    -0.454 OA
ENDROOT
BRANCH   1   2
ATOM      2  C   UNL     1      18.038  44.262  75.388  1.00  0.00     0.214 A 
ATOM      3  C   UNL     1      18.849  43.750  76.434  1.00  0.00     0.180 A 
ATOM      4  O   UNL     1      18.970  42.422  76.551  1.00  0.00    -0.452 OA
ATOM      5  C   UNL     1      17.024  43.408  74.914  1.00  0.00     0.239 A 
ATOM      6  C   UNL     1      18.251  41.570  75.808  1.00  0.00     0.146 A 
ATOM      7  O   UNL     1      15.987  43.913  74.377  1.00  0.00    -0.285 OA
ATOM      8  C   UNL     1      17.142  41.999  75.082  1.00  0.00     0.111 A 
ATOM      9  C   UNL     1      18.607  40.189  75.779  1.00  0.00     0.094 A 
ATOM     10  C   UNL     1      16.396  41.084  74.306  1.00  0.00     0.134 A 
ATOM     11  C   UNL     1      17.903  39.297  74.968  1.00  0.00     0.123 A 
ATOM     12  C   UNL     1      16.796  39.751  74.243  1.00  0.00     0.093 A 
BRANCH   3  13
ATOM     13  C   UNL     1      19.465  44.531  77.484  1.00  0.00     0.025 A 
ATOM     14  C   UNL     1      19.176  46.126  79.763  1.00  0.00     0.157 A 
ATOM     15  C   UNL     1      19.448  44.764  79.913  1.00  0.00     0.051 A 
ATOM     16  C   UNL     1      19.162  46.721  78.489  1.00  0.00     0.158 A 
ATOM     17  C   UNL     1      19.590  43.949  78.752  1.00  0.00     0.016 A 
ATOM     18  C   UNL     1      19.399  45.938  77.374  1.00  0.00     0.062 A 
BRANCH  14  19
ATOM     19  O   UNL     1      18.983  46.905  80.895  1.00  0.00    -0.504 OA
ATOM     20  H   UNL     1      18.495  47.798  80.845  1.00  0.00     0.293 HD
ENDBRANCH  14  19
BRANCH  16  21
ATOM     21  O   UNL     1      18.913  48.085  78.379  1.00  0.00    -0.504 OA
ATOM     22  H   UNL     1      19.532  48.689  77.868  1.00  0.00     0.293 HD
ENDBRANCH  16  21
ENDBRANCH   3  13
BRANCH  10  23
ATOM     23  O   UNL     1      15.302  41.510  73.556  1.00  0.00    -0.507 OA
ATOM     24  H   UNL     1      15.086  41.179  72.619  1.00  0.00     0.293 HD
ENDBRANCH  10  23
BRANCH  11  25
ATOM     25  O   UNL     1      18.264  37.949  74.934  1.00  0.00    -0.508 OA
ATOM     26  H   UNL     1      19.165  37.680  75.380  1.00  0.00     0.293 HD
ENDBRANCH  11  25
ENDBRANCH   1   2
BRANCH   1  27
ATOM     27  C   UNL     1      18.081  46.706  74.651  1.00  0.00     0.339 C 
ATOM     28  C   UNL     1      18.180  47.408  73.227  1.00  0.00     0.214 C 
ATOM     29  O   UNL     1      16.779  46.723  75.296  1.00  0.00    -0.332 OA
ATOM     30  C   UNL     1      16.987  48.308  72.799  1.00  0.00     0.180 C 
ATOM     31  C   UNL     1      15.929  47.790  74.973  1.00  0.00     0.179 C 
ATOM     32  C   UNL     1      15.699  47.895  73.452  1.00  0.00     0.177 C 
BRANCH  28  33
ATOM     33  O   UNL     1      19.334  48.228  73.233  1.00  0.00    -0.384 OA
ATOM     34  H   UNL     1      19.251  48.970  72.564  1.00  0.00     0.211 HD
ENDBRANCH  28  33
BRANCH  30  35
ATOM     35  O   UNL     1      16.811  48.251  71.402  1.00  0.00    -0.387 OA
ATOM     36  H   UNL     1      17.677  48.536  70.962  1.00  0.00     0.211 HD
ENDBRANCH  30  35
BRANCH  31  37
ATOM     37  C   UNL     1      16.291  49.106  75.711  1.00  0.00     0.191 C 
BRANCH  37  38
ATOM     38  O   UNL     1      16.416  48.972  77.088  1.00  0.00    -0.394 OA
ATOM     39  H   UNL     1      17.089  49.634  77.418  1.00  0.00     0.210 HD
ENDBRANCH  37  38
ENDBRANCH  31  37
BRANCH  32  40
ATOM     40  O   UNL     1      15.260  46.677  72.887  1.00  0.00    -0.387 OA
ATOM     41  H   UNL     1      16.064  46.139  72.589  1.00  0.00     0.211 HD
ENDBRANCH  32  40
ENDBRANCH   1  27
TORSDOF 12
ENDMDL
MODEL 8
REMARK VINA RESULT:    -5.295     16.405     19.850
REMARK INTER + INTRA:          -9.190
REMARK INTER:                  -8.038
REMARK INTRA:                  -1.153
REMARK UNBOUND:                -1.419
REMARK SMILES O=c1c(O[C@@H]2O[C@@H](CO)[C@H](O)[C@H](O)[C@H]2O)c(-c2ccc(O)c(O)c2)oc2cc(O)cc(O)c12
REMARK SMILES IDX 4 1 3 2 16 3 25 4 2 5 26 6 1 7 33 8 27 9 31 10 28 11 30 12
REMARK SMILES IDX 17 13 20 14 19 15 22 16 18 17 24 18 21 19 23 21 32 23 29 25
REMARK SMILES IDX 5 27 14 28 6 29 12 30 7 31 10 32 15 33 13 35 8 37 9 38 11 40
REMARK H PARENT 21 20 23 22 32 24 29 26 15 34 13 36 9 39 11 41
REMARK Flexibility Score: inf
ROOT
ATOM      1  O   UNL     1      16.783  45.515  75.512  1.00  0.00    -0.454 OA
ENDROOT
BRANCH   1   2
ATOM      2  C   UNL     1      16.420  46.739  74.868  1.00  0.00     0.214 A 
ATOM      3  C   UNL     1      15.405  46.873  73.884  1.00  0.00     0.180 A 
ATOM      4  O   UNL     1      15.673  47.595  72.789  1.00  0.00    -0.452 OA
ATOM      5  C   UNL     1      17.385  47.764  74.907  1.00  0.00     0.239 A 
ATOM      6  C   UNL     1      16.805  48.300  72.657  1.00  0.00     0.146 A 
ATOM      7  O   UNL     1      17.996  48.000  75.997  1.00  0.00    -0.285 OA
ATOM      8  C   UNL     1      17.632  48.556  73.749  1.00  0.00     0.111 A 
ATOM      9  C   UNL     1      17.160  48.827  71.380  1.00  0.00     0.094 A 
ATOM     10  C   UNL     1      18.820  49.303  73.589  1.00  0.00     0.134 A 
ATOM     11  C   UNL     1      18.363  49.517  71.213  1.00  0.00     0.123 A 
ATOM     12  C   UNL     1      19.180  49.757  72.322  1.00  0.00     0.093 A 
BRANCH   3  13
ATOM     13  C   UNL     1      14.043  46.405  74.008  1.00  0.00     0.025 A 
ATOM     14  C   UNL     1      11.794  45.988  75.619  1.00  0.00     0.157 A 
ATOM     15  C   UNL     1      11.868  47.142  74.834  1.00  0.00     0.051 A 
ATOM     16  C   UNL     1      12.775  44.986  75.518  1.00  0.00     0.158 A 
ATOM     17  C   UNL     1      13.016  47.358  74.018  1.00  0.00     0.016 A 
ATOM     18  C   UNL     1      13.836  45.162  74.648  1.00  0.00     0.062 A 
BRANCH  14  19
ATOM     19  O   UNL     1      10.701  45.808  76.454  1.00  0.00    -0.504 OA
ATOM     20  H   UNL     1      10.552  44.928  76.947  1.00  0.00     0.293 HD
ENDBRANCH  14  19
BRANCH  16  21
ATOM     21  O   UNL     1      12.656  43.838  76.294  1.00  0.00    -0.504 OA
ATOM     22  H   UNL     1      12.903  42.935  75.931  1.00  0.00     0.293 HD
ENDBRANCH  16  21
ENDBRANCH   3  13
BRANCH  10  23
ATOM     23  O   UNL     1      19.665  49.540  74.671  1.00  0.00    -0.507 OA
ATOM     24  H   UNL     1      19.511  50.262  75.370  1.00  0.00     0.293 HD
ENDBRANCH  10  23
BRANCH  11  25
ATOM     25  O   UNL     1      18.711  50.019  69.957  1.00  0.00    -0.508 OA
ATOM     26  H   UNL     1      19.373  49.460  69.381  1.00  0.00     0.293 HD
ENDBRANCH  11  25
ENDBRANCH   1   2
BRANCH   1  27
ATOM     27  C   UNL     1      17.690  44.534  75.072  1.00  0.00     0.339 C 
ATOM     28  C   UNL     1      19.000  44.584  75.972  1.00  0.00     0.214 C 
ATOM     29  O   UNL     1      16.934  43.294  75.092  1.00  0.00    -0.332 OA
ATOM     30  C   UNL     1      19.523  43.233  76.533  1.00  0.00     0.180 C 
ATOM     31  C   UNL     1      17.652  42.121  75.359  1.00  0.00     0.179 C 
ATOM     32  C   UNL     1      18.426  42.218  76.689  1.00  0.00     0.177 C 
BRANCH  28  33
ATOM     33  O   UNL     1      20.041  45.133  75.184  1.00  0.00    -0.384 OA
ATOM     34  H   UNL     1      19.701  45.411  74.283  1.00  0.00     0.211 HD
ENDBRANCH  28  33
BRANCH  30  35
ATOM     35  O   UNL     1      20.124  43.428  77.792  1.00  0.00    -0.387 OA
ATOM     36  H   UNL     1      21.110  43.213  77.709  1.00  0.00     0.211 HD
ENDBRANCH  30  35
BRANCH  31  37
ATOM     37  C   UNL     1      18.444  41.596  74.133  1.00  0.00     0.191 C 
BRANCH  37  38
ATOM     38  O   UNL     1      18.338  40.226  73.929  1.00  0.00    -0.394 OA
ATOM     39  H   UNL     1      18.968  39.757  74.548  1.00  0.00     0.210 HD
ENDBRANCH  37  38
ENDBRANCH  31  37
BRANCH  32  40
ATOM     40  O   UNL     1      17.598  42.592  77.771  1.00  0.00    -0.387 OA
ATOM     41  H   UNL     1      17.337  43.565  77.670  1.00  0.00     0.211 HD
ENDBRANCH  32  40
ENDBRANCH   1  27
TORSDOF 12
ENDMDL
