MODEL 1
REMARK VINA RESULT:    -3.861      0.000      0.000
REMARK INTER + INTRA:          -4.214
REMARK INTER:                  -4.200
REMARK INTRA:                  -0.014
REMARK UNBOUND:                -0.014
REMARK SMILES OCc1ccco1
REMARK SMILES IDX 2 1 3 2 5 3 6 4 4 5 7 6 1 7
REMARK H PARENT 1 8
REMARK Flexibility Score: inf
ROOT
ATOM      1  C   UNL     1      -7.787   4.615   0.133  1.00  0.00     0.231 C 
ENDROOT
BRANCH   1   2
ATOM      2  C   UNL     1      -8.730   3.968  -0.831  1.00  0.00     0.129 A 
ATOM      3  C   UNL     1     -10.046   3.590  -2.548  1.00  0.00     0.042 A 
ATOM      4  C   UNL     1      -9.934   2.469  -1.750  1.00  0.00     0.195 A 
ATOM      5  C   UNL     1      -9.264   4.559  -1.958  1.00  0.00     0.048 A 
ATOM      6  O   UNL     1      -9.141   2.725  -0.735  1.00  0.00    -0.467 OA
ENDBRANCH   1   2
BRANCH   1   7
ATOM      7  O   UNL     1      -6.463   4.343  -0.234  1.00  0.00    -0.388 OA
ATOM      8  H   UNL     1      -6.502   3.847  -1.094  1.00  0.00     0.211 HD
ENDBRANCH   1   7
TORSDOF 2
ENDMDL
MODEL 2
REMARK VINA RESULT:    -3.832     18.282     18.591
REMARK INTER + INTRA:          -4.182
REMARK INTER:                  -4.168
REMARK INTRA:                  -0.014
REMARK UNBOUND:                -0.014
REMARK SMILES OCc1ccco1
REMARK SMILES IDX 2 1 3 2 5 3 6 4 4 5 7 6 1 7
REMARK H PARENT 1 8
REMARK Flexibility Score: inf
ROOT
ATOM      1  C   UNL     1       0.977  -2.518 -14.681  1.00  0.00     0.231 C 
ENDROOT
BRANCH   1   2
ATOM      2  C   UNL     1       2.150  -3.305 -14.190  1.00  0.00     0.129 A 
ATOM      3  C   UNL     1       4.081  -3.866 -13.308  1.00  0.00     0.042 A 
ATOM      4  C   UNL     1       3.359  -4.983 -13.678  1.00  0.00     0.195 A 
ATOM      5  C   UNL     1       3.300  -2.779 -13.635  1.00  0.00     0.048 A 
ATOM      6  O   UNL     1       2.211  -4.616 -14.198  1.00  0.00    -0.467 OA
ENDBRANCH   1   2
BRANCH   1   7
ATOM      7  O   UNL     1       0.143  -2.178 -13.607  1.00  0.00    -0.388 OA
ATOM      8  H   UNL     1       0.134  -2.961 -12.996  1.00  0.00     0.211 HD
ENDBRANCH   1   7
TORSDOF 2
ENDMDL
MODEL 3
REMARK VINA RESULT:    -3.772     18.675     19.012
REMARK INTER + INTRA:          -4.117
REMARK INTER:                  -4.101
REMARK INTRA:                  -0.016
REMARK UNBOUND:                -0.014
REMARK SMILES OCc1ccco1
REMARK SMILES IDX 2 1 3 2 5 3 6 4 4 5 7 6 1 7
REMARK H PARENT 1 8
REMARK Flexibility Score: inf
ROOT
ATOM      1  C   UNL     1       3.722  -5.881 -13.379  1.00  0.00     0.231 C 
ENDROOT
BRANCH   1   2
ATOM      2  C   UNL     1       3.140  -4.541 -13.700  1.00  0.00     0.129 A 
ATOM      3  C   UNL     1       2.037  -2.909 -14.670  1.00  0.00     0.042 A 
ATOM      4  C   UNL     1       2.619  -2.485 -13.491  1.00  0.00     0.195 A 
ATOM      5  C   UNL     1       2.369  -4.239 -14.805  1.00  0.00     0.048 A 
ATOM      6  O   UNL     1       3.268  -3.482 -12.935  1.00  0.00    -0.467 OA
ENDBRANCH   1   2
BRANCH   1   7
ATOM      7  O   UNL     1       3.071  -6.435 -12.269  1.00  0.00    -0.388 OA
ATOM      8  H   UNL     1       3.415  -5.956 -11.470  1.00  0.00     0.211 HD
ENDBRANCH   1   7
TORSDOF 2
ENDMDL
MODEL 4
REMARK VINA RESULT:    -3.683     12.655     13.288
REMARK INTER + INTRA:          -4.020
REMARK INTER:                  -4.004
REMARK INTRA:                  -0.016
REMARK UNBOUND:                -0.014
REMARK SMILES OCc1ccco1
REMARK SMILES IDX 2 1 3 2 5 3 6 4 4 5 7 6 1 7
REMARK H PARENT 1 8
REMARK Flexibility Score: inf
ROOT
ATOM      1  C   UNL     1      -6.058   3.789 -12.973  1.00  0.00     0.231 C 
ENDROOT
BRANCH   1   2
ATOM      2  C   UNL     1      -5.263   2.715 -13.644  1.00  0.00     0.129 A 
ATOM      3  C   UNL     1      -4.493   1.286 -15.123  1.00  0.00     0.042 A 
ATOM      4  C   UNL     1      -3.750   1.247 -13.959  1.00  0.00     0.195 A 
ATOM      5  C   UNL     1      -5.469   2.238 -14.923  1.00  0.00     0.048 A 
ATOM      6  O   UNL     1      -4.233   2.113 -13.098  1.00  0.00    -0.467 OA
ENDBRANCH   1   2
BRANCH   1   7
ATOM      7  O   UNL     1      -6.618   3.301 -11.785  1.00  0.00    -0.388 OA
ATOM      8  H   UNL     1      -7.116   4.055 -11.374  1.00  0.00     0.211 HD
ENDBRANCH   1   7
TORSDOF 2
ENDMDL
MODEL 5
REMARK VINA RESULT:    -3.646      2.053      2.725
REMARK INTER + INTRA:          -3.980
REMARK INTER:                  -3.958
REMARK INTRA:                  -0.022
REMARK UNBOUND:                -0.014
REMARK SMILES OCc1ccco1
REMARK SMILES IDX 2 1 3 2 5 3 6 4 4 5 7 6 1 7
REMARK H PARENT 1 8
REMARK Flexibility Score: inf
ROOT
ATOM      1  C   UNL     1      -9.315   4.292  -2.831  1.00  0.00     0.231 C 
ENDROOT
BRANCH   1   2
ATOM      2  C   UNL     1      -9.999   2.986  -3.084  1.00  0.00     0.129 A 
ATOM      3  C   UNL     1     -11.358   1.443  -3.854  1.00  0.00     0.042 A 
ATOM      4  C   UNL     1     -10.407   0.896  -3.015  1.00  0.00     0.195 A 
ATOM      5  C   UNL     1     -11.094   2.794  -3.903  1.00  0.00     0.048 A 
ATOM      6  O   UNL     1      -9.610   1.841  -2.574  1.00  0.00    -0.467 OA
ENDBRANCH   1   2
BRANCH   1   7
ATOM      7  O   UNL     1      -8.255   4.112  -1.932  1.00  0.00    -0.388 OA
ATOM      8  H   UNL     1      -8.374   3.213  -1.528  1.00  0.00     0.211 HD
ENDBRANCH   1   7
TORSDOF 2
ENDMDL
MODEL 6
REMARK VINA RESULT:    -3.633      1.474      2.984
REMARK INTER + INTRA:          -3.966
REMARK INTER:                  -3.953
REMARK INTRA:                  -0.013
REMARK UNBOUND:                -0.014
REMARK SMILES OCc1ccco1
REMARK SMILES IDX 2 1 3 2 5 3 6 4 4 5 7 6 1 7
REMARK H PARENT 1 8
REMARK Flexibility Score: inf
ROOT
ATOM      1  C   UNL     1      -9.425   3.948  -1.672  1.00  0.00     0.231 C 
ENDROOT
BRANCH   1   2
ATOM      2  C   UNL     1      -8.678   3.747  -0.392  1.00  0.00     0.129 A 
ATOM      3  C   UNL     1      -7.266   3.979   1.274  1.00  0.00     0.042 A 
ATOM      4  C   UNL     1      -8.147   2.941   1.508  1.00  0.00     0.195 A 
ATOM      5  C   UNL     1      -7.611   4.504   0.048  1.00  0.00     0.048 A 
ATOM      6  O   UNL     1      -8.977   2.829   0.497  1.00  0.00    -0.467 OA
ENDBRANCH   1   2
BRANCH   1   7
ATOM      7  O   UNL     1      -8.540   3.898  -2.757  1.00  0.00    -0.388 OA
ATOM      8  H   UNL     1      -7.739   3.399  -2.448  1.00  0.00     0.211 HD
ENDBRANCH   1   7
TORSDOF 2
ENDMDL
MODEL 7
REMARK VINA RESULT:    -3.570     12.270     12.904
REMARK INTER + INTRA:          -3.898
REMARK INTER:                  -3.877
REMARK INTRA:                  -0.021
REMARK UNBOUND:                -0.014
REMARK SMILES OCc1ccco1
REMARK SMILES IDX 2 1 3 2 5 3 6 4 4 5 7 6 1 7
REMARK H PARENT 1 8
REMARK Flexibility Score: inf
ROOT
ATOM      1  C   UNL     1      -4.168   2.040 -14.073  1.00  0.00     0.231 C 
ENDROOT
BRANCH   1   2
ATOM      2  C   UNL     1      -5.362   2.873 -13.731  1.00  0.00     0.129 A 
ATOM      3  C   UNL     1      -7.203   4.064 -13.872  1.00  0.00     0.042 A 
ATOM      4  C   UNL     1      -6.818   3.895 -12.556  1.00  0.00     0.195 A 
ATOM      5  C   UNL     1      -6.265   3.400 -14.633  1.00  0.00     0.048 A 
ATOM      6  O   UNL     1      -5.718   3.179 -12.505  1.00  0.00    -0.467 OA
ENDBRANCH   1   2
BRANCH   1   7
ATOM      7  O   UNL     1      -3.781   1.277 -12.964  1.00  0.00    -0.388 OA
ATOM      8  H   UNL     1      -3.875   1.864 -12.168  1.00  0.00     0.211 HD
ENDBRANCH   1   7
TORSDOF 2
ENDMDL
MODEL 8
REMARK VINA RESULT:    -3.505      1.545      3.270
REMARK INTER + INTRA:          -3.827
REMARK INTER:                  -3.813
REMARK INTRA:                  -0.014
REMARK UNBOUND:                -0.014
REMARK SMILES OCc1ccco1
REMARK SMILES IDX 2 1 3 2 5 3 6 4 4 5 7 6 1 7
REMARK H PARENT 1 8
REMARK Flexibility Score: inf
ROOT
ATOM      1  C   UNL     1     -10.460   1.334  -3.016  1.00  0.00     0.231 C 
ENDROOT
BRANCH   1   2
ATOM      2  C   UNL     1      -9.883   2.531  -2.330  1.00  0.00     0.129 A 
ATOM      3  C   UNL     1      -9.244   4.580  -1.866  1.00  0.00     0.042 A 
ATOM      4  C   UNL     1      -8.992   3.729  -0.808  1.00  0.00     0.195 A 
ATOM      5  C   UNL     1      -9.824   3.809  -2.849  1.00  0.00     0.048 A 
ATOM      6  O   UNL     1      -9.387   2.514  -1.115  1.00  0.00    -0.467 OA
ENDBRANCH   1   2
BRANCH   1   7
ATOM      7  O   UNL     1      -9.431   0.489  -3.454  1.00  0.00    -0.388 OA
ATOM      8  H   UNL     1      -9.550  -0.374  -2.978  1.00  0.00     0.211 HD
ENDBRANCH   1   7
TORSDOF 2
ENDMDL
MODEL 9
REMARK VINA RESULT:    -3.485     19.042     19.361
REMARK INTER + INTRA:          -3.805
REMARK INTER:                  -3.793
REMARK INTRA:                  -0.013
REMARK UNBOUND:                -0.014
REMARK SMILES OCc1ccco1
REMARK SMILES IDX 2 1 3 2 5 3 6 4 4 5 7 6 1 7
REMARK H PARENT 1 8
REMARK Flexibility Score: inf
ROOT
ATOM      1  C   UNL     1       3.177  -2.845 -13.586  1.00  0.00     0.231 C 
ENDROOT
BRANCH   1   2
ATOM      2  C   UNL     1       3.662  -4.238 -13.337  1.00  0.00     0.129 A 
ATOM      3  C   UNL     1       4.162  -6.362 -13.580  1.00  0.00     0.042 A 
ATOM      4  C   UNL     1       4.592  -5.886 -12.357  1.00  0.00     0.195 A 
ATOM      5  C   UNL     1       3.564  -5.297 -14.217  1.00  0.00     0.048 A 
ATOM      6  O   UNL     1       4.281  -4.615 -12.243  1.00  0.00    -0.467 OA
ENDBRANCH   1   2
BRANCH   1   7
ATOM      7  O   UNL     1       1.819  -2.743 -13.254  1.00  0.00    -0.388 OA
ATOM      8  H   UNL     1       1.775  -2.268 -12.383  1.00  0.00     0.211 HD
ENDBRANCH   1   7
TORSDOF 2
ENDMDL
