MODEL 1
REMARK VINA RESULT:    -3.882      0.000      0.000
REMARK INTER + INTRA:          -4.629
REMARK INTER:                  -4.563
REMARK INTRA:                  -0.066
REMARK UNBOUND:                -0.066
REMARK SMILES CCCCC(=O)[O-]
REMARK SMILES IDX 4 1 5 2 6 3 7 4 3 5 2 6 1 7
REMARK H PARENT
REMARK Flexibility Score: inf
ROOT
ATOM      1  C   UNL     1      -4.149  -4.335   5.154  1.00  0.00     0.053 C 
ENDROOT
BRANCH   1   2
ATOM      2  C   UNL     1      -4.616  -2.987   5.608  1.00  0.00     0.041 C 
ATOM      3  O   UNL     1      -5.332  -2.879   6.639  1.00  0.00    -0.550 OA
ATOM      4  O   UNL     1      -4.302  -1.857   4.866  1.00  0.00    -0.550 OA
ENDBRANCH   1   2
BRANCH   1   5
ATOM      5  C   UNL     1      -4.009  -5.284   6.348  1.00  0.00     0.006 C 
BRANCH   5   6
ATOM      6  C   UNL     1      -4.877  -6.533   6.162  1.00  0.00    -0.003 C 
ATOM      7  C   UNL     1      -6.041  -6.259   5.212  1.00  0.00     0.004 C 
ENDBRANCH   5   6
ENDBRANCH   1   5
TORSDOF 3
ENDMDL
MODEL 2
REMARK VINA RESULT:    -3.800      2.097      3.391
REMARK INTER + INTRA:          -4.533
REMARK INTER:                  -4.430
REMARK INTRA:                  -0.103
REMARK UNBOUND:                -0.066
REMARK SMILES CCCCC(=O)[O-]
REMARK SMILES IDX 4 1 5 2 6 3 7 4 3 5 2 6 1 7
REMARK H PARENT
REMARK Flexibility Score: inf
ROOT
ATOM      1  C   UNL     1      -3.841  -5.566   6.566  1.00  0.00     0.053 C 
ENDROOT
BRANCH   1   2
ATOM      2  C   UNL     1      -3.972  -5.046   7.963  1.00  0.00     0.041 C 
ATOM      3  O   UNL     1      -4.914  -4.266   8.263  1.00  0.00    -0.550 OA
ATOM      4  O   UNL     1      -3.025  -5.383   8.922  1.00  0.00    -0.550 OA
ENDBRANCH   1   2
BRANCH   1   5
ATOM      5  C   UNL     1      -4.643  -4.697   5.593  1.00  0.00     0.006 C 
BRANCH   5   6
ATOM      6  C   UNL     1      -3.756  -3.622   4.957  1.00  0.00    -0.003 C 
ATOM      7  C   UNL     1      -4.382  -2.236   5.097  1.00  0.00     0.004 C 
ENDBRANCH   5   6
ENDBRANCH   1   5
TORSDOF 3
ENDMDL
MODEL 3
REMARK VINA RESULT:    -3.508     15.994     17.065
REMARK INTER + INTRA:          -4.189
REMARK INTER:                  -4.169
REMARK INTRA:                  -0.020
REMARK UNBOUND:                -0.066
REMARK SMILES CCCCC(=O)[O-]
REMARK SMILES IDX 4 1 5 2 6 3 7 4 3 5 2 6 1 7
REMARK H PARENT
REMARK Flexibility Score: inf
ROOT
ATOM      1  C   UNL     1       2.305   7.188  -5.815  1.00  0.00     0.053 C 
ENDROOT
BRANCH   1   2
ATOM      2  C   UNL     1       2.717   7.912  -4.572  1.00  0.00     0.041 C 
ATOM      3  O   UNL     1       3.324   9.012  -4.651  1.00  0.00    -0.550 OA
ATOM      4  O   UNL     1       2.475   7.346  -3.327  1.00  0.00    -0.550 OA
ENDBRANCH   1   2
BRANCH   1   5
ATOM      5  C   UNL     1       1.814   5.777  -5.477  1.00  0.00     0.006 C 
BRANCH   5   6
ATOM      6  C   UNL     1       1.587   4.955  -6.750  1.00  0.00    -0.003 C 
ATOM      7  C   UNL     1       0.295   4.146  -6.661  1.00  0.00     0.004 C 
ENDBRANCH   5   6
ENDBRANCH   1   5
TORSDOF 3
ENDMDL
MODEL 4
REMARK VINA RESULT:    -3.496      2.419      3.715
REMARK INTER + INTRA:          -4.176
REMARK INTER:                  -4.084
REMARK INTRA:                  -0.092
REMARK UNBOUND:                -0.066
REMARK SMILES CCCCC(=O)[O-]
REMARK SMILES IDX 4 1 5 2 6 3 7 4 3 5 2 6 1 7
REMARK H PARENT
REMARK Flexibility Score: inf
ROOT
ATOM      1  C   UNL     1      -4.201  -5.619   6.328  1.00  0.00     0.053 C 
ENDROOT
BRANCH   1   2
ATOM      2  C   UNL     1      -5.338  -6.530   5.988  1.00  0.00     0.041 C 
ATOM      3  O   UNL     1      -6.023  -6.328   4.950  1.00  0.00    -0.550 OA
ATOM      4  O   UNL     1      -5.673  -7.572   6.842  1.00  0.00    -0.550 OA
ENDBRANCH   1   2
BRANCH   1   5
ATOM      5  C   UNL     1      -4.725  -4.289   6.878  1.00  0.00     0.006 C 
BRANCH   5   6
ATOM      6  C   UNL     1      -4.677  -3.194   5.807  1.00  0.00    -0.003 C 
ATOM      7  C   UNL     1      -3.630  -3.511   4.742  1.00  0.00     0.004 C 
ENDBRANCH   5   6
ENDBRANCH   1   5
TORSDOF 3
ENDMDL
MODEL 5
REMARK VINA RESULT:    -3.489     16.501     17.342
REMARK INTER + INTRA:          -4.168
REMARK INTER:                  -4.062
REMARK INTRA:                  -0.106
REMARK UNBOUND:                -0.066
REMARK SMILES CCCCC(=O)[O-]
REMARK SMILES IDX 4 1 5 2 6 3 7 4 3 5 2 6 1 7
REMARK H PARENT
REMARK Flexibility Score: inf
ROOT
ATOM      1  C   UNL     1       1.958   6.270  -7.027  1.00  0.00     0.053 C 
ENDROOT
BRANCH   1   2
ATOM      2  C   UNL     1       1.247   7.546  -6.699  1.00  0.00     0.041 C 
ATOM      3  O   UNL     1       1.725   8.336  -5.843  1.00  0.00    -0.550 OA
ATOM      4  O   UNL     1       0.031   7.838  -7.304  1.00  0.00    -0.550 OA
ENDBRANCH   1   2
BRANCH   1   5
ATOM      5  C   UNL     1       1.652   5.200  -5.974  1.00  0.00     0.006 C 
BRANCH   5   6
ATOM      6  C   UNL     1       0.402   4.398  -6.354  1.00  0.00    -0.003 C 
ATOM      7  C   UNL     1       0.331   4.169  -7.862  1.00  0.00     0.004 C 
ENDBRANCH   5   6
ENDBRANCH   1   5
TORSDOF 3
ENDMDL
MODEL 6
REMARK VINA RESULT:    -3.481     16.530     17.365
REMARK INTER + INTRA:          -4.158
REMARK INTER:                  -4.062
REMARK INTRA:                  -0.096
REMARK UNBOUND:                -0.066
REMARK SMILES CCCCC(=O)[O-]
REMARK SMILES IDX 4 1 5 2 6 3 7 4 3 5 2 6 1 7
REMARK H PARENT
REMARK Flexibility Score: inf
ROOT
ATOM      1  C   UNL     1       1.878   6.319  -7.050  1.00  0.00     0.053 C 
ENDROOT
BRANCH   1   2
ATOM      2  C   UNL     1       1.106   7.565  -6.748  1.00  0.00     0.041 C 
ATOM      3  O   UNL     1       0.013   7.790  -7.332  1.00  0.00    -0.550 OA
ATOM      4  O   UNL     1       1.617   8.502  -5.860  1.00  0.00    -0.550 OA
ENDBRANCH   1   2
BRANCH   1   5
ATOM      5  C   UNL     1       1.605   5.250  -5.988  1.00  0.00     0.006 C 
BRANCH   5   6
ATOM      6  C   UNL     1       0.406   4.379  -6.380  1.00  0.00    -0.003 C 
ATOM      7  C   UNL     1       0.350   4.167  -7.891  1.00  0.00     0.004 C 
ENDBRANCH   5   6
ENDBRANCH   1   5
TORSDOF 3
ENDMDL
MODEL 7
REMARK VINA RESULT:    -3.465     16.061     17.455
REMARK INTER + INTRA:          -4.139
REMARK INTER:                  -4.023
REMARK INTRA:                  -0.116
REMARK UNBOUND:                -0.066
REMARK SMILES CCCCC(=O)[O-]
REMARK SMILES IDX 4 1 5 2 6 3 7 4 3 5 2 6 1 7
REMARK H PARENT
REMARK Flexibility Score: inf
ROOT
ATOM      1  C   UNL     1       1.256   4.889  -7.898  1.00  0.00     0.053 C 
ENDROOT
BRANCH   1   2
ATOM      2  C   UNL     1       0.353   4.096  -7.006  1.00  0.00     0.041 C 
ATOM      3  O   UNL     1      -0.374   3.187  -7.487  1.00  0.00    -0.550 OA
ATOM      4  O   UNL     1       0.276   4.395  -5.652  1.00  0.00    -0.550 OA
ENDBRANCH   1   2
BRANCH   1   5
ATOM      5  C   UNL     1       0.449   5.902  -8.716  1.00  0.00     0.006 C 
BRANCH   5   6
ATOM      6  C   UNL     1       0.052   7.108  -7.858  1.00  0.00    -0.003 C 
ATOM      7  C   UNL     1       1.274   7.742  -7.198  1.00  0.00     0.004 C 
ENDBRANCH   5   6
ENDBRANCH   1   5
TORSDOF 3
ENDMDL
MODEL 8
REMARK VINA RESULT:    -3.405     16.215     17.264
REMARK INTER + INTRA:          -4.068
REMARK INTER:                  -4.022
REMARK INTRA:                  -0.046
REMARK UNBOUND:                -0.066
REMARK SMILES CCCCC(=O)[O-]
REMARK SMILES IDX 4 1 5 2 6 3 7 4 3 5 2 6 1 7
REMARK H PARENT
REMARK Flexibility Score: inf
ROOT
ATOM      1  C   UNL     1       1.093   4.970  -6.210  1.00  0.00     0.053 C 
ENDROOT
BRANCH   1   2
ATOM      2  C   UNL     1       0.407   4.330  -7.376  1.00  0.00     0.041 C 
ATOM      3  O   UNL     1      -0.245   3.264  -7.221  1.00  0.00    -0.550 OA
ATOM      4  O   UNL     1       0.530   4.884  -8.643  1.00  0.00    -0.550 OA
ENDBRANCH   1   2
BRANCH   1   5
ATOM      5  C   UNL     1       2.199   5.915  -6.690  1.00  0.00     0.006 C 
BRANCH   5   6
ATOM      6  C   UNL     1       1.960   7.341  -6.183  1.00  0.00    -0.003 C 
ATOM      7  C   UNL     1       2.520   7.527  -4.775  1.00  0.00     0.004 C 
ENDBRANCH   5   6
ENDBRANCH   1   5
TORSDOF 3
ENDMDL
MODEL 9
REMARK VINA RESULT:    -3.329     14.010     14.650
REMARK INTER + INTRA:          -3.980
REMARK INTER:                  -3.945
REMARK INTRA:                  -0.035
REMARK UNBOUND:                -0.066
REMARK SMILES CCCCC(=O)[O-]
REMARK SMILES IDX 4 1 5 2 6 3 7 4 3 5 2 6 1 7
REMARK H PARENT
REMARK Flexibility Score: inf
ROOT
ATOM      1  C   UNL     1       1.956  -8.140  -7.003  1.00  0.00     0.053 C 
ENDROOT
BRANCH   1   2
ATOM      2  C   UNL     1       2.220  -7.730  -5.588  1.00  0.00     0.041 C 
ATOM      3  O   UNL     1       1.519  -6.835  -5.047  1.00  0.00    -0.550 OA
ATOM      4  O   UNL     1       3.272  -8.300  -4.884  1.00  0.00    -0.550 OA
ENDBRANCH   1   2
BRANCH   1   5
ATOM      5  C   UNL     1       1.115  -7.080  -7.721  1.00  0.00     0.006 C 
BRANCH   5   6
ATOM      6  C   UNL     1       0.488  -7.649  -8.998  1.00  0.00    -0.003 C 
ATOM      7  C   UNL     1      -0.618  -8.649  -8.671  1.00  0.00     0.004 C 
ENDBRANCH   5   6
ENDBRANCH   1   5
TORSDOF 3
ENDMDL
