MODEL 1
REMARK VINA RESULT:    -3.860      0.000      0.000
REMARK INTER + INTRA:          -4.096
REMARK INTER:                  -4.086
REMARK INTRA:                  -0.010
REMARK UNBOUND:                -0.010
REMARK SMILES O=Cc1ccccc1
REMARK SMILES IDX 6 1 5 2 4 3 3 4 8 5 7 6 2 7 1 8
REMARK H PARENT
REMARK Flexibility Score: inf
ROOT
ATOM      1  C   UNL     1      44.293  -1.816  14.994  1.00  0.00     0.000 A 
ATOM      2  C   UNL     1      44.764  -3.116  14.793  1.00  0.00     0.001 A 
ATOM      3  C   UNL     1      46.034  -3.482  15.253  1.00  0.00     0.011 A 
ATOM      4  C   UNL     1      46.842  -2.543  15.920  1.00  0.00     0.014 A 
ATOM      5  C   UNL     1      46.360  -1.239  16.116  1.00  0.00     0.011 A 
ATOM      6  C   UNL     1      45.090  -0.878  15.654  1.00  0.00     0.001 A 
ENDROOT
BRANCH   4   7
ATOM      7  C   UNL     1      48.183  -2.906  16.413  1.00  0.00     0.260 C 
ATOM      8  O   UNL     1      48.355  -3.913  17.151  1.00  0.00    -0.298 OA
ENDBRANCH   4   7
TORSDOF 1
ENDMDL
MODEL 2
REMARK VINA RESULT:    -3.764     10.765     11.502
REMARK INTER + INTRA:          -3.994
REMARK INTER:                  -3.985
REMARK INTRA:                  -0.010
REMARK UNBOUND:                -0.010
REMARK SMILES O=Cc1ccccc1
REMARK SMILES IDX 6 1 5 2 4 3 3 4 8 5 7 6 2 7 1 8
REMARK H PARENT
REMARK Flexibility Score: inf
ROOT
ATOM      1  C   UNL     1      44.715   8.563  19.089  1.00  0.00     0.000 A 
ATOM      2  C   UNL     1      44.618   8.830  20.457  1.00  0.00     0.001 A 
ATOM      3  C   UNL     1      45.566   8.307  21.343  1.00  0.00     0.011 A 
ATOM      4  C   UNL     1      46.620   7.510  20.862  1.00  0.00     0.014 A 
ATOM      5  C   UNL     1      46.708   7.246  19.485  1.00  0.00     0.011 A 
ATOM      6  C   UNL     1      45.758   7.771  18.604  1.00  0.00     0.001 A 
ENDROOT
BRANCH   4   7
ATOM      7  C   UNL     1      47.630   6.948  21.778  1.00  0.00     0.260 C 
ATOM      8  O   UNL     1      48.343   7.696  22.498  1.00  0.00    -0.298 OA
ENDBRANCH   4   7
TORSDOF 1
ENDMDL
MODEL 3
REMARK VINA RESULT:    -3.719      9.746     10.838
REMARK INTER + INTRA:          -3.946
REMARK INTER:                  -3.932
REMARK INTRA:                  -0.014
REMARK UNBOUND:                -0.010
REMARK SMILES O=Cc1ccccc1
REMARK SMILES IDX 6 1 5 2 4 3 3 4 8 5 7 6 2 7 1 8
REMARK H PARENT
REMARK Flexibility Score: inf
ROOT
ATOM      1  C   UNL     1      45.203   7.295  16.871  1.00  0.00     0.000 A 
ATOM      2  C   UNL     1      44.439   8.189  17.626  1.00  0.00     0.001 A 
ATOM      3  C   UNL     1      44.814   8.499  18.937  1.00  0.00     0.011 A 
ATOM      4  C   UNL     1      45.962   7.914  19.502  1.00  0.00     0.014 A 
ATOM      5  C   UNL     1      46.723   7.016  18.735  1.00  0.00     0.011 A 
ATOM      6  C   UNL     1      46.343   6.709  17.425  1.00  0.00     0.001 A 
ENDROOT
BRANCH   4   7
ATOM      7  C   UNL     1      46.377   8.226  20.882  1.00  0.00     0.260 C 
ATOM      8  O   UNL     1      47.194   7.492  21.498  1.00  0.00    -0.298 OA
ENDBRANCH   4   7
TORSDOF 1
ENDMDL
MODEL 4
REMARK VINA RESULT:    -3.718      8.575      9.833
REMARK INTER + INTRA:          -3.945
REMARK INTER:                  -3.932
REMARK INTRA:                  -0.014
REMARK UNBOUND:                -0.010
REMARK SMILES O=Cc1ccccc1
REMARK SMILES IDX 6 1 5 2 4 3 3 4 8 5 7 6 2 7 1 8
REMARK H PARENT
REMARK Flexibility Score: inf
ROOT
ATOM      1  C   UNL     1      45.217   8.122  18.741  1.00  0.00     0.000 A 
ATOM      2  C   UNL     1      44.430   8.091  17.586  1.00  0.00     0.001 A 
ATOM      3  C   UNL     1      44.850   7.361  16.470  1.00  0.00     0.011 A 
ATOM      4  C   UNL     1      46.067   6.654  16.503  1.00  0.00     0.014 A 
ATOM      5  C   UNL     1      46.851   6.692  17.668  1.00  0.00     0.011 A 
ATOM      6  C   UNL     1      46.427   7.424  18.781  1.00  0.00     0.001 A 
ENDROOT
BRANCH   4   7
ATOM      7  C   UNL     1      46.529   5.878  15.338  1.00  0.00     0.260 C 
ATOM      8  O   UNL     1      47.735   5.531  15.225  1.00  0.00    -0.298 OA
ENDBRANCH   4   7
TORSDOF 1
ENDMDL
MODEL 5
REMARK VINA RESULT:    -3.708      9.665     10.640
REMARK INTER + INTRA:          -3.935
REMARK INTER:                  -3.923
REMARK INTRA:                  -0.012
REMARK UNBOUND:                -0.010
REMARK SMILES O=Cc1ccccc1
REMARK SMILES IDX 6 1 5 2 4 3 3 4 8 5 7 6 2 7 1 8
REMARK H PARENT
REMARK Flexibility Score: inf
ROOT
ATOM      1  C   UNL     1      45.217   7.356  16.734  1.00  0.00     0.000 A 
ATOM      2  C   UNL     1      46.344   6.704  17.239  1.00  0.00     0.001 A 
ATOM      3  C   UNL     1      46.737   6.908  18.566  1.00  0.00     0.011 A 
ATOM      4  C   UNL     1      46.000   7.771  19.398  1.00  0.00     0.014 A 
ATOM      5  C   UNL     1      44.869   8.422  18.881  1.00  0.00     0.011 A 
ATOM      6  C   UNL     1      44.480   8.215  17.553  1.00  0.00     0.001 A 
ENDROOT
BRANCH   4   7
ATOM      7  C   UNL     1      46.396   8.001  20.800  1.00  0.00     0.260 C 
ATOM      8  O   UNL     1      47.156   7.196  21.402  1.00  0.00    -0.298 OA
ENDBRANCH   4   7
TORSDOF 1
ENDMDL
MODEL 6
REMARK VINA RESULT:    -3.699      9.359     10.408
REMARK INTER + INTRA:          -3.926
REMARK INTER:                  -3.916
REMARK INTRA:                  -0.009
REMARK UNBOUND:                -0.010
REMARK SMILES O=Cc1ccccc1
REMARK SMILES IDX 6 1 5 2 4 3 3 4 8 5 7 6 2 7 1 8
REMARK H PARENT
REMARK Flexibility Score: inf
ROOT
ATOM      1  C   UNL     1      45.996   8.054  19.361  1.00  0.00     0.000 A 
ATOM      2  C   UNL     1      46.754   7.081  18.703  1.00  0.00     0.001 A 
ATOM      3  C   UNL     1      46.372   6.634  17.434  1.00  0.00     0.011 A 
ATOM      4  C   UNL     1      45.223   7.159  16.815  1.00  0.00     0.014 A 
ATOM      5  C   UNL     1      44.467   8.135  17.485  1.00  0.00     0.011 A 
ATOM      6  C   UNL     1      44.854   8.579  18.753  1.00  0.00     0.001 A 
ENDROOT
BRANCH   4   7
ATOM      7  C   UNL     1      44.800   6.701  15.478  1.00  0.00     0.260 C 
ATOM      8  O   UNL     1      43.775   5.985  15.329  1.00  0.00    -0.298 OA
ENDBRANCH   4   7
TORSDOF 1
ENDMDL
MODEL 7
REMARK VINA RESULT:    -3.691      8.614      9.886
REMARK INTER + INTRA:          -3.917
REMARK INTER:                  -3.904
REMARK INTRA:                  -0.013
REMARK UNBOUND:                -0.010
REMARK SMILES O=Cc1ccccc1
REMARK SMILES IDX 6 1 5 2 4 3 3 4 8 5 7 6 2 7 1 8
REMARK H PARENT
REMARK Flexibility Score: inf
ROOT
ATOM      1  C   UNL     1      45.203   8.133  18.747  1.00  0.00     0.000 A 
ATOM      2  C   UNL     1      46.422   7.449  18.741  1.00  0.00     0.001 A 
ATOM      3  C   UNL     1      46.821   6.737  17.605  1.00  0.00     0.011 A 
ATOM      4  C   UNL     1      45.998   6.705  16.465  1.00  0.00     0.014 A 
ATOM      5  C   UNL     1      44.774   7.394  16.481  1.00  0.00     0.011 A 
ATOM      6  C   UNL     1      44.380   8.105  17.619  1.00  0.00     0.001 A 
ENDROOT
BRANCH   4   7
ATOM      7  C   UNL     1      46.398   5.960  15.256  1.00  0.00     0.260 C 
ATOM      8  O   UNL     1      47.594   5.608  15.075  1.00  0.00    -0.298 OA
ENDBRANCH   4   7
TORSDOF 1
ENDMDL
MODEL 8
REMARK VINA RESULT:    -3.678      9.637     10.719
REMARK INTER + INTRA:          -3.903
REMARK INTER:                  -3.894
REMARK INTRA:                  -0.009
REMARK UNBOUND:                -0.010
REMARK SMILES O=Cc1ccccc1
REMARK SMILES IDX 6 1 5 2 4 3 3 4 8 5 7 6 2 7 1 8
REMARK H PARENT
REMARK Flexibility Score: inf
ROOT
ATOM      1  C   UNL     1      45.892   8.138  19.778  1.00  0.00     0.000 A 
ATOM      2  C   UNL     1      44.735   8.675  19.208  1.00  0.00     0.001 A 
ATOM      3  C   UNL     1      44.356   8.310  17.912  1.00  0.00     0.011 A 
ATOM      4  C   UNL     1      45.139   7.401  17.176  1.00  0.00     0.014 A 
ATOM      5  C   UNL     1      46.301   6.868  17.756  1.00  0.00     0.011 A 
ATOM      6  C   UNL     1      46.675   7.236  19.053  1.00  0.00     0.001 A 
ENDROOT
BRANCH   4   7
ATOM      7  C   UNL     1      44.759   7.002  15.808  1.00  0.00     0.260 C 
ATOM      8  O   UNL     1      43.811   6.197  15.604  1.00  0.00    -0.298 OA
ENDBRANCH   4   7
TORSDOF 1
ENDMDL
MODEL 9
REMARK VINA RESULT:    -3.605     10.486     11.676
REMARK INTER + INTRA:          -3.826
REMARK INTER:                  -3.813
REMARK INTRA:                  -0.013
REMARK UNBOUND:                -0.010
REMARK SMILES O=Cc1ccccc1
REMARK SMILES IDX 6 1 5 2 4 3 3 4 8 5 7 6 2 7 1 8
REMARK H PARENT
REMARK Flexibility Score: inf
ROOT
ATOM      1  C   UNL     1      46.721   8.557  22.589  1.00  0.00     0.000 A 
ATOM      2  C   UNL     1      47.339   7.392  22.128  1.00  0.00     0.001 A 
ATOM      3  C   UNL     1      47.174   6.988  20.799  1.00  0.00     0.011 A 
ATOM      4  C   UNL     1      46.383   7.752  19.920  1.00  0.00     0.014 A 
ATOM      5  C   UNL     1      45.765   8.921  20.393  1.00  0.00     0.011 A 
ATOM      6  C   UNL     1      45.934   9.320  21.723  1.00  0.00     0.001 A 
ENDROOT
BRANCH   4   7
ATOM      7  C   UNL     1      46.194   7.345  18.516  1.00  0.00     0.260 C 
ATOM      8  O   UNL     1      46.752   6.312  18.057  1.00  0.00    -0.298 OA
ENDBRANCH   4   7
TORSDOF 1
ENDMDL
