MODEL 1
REMARK VINA RESULT:    -4.991      0.000      0.000
REMARK INTER + INTRA:          -6.773
REMARK INTER:                  -6.450
REMARK INTRA:                  -0.323
REMARK UNBOUND:                -0.323
REMARK SMILES CCO[C@H]1O[C@H](CO)[C@H](O)[C@H](O)[C@H]1O
REMARK SMILES IDX 4 1 13 2 11 3 9 4 6 5 5 6 3 7 2 8 1 9 14 10 12 12 7 14 8 15
REMARK SMILES IDX 10 17
REMARK H PARENT 14 11 12 13 8 16 10 18
REMARK Flexibility Score: inf
ROOT
ATOM      1  C   UNL     1     -21.289 -29.914  15.020  1.00  0.00     0.281 C 
ATOM      2  C   UNL     1     -21.750 -30.951  16.062  1.00  0.00     0.202 C 
ATOM      3  C   UNL     1     -21.713 -30.338  17.473  1.00  0.00     0.179 C 
ATOM      4  C   UNL     1     -22.476 -29.000  17.487  1.00  0.00     0.177 C 
ATOM      5  C   UNL     1     -22.081 -28.083  16.301  1.00  0.00     0.178 C 
ATOM      6  O   UNL     1     -22.125 -28.768  15.054  1.00  0.00    -0.341 OA
ENDROOT
BRANCH   1   7
ATOM      7  O   UNL     1     -21.397 -30.484  13.726  1.00  0.00    -0.350 OA
BRANCH   7   8
ATOM      8  C   UNL     1     -20.478 -29.895  12.828  1.00  0.00     0.160 C 
ATOM      9  C   UNL     1     -19.818 -30.986  12.000  1.00  0.00     0.035 C 
ENDBRANCH   7   8
ENDBRANCH   1   7
BRANCH   2  10
ATOM     10  O   UNL     1     -23.054 -31.375  15.753  1.00  0.00    -0.385 OA
ATOM     11  H   UNL     1     -23.333 -30.878  14.940  1.00  0.00     0.211 HD
ENDBRANCH   2  10
BRANCH   3  12
ATOM     12  O   UNL     1     -20.385 -30.144  17.889  1.00  0.00    -0.387 OA
ATOM     13  H   UNL     1     -19.878 -30.954  17.622  1.00  0.00     0.211 HD
ENDBRANCH   3  12
BRANCH   5  14
ATOM     14  C   UNL     1     -20.765 -27.300  16.500  1.00  0.00     0.191 C 
BRANCH  14  15
ATOM     15  O   UNL     1     -20.941 -26.327  17.493  1.00  0.00    -0.394 OA
ATOM     16  H   UNL     1     -20.708 -26.763  18.353  1.00  0.00     0.210 HD
ENDBRANCH  14  15
ENDBRANCH   5  14
BRANCH   4  17
ATOM     17  O   UNL     1     -22.285 -28.332  18.708  1.00  0.00    -0.387 OA
ATOM     18  H   UNL     1     -21.588 -27.642  18.554  1.00  0.00     0.211 HD
ENDBRANCH   4  17
TORSDOF 7
ENDMDL
MODEL 2
REMARK VINA RESULT:    -4.576      5.164      7.205
REMARK INTER + INTRA:          -6.237
REMARK INTER:                  -5.802
REMARK INTRA:                  -0.435
REMARK UNBOUND:                -0.323
REMARK SMILES CCO[C@H]1O[C@H](CO)[C@H](O)[C@H](O)[C@H]1O
REMARK SMILES IDX 4 1 13 2 11 3 9 4 6 5 5 6 3 7 2 8 1 9 14 10 12 12 7 14 8 15
REMARK SMILES IDX 10 17
REMARK H PARENT 14 11 12 13 8 16 10 18
REMARK Flexibility Score: inf
ROOT
ATOM      1  C   UNL     1     -20.685 -30.763  10.243  1.00  0.00     0.281 C 
ATOM      2  C   UNL     1     -21.157 -31.115  11.667  1.00  0.00     0.202 C 
ATOM      3  C   UNL     1     -22.379 -32.049  11.604  1.00  0.00     0.179 C 
ATOM      4  C   UNL     1     -22.078 -33.252  10.690  1.00  0.00     0.177 C 
ATOM      5  C   UNL     1     -21.439 -32.824   9.344  1.00  0.00     0.178 C 
ATOM      6  O   UNL     1     -20.339 -31.939   9.528  1.00  0.00    -0.341 OA
ENDROOT
BRANCH   1   7
ATOM      7  O   UNL     1     -19.521 -29.958  10.331  1.00  0.00    -0.350 OA
BRANCH   7   8
ATOM      8  C   UNL     1     -18.445 -30.532   9.615  1.00  0.00     0.160 C 
ATOM      9  C   UNL     1     -17.222 -30.591  10.515  1.00  0.00     0.035 C 
ENDBRANCH   7   8
ENDBRANCH   1   7
BRANCH   2  10
ATOM     10  O   UNL     1     -20.108 -31.737  12.366  1.00  0.00    -0.385 OA
ATOM     11  H   UNL     1     -19.282 -31.229  12.156  1.00  0.00     0.211 HD
ENDBRANCH   2  10
BRANCH   3  12
ATOM     12  O   UNL     1     -23.506 -31.353  11.136  1.00  0.00    -0.387 OA
ATOM     13  H   UNL     1     -23.909 -30.897  11.920  1.00  0.00     0.211 HD
ENDBRANCH   3  12
BRANCH   5  14
ATOM     14  C   UNL     1     -22.441 -32.310   8.288  1.00  0.00     0.191 C 
BRANCH  14  15
ATOM     15  O   UNL     1     -22.920 -33.385   7.529  1.00  0.00    -0.394 OA
ATOM     16  H   UNL     1     -22.120 -33.840   7.156  1.00  0.00     0.210 HD
ENDBRANCH  14  15
ENDBRANCH   5  14
BRANCH   4  17
ATOM     17  O   UNL     1     -23.241 -34.006  10.463  1.00  0.00    -0.387 OA
ATOM     18  H   UNL     1     -23.722 -33.575   9.709  1.00  0.00     0.211 HD
ENDBRANCH   4  17
TORSDOF 7
ENDMDL
MODEL 3
REMARK VINA RESULT:    -4.456      7.785      9.953
REMARK INTER + INTRA:          -6.082
REMARK INTER:                  -5.752
REMARK INTRA:                  -0.330
REMARK UNBOUND:                -0.323
REMARK SMILES CCO[C@H]1O[C@H](CO)[C@H](O)[C@H](O)[C@H]1O
REMARK SMILES IDX 4 1 13 2 11 3 9 4 6 5 5 6 3 7 2 8 1 9 14 10 12 12 7 14 8 15
REMARK SMILES IDX 10 17
REMARK H PARENT 14 11 12 13 8 16 10 18
REMARK Flexibility Score: inf
ROOT
ATOM      1  C   UNL     1     -17.541 -26.190   9.258  1.00  0.00     0.281 C 
ATOM      2  C   UNL     1     -16.524 -25.667   8.226  1.00  0.00     0.202 C 
ATOM      3  C   UNL     1     -15.821 -26.846   7.530  1.00  0.00     0.179 C 
ATOM      4  C   UNL     1     -16.867 -27.837   6.986  1.00  0.00     0.177 C 
ATOM      5  C   UNL     1     -17.958 -28.176   8.033  1.00  0.00     0.178 C 
ATOM      6  O   UNL     1     -18.514 -27.009   8.628  1.00  0.00    -0.341 OA
ENDROOT
BRANCH   1   7
ATOM      7  O   UNL     1     -18.219 -25.086   9.835  1.00  0.00    -0.350 OA
BRANCH   7   8
ATOM      8  C   UNL     1     -18.105 -25.093  11.244  1.00  0.00     0.160 C 
ATOM      9  C   UNL     1     -18.728 -23.824  11.801  1.00  0.00     0.035 C 
ENDBRANCH   7   8
ENDBRANCH   1   7
BRANCH   2  10
ATOM     10  O   UNL     1     -17.189 -24.872   7.277  1.00  0.00    -0.385 OA
ATOM     11  H   UNL     1     -16.494 -24.339   6.810  1.00  0.00     0.211 HD
ENDBRANCH   2  10
BRANCH   3  12
ATOM     12  O   UNL     1     -14.953 -27.497   8.423  1.00  0.00    -0.387 OA
ATOM     13  H   UNL     1     -15.250 -28.443   8.474  1.00  0.00     0.211 HD
ENDBRANCH   3  12
BRANCH   5  14
ATOM     14  C   UNL     1     -17.544 -29.234   9.079  1.00  0.00     0.191 C 
BRANCH  14  15
ATOM     15  O   UNL     1     -17.533 -30.504   8.487  1.00  0.00    -0.394 OA
ATOM     16  H   UNL     1     -16.588 -30.807   8.499  1.00  0.00     0.210 HD
ENDBRANCH  14  15
ENDBRANCH   5  14
BRANCH   4  17
ATOM     17  O   UNL     1     -16.246 -29.011   6.526  1.00  0.00    -0.387 OA
ATOM     18  H   UNL     1     -16.946 -29.546   6.068  1.00  0.00     0.211 HD
ENDBRANCH   4  17
TORSDOF 7
ENDMDL
MODEL 4
REMARK VINA RESULT:    -4.431     12.983     14.852
REMARK INTER + INTRA:          -6.049
REMARK INTER:                  -6.039
REMARK INTRA:                  -0.010
REMARK UNBOUND:                -0.323
REMARK SMILES CCO[C@H]1O[C@H](CO)[C@H](O)[C@H](O)[C@H]1O
REMARK SMILES IDX 4 1 13 2 11 3 9 4 6 5 5 6 3 7 2 8 1 9 14 10 12 12 7 14 8 15
REMARK SMILES IDX 10 17
REMARK H PARENT 14 11 12 13 8 16 10 18
REMARK Flexibility Score: inf
ROOT
ATOM      1  C   UNL     1     -20.663 -26.800   2.292  1.00  0.00     0.281 C 
ATOM      2  C   UNL     1     -20.729 -26.897   0.756  1.00  0.00     0.202 C 
ATOM      3  C   UNL     1     -19.308 -26.982   0.169  1.00  0.00     0.179 C 
ATOM      4  C   UNL     1     -18.513 -28.099   0.869  1.00  0.00     0.177 C 
ATOM      5  C   UNL     1     -18.644 -28.037   2.413  1.00  0.00     0.178 C 
ATOM      6  O   UNL     1     -19.999 -27.932   2.835  1.00  0.00    -0.341 OA
ENDROOT
BRANCH   1   7
ATOM      7  O   UNL     1     -21.984 -26.792   2.808  1.00  0.00    -0.350 OA
BRANCH   7   8
ATOM      8  C   UNL     1     -22.202 -27.886   3.676  1.00  0.00     0.160 C 
ATOM      9  C   UNL     1     -23.487 -28.592   3.275  1.00  0.00     0.035 C 
ENDBRANCH   7   8
ENDBRANCH   1   7
BRANCH   2  10
ATOM     10  O   UNL     1     -21.471 -28.034   0.391  1.00  0.00    -0.385 OA
ATOM     11  H   UNL     1     -22.259 -27.711  -0.120  1.00  0.00     0.211 HD
ENDBRANCH   2  10
BRANCH   3  12
ATOM     12  O   UNL     1     -18.644 -25.751   0.310  1.00  0.00    -0.387 OA
ATOM     13  H   UNL     1     -18.062 -25.829   1.111  1.00  0.00     0.211 HD
ENDBRANCH   3  12
BRANCH   5  14
ATOM     14  C   UNL     1     -17.729 -26.998   3.097  1.00  0.00     0.191 C 
BRANCH  14  15
ATOM     15  O   UNL     1     -16.539 -26.866   2.369  1.00  0.00    -0.394 OA
ATOM     16  H   UNL     1     -16.249 -27.787   2.142  1.00  0.00     0.210 HD
ENDBRANCH  14  15
ENDBRANCH   5  14
BRANCH   4  17
ATOM     17  O   UNL     1     -17.161 -28.060   0.489  1.00  0.00    -0.387 OA
ATOM     18  H   UNL     1     -16.636 -28.410   1.256  1.00  0.00     0.211 HD
ENDBRANCH   4  17
TORSDOF 7
ENDMDL
MODEL 5
REMARK VINA RESULT:    -4.399      9.146     10.533
REMARK INTER + INTRA:          -6.009
REMARK INTER:                  -5.599
REMARK INTRA:                  -0.410
REMARK UNBOUND:                -0.323
REMARK SMILES CCO[C@H]1O[C@H](CO)[C@H](O)[C@H](O)[C@H]1O
REMARK SMILES IDX 4 1 13 2 11 3 9 4 6 5 5 6 3 7 2 8 1 9 14 10 12 12 7 14 8 15
REMARK SMILES IDX 10 17
REMARK H PARENT 14 11 12 13 8 16 10 18
REMARK Flexibility Score: inf
ROOT
ATOM      1  C   UNL     1     -28.716 -24.182  16.614  1.00  0.00     0.281 C 
ATOM      2  C   UNL     1     -29.556 -24.350  15.333  1.00  0.00     0.202 C 
ATOM      3  C   UNL     1     -30.882 -23.580  15.464  1.00  0.00     0.179 C 
ATOM      4  C   UNL     1     -30.608 -22.126  15.890  1.00  0.00     0.177 C 
ATOM      5  C   UNL     1     -29.613 -22.036  17.075  1.00  0.00     0.178 C 
ATOM      6  O   UNL     1     -28.439 -22.810  16.852  1.00  0.00    -0.341 OA
ENDROOT
BRANCH   1   7
ATOM      7  O   UNL     1     -27.474 -24.845  16.438  1.00  0.00    -0.350 OA
BRANCH   7   8
ATOM      8  C   UNL     1     -27.515 -26.156  16.965  1.00  0.00     0.160 C 
ATOM      9  C   UNL     1     -28.114 -26.115  18.361  1.00  0.00     0.035 C 
ENDBRANCH   7   8
ENDBRANCH   1   7
BRANCH   2  10
ATOM     10  O   UNL     1     -28.826 -23.872  14.230  1.00  0.00    -0.385 OA
ATOM     11  H   UNL     1     -29.475 -23.418  13.631  1.00  0.00     0.211 HD
ENDBRANCH   2  10
BRANCH   3  12
ATOM     12  O   UNL     1     -31.725 -24.209  16.396  1.00  0.00    -0.387 OA
ATOM     13  H   UNL     1     -31.813 -23.590  17.167  1.00  0.00     0.211 HD
ENDBRANCH   3  12
BRANCH   5  14
ATOM     14  C   UNL     1     -30.236 -22.294  18.464  1.00  0.00     0.191 C 
BRANCH  14  15
ATOM     15  O   UNL     1     -30.698 -21.088  19.005  1.00  0.00    -0.394 OA
ATOM     16  H   UNL     1     -31.688 -21.115  18.939  1.00  0.00     0.210 HD
ENDBRANCH  14  15
ENDBRANCH   5  14
BRANCH   4  17
ATOM     17  O   UNL     1     -31.808 -21.467  16.207  1.00  0.00    -0.387 OA
ATOM     18  H   UNL     1     -32.464 -22.167  16.462  1.00  0.00     0.211 HD
ENDBRANCH   4  17
TORSDOF 7
ENDMDL
MODEL 6
REMARK VINA RESULT:    -4.380      6.627      9.079
REMARK INTER + INTRA:          -5.983
REMARK INTER:                  -5.563
REMARK INTRA:                  -0.420
REMARK UNBOUND:                -0.323
REMARK SMILES CCO[C@H]1O[C@H](CO)[C@H](O)[C@H](O)[C@H]1O
REMARK SMILES IDX 4 1 13 2 11 3 9 4 6 5 5 6 3 7 2 8 1 9 14 10 12 12 7 14 8 15
REMARK SMILES IDX 10 17
REMARK H PARENT 14 11 12 13 8 16 10 18
REMARK Flexibility Score: inf
ROOT
ATOM      1  C   UNL     1     -17.806 -28.505   9.168  1.00  0.00     0.281 C 
ATOM      2  C   UNL     1     -17.620 -28.267   7.657  1.00  0.00     0.202 C 
ATOM      3  C   UNL     1     -16.731 -27.033   7.421  1.00  0.00     0.179 C 
ATOM      4  C   UNL     1     -15.431 -27.155   8.237  1.00  0.00     0.177 C 
ATOM      5  C   UNL     1     -15.694 -27.572   9.707  1.00  0.00     0.178 C 
ATOM      6  O   UNL     1     -16.551 -28.705   9.799  1.00  0.00    -0.341 OA
ENDROOT
BRANCH   1   7
ATOM      7  O   UNL     1     -18.573 -29.684   9.356  1.00  0.00    -0.350 OA
BRANCH   7   8
ATOM      8  C   UNL     1     -18.048 -30.474  10.405  1.00  0.00     0.160 C 
ATOM      9  C   UNL     1     -19.110 -30.646  11.478  1.00  0.00     0.035 C 
ENDBRANCH   7   8
ENDBRANCH   1   7
BRANCH   2  10
ATOM     10  O   UNL     1     -17.035 -29.404   7.074  1.00  0.00    -0.385 OA
ATOM     11  H   UNL     1     -16.267 -29.660   7.650  1.00  0.00     0.211 HD
ENDBRANCH   2  10
BRANCH   3  12
ATOM     12  O   UNL     1     -17.417 -25.858   7.773  1.00  0.00    -0.387 OA
ATOM     13  H   UNL     1     -16.737 -25.139   7.844  1.00  0.00     0.211 HD
ENDBRANCH   3  12
BRANCH   5  14
ATOM     14  C   UNL     1     -16.134 -26.421  10.636  1.00  0.00     0.191 C 
BRANCH  14  15
ATOM     15  O   UNL     1     -15.006 -25.745  11.118  1.00  0.00    -0.394 OA
ATOM     16  H   UNL     1     -15.072 -25.764  12.108  1.00  0.00     0.210 HD
ENDBRANCH  14  15
ENDBRANCH   5  14
BRANCH   4  17
ATOM     17  O   UNL     1     -14.701 -25.956   8.191  1.00  0.00    -0.387 OA
ATOM     18  H   UNL     1     -14.526 -25.688   9.131  1.00  0.00     0.211 HD
ENDBRANCH   4  17
TORSDOF 7
ENDMDL
MODEL 7
REMARK VINA RESULT:    -4.368      3.689      6.895
REMARK INTER + INTRA:          -5.968
REMARK INTER:                  -5.640
REMARK INTRA:                  -0.328
REMARK UNBOUND:                -0.323
REMARK SMILES CCO[C@H]1O[C@H](CO)[C@H](O)[C@H](O)[C@H]1O
REMARK SMILES IDX 4 1 13 2 11 3 9 4 6 5 5 6 3 7 2 8 1 9 14 10 12 12 7 14 8 15
REMARK SMILES IDX 10 17
REMARK H PARENT 14 11 12 13 8 16 10 18
REMARK Flexibility Score: inf
ROOT
ATOM      1  C   UNL     1     -21.528 -30.635  11.579  1.00  0.00     0.281 C 
ATOM      2  C   UNL     1     -21.559 -32.110  12.025  1.00  0.00     0.202 C 
ATOM      3  C   UNL     1     -22.374 -32.949  11.024  1.00  0.00     0.179 C 
ATOM      4  C   UNL     1     -21.866 -32.700   9.591  1.00  0.00     0.177 C 
ATOM      5  C   UNL     1     -21.693 -31.191   9.281  1.00  0.00     0.178 C 
ATOM      6  O   UNL     1     -20.948 -30.516  10.289  1.00  0.00    -0.341 OA
ENDROOT
BRANCH   1   7
ATOM      7  O   UNL     1     -20.717 -29.900  12.482  1.00  0.00    -0.350 OA
BRANCH   7   8
ATOM      8  C   UNL     1     -21.304 -29.841  13.766  1.00  0.00     0.160 C 
ATOM      9  C   UNL     1     -20.881 -28.551  14.450  1.00  0.00     0.035 C 
ENDBRANCH   7   8
ENDBRANCH   1   7
BRANCH   2  10
ATOM     10  O   UNL     1     -20.244 -32.600  12.110  1.00  0.00    -0.385 OA
ATOM     11  H   UNL     1     -20.057 -33.069  11.255  1.00  0.00     0.211 HD
ENDBRANCH   2  10
BRANCH   3  12
ATOM     12  O   UNL     1     -23.740 -32.633  11.117  1.00  0.00    -0.387 OA
ATOM     13  H   UNL     1     -23.883 -31.813  10.577  1.00  0.00     0.211 HD
ENDBRANCH   3  12
BRANCH   5  14
ATOM     14  C   UNL     1     -22.998 -30.453   8.914  1.00  0.00     0.191 C 
BRANCH  14  15
ATOM     15  O   UNL     1     -23.259 -30.606   7.547  1.00  0.00    -0.394 OA
ATOM     16  H   UNL     1     -22.773 -29.872   7.088  1.00  0.00     0.210 HD
ENDBRANCH  14  15
ENDBRANCH   5  14
BRANCH   4  17
ATOM     17  O   UNL     1     -22.721 -33.299   8.651  1.00  0.00    -0.387 OA
ATOM     18  H   UNL     1     -23.482 -33.686   9.158  1.00  0.00     0.211 HD
ENDBRANCH   4  17
TORSDOF 7
ENDMDL
MODEL 8
REMARK VINA RESULT:    -4.357     13.210     15.302
REMARK INTER + INTRA:          -5.954
REMARK INTER:                  -5.773
REMARK INTRA:                  -0.181
REMARK UNBOUND:                -0.323
REMARK SMILES CCO[C@H]1O[C@H](CO)[C@H](O)[C@H](O)[C@H]1O
REMARK SMILES IDX 4 1 13 2 11 3 9 4 6 5 5 6 3 7 2 8 1 9 14 10 12 12 7 14 8 15
REMARK SMILES IDX 10 17
REMARK H PARENT 14 11 12 13 8 16 10 18
REMARK Flexibility Score: inf
ROOT
ATOM      1  C   UNL     1     -22.468 -27.148   1.594  1.00  0.00     0.281 C 
ATOM      2  C   UNL     1     -21.519 -27.318   0.392  1.00  0.00     0.202 C 
ATOM      3  C   UNL     1     -21.443 -26.008  -0.413  1.00  0.00     0.179 C 
ATOM      4  C   UNL     1     -21.120 -24.830   0.526  1.00  0.00     0.177 C 
ATOM      5  C   UNL     1     -22.001 -24.833   1.801  1.00  0.00     0.178 C 
ATOM      6  O   UNL     1     -22.016 -26.104   2.442  1.00  0.00    -0.341 OA
ENDROOT
BRANCH   1   7
ATOM      7  O   UNL     1     -22.467 -28.346   2.353  1.00  0.00    -0.350 OA
BRANCH   7   8
ATOM      8  C   UNL     1     -23.164 -28.182   3.572  1.00  0.00     0.160 C 
ATOM      9  C   UNL     1     -24.224 -29.265   3.690  1.00  0.00     0.035 C 
ENDBRANCH   7   8
ENDBRANCH   1   7
BRANCH   2  10
ATOM     10  O   UNL     1     -20.241 -27.677   0.854  1.00  0.00    -0.385 OA
ATOM     11  H   UNL     1     -19.655 -26.886   0.721  1.00  0.00     0.211 HD
ENDBRANCH   2  10
BRANCH   3  12
ATOM     12  O   UNL     1     -22.655 -25.774  -1.086  1.00  0.00    -0.387 OA
ATOM     13  H   UNL     1     -23.242 -26.552  -0.899  1.00  0.00     0.211 HD
ENDBRANCH   3  12
BRANCH   5  14
ATOM     14  C   UNL     1     -23.418 -24.251   1.608  1.00  0.00     0.191 C 
BRANCH  14  15
ATOM     15  O   UNL     1     -23.921 -23.815   2.840  1.00  0.00    -0.394 OA
ATOM     16  H   UNL     1     -24.468 -23.009   2.648  1.00  0.00     0.210 HD
ENDBRANCH  14  15
ENDBRANCH   5  14
BRANCH   4  17
ATOM     17  O   UNL     1     -21.242 -23.606  -0.153  1.00  0.00    -0.387 OA
ATOM     18  H   UNL     1     -20.583 -22.985   0.252  1.00  0.00     0.211 HD
ENDBRANCH   4  17
TORSDOF 7
ENDMDL
MODEL 9
REMARK VINA RESULT:    -4.329      1.685      3.144
REMARK INTER + INTRA:          -5.918
REMARK INTER:                  -5.558
REMARK INTRA:                  -0.360
REMARK UNBOUND:                -0.323
REMARK SMILES CCO[C@H]1O[C@H](CO)[C@H](O)[C@H](O)[C@H]1O
REMARK SMILES IDX 4 1 13 2 11 3 9 4 6 5 5 6 3 7 2 8 1 9 14 10 12 12 7 14 8 15
REMARK SMILES IDX 10 17
REMARK H PARENT 14 11 12 13 8 16 10 18
REMARK Flexibility Score: inf
ROOT
ATOM      1  C   UNL     1     -21.377 -28.925  14.646  1.00  0.00     0.281 C 
ATOM      2  C   UNL     1     -20.714 -27.579  14.292  1.00  0.00     0.202 C 
ATOM      3  C   UNL     1     -21.093 -26.512  15.334  1.00  0.00     0.179 C 
ATOM      4  C   UNL     1     -20.808 -27.036  16.754  1.00  0.00     0.177 C 
ATOM      5  C   UNL     1     -21.354 -28.471  16.973  1.00  0.00     0.178 C 
ATOM      6  O   UNL     1     -20.963 -29.360  15.932  1.00  0.00    -0.341 OA
ENDROOT
BRANCH   1   7
ATOM      7  O   UNL     1     -20.957 -29.903  13.708  1.00  0.00    -0.350 OA
BRANCH   7   8
ATOM      8  C   UNL     1     -21.744 -31.074  13.804  1.00  0.00     0.160 C 
ATOM      9  C   UNL     1     -22.384 -31.357  12.455  1.00  0.00     0.035 C 
ENDBRANCH   7   8
ENDBRANCH   1   7
BRANCH   2  10
ATOM     10  O   UNL     1     -19.319 -27.742  14.250  1.00  0.00    -0.385 OA
ATOM     11  H   UNL     1     -19.141 -28.717  14.313  1.00  0.00     0.211 HD
ENDBRANCH   2  10
BRANCH   3  12
ATOM     12  O   UNL     1     -22.448 -26.161  15.208  1.00  0.00    -0.387 OA
ATOM     13  H   UNL     1     -22.954 -26.744  15.832  1.00  0.00     0.211 HD
ENDBRANCH   3  12
BRANCH   5  14
ATOM     14  C   UNL     1     -22.865 -28.547  17.280  1.00  0.00     0.191 C 
BRANCH  14  15
ATOM     15  O   UNL     1     -23.078 -28.356  18.651  1.00  0.00    -0.394 OA
ATOM     16  H   UNL     1     -22.382 -28.889  19.117  1.00  0.00     0.210 HD
ENDBRANCH  14  15
ENDBRANCH   5  14
BRANCH   4  17
ATOM     17  O   UNL     1     -21.329 -26.160  17.720  1.00  0.00    -0.387 OA
ATOM     18  H   UNL     1     -20.982 -25.255  17.506  1.00  0.00     0.211 HD
ENDBRANCH   4  17
TORSDOF 7
ENDMDL
