MODEL 1
REMARK VINA RESULT:    -3.711      0.000      0.000
REMARK INTER + INTRA:          -4.693
REMARK INTER:                  -4.470
REMARK INTRA:                  -0.222
REMARK UNBOUND:                -0.222
REMARK SMILES OCC(O)CO
REMARK SMILES IDX 3 1 5 2 6 3 2 5 1 6 4 8
REMARK H PARENT 6 4 1 7 4 9
REMARK Flexibility Score: inf
ROOT
ATOM      1  C   UNL     1     110.859 108.719 123.933  1.00  0.00     0.165 C 
ENDROOT
BRANCH   1   2
ATOM      2  C   UNL     1     110.850 107.277 124.463  1.00  0.00     0.190 C 
BRANCH   2   3
ATOM      3  O   UNL     1     109.920 106.508 123.751  1.00  0.00    -0.394 OA
ATOM      4  H   UNL     1     109.032 106.720 124.139  1.00  0.00     0.210 HD
ENDBRANCH   2   3
ENDBRANCH   1   2
BRANCH   1   5
ATOM      5  C   UNL     1     110.660 108.768 122.410  1.00  0.00     0.190 C 
BRANCH   5   6
ATOM      6  O   UNL     1     109.292 108.810 122.114  1.00  0.00    -0.394 OA
ATOM      7  H   UNL     1     108.922 109.574 122.627  1.00  0.00     0.210 HD
ENDBRANCH   5   6
ENDBRANCH   1   5
BRANCH   1   8
ATOM      8  O   UNL     1     112.055 109.363 124.295  1.00  0.00    -0.388 OA
ATOM      9  H   UNL     1     112.808 108.771 124.032  1.00  0.00     0.211 HD
ENDBRANCH   1   8
TORSDOF 5
ENDMDL
MODEL 2
REMARK VINA RESULT:    -3.696      1.643      2.681
REMARK INTER + INTRA:          -4.674
REMARK INTER:                  -4.468
REMARK INTRA:                  -0.207
REMARK UNBOUND:                -0.222
REMARK SMILES OCC(O)CO
REMARK SMILES IDX 3 1 5 2 6 3 2 5 1 6 4 8
REMARK H PARENT 6 4 1 7 4 9
REMARK Flexibility Score: inf
ROOT
ATOM      1  C   UNL     1     110.909 107.144 122.991  1.00  0.00     0.165 C 
ENDROOT
BRANCH   1   2
ATOM      2  C   UNL     1     110.610 108.611 122.648  1.00  0.00     0.190 C 
BRANCH   2   3
ATOM      3  O   UNL     1     109.290 108.740 122.194  1.00  0.00    -0.394 OA
ATOM      4  H   UNL     1     108.797 109.215 122.912  1.00  0.00     0.210 HD
ENDBRANCH   2   3
ENDBRANCH   1   2
BRANCH   1   5
ATOM      5  C   UNL     1     110.988 106.268 121.732  1.00  0.00     0.190 C 
BRANCH   5   6
ATOM      6  O   UNL     1     109.731 106.207 121.119  1.00  0.00    -0.394 OA
ATOM      7  H   UNL     1     109.324 105.349 121.408  1.00  0.00     0.210 HD
ENDBRANCH   5   6
ENDBRANCH   1   5
BRANCH   1   8
ATOM      8  O   UNL     1     109.941 106.644 123.880  1.00  0.00    -0.388 OA
ATOM      9  H   UNL     1     109.536 105.839 123.463  1.00  0.00     0.211 HD
ENDBRANCH   1   8
TORSDOF 5
ENDMDL
MODEL 3
REMARK VINA RESULT:    -3.695     12.490     13.205
REMARK INTER + INTRA:          -4.673
REMARK INTER:                  -4.657
REMARK INTRA:                  -0.016
REMARK UNBOUND:                -0.222
REMARK SMILES OCC(O)CO
REMARK SMILES IDX 3 1 5 2 6 3 2 5 1 6 4 8
REMARK H PARENT 6 4 1 7 4 9
REMARK Flexibility Score: inf
ROOT
ATOM      1  C   UNL     1     112.006  97.783 131.870  1.00  0.00     0.165 C 
ENDROOT
BRANCH   1   2
ATOM      2  C   UNL     1     113.393  98.440 131.827  1.00  0.00     0.190 C 
BRANCH   2   3
ATOM      3  O   UNL     1     114.095  98.010 130.693  1.00  0.00    -0.394 OA
ATOM      4  H   UNL     1     114.940  97.611 131.027  1.00  0.00     0.210 HD
ENDBRANCH   2   3
ENDBRANCH   1   2
BRANCH   1   5
ATOM      5  C   UNL     1     110.981  98.557 131.027  1.00  0.00     0.190 C 
BRANCH   5   6
ATOM      6  O   UNL     1     110.269  97.668 130.214  1.00  0.00    -0.394 OA
ATOM      7  H   UNL     1     110.652  96.769 130.386  1.00  0.00     0.210 HD
ENDBRANCH   5   6
ENDBRANCH   1   5
BRANCH   1   8
ATOM      8  O   UNL     1     111.563  97.665 133.200  1.00  0.00    -0.388 OA
ATOM      9  H   UNL     1     111.240  98.558 133.489  1.00  0.00     0.211 HD
ENDBRANCH   1   8
TORSDOF 5
ENDMDL
MODEL 4
REMARK VINA RESULT:    -3.594     12.616     13.038
REMARK INTER + INTRA:          -4.552
REMARK INTER:                  -4.549
REMARK INTRA:                  -0.003
REMARK UNBOUND:                -0.222
REMARK SMILES OCC(O)CO
REMARK SMILES IDX 3 1 5 2 6 3 2 5 1 6 4 8
REMARK H PARENT 6 4 1 7 4 9
REMARK Flexibility Score: inf
ROOT
ATOM      1  C   UNL     1     112.664  98.526 131.479  1.00  0.00     0.165 C 
ENDROOT
BRANCH   1   2
ATOM      2  C   UNL     1     113.176  98.951 132.863  1.00  0.00     0.190 C 
BRANCH   2   3
ATOM      3  O   UNL     1     113.154 100.348 132.978  1.00  0.00    -0.394 OA
ATOM      4  H   UNL     1     113.283 100.547 133.941  1.00  0.00     0.210 HD
ENDBRANCH   2   3
ENDBRANCH   1   2
BRANCH   1   5
ATOM      5  C   UNL     1     111.436  97.608 131.583  1.00  0.00     0.190 C 
BRANCH   5   6
ATOM      6  O   UNL     1     110.555  97.878 130.529  1.00  0.00    -0.394 OA
ATOM      7  H   UNL     1     110.183  98.781 130.704  1.00  0.00     0.210 HD
ENDBRANCH   5   6
ENDBRANCH   1   5
BRANCH   1   8
ATOM      8  O   UNL     1     113.690  97.898 130.751  1.00  0.00    -0.388 OA
ATOM      9  H   UNL     1     113.271  97.201 130.181  1.00  0.00     0.211 HD
ENDBRANCH   1   8
TORSDOF 5
ENDMDL
MODEL 5
REMARK VINA RESULT:    -3.539      1.409      2.563
REMARK INTER + INTRA:          -4.486
REMARK INTER:                  -4.483
REMARK INTRA:                  -0.003
REMARK UNBOUND:                -0.222
REMARK SMILES OCC(O)CO
REMARK SMILES IDX 3 1 5 2 6 3 2 5 1 6 4 8
REMARK H PARENT 6 4 1 7 4 9
REMARK Flexibility Score: inf
ROOT
ATOM      1  C   UNL     1     110.493 108.073 122.676  1.00  0.00     0.165 C 
ENDROOT
BRANCH   1   2
ATOM      2  C   UNL     1     110.277 106.564 122.489  1.00  0.00     0.190 C 
BRANCH   2   3
ATOM      3  O   UNL     1     109.698 106.311 121.238  1.00  0.00    -0.394 OA
ATOM      4  H   UNL     1     108.815 106.762 121.247  1.00  0.00     0.210 HD
ENDBRANCH   2   3
ENDBRANCH   1   2
BRANCH   1   5
ATOM      5  C   UNL     1     110.812 108.427 124.137  1.00  0.00     0.190 C 
BRANCH   5   6
ATOM      6  O   UNL     1     111.866 109.347 124.180  1.00  0.00    -0.394 OA
ATOM      7  H   UNL     1     111.856 109.735 125.093  1.00  0.00     0.210 HD
ENDBRANCH   5   6
ENDBRANCH   1   5
BRANCH   1   8
ATOM      8  O   UNL     1     109.365 108.786 122.231  1.00  0.00    -0.388 OA
ATOM      9  H   UNL     1     108.635 108.130 122.080  1.00  0.00     0.211 HD
ENDBRANCH   1   8
TORSDOF 5
ENDMDL
MODEL 6
REMARK VINA RESULT:    -3.476      8.238      9.122
REMARK INTER + INTRA:          -4.410
REMARK INTER:                  -4.316
REMARK INTRA:                  -0.094
REMARK UNBOUND:                -0.222
REMARK SMILES OCC(O)CO
REMARK SMILES IDX 3 1 5 2 6 3 2 5 1 6 4 8
REMARK H PARENT 6 4 1 7 4 9
REMARK Flexibility Score: inf
ROOT
ATOM      1  C   UNL     1     111.204 108.325 132.552  1.00  0.00     0.165 C 
ENDROOT
BRANCH   1   2
ATOM      2  C   UNL     1     112.049 107.867 133.751  1.00  0.00     0.190 C 
BRANCH   2   3
ATOM      3  O   UNL     1     113.329 107.492 133.323  1.00  0.00    -0.394 OA
ATOM      4  H   UNL     1     113.213 107.096 132.421  1.00  0.00     0.210 HD
ENDBRANCH   2   3
ENDBRANCH   1   2
BRANCH   1   5
ATOM      5  C   UNL     1     111.951 108.136 131.223  1.00  0.00     0.190 C 
BRANCH   5   6
ATOM      6  O   UNL     1     111.510 106.967 130.594  1.00  0.00    -0.394 OA
ATOM      7  H   UNL     1     110.570 106.835 130.883  1.00  0.00     0.210 HD
ENDBRANCH   5   6
ENDBRANCH   1   5
BRANCH   1   8
ATOM      8  O   UNL     1     110.815 109.666 132.714  1.00  0.00    -0.388 OA
ATOM      9  H   UNL     1     110.798 110.085 131.813  1.00  0.00     0.211 HD
ENDBRANCH   1   8
TORSDOF 5
ENDMDL
MODEL 7
REMARK VINA RESULT:    -3.430      2.087      2.935
REMARK INTER + INTRA:          -4.354
REMARK INTER:                  -4.131
REMARK INTRA:                  -0.223
REMARK UNBOUND:                -0.222
REMARK SMILES OCC(O)CO
REMARK SMILES IDX 3 1 5 2 6 3 2 5 1 6 4 8
REMARK H PARENT 6 4 1 7 4 9
REMARK Flexibility Score: inf
ROOT
ATOM      1  C   UNL     1     110.423 108.138 122.623  1.00  0.00     0.165 C 
ENDROOT
BRANCH   1   2
ATOM      2  C   UNL     1     111.679 108.701 121.940  1.00  0.00     0.190 C 
BRANCH   2   3
ATOM      3  O   UNL     1     111.821 108.145 120.661  1.00  0.00    -0.394 OA
ATOM      4  H   UNL     1     112.729 108.399 120.350  1.00  0.00     0.210 HD
ENDBRANCH   2   3
ENDBRANCH   1   2
BRANCH   1   5
ATOM      5  C   UNL     1     110.310 106.616 122.444  1.00  0.00     0.190 C 
BRANCH   5   6
ATOM      6  O   UNL     1     109.620 106.330 121.260  1.00  0.00    -0.394 OA
ATOM      7  H   UNL     1     110.268 105.869 120.667  1.00  0.00     0.210 HD
ENDBRANCH   5   6
ENDBRANCH   1   5
BRANCH   1   8
ATOM      8  O   UNL     1     109.272 108.780 122.133  1.00  0.00    -0.388 OA
ATOM      9  H   UNL     1     109.473 109.097 121.214  1.00  0.00     0.211 HD
ENDBRANCH   1   8
TORSDOF 5
ENDMDL
MODEL 8
REMARK VINA RESULT:    -3.340      2.114      2.326
REMARK INTER + INTRA:          -4.245
REMARK INTER:                  -4.043
REMARK INTRA:                  -0.203
REMARK UNBOUND:                -0.222
REMARK SMILES OCC(O)CO
REMARK SMILES IDX 3 1 5 2 6 3 2 5 1 6 4 8
REMARK H PARENT 6 4 1 7 4 9
REMARK Flexibility Score: inf
ROOT
ATOM      1  C   UNL     1     111.370 107.571 122.135  1.00  0.00     0.165 C 
ENDROOT
BRANCH   1   2
ATOM      2  C   UNL     1     110.507 106.306 122.258  1.00  0.00     0.190 C 
BRANCH   2   3
ATOM      3  O   UNL     1     109.615 106.223 121.180  1.00  0.00    -0.394 OA
ATOM      4  H   UNL     1     108.859 105.661 121.491  1.00  0.00     0.210 HD
ENDBRANCH   2   3
ENDBRANCH   1   2
BRANCH   1   5
ATOM      5  C   UNL     1     110.623 108.821 122.626  1.00  0.00     0.190 C 
BRANCH   5   6
ATOM      6  O   UNL     1     109.297 108.784 122.180  1.00  0.00    -0.394 OA
ATOM      7  H   UNL     1     109.183 107.911 121.723  1.00  0.00     0.210 HD
ENDBRANCH   5   6
ENDBRANCH   1   5
BRANCH   1   8
ATOM      8  O   UNL     1     111.797 107.741 120.806  1.00  0.00    -0.388 OA
ATOM      9  H   UNL     1     111.703 106.867 120.345  1.00  0.00     0.211 HD
ENDBRANCH   1   8
TORSDOF 5
ENDMDL
MODEL 9
REMARK VINA RESULT:    -3.262      5.127      6.357
REMARK INTER + INTRA:          -4.152
REMARK INTER:                  -3.950
REMARK INTRA:                  -0.201
REMARK UNBOUND:                -0.222
REMARK SMILES OCC(O)CO
REMARK SMILES IDX 3 1 5 2 6 3 2 5 1 6 4 8
REMARK H PARENT 6 4 1 7 4 9
REMARK Flexibility Score: inf
ROOT
ATOM      1  C   UNL     1     114.386 106.183 125.836  1.00  0.00     0.165 C 
ENDROOT
BRANCH   1   2
ATOM      2  C   UNL     1     115.797 106.722 125.553  1.00  0.00     0.190 C 
BRANCH   2   3
ATOM      3  O   UNL     1     115.929 108.020 126.063  1.00  0.00    -0.394 OA
ATOM      4  H   UNL     1     116.698 108.426 125.587  1.00  0.00     0.210 HD
ENDBRANCH   2   3
ENDBRANCH   1   2
BRANCH   1   5
ATOM      5  C   UNL     1     114.192 105.845 127.323  1.00  0.00     0.190 C 
BRANCH   5   6
ATOM      6  O   UNL     1     115.433 105.579 127.912  1.00  0.00    -0.394 OA
ATOM      7  H   UNL     1     115.463 106.114 128.747  1.00  0.00     0.210 HD
ENDBRANCH   5   6
ENDBRANCH   1   5
BRANCH   1   8
ATOM      8  O   UNL     1     114.124 105.058 125.035  1.00  0.00    -0.388 OA
ATOM      9  H   UNL     1     114.877 104.963 124.394  1.00  0.00     0.211 HD
ENDBRANCH   1   8
TORSDOF 5
ENDMDL
