MODEL 1
REMARK VINA RESULT:    -3.531      0.000      0.000
REMARK INTER + INTRA:          -3.833
REMARK INTER:                  -3.737
REMARK INTRA:                  -0.096
REMARK UNBOUND:                -0.096
REMARK SMILES C=C(C)[C@@H]1CC=C(C)C(=O)C1
REMARK SMILES IDX 8 1 7 2 6 3 5 4 4 5 11 6 9 7 10 8 2 9 1 10 3 11
REMARK H PARENT
REMARK Flexibility Score: inf
ROOT
ATOM      1  C   UNL     1      32.352  25.071  34.618  1.00  0.00     0.048 C 
ATOM      2  C   UNL     1      31.889  25.119  33.189  1.00  0.00    -0.012 C 
ATOM      3  C   UNL     1      30.575  25.061  32.909  1.00  0.00    -0.019 C 
ATOM      4  C   UNL     1      30.056  25.123  31.497  1.00  0.00     0.036 C 
ATOM      5  C   UNL     1      31.046  24.472  30.512  1.00  0.00     0.025 C 
ATOM      6  C   UNL     1      32.438  25.116  30.651  1.00  0.00     0.089 C 
ATOM      7  C   UNL     1      32.885  25.107  32.088  1.00  0.00     0.158 C 
ATOM      8  O   UNL     1      34.118  25.125  32.347  1.00  0.00    -0.295 OA
ENDROOT
BRANCH   5   9
ATOM      9  C   UNL     1      30.538  24.537  29.078  1.00  0.00    -0.077 C 
ATOM     10  C   UNL     1      29.330  25.050  28.787  1.00  0.00     0.008 C 
ATOM     11  C   UNL     1      31.392  24.021  27.949  1.00  0.00     0.039 C 
ENDBRANCH   5   9
TORSDOF 1
ENDMDL
MODEL 2
REMARK VINA RESULT:    -2.578      1.858      2.471
REMARK INTER + INTRA:          -2.825
REMARK INTER:                  -2.730
REMARK INTRA:                  -0.096
REMARK UNBOUND:                -0.096
REMARK SMILES C=C(C)[C@@H]1CC=C(C)C(=O)C1
REMARK SMILES IDX 8 1 7 2 6 3 5 4 4 5 11 6 9 7 10 8 2 9 1 10 3 11
REMARK H PARENT
REMARK Flexibility Score: inf
ROOT
ATOM      1  C   UNL     1      31.222  25.125  34.739  1.00  0.00     0.048 C 
ATOM      2  C   UNL     1      31.560  24.877  33.296  1.00  0.00    -0.012 C 
ATOM      3  C   UNL     1      32.815  25.074  32.859  1.00  0.00    -0.019 C 
ATOM      4  C   UNL     1      33.212  24.823  31.428  1.00  0.00     0.036 C 
ATOM      5  C   UNL     1      32.045  25.124  30.467  1.00  0.00     0.025 C 
ATOM      6  C   UNL     1      30.796  24.321  30.877  1.00  0.00     0.089 C 
ATOM      7  C   UNL     1      30.482  24.535  32.332  1.00  0.00     0.158 C 
ATOM      8  O   UNL     1      29.297  24.385  32.733  1.00  0.00    -0.295 OA
ENDROOT
BRANCH   5   9
ATOM      9  C   UNL     1      32.429  24.866  29.017  1.00  0.00    -0.077 C 
ATOM     10  C   UNL     1      31.572  25.117  28.011  1.00  0.00     0.008 C 
ATOM     11  C   UNL     1      33.791  24.316  28.683  1.00  0.00     0.039 C 
ENDBRANCH   5   9
TORSDOF 1
ENDMDL
MODEL 3
REMARK VINA RESULT:    -2.522      2.988      4.679
REMARK INTER + INTRA:          -2.765
REMARK INTER:                  -2.669
REMARK INTRA:                  -0.096
REMARK UNBOUND:                -0.096
REMARK SMILES C=C(C)[C@@H]1CC=C(C)C(=O)C1
REMARK SMILES IDX 8 1 7 2 6 3 5 4 4 5 11 6 9 7 10 8 2 9 1 10 3 11
REMARK H PARENT
REMARK Flexibility Score: inf
ROOT
ATOM      1  C   UNL     1      30.403  24.561  30.220  1.00  0.00     0.048 C 
ATOM      2  C   UNL     1      31.904  24.533  30.291  1.00  0.00    -0.012 C 
ATOM      3  C   UNL     1      32.537  25.125  31.319  1.00  0.00    -0.019 C 
ATOM      4  C   UNL     1      34.037  25.110  31.448  1.00  0.00     0.036 C 
ATOM      5  C   UNL     1      34.714  25.125  30.063  1.00  0.00     0.025 C 
ATOM      6  C   UNL     1      34.191  23.960  29.202  1.00  0.00     0.089 C 
ATOM      7  C   UNL     1      32.687  23.962  29.166  1.00  0.00     0.158 C 
ATOM      8  O   UNL     1      32.096  23.439  28.183  1.00  0.00    -0.295 OA
ENDROOT
BRANCH   5   9
ATOM      9  C   UNL     1      36.232  25.101  30.179  1.00  0.00    -0.077 C 
ATOM     10  C   UNL     1      36.842  25.063  31.377  1.00  0.00     0.008 C 
ATOM     11  C   UNL     1      37.085  25.120  28.937  1.00  0.00     0.039 C 
ENDBRANCH   5   9
TORSDOF 1
ENDMDL
MODEL 4
REMARK VINA RESULT:    -2.521      1.688      2.877
REMARK INTER + INTRA:          -2.764
REMARK INTER:                  -2.669
REMARK INTRA:                  -0.095
REMARK UNBOUND:                -0.096
REMARK SMILES C=C(C)[C@@H]1CC=C(C)C(=O)C1
REMARK SMILES IDX 8 1 7 2 6 3 5 4 4 5 11 6 9 7 10 8 2 9 1 10 3 11
REMARK H PARENT
REMARK Flexibility Score: inf
ROOT
ATOM      1  C   UNL     1      29.268  24.874  32.777  1.00  0.00     0.048 C 
ATOM      2  C   UNL     1      30.456  24.977  31.862  1.00  0.00    -0.012 C 
ATOM      3  C   UNL     1      30.286  24.881  30.532  1.00  0.00    -0.019 C 
ATOM      4  C   UNL     1      31.439  24.995  29.569  1.00  0.00     0.036 C 
ATOM      5  C   UNL     1      32.735  24.434  30.186  1.00  0.00     0.025 C 
ATOM      6  C   UNL     1      33.027  25.124  31.532  1.00  0.00     0.089 C 
ATOM      7  C   UNL     1      31.824  25.060  32.432  1.00  0.00     0.158 C 
ATOM      8  O   UNL     1      31.989  25.113  33.681  1.00  0.00    -0.295 OA
ENDROOT
BRANCH   5   9
ATOM      9  C   UNL     1      33.912  24.552  29.227  1.00  0.00    -0.077 C 
ATOM     10  C   UNL     1      33.746  24.422  27.899  1.00  0.00     0.008 C 
ATOM     11  C   UNL     1      35.296  24.817  29.758  1.00  0.00     0.039 C 
ENDBRANCH   5   9
TORSDOF 1
ENDMDL
MODEL 5
REMARK VINA RESULT:    -2.368      2.765      4.998
REMARK INTER + INTRA:          -2.602
REMARK INTER:                  -2.506
REMARK INTRA:                  -0.097
REMARK UNBOUND:                -0.096
REMARK SMILES C=C(C)[C@@H]1CC=C(C)C(=O)C1
REMARK SMILES IDX 8 1 7 2 6 3 5 4 4 5 11 6 9 7 10 8 2 9 1 10 3 11
REMARK H PARENT
REMARK Flexibility Score: inf
ROOT
ATOM      1  C   UNL     1      30.435  23.259  28.552  1.00  0.00     0.048 C 
ATOM      2  C   UNL     1      31.818  23.809  28.763  1.00  0.00    -0.012 C 
ATOM      3  C   UNL     1      32.798  23.510  27.893  1.00  0.00    -0.019 C 
ATOM      4  C   UNL     1      34.195  24.049  28.047  1.00  0.00     0.036 C 
ATOM      5  C   UNL     1      34.562  24.223  29.534  1.00  0.00     0.025 C 
ATOM      6  C   UNL     1      33.516  25.103  30.242  1.00  0.00     0.089 C 
ATOM      7  C   UNL     1      32.128  24.577  29.996  1.00  0.00     0.158 C 
ATOM      8  O   UNL     1      31.219  24.828  30.832  1.00  0.00    -0.295 OA
ENDROOT
BRANCH   5   9
ATOM      9  C   UNL     1      35.971  24.777  29.705  1.00  0.00    -0.077 C 
ATOM     10  C   UNL     1      36.455  25.092  30.919  1.00  0.00     0.008 C 
ATOM     11  C   UNL     1      36.852  24.983  28.501  1.00  0.00     0.039 C 
ENDBRANCH   5   9
TORSDOF 1
ENDMDL
MODEL 6
REMARK VINA RESULT:    -1.868     17.902     19.704
REMARK INTER + INTRA:          -2.073
REMARK INTER:                  -1.977
REMARK INTRA:                  -0.096
REMARK UNBOUND:                -0.096
REMARK SMILES C=C(C)[C@@H]1CC=C(C)C(=O)C1
REMARK SMILES IDX 8 1 7 2 6 3 5 4 4 5 11 6 9 7 10 8 2 9 1 10 3 11
REMARK H PARENT
REMARK Flexibility Score: inf
ROOT
ATOM      1  C   UNL     1      22.890  22.274  45.929  1.00  0.00     0.048 C 
ATOM      2  C   UNL     1      21.461  22.724  46.058  1.00  0.00    -0.012 C 
ATOM      3  C   UNL     1      20.940  23.566  45.150  1.00  0.00    -0.019 C 
ATOM      4  C   UNL     1      19.510  24.034  45.221  1.00  0.00     0.036 C 
ATOM      5  C   UNL     1      19.036  24.145  46.684  1.00  0.00     0.025 C 
ATOM      6  C   UNL     1      19.250  22.808  47.417  1.00  0.00     0.089 C 
ATOM      7  C   UNL     1      20.669  22.336  47.253  1.00  0.00     0.158 C 
ATOM      8  O   UNL     1      21.168  21.575  48.125  1.00  0.00    -0.295 OA
ENDROOT
BRANCH   5   9
ATOM      9  C   UNL     1      17.587  24.608  46.771  1.00  0.00    -0.077 C 
ATOM     10  C   UNL     1      16.875  24.887  45.665  1.00  0.00     0.008 C 
ATOM     11  C   UNL     1      16.924  24.762  48.114  1.00  0.00     0.039 C 
ENDBRANCH   5   9
TORSDOF 1
ENDMDL
MODEL 7
REMARK VINA RESULT:    -1.385      1.483      2.112
REMARK INTER + INTRA:          -1.562
REMARK INTER:                  -1.471
REMARK INTRA:                  -0.091
REMARK UNBOUND:                -0.096
REMARK SMILES C=C(C)[C@@H]1CC=C(C)C(=O)C1
REMARK SMILES IDX 8 1 7 2 6 3 5 4 4 5 11 6 9 7 10 8 2 9 1 10 3 11
REMARK H PARENT
REMARK Flexibility Score: inf
ROOT
ATOM      1  C   UNL     1      33.548  25.125  33.332  1.00  0.00     0.048 C 
ATOM      2  C   UNL     1      32.656  24.771  32.175  1.00  0.00    -0.012 C 
ATOM      3  C   UNL     1      33.094  24.942  30.915  1.00  0.00    -0.019 C 
ATOM      4  C   UNL     1      32.249  24.587  29.721  1.00  0.00     0.036 C 
ATOM      5  C   UNL     1      30.752  24.809  30.014  1.00  0.00     0.025 C 
ATOM      6  C   UNL     1      30.334  24.032  31.276  1.00  0.00     0.089 C 
ATOM      7  C   UNL     1      31.253  24.353  32.424  1.00  0.00     0.158 C 
ATOM      8  O   UNL     1      30.828  24.227  33.604  1.00  0.00    -0.295 OA
ENDROOT
BRANCH   5   9
ATOM      9  C   UNL     1      29.884  24.445  28.817  1.00  0.00    -0.077 C 
ATOM     10  C   UNL     1      28.758  25.125  28.537  1.00  0.00     0.008 C 
ATOM     11  C   UNL     1      30.279  23.302  27.918  1.00  0.00     0.039 C 
ENDBRANCH   5   9
TORSDOF 1
ENDMDL
MODEL 8
REMARK VINA RESULT:    -1.283      1.870      4.686
REMARK INTER + INTRA:          -1.454
REMARK INTER:                  -1.356
REMARK INTRA:                  -0.098
REMARK UNBOUND:                -0.096
REMARK SMILES C=C(C)[C@@H]1CC=C(C)C(=O)C1
REMARK SMILES IDX 8 1 7 2 6 3 5 4 4 5 11 6 9 7 10 8 2 9 1 10 3 11
REMARK H PARENT
REMARK Flexibility Score: inf
ROOT
ATOM      1  C   UNL     1      31.671  24.061  28.301  1.00  0.00     0.048 C 
ATOM      2  C   UNL     1      31.823  24.461  29.742  1.00  0.00    -0.012 C 
ATOM      3  C   UNL     1      33.047  24.523  30.294  1.00  0.00    -0.019 C 
ATOM      4  C   UNL     1      33.257  24.936  31.727  1.00  0.00     0.036 C 
ATOM      5  C   UNL     1      32.074  24.494  32.611  1.00  0.00     0.025 C 
ATOM      6  C   UNL     1      30.749  25.031  32.037  1.00  0.00     0.089 C 
ATOM      7  C   UNL     1      30.616  24.667  30.583  1.00  0.00     0.158 C 
ATOM      8  O   UNL     1      29.466  24.574  30.076  1.00  0.00    -0.295 OA
ENDROOT
BRANCH   5   9
ATOM      9  C   UNL     1      32.268  24.914  34.062  1.00  0.00    -0.077 C 
ATOM     10  C   UNL     1      31.219  25.115  34.878  1.00  0.00     0.008 C 
ATOM     11  C   UNL     1      33.657  25.113  34.611  1.00  0.00     0.039 C 
ENDBRANCH   5   9
TORSDOF 1
ENDMDL
