MODEL 1
REMARK VINA RESULT:    -5.498      0.000      0.000
REMARK INTER + INTRA:          -6.506
REMARK INTER:                  -6.462
REMARK INTRA:                  -0.044
REMARK UNBOUND:                -0.044
REMARK SMILES O=c1c(O)c(-c2ccc(O)c(O)c2)oc2cc(O)ccc12
REMARK SMILES IDX 5 1 3 2 2 3 1 4 21 5 15 6 14 7 16 8 17 9 19 10 20 11 6 12
REMARK SMILES IDX 7 13 8 14 9 15 13 16 11 17 10 18 12 20 4 22 18 24
REMARK H PARENT 10 19 12 21 4 23 18 25
REMARK Flexibility Score: inf
ROOT
ATOM      1  C   UNL     1       9.272  40.964  15.027  1.00  0.00     0.180 A 
ATOM      2  C   UNL     1      10.300  40.984  15.993  1.00  0.00     0.208 A 
ATOM      3  C   UNL     1      11.629  41.114  15.565  1.00  0.00     0.235 A 
ATOM      4  O   UNL     1      12.567  41.125  16.409  1.00  0.00    -0.285 OA
ATOM      5  C   UNL     1      11.904  41.240  14.194  1.00  0.00     0.069 A 
ATOM      6  C   UNL     1      10.818  41.234  13.291  1.00  0.00     0.142 A 
ATOM      7  O   UNL     1       9.574  41.100  13.737  1.00  0.00    -0.452 OA
ATOM      8  C   UNL     1      11.050  41.367  11.918  1.00  0.00     0.094 A 
ATOM      9  C   UNL     1      12.354  41.504  11.432  1.00  0.00     0.119 A 
ATOM     10  C   UNL     1      13.434  41.509  12.325  1.00  0.00     0.047 A 
ATOM     11  C   UNL     1      13.213  41.378  13.699  1.00  0.00     0.020 A 
ENDROOT
BRANCH   1  12
ATOM     12  C   UNL     1       7.847  40.811  15.398  1.00  0.00     0.025 A 
ATOM     13  C   UNL     1       6.898  41.701  14.871  1.00  0.00     0.016 A 
ATOM     14  C   UNL     1       5.544  41.563  15.190  1.00  0.00     0.051 A 
ATOM     15  C   UNL     1       5.118  40.528  16.027  1.00  0.00     0.157 A 
ATOM     16  C   UNL     1       7.414  39.757  16.222  1.00  0.00     0.062 A 
ATOM     17  C   UNL     1       6.054  39.616  16.542  1.00  0.00     0.158 A 
BRANCH  15  18
ATOM     18  O   UNL     1       3.761  40.416  16.330  1.00  0.00    -0.504 OA
ATOM     19  H   UNL     1       3.186  39.672  15.955  1.00  0.00     0.293 HD
ENDBRANCH  15  18
BRANCH  17  20
ATOM     20  O   UNL     1       5.635  38.573  17.366  1.00  0.00    -0.504 OA
ATOM     21  H   UNL     1       5.644  37.610  17.052  1.00  0.00     0.293 HD
ENDBRANCH  17  20
ENDBRANCH   1  12
BRANCH   2  22
ATOM     22  O   UNL     1       9.992  40.907  17.355  1.00  0.00    -0.502 OA
ATOM     23  H   UNL     1      10.436  40.238  17.972  1.00  0.00     0.293 HD
ENDBRANCH   2  22
BRANCH   9  24
ATOM     24  O   UNL     1      12.566  41.634  10.061  1.00  0.00    -0.508 OA
ATOM     25  H   UNL     1      12.051  42.307   9.507  1.00  0.00     0.293 HD
ENDBRANCH   9  24
TORSDOF 5
ENDMDL
MODEL 2
REMARK VINA RESULT:    -5.243     14.360     15.953
REMARK INTER + INTRA:          -6.207
REMARK INTER:                  -5.924
REMARK INTRA:                  -0.282
REMARK UNBOUND:                -0.044
REMARK SMILES O=c1c(O)c(-c2ccc(O)c(O)c2)oc2cc(O)ccc12
REMARK SMILES IDX 5 1 3 2 2 3 1 4 21 5 15 6 14 7 16 8 17 9 19 10 20 11 6 12
REMARK SMILES IDX 7 13 8 14 9 15 13 16 11 17 10 18 12 20 4 22 18 24
REMARK H PARENT 10 19 12 21 4 23 18 25
REMARK Flexibility Score: inf
ROOT
ATOM      1  C   UNL     1       8.265  33.812   1.054  1.00  0.00     0.180 A 
ATOM      2  C   UNL     1       9.615  34.056   0.731  1.00  0.00     0.208 A 
ATOM      3  C   UNL     1      10.041  35.381   0.555  1.00  0.00     0.235 A 
ATOM      4  O   UNL     1      11.242  35.624   0.256  1.00  0.00    -0.285 OA
ATOM      5  C   UNL     1       9.123  36.429   0.724  1.00  0.00     0.069 A 
ATOM      6  C   UNL     1       7.793  36.104   1.071  1.00  0.00     0.142 A 
ATOM      7  O   UNL     1       7.428  34.835   1.218  1.00  0.00    -0.452 OA
ATOM      8  C   UNL     1       6.850  37.121   1.257  1.00  0.00     0.094 A 
ATOM      9  C   UNL     1       7.217  38.461   1.100  1.00  0.00     0.119 A 
ATOM     10  C   UNL     1       8.535  38.787   0.754  1.00  0.00     0.047 A 
ATOM     11  C   UNL     1       9.486  37.779   0.567  1.00  0.00     0.020 A 
ENDROOT
BRANCH   1  12
ATOM     12  C   UNL     1       7.735  32.442   1.236  1.00  0.00     0.025 A 
ATOM     13  C   UNL     1       7.939  31.780   2.457  1.00  0.00     0.016 A 
ATOM     14  C   UNL     1       7.430  30.494   2.660  1.00  0.00     0.051 A 
ATOM     15  C   UNL     1       6.698  29.858   1.653  1.00  0.00     0.157 A 
ATOM     16  C   UNL     1       6.980  31.808   0.233  1.00  0.00     0.062 A 
ATOM     17  C   UNL     1       6.467  30.518   0.435  1.00  0.00     0.158 A 
BRANCH  15  18
ATOM     18  O   UNL     1       6.204  28.574   1.883  1.00  0.00    -0.504 OA
ATOM     19  H   UNL     1       5.257  28.411   2.204  1.00  0.00     0.293 HD
ENDBRANCH  15  18
BRANCH  17  20
ATOM     20  O   UNL     1       5.726  29.895  -0.568  1.00  0.00    -0.504 OA
ATOM     21  H   UNL     1       6.168  29.333  -1.286  1.00  0.00     0.293 HD
ENDBRANCH  17  20
ENDBRANCH   1  12
BRANCH   2  22
ATOM     22  O   UNL     1      10.519  32.995   0.618  1.00  0.00    -0.502 OA
ATOM     23  H   UNL     1      10.765  32.586  -0.276  1.00  0.00     0.293 HD
ENDBRANCH   2  22
BRANCH   9  24
ATOM     24  O   UNL     1       6.265  39.460   1.288  1.00  0.00    -0.508 OA
ATOM     25  H   UNL     1       5.848  39.949   0.505  1.00  0.00     0.293 HD
ENDBRANCH   9  24
TORSDOF 5
ENDMDL
MODEL 3
REMARK VINA RESULT:    -5.137     14.244     15.800
REMARK INTER + INTRA:          -6.082
REMARK INTER:                  -5.844
REMARK INTRA:                  -0.238
REMARK UNBOUND:                -0.044
REMARK SMILES O=c1c(O)c(-c2ccc(O)c(O)c2)oc2cc(O)ccc12
REMARK SMILES IDX 5 1 3 2 2 3 1 4 21 5 15 6 14 7 16 8 17 9 19 10 20 11 6 12
REMARK SMILES IDX 7 13 8 14 9 15 13 16 11 17 10 18 12 20 4 22 18 24
REMARK H PARENT 10 19 12 21 4 23 18 25
REMARK Flexibility Score: inf
ROOT
ATOM      1  C   UNL     1       8.234  33.926   0.984  1.00  0.00     0.180 A 
ATOM      2  C   UNL     1       9.602  34.175   0.750  1.00  0.00     0.208 A 
ATOM      3  C   UNL     1      10.044  35.504   0.660  1.00  0.00     0.235 A 
ATOM      4  O   UNL     1      11.261  35.752   0.441  1.00  0.00    -0.285 OA
ATOM      5  C   UNL     1       9.121  36.549   0.823  1.00  0.00     0.069 A 
ATOM      6  C   UNL     1       7.773  36.219   1.078  1.00  0.00     0.142 A 
ATOM      7  O   UNL     1       7.394  34.947   1.147  1.00  0.00    -0.452 OA
ATOM      8  C   UNL     1       6.825  37.233   1.255  1.00  0.00     0.094 A 
ATOM      9  C   UNL     1       7.207  38.576   1.180  1.00  0.00     0.119 A 
ATOM     10  C   UNL     1       8.543  38.908   0.926  1.00  0.00     0.047 A 
ATOM     11  C   UNL     1       9.499  37.903   0.748  1.00  0.00     0.020 A 
ENDROOT
BRANCH   1  12
ATOM     12  C   UNL     1       7.689  32.553   1.074  1.00  0.00     0.025 A 
ATOM     13  C   UNL     1       6.954  32.031  -0.003  1.00  0.00     0.016 A 
ATOM     14  C   UNL     1       6.447  30.729   0.051  1.00  0.00     0.051 A 
ATOM     15  C   UNL     1       6.679  29.927   1.172  1.00  0.00     0.157 A 
ATOM     16  C   UNL     1       7.939  31.737   2.191  1.00  0.00     0.062 A 
ATOM     17  C   UNL     1       7.433  30.429   2.246  1.00  0.00     0.158 A 
BRANCH  15  18
ATOM     18  O   UNL     1       6.160  28.633   1.199  1.00  0.00    -0.504 OA
ATOM     19  H   UNL     1       5.958  28.117   0.351  1.00  0.00     0.293 HD
ENDBRANCH  15  18
BRANCH  17  20
ATOM     20  O   UNL     1       7.680  29.630   3.361  1.00  0.00    -0.504 OA
ATOM     21  H   UNL     1       8.370  29.886   4.057  1.00  0.00     0.293 HD
ENDBRANCH  17  20
ENDBRANCH   1  12
BRANCH   2  22
ATOM     22  O   UNL     1      10.506  33.114   0.642  1.00  0.00    -0.502 OA
ATOM     23  H   UNL     1      11.362  33.185   0.104  1.00  0.00     0.293 HD
ENDBRANCH   2  22
BRANCH   9  24
ATOM     24  O   UNL     1       6.249  39.573   1.358  1.00  0.00    -0.508 OA
ATOM     25  H   UNL     1       6.467  40.435   1.843  1.00  0.00     0.293 HD
ENDBRANCH   9  24
TORSDOF 5
ENDMDL
MODEL 4
REMARK VINA RESULT:    -5.135     17.991     19.824
REMARK INTER + INTRA:          -6.080
REMARK INTER:                  -5.874
REMARK INTRA:                  -0.206
REMARK UNBOUND:                -0.044
REMARK SMILES O=c1c(O)c(-c2ccc(O)c(O)c2)oc2cc(O)ccc12
REMARK SMILES IDX 5 1 3 2 2 3 1 4 21 5 15 6 14 7 16 8 17 9 19 10 20 11 6 12
REMARK SMILES IDX 7 13 8 14 9 15 13 16 11 17 10 18 12 20 4 22 18 24
REMARK H PARENT 10 19 12 21 4 23 18 25
REMARK Flexibility Score: inf
ROOT
ATOM      1  C   UNL     1       9.942  25.763   2.802  1.00  0.00     0.180 A 
ATOM      2  C   UNL     1       9.632  25.468   1.458  1.00  0.00     0.208 A 
ATOM      3  C   UNL     1       8.889  26.397   0.714  1.00  0.00     0.235 A 
ATOM      4  O   UNL     1       8.590  26.152  -0.487  1.00  0.00    -0.285 OA
ATOM      5  C   UNL     1       8.490  27.601   1.316  1.00  0.00     0.069 A 
ATOM      6  C   UNL     1       8.860  27.834   2.658  1.00  0.00     0.142 A 
ATOM      7  O   UNL     1       9.556  26.923   3.330  1.00  0.00    -0.452 OA
ATOM      8  C   UNL     1       8.489  29.025   3.290  1.00  0.00     0.094 A 
ATOM      9  C   UNL     1       7.751  29.991   2.598  1.00  0.00     0.119 A 
ATOM     10  C   UNL     1       7.381  29.764   1.266  1.00  0.00     0.047 A 
ATOM     11  C   UNL     1       7.748  28.576   0.625  1.00  0.00     0.020 A 
ENDROOT
BRANCH   1  12
ATOM     12  C   UNL     1      10.705  24.826   3.657  1.00  0.00     0.025 A 
ATOM     13  C   UNL     1      10.044  24.135   4.683  1.00  0.00     0.016 A 
ATOM     14  C   UNL     1      10.739  23.229   5.490  1.00  0.00     0.051 A 
ATOM     15  C   UNL     1      12.100  22.991   5.273  1.00  0.00     0.157 A 
ATOM     16  C   UNL     1      12.068  24.569   3.426  1.00  0.00     0.062 A 
ATOM     17  C   UNL     1      12.768  23.659   4.234  1.00  0.00     0.158 A 
BRANCH  15  18
ATOM     18  O   UNL     1      12.768  22.084   6.095  1.00  0.00    -0.504 OA
ATOM     19  H   UNL     1      13.746  21.856   5.960  1.00  0.00     0.293 HD
ENDBRANCH  15  18
BRANCH  17  20
ATOM     20  O   UNL     1      14.121  23.416   4.002  1.00  0.00    -0.504 OA
ATOM     21  H   UNL     1      14.531  22.503   4.155  1.00  0.00     0.293 HD
ENDBRANCH  17  20
ENDBRANCH   1  12
BRANCH   2  22
ATOM     22  O   UNL     1      10.085  24.283   0.871  1.00  0.00    -0.502 OA
ATOM     23  H   UNL     1      11.032  23.945   0.996  1.00  0.00     0.293 HD
ENDBRANCH   2  22
BRANCH   9  24
ATOM     24  O   UNL     1       7.390  31.172   3.243  1.00  0.00    -0.508 OA
ATOM     25  H   UNL     1       6.959  31.164   4.160  1.00  0.00     0.293 HD
ENDBRANCH   9  24
TORSDOF 5
ENDMDL
MODEL 5
REMARK VINA RESULT:    -5.131     17.908     19.580
REMARK INTER + INTRA:          -6.074
REMARK INTER:                  -5.892
REMARK INTRA:                  -0.182
REMARK UNBOUND:                -0.044
REMARK SMILES O=c1c(O)c(-c2ccc(O)c(O)c2)oc2cc(O)ccc12
REMARK SMILES IDX 5 1 3 2 2 3 1 4 21 5 15 6 14 7 16 8 17 9 19 10 20 11 6 12
REMARK SMILES IDX 7 13 8 14 9 15 13 16 11 17 10 18 12 20 4 22 18 24
REMARK H PARENT 10 19 12 21 4 23 18 25
REMARK Flexibility Score: inf
ROOT
ATOM      1  C   UNL     1       9.242  26.424   2.474  1.00  0.00     0.180 A 
ATOM      2  C   UNL     1       9.202  25.661   1.288  1.00  0.00     0.208 A 
ATOM      3  C   UNL     1       9.631  24.326   1.327  1.00  0.00     0.235 A 
ATOM      4  O   UNL     1       9.614  23.627   0.277  1.00  0.00    -0.285 OA
ATOM      5  C   UNL     1      10.068  23.777   2.542  1.00  0.00     0.069 A 
ATOM      6  C   UNL     1      10.056  24.598   3.691  1.00  0.00     0.142 A 
ATOM      7  O   UNL     1       9.650  25.861   3.609  1.00  0.00    -0.452 OA
ATOM      8  C   UNL     1      10.475  24.085   4.923  1.00  0.00     0.094 A 
ATOM      9  C   UNL     1      10.910  22.760   5.023  1.00  0.00     0.119 A 
ATOM     10  C   UNL     1      10.925  21.942   3.886  1.00  0.00     0.047 A 
ATOM     11  C   UNL     1      10.506  22.445   2.650  1.00  0.00     0.020 A 
ENDROOT
BRANCH   1  12
ATOM     12  C   UNL     1       8.824  27.844   2.510  1.00  0.00     0.025 A 
ATOM     13  C   UNL     1       7.469  28.169   2.341  1.00  0.00     0.016 A 
ATOM     14  C   UNL     1       7.048  29.501   2.392  1.00  0.00     0.051 A 
ATOM     15  C   UNL     1       7.971  30.524   2.628  1.00  0.00     0.157 A 
ATOM     16  C   UNL     1       9.747  28.872   2.768  1.00  0.00     0.062 A 
ATOM     17  C   UNL     1       9.326  30.210   2.822  1.00  0.00     0.158 A 
BRANCH  15  18
ATOM     18  O   UNL     1       7.523  31.844   2.671  1.00  0.00    -0.504 OA
ATOM     19  H   UNL     1       7.559  32.397   3.519  1.00  0.00     0.293 HD
ENDBRANCH  15  18
BRANCH  17  20
ATOM     20  O   UNL     1      10.250  31.224   3.072  1.00  0.00    -0.504 OA
ATOM     21  H   UNL     1      10.257  31.734   3.947  1.00  0.00     0.293 HD
ENDBRANCH  17  20
ENDBRANCH   1  12
BRANCH   2  22
ATOM     22  O   UNL     1       8.714  26.221   0.103  1.00  0.00    -0.502 OA
ATOM     23  H   UNL     1       8.333  25.655  -0.646  1.00  0.00     0.293 HD
ENDBRANCH   2  22
BRANCH   9  24
ATOM     24  O   UNL     1      11.325  22.265   6.258  1.00  0.00    -0.508 OA
ATOM     25  H   UNL     1      10.764  21.601   6.778  1.00  0.00     0.293 HD
ENDBRANCH   9  24
TORSDOF 5
ENDMDL
MODEL 6
REMARK VINA RESULT:    -4.751     15.902     18.131
REMARK INTER + INTRA:          -5.628
REMARK INTER:                  -5.673
REMARK INTRA:                   0.045
REMARK UNBOUND:                -0.044
REMARK SMILES O=c1c(O)c(-c2ccc(O)c(O)c2)oc2cc(O)ccc12
REMARK SMILES IDX 5 1 3 2 2 3 1 4 21 5 15 6 14 7 16 8 17 9 19 10 20 11 6 12
REMARK SMILES IDX 7 13 8 14 9 15 13 16 11 17 10 18 12 20 4 22 18 24
REMARK H PARENT 10 19 12 21 4 23 18 25
REMARK Flexibility Score: inf
ROOT
ATOM      1  C   UNL     1       9.441  29.342   1.878  1.00  0.00     0.180 A 
ATOM      2  C   UNL     1      10.494  28.589   1.318  1.00  0.00     0.208 A 
ATOM      3  C   UNL     1      10.640  27.245   1.693  1.00  0.00     0.235 A 
ATOM      4  O   UNL     1      11.580  26.554   1.213  1.00  0.00    -0.285 OA
ATOM      5  C   UNL     1       9.728  26.678   2.596  1.00  0.00     0.069 A 
ATOM      6  C   UNL     1       8.687  27.490   3.095  1.00  0.00     0.142 A 
ATOM      7  O   UNL     1       8.589  28.762   2.722  1.00  0.00    -0.452 OA
ATOM      8  C   UNL     1       7.752  26.960   3.991  1.00  0.00     0.094 A 
ATOM      9  C   UNL     1       7.845  25.625   4.398  1.00  0.00     0.119 A 
ATOM     10  C   UNL     1       8.877  24.816   3.907  1.00  0.00     0.047 A 
ATOM     11  C   UNL     1       9.816  25.336   3.010  1.00  0.00     0.020 A 
ENDROOT
BRANCH   1  12
ATOM     12  C   UNL     1       9.232  30.769   1.547  1.00  0.00     0.025 A 
ATOM     13  C   UNL     1       7.931  31.239   1.308  1.00  0.00     0.016 A 
ATOM     14  C   UNL     1       7.707  32.587   1.014  1.00  0.00     0.051 A 
ATOM     15  C   UNL     1       8.776  33.487   0.971  1.00  0.00     0.157 A 
ATOM     16  C   UNL     1      10.303  31.680   1.524  1.00  0.00     0.062 A 
ATOM     17  C   UNL     1      10.080  33.035   1.231  1.00  0.00     0.158 A 
BRANCH  15  18
ATOM     18  O   UNL     1       8.523  34.826   0.673  1.00  0.00    -0.504 OA
ATOM     19  H   UNL     1       8.167  35.118  -0.229  1.00  0.00     0.293 HD
ENDBRANCH  15  18
BRANCH  17  20
ATOM     20  O   UNL     1      11.149  33.929   1.204  1.00  0.00    -0.504 OA
ATOM     21  H   UNL     1      12.108  33.615   1.287  1.00  0.00     0.293 HD
ENDBRANCH  17  20
ENDBRANCH   1  12
BRANCH   2  22
ATOM     22  O   UNL     1      11.357  29.167   0.382  1.00  0.00    -0.502 OA
ATOM     23  H   UNL     1      12.338  28.921   0.326  1.00  0.00     0.293 HD
ENDBRANCH   2  22
BRANCH   9  24
ATOM     24  O   UNL     1       6.906  25.113   5.291  1.00  0.00    -0.508 OA
ATOM     25  H   UNL     1       6.993  24.179   5.673  1.00  0.00     0.293 HD
ENDBRANCH   9  24
TORSDOF 5
ENDMDL
MODEL 7
REMARK VINA RESULT:    -4.738     18.792     21.295
REMARK INTER + INTRA:          -5.612
REMARK INTER:                  -5.331
REMARK INTRA:                  -0.281
REMARK UNBOUND:                -0.044
REMARK SMILES O=c1c(O)c(-c2ccc(O)c(O)c2)oc2cc(O)ccc12
REMARK SMILES IDX 5 1 3 2 2 3 1 4 21 5 15 6 14 7 16 8 17 9 19 10 20 11 6 12
REMARK SMILES IDX 7 13 8 14 9 15 13 16 11 17 10 18 12 20 4 22 18 24
REMARK H PARENT 10 19 12 21 4 23 18 25
REMARK Flexibility Score: inf
ROOT
ATOM      1  C   UNL     1      -3.654  27.285   5.966  1.00  0.00     0.180 A 
ATOM      2  C   UNL     1      -4.323  28.494   5.687  1.00  0.00     0.208 A 
ATOM      3  C   UNL     1      -4.217  29.554   6.600  1.00  0.00     0.235 A 
ATOM      4  O   UNL     1      -4.815  30.642   6.377  1.00  0.00    -0.285 OA
ATOM      5  C   UNL     1      -3.434  29.394   7.753  1.00  0.00     0.069 A 
ATOM      6  C   UNL     1      -2.775  28.161   7.950  1.00  0.00     0.142 A 
ATOM      7  O   UNL     1      -2.910  27.179   7.065  1.00  0.00    -0.452 OA
ATOM      8  C   UNL     1      -1.978  27.966   9.083  1.00  0.00     0.094 A 
ATOM      9  C   UNL     1      -1.831  28.988  10.026  1.00  0.00     0.119 A 
ATOM     10  C   UNL     1      -2.484  30.213   9.836  1.00  0.00     0.047 A 
ATOM     11  C   UNL     1      -3.281  30.418   8.706  1.00  0.00     0.020 A 
ENDROOT
BRANCH   1  12
ATOM     12  C   UNL     1      -3.733  26.115   5.062  1.00  0.00     0.025 A 
ATOM     13  C   UNL     1      -2.624  25.780   4.269  1.00  0.00     0.016 A 
ATOM     14  C   UNL     1      -2.668  24.668   3.424  1.00  0.00     0.051 A 
ATOM     15  C   UNL     1      -3.812  23.867   3.369  1.00  0.00     0.157 A 
ATOM     16  C   UNL     1      -4.875  25.296   5.022  1.00  0.00     0.062 A 
ATOM     17  C   UNL     1      -4.920  24.178   4.175  1.00  0.00     0.158 A 
BRANCH  15  18
ATOM     18  O   UNL     1      -3.829  22.765   2.515  1.00  0.00    -0.504 OA
ATOM     19  H   UNL     1      -3.964  22.861   1.516  1.00  0.00     0.293 HD
ENDBRANCH  15  18
BRANCH  17  20
ATOM     20  O   UNL     1      -6.060  23.376   4.137  1.00  0.00    -0.504 OA
ATOM     21  H   UNL     1      -6.991  23.772   4.178  1.00  0.00     0.293 HD
ENDBRANCH  17  20
ENDBRANCH   1  12
BRANCH   2  22
ATOM     22  O   UNL     1      -5.055  28.641   4.505  1.00  0.00    -0.502 OA
ATOM     23  H   UNL     1      -4.820  28.140   3.656  1.00  0.00     0.293 HD
ENDBRANCH   2  22
BRANCH   9  24
ATOM     24  O   UNL     1      -1.033  28.776  11.149  1.00  0.00    -0.508 OA
ATOM     25  H   UNL     1      -0.116  28.353  11.075  1.00  0.00     0.293 HD
ENDBRANCH   9  24
TORSDOF 5
ENDMDL
MODEL 8
REMARK VINA RESULT:    -4.718     16.041     18.388
REMARK INTER + INTRA:          -5.589
REMARK INTER:                  -5.274
REMARK INTRA:                  -0.315
REMARK UNBOUND:                -0.044
REMARK SMILES O=c1c(O)c(-c2ccc(O)c(O)c2)oc2cc(O)ccc12
REMARK SMILES IDX 5 1 3 2 2 3 1 4 21 5 15 6 14 7 16 8 17 9 19 10 20 11 6 12
REMARK SMILES IDX 7 13 8 14 9 15 13 16 11 17 10 18 12 20 4 22 18 24
REMARK H PARENT 10 19 12 21 4 23 18 25
REMARK Flexibility Score: inf
ROOT
ATOM      1  C   UNL     1      -0.716  26.505  11.713  1.00  0.00     0.180 A 
ATOM      2  C   UNL     1      -1.727  25.567  12.005  1.00  0.00     0.208 A 
ATOM      3  C   UNL     1      -1.370  24.352  12.609  1.00  0.00     0.235 A 
ATOM      4  O   UNL     1      -2.255  23.492  12.871  1.00  0.00    -0.285 OA
ATOM      5  C   UNL     1      -0.024  24.108  12.924  1.00  0.00     0.069 A 
ATOM      6  C   UNL     1       0.927  25.107  12.621  1.00  0.00     0.142 A 
ATOM      7  O   UNL     1       0.547  26.241  12.041  1.00  0.00    -0.452 OA
ATOM      8  C   UNL     1       2.277  24.906  12.929  1.00  0.00     0.094 A 
ATOM      9  C   UNL     1       2.692  23.716  13.535  1.00  0.00     0.119 A 
ATOM     10  C   UNL     1       1.753  22.721  13.836  1.00  0.00     0.047 A 
ATOM     11  C   UNL     1       0.401  22.913  13.534  1.00  0.00     0.020 A 
ENDROOT
BRANCH   1  12
ATOM     12  C   UNL     1      -1.010  27.801  11.060  1.00  0.00     0.025 A 
ATOM     13  C   UNL     1      -0.980  27.890   9.659  1.00  0.00     0.016 A 
ATOM     14  C   UNL     1      -1.275  29.097   9.020  1.00  0.00     0.051 A 
ATOM     15  C   UNL     1      -1.619  30.227   9.768  1.00  0.00     0.157 A 
ATOM     16  C   UNL     1      -1.377  28.932  11.810  1.00  0.00     0.062 A 
ATOM     17  C   UNL     1      -1.676  30.145  11.169  1.00  0.00     0.158 A 
BRANCH  15  18
ATOM     18  O   UNL     1      -1.906  31.419   9.103  1.00  0.00    -0.504 OA
ATOM     19  H   UNL     1      -2.509  31.449   8.289  1.00  0.00     0.293 HD
ENDBRANCH  15  18
BRANCH  17  20
ATOM     20  O   UNL     1      -2.032  31.263  11.921  1.00  0.00    -0.504 OA
ATOM     21  H   UNL     1      -2.124  32.180  11.501  1.00  0.00     0.293 HD
ENDBRANCH  17  20
ENDBRANCH   1  12
BRANCH   2  22
ATOM     22  O   UNL     1      -3.065  25.858  11.725  1.00  0.00    -0.502 OA
ATOM     23  H   UNL     1      -3.648  25.243  11.169  1.00  0.00     0.293 HD
ENDBRANCH   2  22
BRANCH   9  24
ATOM     24  O   UNL     1       4.041  23.532  13.833  1.00  0.00    -0.508 OA
ATOM     25  H   UNL     1       4.431  22.607  13.968  1.00  0.00     0.293 HD
ENDBRANCH   9  24
TORSDOF 5
ENDMDL
MODEL 9
REMARK VINA RESULT:    -4.717     16.137     18.480
REMARK INTER + INTRA:          -5.588
REMARK INTER:                  -5.274
REMARK INTRA:                  -0.314
REMARK UNBOUND:                -0.044
REMARK SMILES O=c1c(O)c(-c2ccc(O)c(O)c2)oc2cc(O)ccc12
REMARK SMILES IDX 5 1 3 2 2 3 1 4 21 5 15 6 14 7 16 8 17 9 19 10 20 11 6 12
REMARK SMILES IDX 7 13 8 14 9 15 13 16 11 17 10 18 12 20 4 22 18 24
REMARK H PARENT 10 19 12 21 4 23 18 25
REMARK Flexibility Score: inf
ROOT
ATOM      1  C   UNL     1      -0.471  26.147  12.101  1.00  0.00     0.180 A 
ATOM      2  C   UNL     1      -1.341  25.039  12.062  1.00  0.00     0.208 A 
ATOM      3  C   UNL     1      -0.855  23.781  12.449  1.00  0.00     0.235 A 
ATOM      4  O   UNL     1      -1.611  22.772  12.412  1.00  0.00    -0.285 OA
ATOM      5  C   UNL     1       0.474  23.659  12.883  1.00  0.00     0.069 A 
ATOM      6  C   UNL     1       1.277  24.821  12.917  1.00  0.00     0.142 A 
ATOM      7  O   UNL     1       0.780  25.992  12.533  1.00  0.00    -0.452 OA
ATOM      8  C   UNL     1       2.604  24.742  13.352  1.00  0.00     0.094 A 
ATOM      9  C   UNL     1       3.143  23.516  13.754  1.00  0.00     0.119 A 
ATOM     10  C   UNL     1       2.351  22.361  13.721  1.00  0.00     0.047 A 
ATOM     11  C   UNL     1       1.023  22.429  13.289  1.00  0.00     0.020 A 
ENDROOT
BRANCH   1  12
ATOM     12  C   UNL     1      -0.903  27.502  11.691  1.00  0.00     0.025 A 
ATOM     13  C   UNL     1      -1.255  28.441  12.674  1.00  0.00     0.016 A 
ATOM     14  C   UNL     1      -1.647  29.733  12.311  1.00  0.00     0.051 A 
ATOM     15  C   UNL     1      -1.678  30.110  10.966  1.00  0.00     0.157 A 
ATOM     16  C   UNL     1      -0.914  27.890  10.339  1.00  0.00     0.062 A 
ATOM     17  C   UNL     1      -1.305  29.187   9.974  1.00  0.00     0.158 A 
BRANCH  15  18
ATOM     18  O   UNL     1      -2.074  31.405  10.633  1.00  0.00    -0.504 OA
ATOM     19  H   UNL     1      -2.631  31.974  11.259  1.00  0.00     0.293 HD
ENDBRANCH  15  18
BRANCH  17  20
ATOM     20  O   UNL     1      -1.320  29.561   8.631  1.00  0.00    -0.504 OA
ATOM     21  H   UNL     1      -2.140  29.429   8.051  1.00  0.00     0.293 HD
ENDBRANCH  17  20
ENDBRANCH   1  12
BRANCH   2  22
ATOM     22  O   UNL     1      -2.674  25.200  11.672  1.00  0.00    -0.502 OA
ATOM     23  H   UNL     1      -3.444  24.816  12.206  1.00  0.00     0.293 HD
ENDBRANCH   2  22
BRANCH   9  24
ATOM     24  O   UNL     1       4.467  23.456  14.185  1.00  0.00    -0.508 OA
ATOM     25  H   UNL     1       5.196  23.066  13.600  1.00  0.00     0.293 HD
ENDBRANCH   9  24
TORSDOF 5
ENDMDL
