MODEL 1
REMARK VINA RESULT:    29.088      0.000      0.000
REMARK INTER + INTRA:          58.343
REMARK INTER:                  46.093
REMARK INTRA:                  12.250
REMARK UNBOUND:                12.250
REMARK SMILES C[C@@H]1O[C@H](O[C@@H]2CC[C@]3(C)[C@@H](CC[C@]4(C)[C@@H]3C=C[C@]35OC[C@@]6(CCC(C)(C)C[C@H]63)[C@H](O)C[C@@]54C)[C@]2(C)CO)[C@H](O)[C@@H](O[C@H]2O[C@H](CO)[C@H](O)[C@H](O)[C@@H]2O)[C@@H]1O
REMARK SMILES IDX 1 1 2 2 54 3 41 4 39 5 4 6 3 7 55 8 42 10 43 11 52 12 44 13
REMARK SMILES IDX 50 14 45 15 48 16 53 17 51 19 46 21 47 22 49 24 5 26 6 27
REMARK SMILES IDX 7 28 35 29 8 30 11 31 36 32 9 33 12 34 10 35 16 36 13 37
REMARK SMILES IDX 14 38 17 39 15 40 33 41 18 42 19 43 32 44 34 45 29 46 20 47
REMARK SMILES IDX 30 48 22 49 28 50 21 51 23 52 25 53 24 54 26 55 27 56 37 57
REMARK SMILES IDX 38 58 31 60 40 62
REMARK H PARENT 55 9 53 18 51 20 47 23 49 25 38 59 31 61 40 63
REMARK Flexibility Score: inf
ROOT
ATOM      1  C   UNL     1     -39.593  75.938 -16.918  1.00  0.00     0.041 C 
ATOM      2  C   UNL     1     -38.147  76.104 -17.417  1.00  0.00     0.150 C 
ATOM      3  C   UNL     1     -37.300  74.821 -17.351  1.00  0.00     0.175 C 
ATOM      4  C   UNL     1     -37.661  73.808 -18.456  1.00  0.00     0.186 C 
ATOM      5  C   UNL     1     -37.698  74.540 -19.812  1.00  0.00     0.202 C 
ATOM      6  C   UNL     1     -38.471  75.881 -19.764  1.00  0.00     0.282 C 
ATOM      7  O   UNL     1     -38.065  76.720 -18.697  1.00  0.00    -0.344 OA
ENDROOT
BRANCH   3   8
ATOM      8  O   UNL     1     -37.344  74.243 -16.067  1.00  0.00    -0.388 OA
ATOM      9  H   UNL     1     -36.790  73.420 -16.079  1.00  0.00     0.211 HD
ENDBRANCH   3   8
BRANCH   4  10
ATOM     10  O   UNL     1     -36.623  72.839 -18.461  1.00  0.00    -0.341 OA
BRANCH  10  11
ATOM     11  C   UNL     1     -36.948  71.646 -17.757  1.00  0.00     0.282 C 
ATOM     12  C   UNL     1     -35.773  70.638 -17.797  1.00  0.00     0.202 C 
ATOM     13  O   UNL     1     -38.126  71.070 -18.312  1.00  0.00    -0.341 OA
ATOM     14  C   UNL     1     -35.565  70.071 -19.218  1.00  0.00     0.179 C 
ATOM     15  C   UNL     1     -37.964  70.774 -19.693  1.00  0.00     0.178 C 
ATOM     16  C   UNL     1     -36.895  69.666 -19.894  1.00  0.00     0.177 C 
BRANCH  12  17
ATOM     17  O   UNL     1     -35.937  69.607 -16.857  1.00  0.00    -0.385 OA
ATOM     18  H   UNL     1     -35.877  68.731 -17.318  1.00  0.00     0.211 HD
ENDBRANCH  12  17
BRANCH  14  19
ATOM     19  O   UNL     1     -34.683  68.979 -19.171  1.00  0.00    -0.387 OA
ATOM     20  H   UNL     1     -35.113  68.287 -18.599  1.00  0.00     0.211 HD
ENDBRANCH  14  19
BRANCH  15  21
ATOM     21  C   UNL     1     -39.325  70.388 -20.284  1.00  0.00     0.191 C 
BRANCH  21  22
ATOM     22  O   UNL     1     -40.224  71.466 -20.218  1.00  0.00    -0.394 OA
ATOM     23  H   UNL     1     -40.597  71.583 -21.132  1.00  0.00     0.210 HD
ENDBRANCH  21  22
ENDBRANCH  15  21
BRANCH  16  24
ATOM     24  O   UNL     1     -37.325  68.395 -19.463  1.00  0.00    -0.387 OA
ATOM     25  H   UNL     1     -38.252  68.243 -19.782  1.00  0.00     0.211 HD
ENDBRANCH  16  24
ENDBRANCH  10  11
ENDBRANCH   4  10
BRANCH   6  26
ATOM     26  O   UNL     1     -39.887  75.715 -19.741  1.00  0.00    -0.346 OA
BRANCH  26  27
ATOM     27  C   UNL     1     -40.391  74.966 -20.848  1.00  0.00     0.130 C 
ATOM     28  C   UNL     1     -39.301  74.136 -21.530  1.00  0.00     0.033 C 
ATOM     29  C   UNL     1     -41.083  75.909 -21.913  1.00  0.00     0.020 C 
ATOM     30  C   UNL     1     -38.160  75.043 -21.939  1.00  0.00     0.010 C 
ATOM     31  C   UNL     1     -40.019  76.566 -22.972  1.00  0.00     0.006 C 
ATOM     32  C   UNL     1     -42.239  75.050 -22.532  1.00  0.00     0.017 C 
ATOM     33  C   UNL     1     -38.544  75.935 -23.149  1.00  0.00    -0.022 C 
ATOM     34  C   UNL     1     -40.630  77.125 -24.310  1.00  0.00     0.005 C 
ATOM     35  C   UNL     1     -37.513  77.125 -23.072  1.00  0.00     0.012 C 
ATOM     36  C   UNL     1     -38.271  75.190 -24.557  1.00  0.00     0.024 C 
ATOM     37  C   UNL     1     -39.791  76.915 -25.588  1.00  0.00     0.008 C 
ATOM     38  C   UNL     1     -39.259  75.462 -25.732  1.00  0.00    -0.017 C 
ATOM     39  C   UNL     1     -37.963  73.693 -24.566  1.00  0.00    -0.024 C 
ATOM     40  C   UNL     1     -40.487  74.500 -25.619  1.00  0.00     0.013 C 
ATOM     41  C   UNL     1     -38.483  75.184 -27.129  1.00  0.00     0.009 C 
ATOM     42  C   UNL     1     -37.710  73.091 -25.741  1.00  0.00     0.005 C 
ATOM     43  C   UNL     1     -37.492  73.906 -27.005  1.00  0.00     0.096 C 
ATOM     44  C   UNL     1     -37.645  76.409 -27.615  1.00  0.00     0.043 C 
ATOM     45  C   UNL     1     -39.558  74.962 -28.260  1.00  0.00     0.015 C 
ATOM     46  C   UNL     1     -35.973  74.182 -27.095  1.00  0.00     0.037 C 
ATOM     47  O   UNL     1     -37.690  73.090 -28.147  1.00  0.00    -0.369 OA
ATOM     48  C   UNL     1     -36.595  76.053 -28.718  1.00  0.00     0.124 C 
ATOM     49  C   UNL     1     -35.870  74.645 -28.517  1.00  0.00     0.026 C 
ATOM     50  C   UNL     1     -35.073  74.971 -26.134  1.00  0.00     0.014 C 
ATOM     51  C   UNL     1     -36.737  73.509 -29.124  1.00  0.00     0.171 C 
ATOM     52  C   UNL     1     -34.379  74.620 -29.015  1.00  0.00     0.013 C 
ATOM     53  C   UNL     1     -33.556  74.764 -26.523  1.00  0.00    -0.035 C 
ATOM     54  C   UNL     1     -33.367  74.128 -27.950  1.00  0.00     0.007 C 
ATOM     55  C   UNL     1     -32.901  73.819 -25.490  1.00  0.00     0.011 C 
ATOM     56  C   UNL     1     -32.804  76.112 -26.468  1.00  0.00     0.011 C 
BRANCH  29  57
ATOM     57  C   UNL     1     -41.806  77.070 -21.138  1.00  0.00     0.165 C 
BRANCH  57  58
ATOM     58  O   UNL     1     -43.153  76.753 -20.907  1.00  0.00    -0.396 OA
ATOM     59  H   UNL     1     -43.490  77.381 -20.217  1.00  0.00     0.210 HD
ENDBRANCH  57  58
ENDBRANCH  29  57
BRANCH  48  60
ATOM     60  O   UNL     1     -35.702  77.124 -28.880  1.00  0.00    -0.392 OA
ATOM     61  H   UNL     1     -34.882  76.773 -29.308  1.00  0.00     0.210 HD
ENDBRANCH  48  60
ENDBRANCH  26  27
ENDBRANCH   6  26
BRANCH   5  62
ATOM     62  O   UNL     1     -38.275  73.711 -20.787  1.00  0.00    -0.385 OA
ATOM     63  H   UNL     1     -38.100  74.122 -21.673  1.00  0.00     0.211 HD
ENDBRANCH   5  62
TORSDOF 14
ENDMDL
