MODEL 1
REMARK VINA RESULT:    -7.363      0.000      0.000
REMARK INTER + INTRA:         -12.092
REMARK INTER:                 -11.452
REMARK INTRA:                  -0.639
REMARK UNBOUND:                -0.639
REMARK SMILES COc1cc(CNC(=O)CCCCC=CC(C)C)ccc1O
REMARK SMILES IDX 11 1 12 2 13 3 14 4 15 5 16 6 17 7 18 8 10 9 8 10 9 11 7 12
REMARK SMILES IDX 6 14 5 15 4 16 19 17 3 18 20 19 21 20 2 21 1 22 22 23
REMARK H PARENT 7 13 22 24
REMARK Flexibility Score: inf
ROOT
ATOM      1  C   UNL     1      15.664  31.072  23.017  1.00  0.00     0.010 C 
ENDROOT
BRANCH   1   2
ATOM      2  C   UNL     1      15.356  29.800  23.825  1.00  0.00     0.005 C 
BRANCH   2   3
ATOM      3  C   UNL     1      16.618  29.204  24.462  1.00  0.00     0.027 C 
BRANCH   3   4
ATOM      4  C   UNL     1      17.642  30.275  24.745  1.00  0.00    -0.031 C 
ATOM      5  C   UNL     1      18.581  30.266  25.714  1.00  0.00    -0.028 C 
BRANCH   5   6
ATOM      6  C   UNL     1      18.849  29.194  26.754  1.00  0.00     0.005 C 
ATOM      7  C   UNL     1      19.441  27.906  26.164  1.00  0.00     0.012 C 
ATOM      8  C   UNL     1      19.643  29.717  27.959  1.00  0.00     0.012 C 
ENDBRANCH   5   6
ENDBRANCH   3   4
ENDBRANCH   2   3
ENDBRANCH   1   2
BRANCH   1   9
ATOM      9  C   UNL     1      14.858  31.142  21.713  1.00  0.00     0.100 C 
BRANCH   9  10
ATOM     10  C   UNL     1      14.013  32.382  21.653  1.00  0.00     0.220 C 
ATOM     11  O   UNL     1      14.551  33.507  21.845  1.00  0.00    -0.275 OA
ATOM     12  N   UNL     1      12.615  32.289  21.345  1.00  0.00    -0.352 N 
ATOM     13  H   UNL     1      12.185  31.345  21.209  1.00  0.00     0.163 HD
BRANCH  12  14
ATOM     14  C   UNL     1      11.778  33.467  21.126  1.00  0.00     0.151 C 
BRANCH  14  15
ATOM     15  C   UNL     1      10.605  33.469  22.071  1.00  0.00    -0.025 A 
ATOM     16  C   UNL     1      10.808  33.479  23.461  1.00  0.00     0.056 A 
ATOM     17  C   UNL     1       9.297  33.441  21.565  1.00  0.00     0.009 A 
ATOM     18  C   UNL     1       9.712  33.465  24.345  1.00  0.00     0.160 A 
ATOM     19  C   UNL     1       8.207  33.426  22.437  1.00  0.00     0.050 A 
ATOM     20  C   UNL     1       8.410  33.438  23.823  1.00  0.00     0.157 A 
BRANCH  18  21
ATOM     21  O   UNL     1       9.876  33.478  25.739  1.00  0.00    -0.493 OA
ATOM     22  C   UNL     1      10.060  32.315  26.539  1.00  0.00     0.278 C 
ENDBRANCH  18  21
BRANCH  20  23
ATOM     23  O   UNL     1       7.321  33.422  24.694  1.00  0.00    -0.504 OA
ATOM     24  H   UNL     1       6.438  33.853  24.447  1.00  0.00     0.293 HD
ENDBRANCH  20  23
ENDBRANCH  14  15
ENDBRANCH  12  14
ENDBRANCH   9  10
ENDBRANCH   1   9
TORSDOF 10
ENDMDL
MODEL 2
REMARK VINA RESULT:    -7.362      1.380      2.126
REMARK INTER + INTRA:         -12.090
REMARK INTER:                 -11.548
REMARK INTRA:                  -0.542
REMARK UNBOUND:                -0.639
REMARK SMILES COc1cc(CNC(=O)CCCCC=CC(C)C)ccc1O
REMARK SMILES IDX 11 1 12 2 13 3 14 4 15 5 16 6 17 7 18 8 10 9 8 10 9 11 7 12
REMARK SMILES IDX 6 14 5 15 4 16 19 17 3 18 20 19 21 20 2 21 1 22 22 23
REMARK H PARENT 7 13 22 24
REMARK Flexibility Score: inf
ROOT
ATOM      1  C   UNL     1      14.811  29.697  22.461  1.00  0.00     0.010 C 
ENDROOT
BRANCH   1   2
ATOM      2  C   UNL     1      15.431  30.412  23.675  1.00  0.00     0.005 C 
BRANCH   2   3
ATOM      3  C   UNL     1      16.551  29.585  24.319  1.00  0.00     0.027 C 
BRANCH   3   4
ATOM      4  C   UNL     1      17.740  30.449  24.657  1.00  0.00    -0.031 C 
ATOM      5  C   UNL     1      18.638  30.247  25.643  1.00  0.00    -0.028 C 
BRANCH   5   6
ATOM      6  C   UNL     1      18.687  29.115  26.654  1.00  0.00     0.005 C 
ATOM      7  C   UNL     1      19.237  27.804  26.074  1.00  0.00     0.012 C 
ATOM      8  C   UNL     1      19.369  29.518  27.968  1.00  0.00     0.012 C 
ENDBRANCH   5   6
ENDBRANCH   3   4
ENDBRANCH   2   3
ENDBRANCH   1   2
BRANCH   1   9
ATOM      9  C   UNL     1      14.538  30.660  21.298  1.00  0.00     0.100 C 
BRANCH   9  10
ATOM     10  C   UNL     1      13.884  31.925  21.772  1.00  0.00     0.220 C 
ATOM     11  O   UNL     1      14.487  33.024  21.632  1.00  0.00    -0.275 OA
ATOM     12  N   UNL     1      12.568  31.887  22.345  1.00  0.00    -0.352 N 
ATOM     13  H   UNL     1      12.095  30.963  22.470  1.00  0.00     0.163 HD
BRANCH  12  14
ATOM     14  C   UNL     1      11.824  33.097  22.685  1.00  0.00     0.151 C 
BRANCH  14  15
ATOM     15  C   UNL     1      10.631  32.764  23.542  1.00  0.00    -0.025 A 
ATOM     16  C   UNL     1       9.459  32.245  22.966  1.00  0.00     0.056 A 
ATOM     17  C   UNL     1      10.677  32.989  24.926  1.00  0.00     0.009 A 
ATOM     18  C   UNL     1       8.339  31.948  23.765  1.00  0.00     0.160 A 
ATOM     19  C   UNL     1       9.569  32.696  25.723  1.00  0.00     0.050 A 
ATOM     20  C   UNL     1       8.401  32.178  25.147  1.00  0.00     0.157 A 
BRANCH  18  21
ATOM     21  O   UNL     1       7.153  31.427  23.225  1.00  0.00    -0.493 OA
ATOM     22  C   UNL     1       6.979  30.074  22.818  1.00  0.00     0.278 C 
ENDBRANCH  18  21
BRANCH  20  23
ATOM     23  O   UNL     1       7.294  31.887  25.943  1.00  0.00    -0.504 OA
ATOM     24  H   UNL     1       6.606  32.595  26.173  1.00  0.00     0.293 HD
ENDBRANCH  20  23
ENDBRANCH  14  15
ENDBRANCH  12  14
ENDBRANCH   9  10
ENDBRANCH   1   9
TORSDOF 10
ENDMDL
MODEL 3
REMARK VINA RESULT:    -7.310      0.990      1.414
REMARK INTER + INTRA:         -12.009
REMARK INTER:                 -11.260
REMARK INTRA:                  -0.749
REMARK UNBOUND:                -0.639
REMARK SMILES COc1cc(CNC(=O)CCCCC=CC(C)C)ccc1O
REMARK SMILES IDX 11 1 12 2 13 3 14 4 15 5 16 6 17 7 18 8 10 9 8 10 9 11 7 12
REMARK SMILES IDX 6 14 5 15 4 16 19 17 3 18 20 19 21 20 2 21 1 22 22 23
REMARK H PARENT 7 13 22 24
REMARK Flexibility Score: inf
ROOT
ATOM      1  C   UNL     1      15.274  30.309  23.490  1.00  0.00     0.010 C 
ENDROOT
BRANCH   1   2
ATOM      2  C   UNL     1      16.568  31.138  23.571  1.00  0.00     0.005 C 
BRANCH   2   3
ATOM      3  C   UNL     1      17.595  30.509  24.521  1.00  0.00     0.027 C 
BRANCH   3   4
ATOM      4  C   UNL     1      17.167  29.126  24.946  1.00  0.00    -0.031 C 
ATOM      5  C   UNL     1      17.911  28.209  25.600  1.00  0.00    -0.028 C 
BRANCH   5   6
ATOM      6  C   UNL     1      19.349  28.327  26.070  1.00  0.00     0.005 C 
ATOM      7  C   UNL     1      19.485  28.968  27.458  1.00  0.00     0.012 C 
ATOM      8  C   UNL     1      20.128  27.011  25.943  1.00  0.00     0.012 C 
ENDBRANCH   5   6
ENDBRANCH   3   4
ENDBRANCH   2   3
ENDBRANCH   1   2
BRANCH   1   9
ATOM      9  C   UNL     1      14.801  30.112  22.044  1.00  0.00     0.100 C 
BRANCH   9  10
ATOM     10  C   UNL     1      14.167  31.359  21.497  1.00  0.00     0.220 C 
ATOM     11  O   UNL     1      14.481  31.756  20.342  1.00  0.00    -0.275 OA
ATOM     12  N   UNL     1      13.188  32.069  22.269  1.00  0.00    -0.352 N 
ATOM     13  H   UNL     1      12.958  31.734  23.233  1.00  0.00     0.163 HD
BRANCH  12  14
ATOM     14  C   UNL     1      12.432  33.198  21.732  1.00  0.00     0.151 C 
BRANCH  14  15
ATOM     15  C   UNL     1      11.071  33.279  22.373  1.00  0.00    -0.025 A 
ATOM     16  C   UNL     1      10.845  32.718  23.641  1.00  0.00     0.056 A 
ATOM     17  C   UNL     1      10.012  33.901  21.695  1.00  0.00     0.009 A 
ATOM     18  C   UNL     1       9.568  32.779  24.233  1.00  0.00     0.160 A 
ATOM     19  C   UNL     1       8.745  33.965  22.278  1.00  0.00     0.050 A 
ATOM     20  C   UNL     1       8.520  33.406  23.543  1.00  0.00     0.157 A 
BRANCH  18  21
ATOM     21  O   UNL     1       9.305  32.232  25.499  1.00  0.00    -0.493 OA
ATOM     22  C   UNL     1      10.128  32.421  26.646  1.00  0.00     0.278 C 
ENDBRANCH  18  21
BRANCH  20  23
ATOM     23  O   UNL     1       7.255  33.468  24.124  1.00  0.00    -0.504 OA
ATOM     24  H   UNL     1       6.424  33.182  23.619  1.00  0.00     0.293 HD
ENDBRANCH  20  23
ENDBRANCH  14  15
ENDBRANCH  12  14
ENDBRANCH   9  10
ENDBRANCH   1   9
TORSDOF 10
ENDMDL
MODEL 4
REMARK VINA RESULT:    -7.158      1.645      2.146
REMARK INTER + INTRA:         -11.773
REMARK INTER:                 -11.050
REMARK INTRA:                  -0.723
REMARK UNBOUND:                -0.639
REMARK SMILES COc1cc(CNC(=O)CCCCC=CC(C)C)ccc1O
REMARK SMILES IDX 11 1 12 2 13 3 14 4 15 5 16 6 17 7 18 8 10 9 8 10 9 11 7 12
REMARK SMILES IDX 6 14 5 15 4 16 19 17 3 18 20 19 21 20 2 21 1 22 22 23
REMARK H PARENT 7 13 22 24
REMARK Flexibility Score: inf
ROOT
ATOM      1  C   UNL     1      14.618  29.658  22.376  1.00  0.00     0.010 C 
ENDROOT
BRANCH   1   2
ATOM      2  C   UNL     1      15.284  30.497  23.481  1.00  0.00     0.005 C 
BRANCH   2   3
ATOM      3  C   UNL     1      16.329  29.691  24.262  1.00  0.00     0.027 C 
BRANCH   3   4
ATOM      4  C   UNL     1      17.575  30.507  24.507  1.00  0.00    -0.031 C 
ATOM      5  C   UNL     1      18.515  30.293  25.450  1.00  0.00    -0.028 C 
BRANCH   5   6
ATOM      6  C   UNL     1      18.567  29.193  26.495  1.00  0.00     0.005 C 
ATOM      7  C   UNL     1      19.024  27.840  25.933  1.00  0.00     0.012 C 
ATOM      8  C   UNL     1      19.336  29.605  27.757  1.00  0.00     0.012 C 
ENDBRANCH   5   6
ENDBRANCH   3   4
ENDBRANCH   2   3
ENDBRANCH   1   2
BRANCH   1   9
ATOM      9  C   UNL     1      14.312  30.487  21.122  1.00  0.00     0.100 C 
BRANCH   9  10
ATOM     10  C   UNL     1      12.844  30.776  20.996  1.00  0.00     0.220 C 
ATOM     11  O   UNL     1      12.034  29.818  20.863  1.00  0.00    -0.275 OA
ATOM     12  N   UNL     1      12.365  32.128  21.063  1.00  0.00    -0.352 N 
ATOM     13  H   UNL     1      13.056  32.908  21.153  1.00  0.00     0.163 HD
BRANCH  12  14
ATOM     14  C   UNL     1      10.942  32.457  21.097  1.00  0.00     0.151 C 
BRANCH  14  15
ATOM     15  C   UNL     1      10.442  32.506  22.518  1.00  0.00    -0.025 A 
ATOM     16  C   UNL     1       9.154  32.047  22.838  1.00  0.00     0.056 A 
ATOM     17  C   UNL     1      11.259  33.032  23.531  1.00  0.00     0.009 A 
ATOM     18  C   UNL     1       8.680  32.108  24.163  1.00  0.00     0.160 A 
ATOM     19  C   UNL     1      10.794  33.095  24.845  1.00  0.00     0.050 A 
ATOM     20  C   UNL     1       9.509  32.636  25.164  1.00  0.00     0.157 A 
BRANCH  18  21
ATOM     21  O   UNL     1       7.400  31.657  24.521  1.00  0.00    -0.493 OA
ATOM     22  C   UNL     1       7.033  30.287  24.641  1.00  0.00     0.278 C 
ENDBRANCH  18  21
BRANCH  20  23
ATOM     23  O   UNL     1       9.045  32.700  26.477  1.00  0.00    -0.504 OA
ATOM     24  H   UNL     1       9.661  32.933  27.247  1.00  0.00     0.293 HD
ENDBRANCH  20  23
ENDBRANCH  14  15
ENDBRANCH  12  14
ENDBRANCH   9  10
ENDBRANCH   1   9
TORSDOF 10
ENDMDL
MODEL 5
REMARK VINA RESULT:    -7.149      2.647      4.254
REMARK INTER + INTRA:         -11.759
REMARK INTER:                 -10.261
REMARK INTRA:                  -1.498
REMARK UNBOUND:                -0.639
REMARK SMILES COc1cc(CNC(=O)CCCCC=CC(C)C)ccc1O
REMARK SMILES IDX 11 1 12 2 13 3 14 4 15 5 16 6 17 7 18 8 10 9 8 10 9 11 7 12
REMARK SMILES IDX 6 14 5 15 4 16 19 17 3 18 20 19 21 20 2 21 1 22 22 23
REMARK H PARENT 7 13 22 24
REMARK Flexibility Score: inf
ROOT
ATOM      1  C   UNL     1      12.671  33.217  20.090  1.00  0.00     0.010 C 
ENDROOT
BRANCH   1   2
ATOM      2  C   UNL     1      12.745  33.479  21.604  1.00  0.00     0.005 C 
BRANCH   2   3
ATOM      3  C   UNL     1      12.633  32.183  22.417  1.00  0.00     0.027 C 
BRANCH   3   4
ATOM      4  C   UNL     1      13.303  31.035  21.706  1.00  0.00    -0.031 C 
ATOM      5  C   UNL     1      14.419  30.380  22.089  1.00  0.00    -0.028 C 
BRANCH   5   6
ATOM      6  C   UNL     1      15.276  30.623  23.318  1.00  0.00     0.005 C 
ATOM      7  C   UNL     1      15.844  29.334  23.930  1.00  0.00     0.012 C 
ATOM      8  C   UNL     1      16.348  31.698  23.095  1.00  0.00     0.012 C 
ENDBRANCH   5   6
ENDBRANCH   3   4
ENDBRANCH   2   3
ENDBRANCH   1   2
BRANCH   1   9
ATOM      9  C   UNL     1      11.479  33.929  19.436  1.00  0.00     0.100 C 
BRANCH   9  10
ATOM     10  C   UNL     1      10.178  33.509  20.057  1.00  0.00     0.220 C 
ATOM     11  O   UNL     1       9.782  32.319  19.919  1.00  0.00    -0.275 OA
ATOM     12  N   UNL     1       9.412  34.444  20.830  1.00  0.00    -0.352 N 
ATOM     13  H   UNL     1       9.748  35.430  20.915  1.00  0.00     0.163 HD
BRANCH  12  14
ATOM     14  C   UNL     1       8.220  34.054  21.580  1.00  0.00     0.151 C 
BRANCH  14  15
ATOM     15  C   UNL     1       8.591  33.590  22.964  1.00  0.00    -0.025 A 
ATOM     16  C   UNL     1       7.933  32.496  23.551  1.00  0.00     0.056 A 
ATOM     17  C   UNL     1       9.587  34.264  23.686  1.00  0.00     0.009 A 
ATOM     18  C   UNL     1       8.269  32.072  24.851  1.00  0.00     0.160 A 
ATOM     19  C   UNL     1       9.923  33.849  24.976  1.00  0.00     0.050 A 
ATOM     20  C   UNL     1       9.268  32.757  25.560  1.00  0.00     0.157 A 
BRANCH  18  21
ATOM     21  O   UNL     1       7.636  30.982  25.469  1.00  0.00    -0.493 OA
ATOM     22  C   UNL     1       6.818  30.035  24.791  1.00  0.00     0.278 C 
ENDBRANCH  18  21
BRANCH  20  23
ATOM     23  O   UNL     1       9.603  32.342  26.848  1.00  0.00    -0.504 OA
ATOM     24  H   UNL     1      10.488  32.592  27.272  1.00  0.00     0.293 HD
ENDBRANCH  20  23
ENDBRANCH  14  15
ENDBRANCH  12  14
ENDBRANCH   9  10
ENDBRANCH   1   9
TORSDOF 10
ENDMDL
MODEL 6
REMARK VINA RESULT:    -6.841      3.205      9.513
REMARK INTER + INTRA:         -11.280
REMARK INTER:                 -10.696
REMARK INTRA:                  -0.584
REMARK UNBOUND:                -0.639
REMARK SMILES COc1cc(CNC(=O)CCCCC=CC(C)C)ccc1O
REMARK SMILES IDX 11 1 12 2 13 3 14 4 15 5 16 6 17 7 18 8 10 9 8 10 9 11 7 12
REMARK SMILES IDX 6 14 5 15 4 16 19 17 3 18 20 19 21 20 2 21 1 22 22 23
REMARK H PARENT 7 13 22 24
REMARK Flexibility Score: inf
ROOT
ATOM      1  C   UNL     1      13.047  31.736  21.697  1.00  0.00     0.010 C 
ENDROOT
BRANCH   1   2
ATOM      2  C   UNL     1      11.560  31.761  22.090  1.00  0.00     0.005 C 
BRANCH   2   3
ATOM      3  C   UNL     1      11.315  32.584  23.361  1.00  0.00     0.027 C 
BRANCH   3   4
ATOM      4  C   UNL     1      10.601  33.875  23.043  1.00  0.00    -0.031 C 
ATOM      5  C   UNL     1       9.273  34.052  22.887  1.00  0.00    -0.028 C 
BRANCH   5   6
ATOM      6  C   UNL     1       8.167  33.017  22.987  1.00  0.00     0.005 C 
ATOM      7  C   UNL     1       7.674  32.789  24.423  1.00  0.00     0.012 C 
ATOM      8  C   UNL     1       7.022  33.269  21.998  1.00  0.00     0.012 C 
ENDBRANCH   5   6
ENDBRANCH   3   4
ENDBRANCH   2   3
ENDBRANCH   1   2
BRANCH   1   9
ATOM      9  C   UNL     1      13.867  30.795  22.589  1.00  0.00     0.100 C 
BRANCH   9  10
ATOM     10  C   UNL     1      15.311  31.205  22.643  1.00  0.00     0.220 C 
ATOM     11  O   UNL     1      15.777  31.947  21.736  1.00  0.00    -0.275 OA
ATOM     12  N   UNL     1      16.142  30.783  23.734  1.00  0.00    -0.352 N 
ATOM     13  H   UNL     1      15.740  30.151  24.464  1.00  0.00     0.163 HD
BRANCH  12  14
ATOM     14  C   UNL     1      17.507  31.271  23.917  1.00  0.00     0.151 C 
BRANCH  14  15
ATOM     15  C   UNL     1      18.178  30.555  25.061  1.00  0.00    -0.025 A 
ATOM     16  C   UNL     1      18.459  29.181  24.976  1.00  0.00     0.056 A 
ATOM     17  C   UNL     1      18.510  31.257  26.229  1.00  0.00     0.009 A 
ATOM     18  C   UNL     1      19.072  28.508  26.050  1.00  0.00     0.160 A 
ATOM     19  C   UNL     1      19.118  30.594  27.297  1.00  0.00     0.050 A 
ATOM     20  C   UNL     1      19.399  29.224  27.212  1.00  0.00     0.157 A 
BRANCH  18  21
ATOM     21  O   UNL     1      19.371  27.138  26.001  1.00  0.00    -0.493 OA
ATOM     22  C   UNL     1      20.603  26.597  25.538  1.00  0.00     0.278 C 
ENDBRANCH  18  21
BRANCH  20  23
ATOM     23  O   UNL     1      20.005  28.563  28.279  1.00  0.00    -0.504 OA
ATOM     24  H   UNL     1      20.166  29.024  29.166  1.00  0.00     0.293 HD
ENDBRANCH  20  23
ENDBRANCH  14  15
ENDBRANCH  12  14
ENDBRANCH   9  10
ENDBRANCH   1   9
TORSDOF 10
ENDMDL
MODEL 7
REMARK VINA RESULT:    -6.836      1.478      2.562
REMARK INTER + INTRA:         -11.272
REMARK INTER:                 -10.893
REMARK INTRA:                  -0.380
REMARK UNBOUND:                -0.639
REMARK SMILES COc1cc(CNC(=O)CCCCC=CC(C)C)ccc1O
REMARK SMILES IDX 11 1 12 2 13 3 14 4 15 5 16 6 17 7 18 8 10 9 8 10 9 11 7 12
REMARK SMILES IDX 6 14 5 15 4 16 19 17 3 18 20 19 21 20 2 21 1 22 22 23
REMARK H PARENT 7 13 22 24
REMARK Flexibility Score: inf
ROOT
ATOM      1  C   UNL     1      16.933  31.263  23.877  1.00  0.00     0.010 C 
ENDROOT
BRANCH   1   2
ATOM      2  C   UNL     1      18.068  30.385  24.434  1.00  0.00     0.005 C 
BRANCH   2   3
ATOM      3  C   UNL     1      17.530  29.169  25.199  1.00  0.00     0.027 C 
BRANCH   3   4
ATOM      4  C   UNL     1      18.657  28.298  25.697  1.00  0.00    -0.031 C 
ATOM      5  C   UNL     1      19.368  28.458  26.832  1.00  0.00    -0.028 C 
BRANCH   5   6
ATOM      6  C   UNL     1      19.222  29.538  27.889  1.00  0.00     0.005 C 
ATOM      7  C   UNL     1      19.447  30.957  27.345  1.00  0.00     0.012 C 
ATOM      8  C   UNL     1      17.926  29.409  28.699  1.00  0.00     0.012 C 
ENDBRANCH   5   6
ENDBRANCH   3   4
ENDBRANCH   2   3
ENDBRANCH   1   2
BRANCH   1   9
ATOM      9  C   UNL     1      15.759  30.427  23.349  1.00  0.00     0.100 C 
BRANCH   9  10
ATOM     10  C   UNL     1      14.811  31.261  22.537  1.00  0.00     0.220 C 
ATOM     11  O   UNL     1      15.235  32.303  21.966  1.00  0.00    -0.275 OA
ATOM     12  N   UNL     1      13.443  30.855  22.382  1.00  0.00    -0.352 N 
ATOM     13  H   UNL     1      13.107  29.999  22.880  1.00  0.00     0.163 HD
BRANCH  12  14
ATOM     14  C   UNL     1      12.516  31.542  21.486  1.00  0.00     0.151 C 
BRANCH  14  15
ATOM     15  C   UNL     1      11.312  32.038  22.244  1.00  0.00    -0.025 A 
ATOM     16  C   UNL     1      10.035  31.516  21.976  1.00  0.00     0.056 A 
ATOM     17  C   UNL     1      11.458  33.041  23.214  1.00  0.00     0.009 A 
ATOM     18  C   UNL     1       8.908  31.991  22.674  1.00  0.00     0.160 A 
ATOM     19  C   UNL     1      10.344  33.515  23.908  1.00  0.00     0.050 A 
ATOM     20  C   UNL     1       9.071  32.994  23.641  1.00  0.00     0.157 A 
BRANCH  18  21
ATOM     21  O   UNL     1       7.617  31.492  22.436  1.00  0.00    -0.493 OA
ATOM     22  C   UNL     1       6.884  31.695  21.232  1.00  0.00     0.278 C 
ENDBRANCH  18  21
BRANCH  20  23
ATOM     23  O   UNL     1       7.957  33.468  24.333  1.00  0.00    -0.504 OA
ATOM     24  H   UNL     1       7.516  34.347  24.090  1.00  0.00     0.293 HD
ENDBRANCH  20  23
ENDBRANCH  14  15
ENDBRANCH  12  14
ENDBRANCH   9  10
ENDBRANCH   1   9
TORSDOF 10
ENDMDL
MODEL 8
REMARK VINA RESULT:    -6.819      3.430      5.206
REMARK INTER + INTRA:         -11.245
REMARK INTER:                  -9.810
REMARK INTRA:                  -1.435
REMARK UNBOUND:                -0.639
REMARK SMILES COc1cc(CNC(=O)CCCCC=CC(C)C)ccc1O
REMARK SMILES IDX 11 1 12 2 13 3 14 4 15 5 16 6 17 7 18 8 10 9 8 10 9 11 7 12
REMARK SMILES IDX 6 14 5 15 4 16 19 17 3 18 20 19 21 20 2 21 1 22 22 23
REMARK H PARENT 7 13 22 24
REMARK Flexibility Score: inf
ROOT
ATOM      1  C   UNL     1      11.988  33.334  18.990  1.00  0.00     0.010 C 
ENDROOT
BRANCH   1   2
ATOM      2  C   UNL     1      13.124  33.735  19.948  1.00  0.00     0.005 C 
BRANCH   2   3
ATOM      3  C   UNL     1      12.807  33.364  21.402  1.00  0.00     0.027 C 
BRANCH   3   4
ATOM      4  C   UNL     1      12.036  32.070  21.478  1.00  0.00    -0.031 C 
ATOM      5  C   UNL     1      12.543  30.820  21.490  1.00  0.00    -0.028 C 
BRANCH   5   6
ATOM      6  C   UNL     1      14.000  30.396  21.432  1.00  0.00     0.005 C 
ATOM      7  C   UNL     1      14.768  30.674  22.732  1.00  0.00     0.012 C 
ATOM      8  C   UNL     1      14.182  28.958  20.928  1.00  0.00     0.012 C 
ENDBRANCH   5   6
ENDBRANCH   3   4
ENDBRANCH   2   3
ENDBRANCH   1   2
BRANCH   1   9
ATOM      9  C   UNL     1      10.948  34.450  18.824  1.00  0.00     0.100 C 
BRANCH   9  10
ATOM     10  C   UNL     1       9.641  34.085  19.467  1.00  0.00     0.220 C 
ATOM     11  O   UNL     1       8.814  33.378  18.830  1.00  0.00    -0.275 OA
ATOM     12  N   UNL     1       9.353  34.508  20.808  1.00  0.00    -0.352 N 
ATOM     13  H   UNL     1      10.044  35.111  21.311  1.00  0.00     0.163 HD
BRANCH  12  14
ATOM     14  C   UNL     1       8.168  34.060  21.536  1.00  0.00     0.151 C 
BRANCH  14  15
ATOM     15  C   UNL     1       8.539  33.603  22.924  1.00  0.00    -0.025 A 
ATOM     16  C   UNL     1       7.819  32.573  23.552  1.00  0.00     0.056 A 
ATOM     17  C   UNL     1       9.597  34.220  23.606  1.00  0.00     0.009 A 
ATOM     18  C   UNL     1       8.155  32.157  24.854  1.00  0.00     0.160 A 
ATOM     19  C   UNL     1       9.934  33.812  24.897  1.00  0.00     0.050 A 
ATOM     20  C   UNL     1       9.216  32.784  25.523  1.00  0.00     0.157 A 
BRANCH  18  21
ATOM     21  O   UNL     1       7.460  31.130  25.513  1.00  0.00    -0.493 OA
ATOM     22  C   UNL     1       6.856  30.018  24.860  1.00  0.00     0.278 C 
ENDBRANCH  18  21
BRANCH  20  23
ATOM     23  O   UNL     1       9.552  32.376  26.814  1.00  0.00    -0.504 OA
ATOM     24  H   UNL     1       8.910  31.837  27.383  1.00  0.00     0.293 HD
ENDBRANCH  20  23
ENDBRANCH  14  15
ENDBRANCH  12  14
ENDBRANCH   9  10
ENDBRANCH   1   9
TORSDOF 10
ENDMDL
MODEL 9
REMARK VINA RESULT:    -6.674      4.504      9.077
REMARK INTER + INTRA:         -11.020
REMARK INTER:                 -10.278
REMARK INTRA:                  -0.742
REMARK UNBOUND:                -0.639
REMARK SMILES COc1cc(CNC(=O)CCCCC=CC(C)C)ccc1O
REMARK SMILES IDX 11 1 12 2 13 3 14 4 15 5 16 6 17 7 18 8 10 9 8 10 9 11 7 12
REMARK SMILES IDX 6 14 5 15 4 16 19 17 3 18 20 19 21 20 2 21 1 22 22 23
REMARK H PARENT 7 13 22 24
REMARK Flexibility Score: inf
ROOT
ATOM      1  C   UNL     1      14.122  29.589  20.982  1.00  0.00     0.010 C 
ENDROOT
BRANCH   1   2
ATOM      2  C   UNL     1      14.131  28.051  20.940  1.00  0.00     0.005 C 
BRANCH   2   3
ATOM      3  C   UNL     1      13.264  27.502  19.800  1.00  0.00     0.027 C 
BRANCH   3   4
ATOM      4  C   UNL     1      11.800  27.759  20.058  1.00  0.00    -0.031 C 
ATOM      5  C   UNL     1      10.969  27.025  20.827  1.00  0.00    -0.028 C 
BRANCH   5   6
ATOM      6  C   UNL     1      11.285  25.770  21.620  1.00  0.00     0.005 C 
ATOM      7  C   UNL     1      10.517  25.678  22.947  1.00  0.00     0.012 C 
ATOM      8  C   UNL     1      11.177  24.490  20.781  1.00  0.00     0.012 C 
ENDBRANCH   5   6
ENDBRANCH   3   4
ENDBRANCH   2   3
ENDBRANCH   1   2
BRANCH   1   9
ATOM      9  C   UNL     1      14.147  30.130  22.418  1.00  0.00     0.100 C 
BRANCH   9  10
ATOM     10  C   UNL     1      15.419  30.875  22.704  1.00  0.00     0.220 C 
ATOM     11  O   UNL     1      15.719  31.881  22.005  1.00  0.00    -0.275 OA
ATOM     12  N   UNL     1      16.268  30.465  23.787  1.00  0.00    -0.352 N 
ATOM     13  H   UNL     1      16.011  29.616  24.342  1.00  0.00     0.163 HD
BRANCH  12  14
ATOM     14  C   UNL     1      17.435  31.237  24.206  1.00  0.00     0.151 C 
BRANCH  14  15
ATOM     15  C   UNL     1      18.175  30.525  25.309  1.00  0.00    -0.025 A 
ATOM     16  C   UNL     1      18.467  29.155  25.204  1.00  0.00     0.056 A 
ATOM     17  C   UNL     1      18.561  31.227  26.461  1.00  0.00     0.009 A 
ATOM     18  C   UNL     1      19.144  28.486  26.242  1.00  0.00     0.160 A 
ATOM     19  C   UNL     1      19.232  30.568  27.493  1.00  0.00     0.050 A 
ATOM     20  C   UNL     1      19.524  29.202  27.387  1.00  0.00     0.157 A 
BRANCH  18  21
ATOM     21  O   UNL     1      19.455  27.119  26.172  1.00  0.00    -0.493 OA
ATOM     22  C   UNL     1      20.612  26.587  25.535  1.00  0.00     0.278 C 
ENDBRANCH  18  21
BRANCH  20  23
ATOM     23  O   UNL     1      20.193  28.544  28.418  1.00  0.00    -0.504 OA
ATOM     24  H   UNL     1      21.138  28.198  28.301  1.00  0.00     0.293 HD
ENDBRANCH  20  23
ENDBRANCH  14  15
ENDBRANCH  12  14
ENDBRANCH   9  10
ENDBRANCH   1   9
TORSDOF 10
ENDMDL
