MODEL 1
REMARK VINA RESULT:    -5.637      0.000      0.000
REMARK INTER + INTRA:         -12.366
REMARK INTER:                  -9.921
REMARK INTRA:                  -2.445
REMARK UNBOUND:                -2.445
REMARK SMILES CCCCCCC=CCCCCCCCC(=O)[O-]
REMARK SMILES IDX 10 1 11 2 12 3 13 4 14 5 15 6 16 7 17 8 18 9 9 10 8 11 7 12
REMARK SMILES IDX 6 13 5 14 4 15 3 16 2 17 1 18
REMARK H PARENT
REMARK Flexibility Score: inf
ROOT
ATOM      1  C   UNL     1     -12.056   0.522 -36.033  1.00  0.00     0.004 C 
ENDROOT
BRANCH   1   2
ATOM      2  C   UNL     1     -11.886   1.410 -34.784  1.00  0.00     0.000 C 
BRANCH   2   3
ATOM      3  C   UNL     1     -12.860   1.106 -33.629  1.00  0.00     0.000 C 
BRANCH   3   4
ATOM      4  C   UNL     1     -13.755   2.287 -33.202  1.00  0.00     0.000 C 
BRANCH   4   5
ATOM      5  C   UNL     1     -13.343   3.658 -33.776  1.00  0.00     0.006 C 
BRANCH   5   6
ATOM      6  C   UNL     1     -14.055   4.856 -33.130  1.00  0.00     0.053 C 
BRANCH   6   7
ATOM      7  C   UNL     1     -13.120   5.689 -32.309  1.00  0.00     0.041 C 
ATOM      8  O   UNL     1     -13.575   6.525 -31.484  1.00  0.00    -0.550 OA
ATOM      9  O   UNL     1     -11.747   5.567 -32.479  1.00  0.00    -0.550 OA
ENDBRANCH   6   7
ENDBRANCH   5   6
ENDBRANCH   4   5
ENDBRANCH   3   4
ENDBRANCH   2   3
ENDBRANCH   1   2
BRANCH   1  10
ATOM     10  C   UNL     1     -11.940   1.275 -37.369  1.00  0.00     0.027 C 
BRANCH  10  11
ATOM     11  C   UNL     1     -12.082   2.767 -37.195  1.00  0.00    -0.031 C 
ATOM     12  C   UNL     1     -13.143   3.490 -37.601  1.00  0.00    -0.031 C 
BRANCH  12  13
ATOM     13  C   UNL     1     -14.399   2.908 -38.201  1.00  0.00     0.027 C 
BRANCH  13  14
ATOM     14  C   UNL     1     -15.531   2.796 -37.168  1.00  0.00     0.004 C 
BRANCH  14  15
ATOM     15  C   UNL     1     -15.489   1.461 -36.406  1.00  0.00     0.000 C 
BRANCH  15  16
ATOM     16  C   UNL     1     -16.628   1.321 -35.381  1.00  0.00    -0.000 C 
BRANCH  16  17
ATOM     17  C   UNL     1     -17.357   2.633 -35.039  1.00  0.00    -0.003 C 
ATOM     18  C   UNL     1     -17.357   2.945 -33.542  1.00  0.00     0.004 C 
ENDBRANCH  16  17
ENDBRANCH  15  16
ENDBRANCH  14  15
ENDBRANCH  13  14
ENDBRANCH  12  13
ENDBRANCH  10  11
ENDBRANCH   1  10
TORSDOF 13
ENDMDL
MODEL 2
REMARK VINA RESULT:    -5.584      2.645      4.928
REMARK INTER + INTRA:         -12.273
REMARK INTER:                 -10.075
REMARK INTRA:                  -2.198
REMARK UNBOUND:                -2.445
REMARK SMILES CCCCCCC=CCCCCCCCC(=O)[O-]
REMARK SMILES IDX 10 1 11 2 12 3 13 4 14 5 15 6 16 7 17 8 18 9 9 10 8 11 7 12
REMARK SMILES IDX 6 13 5 14 4 15 3 16 2 17 1 18
REMARK H PARENT
REMARK Flexibility Score: inf
ROOT
ATOM      1  C   UNL     1     -14.913   2.940 -32.860  1.00  0.00     0.004 C 
ENDROOT
BRANCH   1   2
ATOM      2  C   UNL     1     -14.880   4.426 -33.271  1.00  0.00     0.000 C 
BRANCH   2   3
ATOM      3  C   UNL     1     -13.721   4.818 -34.207  1.00  0.00     0.000 C 
BRANCH   3   4
ATOM      4  C   UNL     1     -12.412   4.032 -33.991  1.00  0.00     0.000 C 
BRANCH   4   5
ATOM      5  C   UNL     1     -11.964   3.170 -35.188  1.00  0.00     0.006 C 
BRANCH   5   6
ATOM      6  C   UNL     1     -11.853   1.668 -34.884  1.00  0.00     0.053 C 
BRANCH   6   7
ATOM      7  C   UNL     1     -11.672   0.855 -36.128  1.00  0.00     0.041 C 
ATOM      8  O   UNL     1     -11.024   1.322 -37.101  1.00  0.00    -0.550 OA
ATOM      9  O   UNL     1     -12.249  -0.405 -36.226  1.00  0.00    -0.550 OA
ENDBRANCH   6   7
ENDBRANCH   5   6
ENDBRANCH   4   5
ENDBRANCH   3   4
ENDBRANCH   2   3
ENDBRANCH   1   2
BRANCH   1  10
ATOM     10  C   UNL     1     -16.325   2.340 -32.756  1.00  0.00     0.027 C 
BRANCH  10  11
ATOM     11  C   UNL     1     -17.229   2.816 -33.867  1.00  0.00    -0.031 C 
ATOM     12  C   UNL     1     -17.321   2.242 -35.081  1.00  0.00    -0.031 C 
BRANCH  12  13
ATOM     13  C   UNL     1     -16.611   0.973 -35.486  1.00  0.00     0.027 C 
BRANCH  13  14
ATOM     14  C   UNL     1     -15.341   1.259 -36.301  1.00  0.00     0.004 C 
BRANCH  14  15
ATOM     15  C   UNL     1     -15.269   2.724 -36.764  1.00  0.00     0.000 C 
BRANCH  15  16
ATOM     16  C   UNL     1     -14.471   2.901 -38.068  1.00  0.00    -0.000 C 
BRANCH  16  17
ATOM     17  C   UNL     1     -15.319   2.891 -39.353  1.00  0.00    -0.003 C 
ATOM     18  C   UNL     1     -16.701   3.515 -39.162  1.00  0.00     0.004 C 
ENDBRANCH  16  17
ENDBRANCH  15  16
ENDBRANCH  14  15
ENDBRANCH  13  14
ENDBRANCH  12  13
ENDBRANCH  10  11
ENDBRANCH   1  10
TORSDOF 13
ENDMDL
MODEL 3
REMARK VINA RESULT:    -5.583      3.212      4.792
REMARK INTER + INTRA:         -12.271
REMARK INTER:                  -9.776
REMARK INTRA:                  -2.495
REMARK UNBOUND:                -2.445
REMARK SMILES CCCCCCC=CCCCCCCCC(=O)[O-]
REMARK SMILES IDX 10 1 11 2 12 3 13 4 14 5 15 6 16 7 17 8 18 9 9 10 8 11 7 12
REMARK SMILES IDX 6 13 5 14 4 15 3 16 2 17 1 18
REMARK H PARENT
REMARK Flexibility Score: inf
ROOT
ATOM      1  C   UNL     1     -12.831   0.603 -34.663  1.00  0.00     0.004 C 
ENDROOT
BRANCH   1   2
ATOM      2  C   UNL     1     -11.850   0.973 -35.794  1.00  0.00     0.000 C 
BRANCH   2   3
ATOM      3  C   UNL     1     -12.382   0.741 -37.222  1.00  0.00     0.000 C 
BRANCH   3   4
ATOM      4  C   UNL     1     -13.854   1.145 -37.443  1.00  0.00     0.000 C 
BRANCH   4   5
ATOM      5  C   UNL     1     -14.074   2.626 -37.813  1.00  0.00     0.006 C 
BRANCH   5   6
ATOM      6  C   UNL     1     -15.548   3.024 -37.990  1.00  0.00     0.053 C 
BRANCH   6   7
ATOM      7  C   UNL     1     -15.854   3.431 -39.398  1.00  0.00     0.041 C 
ATOM      8  O   UNL     1     -15.853   4.648 -39.720  1.00  0.00    -0.550 OA
ATOM      9  O   UNL     1     -16.175   2.468 -40.347  1.00  0.00    -0.550 OA
ENDBRANCH   6   7
ENDBRANCH   5   6
ENDBRANCH   4   5
ENDBRANCH   3   4
ENDBRANCH   2   3
ENDBRANCH   1   2
BRANCH   1  10
ATOM     10  C   UNL     1     -13.168   1.762 -33.710  1.00  0.00     0.027 C 
BRANCH  10  11
ATOM     11  C   UNL     1     -12.683   3.091 -34.235  1.00  0.00    -0.031 C 
ATOM     12  C   UNL     1     -13.396   4.232 -34.214  1.00  0.00    -0.031 C 
BRANCH  12  13
ATOM     13  C   UNL     1     -14.753   4.384 -33.570  1.00  0.00     0.027 C 
BRANCH  13  14
ATOM     14  C   UNL     1     -15.862   4.603 -34.611  1.00  0.00     0.004 C 
BRANCH  14  15
ATOM     15  C   UNL     1     -17.048   3.648 -34.401  1.00  0.00     0.000 C 
BRANCH  15  16
ATOM     16  C   UNL     1     -16.846   2.695 -33.209  1.00  0.00    -0.000 C 
BRANCH  16  17
ATOM     17  C   UNL     1     -16.817   1.200 -33.573  1.00  0.00    -0.003 C 
ATOM     18  C   UNL     1     -16.555   0.950 -35.058  1.00  0.00     0.004 C 
ENDBRANCH  16  17
ENDBRANCH  15  16
ENDBRANCH  14  15
ENDBRANCH  13  14
ENDBRANCH  12  13
ENDBRANCH  10  11
ENDBRANCH   1  10
TORSDOF 13
ENDMDL
MODEL 4
REMARK VINA RESULT:    -5.554      3.229      6.066
REMARK INTER + INTRA:         -12.220
REMARK INTER:                  -9.888
REMARK INTRA:                  -2.332
REMARK UNBOUND:                -2.445
REMARK SMILES CCCCCCC=CCCCCCCCC(=O)[O-]
REMARK SMILES IDX 10 1 11 2 12 3 13 4 14 5 15 6 16 7 17 8 18 9 9 10 8 11 7 12
REMARK SMILES IDX 6 13 5 14 4 15 3 16 2 17 1 18
REMARK H PARENT
REMARK Flexibility Score: inf
ROOT
ATOM      1  C   UNL     1     -17.341   1.836 -33.584  1.00  0.00     0.004 C 
ENDROOT
BRANCH   1   2
ATOM      2  C   UNL     1     -17.088   1.621 -35.090  1.00  0.00     0.000 C 
BRANCH   2   3
ATOM      3  C   UNL     1     -15.873   0.736 -35.428  1.00  0.00     0.000 C 
BRANCH   3   4
ATOM      4  C   UNL     1     -15.151   1.093 -36.744  1.00  0.00     0.000 C 
BRANCH   4   5
ATOM      5  C   UNL     1     -15.511   2.472 -37.331  1.00  0.00     0.006 C 
BRANCH   5   6
ATOM      6  C   UNL     1     -14.869   2.770 -38.695  1.00  0.00     0.053 C 
BRANCH   6   7
ATOM      7  C   UNL     1     -15.878   3.227 -39.702  1.00  0.00     0.041 C 
ATOM      8  O   UNL     1     -15.565   3.310 -40.919  1.00  0.00    -0.550 OA
ATOM      9  O   UNL     1     -17.154   3.596 -39.293  1.00  0.00    -0.550 OA
ENDBRANCH   6   7
ENDBRANCH   5   6
ENDBRANCH   4   5
ENDBRANCH   3   4
ENDBRANCH   2   3
ENDBRANCH   1   2
BRANCH   1  10
ATOM     10  C   UNL     1     -17.404   3.311 -33.153  1.00  0.00     0.027 C 
BRANCH  10  11
ATOM     11  C   UNL     1     -16.816   4.232 -34.193  1.00  0.00    -0.031 C 
ATOM     12  C   UNL     1     -15.556   4.703 -34.178  1.00  0.00    -0.031 C 
BRANCH  12  13
ATOM     13  C   UNL     1     -14.502   4.303 -33.174  1.00  0.00     0.027 C 
BRANCH  13  14
ATOM     14  C   UNL     1     -13.314   3.593 -33.839  1.00  0.00     0.004 C 
BRANCH  14  15
ATOM     15  C   UNL     1     -13.213   2.117 -33.420  1.00  0.00     0.000 C 
BRANCH  15  16
ATOM     16  C   UNL     1     -12.270   1.301 -34.323  1.00  0.00    -0.000 C 
BRANCH  16  17
ATOM     17  C   UNL     1     -11.677   2.079 -35.511  1.00  0.00    -0.003 C 
ATOM     18  C   UNL     1     -11.306   1.180 -36.690  1.00  0.00     0.004 C 
ENDBRANCH  16  17
ENDBRANCH  15  16
ENDBRANCH  14  15
ENDBRANCH  13  14
ENDBRANCH  12  13
ENDBRANCH  10  11
ENDBRANCH   1  10
TORSDOF 13
ENDMDL
MODEL 5
REMARK VINA RESULT:    -5.552      2.084      3.953
REMARK INTER + INTRA:         -12.215
REMARK INTER:                  -9.651
REMARK INTRA:                  -2.565
REMARK UNBOUND:                -2.445
REMARK SMILES CCCCCCC=CCCCCCCCC(=O)[O-]
REMARK SMILES IDX 10 1 11 2 12 3 13 4 14 5 15 6 16 7 17 8 18 9 9 10 8 11 7 12
REMARK SMILES IDX 6 13 5 14 4 15 3 16 2 17 1 18
REMARK H PARENT
REMARK Flexibility Score: inf
ROOT
ATOM      1  C   UNL     1     -13.251   0.246 -34.887  1.00  0.00     0.004 C 
ENDROOT
BRANCH   1   2
ATOM      2  C   UNL     1     -12.284   0.027 -36.068  1.00  0.00     0.000 C 
BRANCH   2   3
ATOM      3  C   UNL     1     -12.689   0.722 -37.382  1.00  0.00     0.000 C 
BRANCH   3   4
ATOM      4  C   UNL     1     -14.112   1.317 -37.394  1.00  0.00     0.000 C 
BRANCH   4   5
ATOM      5  C   UNL     1     -14.257   2.649 -38.157  1.00  0.00     0.006 C 
BRANCH   5   6
ATOM      6  C   UNL     1     -14.666   3.842 -37.281  1.00  0.00     0.053 C 
BRANCH   6   7
ATOM      7  C   UNL     1     -13.636   4.928 -37.295  1.00  0.00     0.041 C 
ATOM      8  O   UNL     1     -12.473   4.694 -37.716  1.00  0.00    -0.550 OA
ATOM      9  O   UNL     1     -13.949   6.192 -36.808  1.00  0.00    -0.550 OA
ENDBRANCH   6   7
ENDBRANCH   5   6
ENDBRANCH   4   5
ENDBRANCH   3   4
ENDBRANCH   2   3
ENDBRANCH   1   2
BRANCH   1  10
ATOM     10  C   UNL     1     -12.718   1.190 -33.796  1.00  0.00     0.027 C 
BRANCH  10  11
ATOM     11  C   UNL     1     -12.156   2.466 -34.373  1.00  0.00    -0.031 C 
ATOM     12  C   UNL     1     -12.589   3.703 -34.067  1.00  0.00    -0.031 C 
BRANCH  12  13
ATOM     13  C   UNL     1     -13.634   4.013 -33.023  1.00  0.00     0.027 C 
BRANCH  13  14
ATOM     14  C   UNL     1     -14.821   4.791 -33.611  1.00  0.00     0.004 C 
BRANCH  14  15
ATOM     15  C   UNL     1     -16.039   3.885 -33.860  1.00  0.00     0.000 C 
BRANCH  15  16
ATOM     16  C   UNL     1     -16.034   2.621 -32.981  1.00  0.00    -0.000 C 
BRANCH  16  17
ATOM     17  C   UNL     1     -16.621   1.365 -33.650  1.00  0.00    -0.003 C 
ATOM     18  C   UNL     1     -16.979   1.582 -35.121  1.00  0.00     0.004 C 
ENDBRANCH  16  17
ENDBRANCH  15  16
ENDBRANCH  14  15
ENDBRANCH  13  14
ENDBRANCH  12  13
ENDBRANCH  10  11
ENDBRANCH   1  10
TORSDOF 13
ENDMDL
MODEL 6
REMARK VINA RESULT:    -5.535      2.617      4.412
REMARK INTER + INTRA:         -12.187
REMARK INTER:                  -9.995
REMARK INTRA:                  -2.192
REMARK UNBOUND:                -2.445
REMARK SMILES CCCCCCC=CCCCCCCCC(=O)[O-]
REMARK SMILES IDX 10 1 11 2 12 3 13 4 14 5 15 6 16 7 17 8 18 9 9 10 8 11 7 12
REMARK SMILES IDX 6 13 5 14 4 15 3 16 2 17 1 18
REMARK H PARENT
REMARK Flexibility Score: inf
ROOT
ATOM      1  C   UNL     1     -12.648   3.768 -34.488  1.00  0.00     0.004 C 
ENDROOT
BRANCH   1   2
ATOM      2  C   UNL     1     -13.646   3.309 -33.405  1.00  0.00     0.000 C 
BRANCH   2   3
ATOM      3  C   UNL     1     -14.905   4.187 -33.263  1.00  0.00     0.000 C 
BRANCH   3   4
ATOM      4  C   UNL     1     -15.735   4.350 -34.553  1.00  0.00     0.000 C 
BRANCH   4   5
ATOM      5  C   UNL     1     -17.042   3.533 -34.595  1.00  0.00     0.006 C 
BRANCH   5   6
ATOM      6  C   UNL     1     -16.910   2.156 -35.263  1.00  0.00     0.053 C 
BRANCH   6   7
ATOM      7  C   UNL     1     -16.571   1.083 -34.276  1.00  0.00     0.041 C 
ATOM      8  O   UNL     1     -15.923   0.067 -34.642  1.00  0.00    -0.550 OA
ATOM      9  O   UNL     1     -17.001   1.187 -32.959  1.00  0.00    -0.550 OA
ENDBRANCH   6   7
ENDBRANCH   5   6
ENDBRANCH   4   5
ENDBRANCH   3   4
ENDBRANCH   2   3
ENDBRANCH   1   2
BRANCH   1  10
ATOM     10  C   UNL     1     -11.656   2.683 -34.939  1.00  0.00     0.027 C 
BRANCH  10  11
ATOM     11  C   UNL     1     -12.166   1.292 -34.653  1.00  0.00    -0.031 C 
ATOM     12  C   UNL     1     -12.692   0.463 -35.574  1.00  0.00    -0.031 C 
BRANCH  12  13
ATOM     13  C   UNL     1     -12.761   0.756 -37.053  1.00  0.00     0.027 C 
BRANCH  13  14
ATOM     14  C   UNL     1     -14.067   1.466 -37.439  1.00  0.00     0.004 C 
BRANCH  14  15
ATOM     15  C   UNL     1     -13.809   2.827 -38.106  1.00  0.00     0.000 C 
BRANCH  15  16
ATOM     16  C   UNL     1     -15.030   3.763 -38.047  1.00  0.00    -0.000 C 
BRANCH  16  17
ATOM     17  C   UNL     1     -16.267   3.264 -38.816  1.00  0.00    -0.003 C 
ATOM     18  C   UNL     1     -15.967   2.926 -40.277  1.00  0.00     0.004 C 
ENDBRANCH  16  17
ENDBRANCH  15  16
ENDBRANCH  14  15
ENDBRANCH  13  14
ENDBRANCH  12  13
ENDBRANCH  10  11
ENDBRANCH   1  10
TORSDOF 13
ENDMDL
MODEL 7
REMARK VINA RESULT:    -5.487      2.543      4.810
REMARK INTER + INTRA:         -12.102
REMARK INTER:                  -9.618
REMARK INTRA:                  -2.484
REMARK UNBOUND:                -2.445
REMARK SMILES CCCCCCC=CCCCCCCCC(=O)[O-]
REMARK SMILES IDX 10 1 11 2 12 3 13 4 14 5 15 6 16 7 17 8 18 9 9 10 8 11 7 12
REMARK SMILES IDX 6 13 5 14 4 15 3 16 2 17 1 18
REMARK H PARENT
REMARK Flexibility Score: inf
ROOT
ATOM      1  C   UNL     1     -11.776   2.601 -37.411  1.00  0.00     0.004 C 
ENDROOT
BRANCH   1   2
ATOM      2  C   UNL     1     -12.457   3.678 -36.542  1.00  0.00     0.000 C 
BRANCH   2   3
ATOM      3  C   UNL     1     -13.858   4.111 -37.017  1.00  0.00     0.000 C 
BRANCH   3   4
ATOM      4  C   UNL     1     -14.535   3.149 -38.013  1.00  0.00     0.000 C 
BRANCH   4   5
ATOM      5  C   UNL     1     -15.527   2.150 -37.382  1.00  0.00     0.006 C 
BRANCH   5   6
ATOM      6  C   UNL     1     -16.223   2.662 -36.112  1.00  0.00     0.053 C 
BRANCH   6   7
ATOM      7  C   UNL     1     -16.736   1.541 -35.262  1.00  0.00     0.041 C 
ATOM      8  O   UNL     1     -16.554   0.346 -35.613  1.00  0.00    -0.550 OA
ATOM      9  O   UNL     1     -17.446   1.817 -34.100  1.00  0.00    -0.550 OA
ENDBRANCH   6   7
ENDBRANCH   5   6
ENDBRANCH   4   5
ENDBRANCH   3   4
ENDBRANCH   2   3
ENDBRANCH   1   2
BRANCH   1  10
ATOM     10  C   UNL     1     -11.274   1.377 -36.627  1.00  0.00     0.027 C 
BRANCH  10  11
ATOM     11  C   UNL     1     -12.385   0.404 -36.317  1.00  0.00    -0.031 C 
ATOM     12  C   UNL     1     -12.972   0.266 -35.114  1.00  0.00    -0.031 C 
BRANCH  12  13
ATOM     13  C   UNL     1     -12.680   1.133 -33.913  1.00  0.00     0.027 C 
BRANCH  13  14
ATOM     14  C   UNL     1     -13.966   1.663 -33.261  1.00  0.00     0.004 C 
BRANCH  14  15
ATOM     15  C   UNL     1     -13.738   3.001 -32.539  1.00  0.00     0.000 C 
BRANCH  15  16
ATOM     16  C   UNL     1     -14.387   4.193 -33.267  1.00  0.00    -0.000 C 
BRANCH  16  17
ATOM     17  C   UNL     1     -13.563   5.493 -33.242  1.00  0.00    -0.003 C 
ATOM     18  C   UNL     1     -12.107   5.272 -32.830  1.00  0.00     0.004 C 
ENDBRANCH  16  17
ENDBRANCH  15  16
ENDBRANCH  14  15
ENDBRANCH  13  14
ENDBRANCH  12  13
ENDBRANCH  10  11
ENDBRANCH   1  10
TORSDOF 13
ENDMDL
MODEL 8
REMARK VINA RESULT:    -5.476      1.073      3.628
REMARK INTER + INTRA:         -12.082
REMARK INTER:                  -9.838
REMARK INTRA:                  -2.244
REMARK UNBOUND:                -2.445
REMARK SMILES CCCCCCC=CCCCCCCCC(=O)[O-]
REMARK SMILES IDX 10 1 11 2 12 3 13 4 14 5 15 6 16 7 17 8 18 9 9 10 8 11 7 12
REMARK SMILES IDX 6 13 5 14 4 15 3 16 2 17 1 18
REMARK H PARENT
REMARK Flexibility Score: inf
ROOT
ATOM      1  C   UNL     1     -17.140   2.592 -35.741  1.00  0.00     0.004 C 
ENDROOT
BRANCH   1   2
ATOM      2  C   UNL     1     -16.743   1.209 -35.187  1.00  0.00     0.000 C 
BRANCH   2   3
ATOM      3  C   UNL     1     -16.625   1.130 -33.653  1.00  0.00     0.000 C 
BRANCH   3   4
ATOM      4  C   UNL     1     -16.313   2.468 -32.952  1.00  0.00     0.000 C 
BRANCH   4   5
ATOM      5  C   UNL     1     -14.813   2.762 -32.748  1.00  0.00     0.006 C 
BRANCH   5   6
ATOM      6  C   UNL     1     -14.340   4.097 -33.344  1.00  0.00     0.053 C 
BRANCH   6   7
ATOM      7  C   UNL     1     -12.995   4.498 -32.825  1.00  0.00     0.041 C 
ATOM      8  O   UNL     1     -12.866   4.892 -31.636  1.00  0.00    -0.550 OA
ATOM      9  O   UNL     1     -11.888   4.472 -33.665  1.00  0.00    -0.550 OA
ENDBRANCH   6   7
ENDBRANCH   5   6
ENDBRANCH   4   5
ENDBRANCH   3   4
ENDBRANCH   2   3
ENDBRANCH   1   2
BRANCH   1  10
ATOM     10  C   UNL     1     -16.020   3.315 -36.509  1.00  0.00     0.027 C 
BRANCH  10  11
ATOM     11  C   UNL     1     -15.405   2.442 -37.575  1.00  0.00    -0.031 C 
ATOM     12  C   UNL     1     -14.231   2.686 -38.184  1.00  0.00    -0.031 C 
BRANCH  12  13
ATOM     13  C   UNL     1     -13.297   3.816 -37.826  1.00  0.00     0.027 C 
BRANCH  13  14
ATOM     14  C   UNL     1     -12.124   3.339 -36.956  1.00  0.00     0.004 C 
BRANCH  14  15
ATOM     15  C   UNL     1     -11.548   2.000 -37.446  1.00  0.00     0.000 C 
BRANCH  15  16
ATOM     16  C   UNL     1     -11.369   0.974 -36.312  1.00  0.00    -0.000 C 
BRANCH  16  17
ATOM     17  C   UNL     1     -12.275   1.198 -35.088  1.00  0.00    -0.003 C 
ATOM     18  C   UNL     1     -13.217   0.025 -34.818  1.00  0.00     0.004 C 
ENDBRANCH  16  17
ENDBRANCH  15  16
ENDBRANCH  14  15
ENDBRANCH  13  14
ENDBRANCH  12  13
ENDBRANCH  10  11
ENDBRANCH   1  10
TORSDOF 13
ENDMDL
MODEL 9
REMARK VINA RESULT:    -5.314      2.167      5.212
REMARK INTER + INTRA:         -11.797
REMARK INTER:                  -9.280
REMARK INTRA:                  -2.517
REMARK UNBOUND:                -2.445
REMARK SMILES CCCCCCC=CCCCCCCCC(=O)[O-]
REMARK SMILES IDX 10 1 11 2 12 3 13 4 14 5 15 6 16 7 17 8 18 9 9 10 8 11 7 12
REMARK SMILES IDX 6 13 5 14 4 15 3 16 2 17 1 18
REMARK H PARENT
REMARK Flexibility Score: inf
ROOT
ATOM      1  C   UNL     1     -17.375   2.550 -35.063  1.00  0.00     0.004 C 
ENDROOT
BRANCH   1   2
ATOM      2  C   UNL     1     -16.568   1.311 -35.502  1.00  0.00     0.000 C 
BRANCH   2   3
ATOM      3  C   UNL     1     -15.558   1.559 -36.639  1.00  0.00     0.000 C 
BRANCH   3   4
ATOM      4  C   UNL     1     -15.181   3.037 -36.866  1.00  0.00     0.000 C 
BRANCH   4   5
ATOM      5  C   UNL     1     -14.159   3.284 -37.994  1.00  0.00     0.006 C 
BRANCH   5   6
ATOM      6  C   UNL     1     -13.213   4.469 -37.748  1.00  0.00     0.053 C 
BRANCH   6   7
ATOM      7  C   UNL     1     -13.956   5.761 -37.610  1.00  0.00     0.041 C 
ATOM      8  O   UNL     1     -14.379   6.361 -38.633  1.00  0.00    -0.550 OA
ATOM      9  O   UNL     1     -14.151   6.322 -36.354  1.00  0.00    -0.550 OA
ENDBRANCH   6   7
ENDBRANCH   5   6
ENDBRANCH   4   5
ENDBRANCH   3   4
ENDBRANCH   2   3
ENDBRANCH   1   2
BRANCH   1  10
ATOM     10  C   UNL     1     -17.332   2.835 -33.552  1.00  0.00     0.027 C 
BRANCH  10  11
ATOM     11  C   UNL     1     -16.176   2.139 -32.875  1.00  0.00    -0.031 C 
ATOM     12  C   UNL     1     -14.923   2.623 -32.805  1.00  0.00    -0.031 C 
BRANCH  12  13
ATOM     13  C   UNL     1     -14.499   3.984 -33.304  1.00  0.00     0.027 C 
BRANCH  13  14
ATOM     14  C   UNL     1     -13.085   3.962 -33.903  1.00  0.00     0.004 C 
BRANCH  14  15
ATOM     15  C   UNL     1     -12.522   2.534 -34.004  1.00  0.00     0.000 C 
BRANCH  15  16
ATOM     16  C   UNL     1     -11.738   2.291 -35.307  1.00  0.00    -0.000 C 
BRANCH  16  17
ATOM     17  C   UNL     1     -11.857   0.866 -35.878  1.00  0.00    -0.003 C 
ATOM     18  C   UNL     1     -12.878   0.006 -35.131  1.00  0.00     0.004 C 
ENDBRANCH  16  17
ENDBRANCH  15  16
ENDBRANCH  14  15
ENDBRANCH  13  14
ENDBRANCH  12  13
ENDBRANCH  10  11
ENDBRANCH   1  10
TORSDOF 13
ENDMDL
