MODEL 1
REMARK VINA RESULT:    -1.761      0.000      0.000
REMARK INTER + INTRA:          -1.973
REMARK INTER:                  -1.967
REMARK INTRA:                  -0.006
REMARK UNBOUND:                -0.006
REMARK SMILES CCCC(=O)[O-]
REMARK SMILES IDX 3 1 4 2 5 3 6 4 2 5 1 6
REMARK H PARENT
REMARK Flexibility Score: inf
ROOT
ATOM      1  C   UNL     1     -16.379 -21.906  31.409  1.00  0.00     0.052 C 
ENDROOT
BRANCH   1   2
ATOM      2  C   UNL     1     -17.723 -21.288  31.635  1.00  0.00     0.041 C 
ATOM      3  O   UNL     1     -17.814 -20.131  32.124  1.00  0.00    -0.550 OA
ATOM      4  O   UNL     1     -18.876 -22.008  31.351  1.00  0.00    -0.550 OA
ENDBRANCH   1   2
BRANCH   1   5
ATOM      5  C   UNL     1     -16.288 -23.260  32.117  1.00  0.00     0.003 C 
ATOM      6  C   UNL     1     -14.900 -23.875  31.952  1.00  0.00     0.004 C 
ENDBRANCH   1   5
TORSDOF 2
ENDMDL
MODEL 2
REMARK VINA RESULT:    -1.723      1.430      1.830
REMARK INTER + INTRA:          -1.931
REMARK INTER:                  -1.909
REMARK INTRA:                  -0.022
REMARK UNBOUND:                -0.006
REMARK SMILES CCCC(=O)[O-]
REMARK SMILES IDX 3 1 4 2 5 3 6 4 2 5 1 6
REMARK H PARENT
REMARK Flexibility Score: inf
ROOT
ATOM      1  C   UNL     1     -16.658 -23.185  31.743  1.00  0.00     0.052 C 
ENDROOT
BRANCH   1   2
ATOM      2  C   UNL     1     -16.583 -21.780  31.235  1.00  0.00     0.041 C 
ATOM      3  O   UNL     1     -15.859 -21.503  30.243  1.00  0.00    -0.550 OA
ATOM      4  O   UNL     1     -17.275 -20.767  31.886  1.00  0.00    -0.550 OA
ENDBRANCH   1   2
BRANCH   1   5
ATOM      5  C   UNL     1     -15.265 -23.691  32.125  1.00  0.00     0.003 C 
ATOM      6  C   UNL     1     -15.071 -25.144  31.699  1.00  0.00     0.004 C 
ENDBRANCH   1   5
TORSDOF 2
ENDMDL
MODEL 3
REMARK VINA RESULT:    -1.721     27.399     27.896
REMARK INTER + INTRA:          -1.928
REMARK INTER:                  -1.899
REMARK INTRA:                  -0.029
REMARK UNBOUND:                -0.006
REMARK SMILES CCCC(=O)[O-]
REMARK SMILES IDX 3 1 4 2 5 3 6 4 2 5 1 6
REMARK H PARENT
REMARK Flexibility Score: inf
ROOT
ATOM      1  C   UNL     1     -32.962 -36.125  12.574  1.00  0.00     0.052 C 
ENDROOT
BRANCH   1   2
ATOM      2  C   UNL     1     -33.826 -35.434  13.581  1.00  0.00     0.041 C 
ATOM      3  O   UNL     1     -34.388 -36.096  14.493  1.00  0.00    -0.550 OA
ATOM      4  O   UNL     1     -34.050 -34.067  13.484  1.00  0.00    -0.550 OA
ENDBRANCH   1   2
BRANCH   1   5
ATOM      5  C   UNL     1     -31.636 -35.378  12.405  1.00  0.00     0.003 C 
ATOM      6  C   UNL     1     -30.511 -36.074  13.167  1.00  0.00     0.004 C 
ENDBRANCH   1   5
TORSDOF 2
ENDMDL
MODEL 4
REMARK VINA RESULT:    -1.700      1.425      1.683
REMARK INTER + INTRA:          -1.905
REMARK INTER:                  -1.887
REMARK INTRA:                  -0.019
REMARK UNBOUND:                -0.006
REMARK SMILES CCCC(=O)[O-]
REMARK SMILES IDX 3 1 4 2 5 3 6 4 2 5 1 6
REMARK H PARENT
REMARK Flexibility Score: inf
ROOT
ATOM      1  C   UNL     1     -16.668 -23.206  31.810  1.00  0.00     0.052 C 
ENDROOT
BRANCH   1   2
ATOM      2  C   UNL     1     -16.719 -21.819  31.252  1.00  0.00     0.041 C 
ATOM      3  O   UNL     1     -17.435 -20.941  31.803  1.00  0.00    -0.550 OA
ATOM      4  O   UNL     1     -16.015 -21.507  30.096  1.00  0.00    -0.550 OA
ENDBRANCH   1   2
BRANCH   1   5
ATOM      5  C   UNL     1     -15.223 -23.603  32.123  1.00  0.00     0.003 C 
ATOM      6  C   UNL     1     -14.960 -25.061  31.754  1.00  0.00     0.004 C 
ENDBRANCH   1   5
TORSDOF 2
ENDMDL
MODEL 5
REMARK VINA RESULT:    -1.607      0.763      1.566
REMARK INTER + INTRA:          -1.801
REMARK INTER:                  -1.763
REMARK INTRA:                  -0.039
REMARK UNBOUND:                -0.006
REMARK SMILES CCCC(=O)[O-]
REMARK SMILES IDX 3 1 4 2 5 3 6 4 2 5 1 6
REMARK H PARENT
REMARK Flexibility Score: inf
ROOT
ATOM      1  C   UNL     1     -16.852 -21.221  31.855  1.00  0.00     0.052 C 
ENDROOT
BRANCH   1   2
ATOM      2  C   UNL     1     -18.343 -21.141  31.763  1.00  0.00     0.041 C 
ATOM      3  O   UNL     1     -19.004 -22.115  31.318  1.00  0.00    -0.550 OA
ATOM      4  O   UNL     1     -19.000 -19.971  32.125  1.00  0.00    -0.550 OA
ENDBRANCH   1   2
BRANCH   1   5
ATOM      5  C   UNL     1     -16.333 -22.430  31.071  1.00  0.00     0.003 C 
ATOM      6  C   UNL     1     -15.720 -23.470  32.005  1.00  0.00     0.004 C 
ENDBRANCH   1   5
TORSDOF 2
ENDMDL
MODEL 6
REMARK VINA RESULT:    -1.574     26.958     27.497
REMARK INTER + INTRA:          -1.764
REMARK INTER:                  -1.704
REMARK INTRA:                  -0.060
REMARK UNBOUND:                -0.006
REMARK SMILES CCCC(=O)[O-]
REMARK SMILES IDX 3 1 4 2 5 3 6 4 2 5 1 6
REMARK H PARENT
REMARK Flexibility Score: inf
ROOT
ATOM      1  C   UNL     1     -32.104 -36.110  13.527  1.00  0.00     0.052 C 
ENDROOT
BRANCH   1   2
ATOM      2  C   UNL     1     -32.603 -35.482  14.790  1.00  0.00     0.041 C 
ATOM      3  O   UNL     1     -32.117 -34.392  15.190  1.00  0.00    -0.550 OA
ATOM      4  O   UNL     1     -33.571 -36.125  15.552  1.00  0.00    -0.550 OA
ENDBRANCH   1   2
BRANCH   1   5
ATOM      5  C   UNL     1     -33.207 -36.125  12.466  1.00  0.00     0.003 C 
ATOM      6  C   UNL     1     -33.446 -34.726  11.901  1.00  0.00     0.004 C 
ENDBRANCH   1   5
TORSDOF 2
ENDMDL
MODEL 7
REMARK VINA RESULT:    -1.553      2.128      3.338
REMARK INTER + INTRA:          -1.741
REMARK INTER:                  -1.709
REMARK INTRA:                  -0.032
REMARK UNBOUND:                -0.006
REMARK SMILES CCCC(=O)[O-]
REMARK SMILES IDX 3 1 4 2 5 3 6 4 2 5 1 6
REMARK H PARENT
REMARK Flexibility Score: inf
ROOT
ATOM      1  C   UNL     1     -16.184 -22.591  32.112  1.00  0.00     0.052 C 
ENDROOT
BRANCH   1   2
ATOM      2  C   UNL     1     -16.620 -23.896  31.523  1.00  0.00     0.041 C 
ATOM      3  O   UNL     1     -17.840 -24.119  31.312  1.00  0.00    -0.550 OA
ATOM      4  O   UNL     1     -15.681 -24.884  31.252  1.00  0.00    -0.550 OA
ENDBRANCH   1   2
BRANCH   1   5
ATOM      5  C   UNL     1     -16.697 -21.424  31.264  1.00  0.00     0.003 C 
ATOM      6  C   UNL     1     -17.428 -20.397  32.125  1.00  0.00     0.004 C 
ENDBRANCH   1   5
TORSDOF 2
ENDMDL
MODEL 8
REMARK VINA RESULT:    -1.507     27.833     28.049
REMARK INTER + INTRA:          -1.689
REMARK INTER:                  -1.681
REMARK INTRA:                  -0.008
REMARK UNBOUND:                -0.006
REMARK SMILES CCCC(=O)[O-]
REMARK SMILES IDX 3 1 4 2 5 3 6 4 2 5 1 6
REMARK H PARENT
REMARK Flexibility Score: inf
ROOT
ATOM      1  C   UNL     1     -33.641 -35.422  12.618  1.00  0.00     0.052 C 
ENDROOT
BRANCH   1   2
ATOM      2  C   UNL     1     -32.354 -34.748  12.260  1.00  0.00     0.041 C 
ATOM      3  O   UNL     1     -32.352 -33.549  11.875  1.00  0.00    -0.550 OA
ATOM      4  O   UNL     1     -31.161 -35.459  12.303  1.00  0.00    -0.550 OA
ENDBRANCH   1   2
BRANCH   1   5
ATOM      5  C   UNL     1     -33.520 -36.115  13.978  1.00  0.00     0.003 C 
ATOM      6  C   UNL     1     -34.739 -35.827  14.851  1.00  0.00     0.004 C 
ENDBRANCH   1   5
TORSDOF 2
ENDMDL
MODEL 9
REMARK VINA RESULT:    -1.466      2.418      3.464
REMARK INTER + INTRA:          -1.643
REMARK INTER:                  -1.638
REMARK INTRA:                  -0.006
REMARK UNBOUND:                -0.006
REMARK SMILES CCCC(=O)[O-]
REMARK SMILES IDX 3 1 4 2 5 3 6 4 2 5 1 6
REMARK H PARENT
REMARK Flexibility Score: inf
ROOT
ATOM      1  C   UNL     1     -16.378 -21.670  31.952  1.00  0.00     0.052 C 
ENDROOT
BRANCH   1   2
ATOM      2  C   UNL     1     -15.758 -22.901  31.371  1.00  0.00     0.041 C 
ATOM      3  O   UNL     1     -15.373 -23.833  32.125  1.00  0.00    -0.550 OA
ATOM      4  O   UNL     1     -15.560 -22.999  29.999  1.00  0.00    -0.550 OA
ENDBRANCH   1   2
BRANCH   1   5
ATOM      5  C   UNL     1     -17.731 -21.390  31.292  1.00  0.00     0.003 C 
ATOM      6  C   UNL     1     -18.557 -20.412  32.124  1.00  0.00     0.004 C 
ENDBRANCH   1   5
TORSDOF 2
ENDMDL
