MODEL 1
REMARK VINA RESULT:    -4.166      0.000      0.000
REMARK INTER + INTRA:          -6.752
REMARK INTER:                  -5.871
REMARK INTRA:                  -0.881
REMARK UNBOUND:                -0.881
REMARK SMILES CCCCCCCCC(=O)[O-]
REMARK SMILES IDX 6 1 7 2 8 3 9 4 10 5 11 6 5 7 4 8 3 9 2 10 1 11
REMARK H PARENT
REMARK Flexibility Score: inf
ROOT
ATOM      1  C   UNL     1      22.372  -7.110 -37.253  1.00  0.00     0.000 C 
ENDROOT
BRANCH   1   2
ATOM      2  C   UNL     1      22.798  -7.619 -38.640  1.00  0.00     0.006 C 
BRANCH   2   3
ATOM      3  C   UNL     1      21.974  -6.998 -39.776  1.00  0.00     0.053 C 
BRANCH   3   4
ATOM      4  C   UNL     1      22.470  -5.622 -40.088  1.00  0.00     0.041 C 
ATOM      5  O   UNL     1      23.689  -5.339 -39.941  1.00  0.00    -0.550 OA
ATOM      6  O   UNL     1      21.580  -4.636 -40.494  1.00  0.00    -0.550 OA
ENDBRANCH   3   4
ENDBRANCH   2   3
ENDBRANCH   1   2
BRANCH   1   7
ATOM      7  C   UNL     1      23.498  -6.358 -36.529  1.00  0.00     0.000 C 
BRANCH   7   8
ATOM      8  C   UNL     1      23.128  -4.883 -36.323  1.00  0.00    -0.000 C 
BRANCH   8   9
ATOM      9  C   UNL     1      21.628  -4.654 -36.562  1.00  0.00    -0.000 C 
BRANCH   9  10
ATOM     10  C   UNL     1      21.339  -3.317 -37.259  1.00  0.00    -0.003 C 
ATOM     11  C   UNL     1      22.607  -2.623 -37.756  1.00  0.00     0.004 C 
ENDBRANCH   9  10
ENDBRANCH   8   9
ENDBRANCH   7   8
ENDBRANCH   1   7
TORSDOF 7
ENDMDL
MODEL 2
REMARK VINA RESULT:    -4.149      1.395      3.377
REMARK INTER + INTRA:          -6.728
REMARK INTER:                  -5.979
REMARK INTRA:                  -0.749
REMARK UNBOUND:                -0.881
REMARK SMILES CCCCCCCCC(=O)[O-]
REMARK SMILES IDX 6 1 7 2 8 3 9 4 10 5 11 6 5 7 4 8 3 9 2 10 1 11
REMARK H PARENT
REMARK Flexibility Score: inf
ROOT
ATOM      1  C   UNL     1      22.601  -5.051 -36.675  1.00  0.00     0.000 C 
ENDROOT
BRANCH   1   2
ATOM      2  C   UNL     1      21.252  -5.099 -37.410  1.00  0.00     0.006 C 
BRANCH   2   3
ATOM      3  C   UNL     1      21.204  -4.156 -38.620  1.00  0.00     0.053 C 
BRANCH   3   4
ATOM      4  C   UNL     1      22.206  -4.576 -39.648  1.00  0.00     0.041 C 
ATOM      5  O   UNL     1      22.033  -5.634 -40.308  1.00  0.00    -0.550 OA
ATOM      6  O   UNL     1      23.358  -3.824 -39.844  1.00  0.00    -0.550 OA
ENDBRANCH   3   4
ENDBRANCH   2   3
ENDBRANCH   1   2
BRANCH   1   7
ATOM      7  C   UNL     1      23.237  -6.440 -36.516  1.00  0.00     0.000 C 
BRANCH   7   8
ATOM      8  C   UNL     1      22.418  -7.506 -37.256  1.00  0.00    -0.000 C 
BRANCH   8   9
ATOM      9  C   UNL     1      23.294  -8.275 -38.258  1.00  0.00    -0.000 C 
BRANCH   9  10
ATOM     10  C   UNL     1      24.778  -7.889 -38.163  1.00  0.00    -0.003 C 
ATOM     11  C   UNL     1      25.301  -7.233 -39.440  1.00  0.00     0.004 C 
ENDBRANCH   9  10
ENDBRANCH   8   9
ENDBRANCH   7   8
ENDBRANCH   1   7
TORSDOF 7
ENDMDL
MODEL 3
REMARK VINA RESULT:    -4.143      1.754      2.788
REMARK INTER + INTRA:          -6.720
REMARK INTER:                  -5.989
REMARK INTRA:                  -0.731
REMARK UNBOUND:                -0.881
REMARK SMILES CCCCCCCCC(=O)[O-]
REMARK SMILES IDX 6 1 7 2 8 3 9 4 10 5 11 6 5 7 4 8 3 9 2 10 1 11
REMARK H PARENT
REMARK Flexibility Score: inf
ROOT
ATOM      1  C   UNL     1      22.611  -5.069 -36.429  1.00  0.00     0.000 C 
ENDROOT
BRANCH   1   2
ATOM      2  C   UNL     1      23.295  -6.372 -36.874  1.00  0.00     0.006 C 
BRANCH   2   3
ATOM      3  C   UNL     1      22.292  -7.443 -37.324  1.00  0.00     0.053 C 
BRANCH   3   4
ATOM      4  C   UNL     1      22.633  -7.933 -38.695  1.00  0.00     0.041 C 
ATOM      5  O   UNL     1      23.688  -8.594 -38.888  1.00  0.00    -0.550 OA
ATOM      6  O   UNL     1      21.812  -7.619 -39.771  1.00  0.00    -0.550 OA
ENDBRANCH   3   4
ENDBRANCH   2   3
ENDBRANCH   1   2
BRANCH   1   7
ATOM      7  C   UNL     1      21.288  -4.816 -37.168  1.00  0.00     0.000 C 
BRANCH   7   8
ATOM      8  C   UNL     1      21.381  -3.559 -38.043  1.00  0.00    -0.000 C 
BRANCH   8   9
ATOM      9  C   UNL     1      21.529  -3.932 -39.527  1.00  0.00    -0.000 C 
BRANCH   9  10
ATOM     10  C   UNL     1      22.965  -4.335 -39.894  1.00  0.00    -0.003 C 
ATOM     11  C   UNL     1      23.991  -3.265 -39.528  1.00  0.00     0.004 C 
ENDBRANCH   9  10
ENDBRANCH   8   9
ENDBRANCH   7   8
ENDBRANCH   1   7
TORSDOF 7
ENDMDL
MODEL 4
REMARK VINA RESULT:    -4.131      1.821      3.584
REMARK INTER + INTRA:          -6.703
REMARK INTER:                  -5.987
REMARK INTRA:                  -0.716
REMARK UNBOUND:                -0.881
REMARK SMILES CCCCCCCCC(=O)[O-]
REMARK SMILES IDX 6 1 7 2 8 3 9 4 10 5 11 6 5 7 4 8 3 9 2 10 1 11
REMARK H PARENT
REMARK Flexibility Score: inf
ROOT
ATOM      1  C   UNL     1      22.379  -7.454 -37.270  1.00  0.00     0.000 C 
ENDROOT
BRANCH   1   2
ATOM      2  C   UNL     1      22.529  -5.935 -37.454  1.00  0.00     0.006 C 
BRANCH   2   3
ATOM      3  C   UNL     1      21.395  -5.327 -38.291  1.00  0.00     0.053 C 
BRANCH   3   4
ATOM      4  C   UNL     1      21.933  -4.769 -39.570  1.00  0.00     0.041 C 
ATOM      5  O   UNL     1      23.108  -5.041 -39.936  1.00  0.00    -0.550 OA
ATOM      6  O   UNL     1      21.156  -3.909 -40.337  1.00  0.00    -0.550 OA
ENDBRANCH   3   4
ENDBRANCH   2   3
ENDBRANCH   1   2
BRANCH   1   7
ATOM      7  C   UNL     1      22.831  -8.245 -38.507  1.00  0.00     0.000 C 
BRANCH   7   8
ATOM      8  C   UNL     1      24.258  -8.777 -38.326  1.00  0.00    -0.000 C 
BRANCH   8   9
ATOM      9  C   UNL     1      25.219  -8.125 -39.333  1.00  0.00    -0.000 C 
BRANCH   9  10
ATOM     10  C   UNL     1      25.929  -6.890 -38.758  1.00  0.00    -0.003 C 
ATOM     11  C   UNL     1      26.165  -6.992 -37.252  1.00  0.00     0.004 C 
ENDBRANCH   9  10
ENDBRANCH   8   9
ENDBRANCH   7   8
ENDBRANCH   1   7
TORSDOF 7
ENDMDL
MODEL 5
REMARK VINA RESULT:    -4.128      1.304      3.625
REMARK INTER + INTRA:          -6.698
REMARK INTER:                  -6.029
REMARK INTRA:                  -0.669
REMARK UNBOUND:                -0.881
REMARK SMILES CCCCCCCCC(=O)[O-]
REMARK SMILES IDX 6 1 7 2 8 3 9 4 10 5 11 6 5 7 4 8 3 9 2 10 1 11
REMARK H PARENT
REMARK Flexibility Score: inf
ROOT
ATOM      1  C   UNL     1      22.996  -5.047 -36.522  1.00  0.00     0.000 C 
ENDROOT
BRANCH   1   2
ATOM      2  C   UNL     1      21.841  -4.753 -37.492  1.00  0.00     0.006 C 
BRANCH   2   3
ATOM      3  C   UNL     1      22.286  -3.934 -38.712  1.00  0.00     0.053 C 
BRANCH   3   4
ATOM      4  C   UNL     1      22.835  -4.835 -39.772  1.00  0.00     0.041 C 
ATOM      5  O   UNL     1      24.080  -4.952 -39.924  1.00  0.00    -0.550 OA
ATOM      6  O   UNL     1      21.971  -5.511 -40.626  1.00  0.00    -0.550 OA
ENDBRANCH   3   4
ENDBRANCH   2   3
ENDBRANCH   1   2
BRANCH   1   7
ATOM      7  C   UNL     1      23.492  -6.498 -36.618  1.00  0.00     0.000 C 
BRANCH   7   8
ATOM      8  C   UNL     1      22.405  -7.411 -37.198  1.00  0.00    -0.000 C 
BRANCH   8   9
ATOM      9  C   UNL     1      22.968  -8.286 -38.329  1.00  0.00    -0.000 C 
BRANCH   9  10
ATOM     10  C   UNL     1      24.504  -8.331 -38.332  1.00  0.00    -0.003 C 
ATOM     11  C   UNL     1      25.062  -9.385 -39.288  1.00  0.00     0.004 C 
ENDBRANCH   9  10
ENDBRANCH   8   9
ENDBRANCH   7   8
ENDBRANCH   1   7
TORSDOF 7
ENDMDL
MODEL 6
REMARK VINA RESULT:    -4.074      2.096      4.079
REMARK INTER + INTRA:          -6.622
REMARK INTER:                  -5.955
REMARK INTRA:                  -0.668
REMARK UNBOUND:                -0.881
REMARK SMILES CCCCCCCCC(=O)[O-]
REMARK SMILES IDX 6 1 7 2 8 3 9 4 10 5 11 6 5 7 4 8 3 9 2 10 1 11
REMARK H PARENT
REMARK Flexibility Score: inf
ROOT
ATOM      1  C   UNL     1      23.645  -6.599 -36.432  1.00  0.00     0.000 C 
ENDROOT
BRANCH   1   2
ATOM      2  C   UNL     1      22.363  -6.748 -37.267  1.00  0.00     0.006 C 
BRANCH   2   3
ATOM      3  C   UNL     1      22.234  -5.666 -38.348  1.00  0.00     0.053 C 
BRANCH   3   4
ATOM      4  C   UNL     1      22.014  -6.292 -39.688  1.00  0.00     0.041 C 
ATOM      5  O   UNL     1      21.994  -5.579 -40.726  1.00  0.00    -0.550 OA
ATOM      6  O   UNL     1      21.782  -7.659 -39.789  1.00  0.00    -0.550 OA
ENDBRANCH   3   4
ENDBRANCH   2   3
ENDBRANCH   1   2
BRANCH   1   7
ATOM      7  C   UNL     1      24.829  -6.069 -37.256  1.00  0.00     0.000 C 
BRANCH   7   8
ATOM      8  C   UNL     1      25.788  -7.206 -37.631  1.00  0.00    -0.000 C 
BRANCH   8   9
ATOM      9  C   UNL     1      25.423  -7.804 -38.999  1.00  0.00    -0.000 C 
BRANCH   9  10
ATOM     10  C   UNL     1      24.981  -9.272 -38.903  1.00  0.00    -0.003 C 
ATOM     11  C   UNL     1      24.465  -9.822 -40.232  1.00  0.00     0.004 C 
ENDBRANCH   9  10
ENDBRANCH   8   9
ENDBRANCH   7   8
ENDBRANCH   1   7
TORSDOF 7
ENDMDL
MODEL 7
REMARK VINA RESULT:    -4.058      1.890      2.483
REMARK INTER + INTRA:          -6.599
REMARK INTER:                  -5.768
REMARK INTRA:                  -0.831
REMARK UNBOUND:                -0.881
REMARK SMILES CCCCCCCCC(=O)[O-]
REMARK SMILES IDX 6 1 7 2 8 3 9 4 10 5 11 6 5 7 4 8 3 9 2 10 1 11
REMARK H PARENT
REMARK Flexibility Score: inf
ROOT
ATOM      1  C   UNL     1      24.257  -5.183 -37.362  1.00  0.00     0.000 C 
ENDROOT
BRANCH   1   2
ATOM      2  C   UNL     1      24.561  -6.624 -37.800  1.00  0.00     0.006 C 
BRANCH   2   3
ATOM      3  C   UNL     1      23.917  -6.981 -39.147  1.00  0.00     0.053 C 
BRANCH   3   4
ATOM      4  C   UNL     1      22.653  -7.751 -38.932  1.00  0.00     0.041 C 
ATOM      5  O   UNL     1      21.773  -7.789 -39.833  1.00  0.00    -0.550 OA
ATOM      6  O   UNL     1      22.423  -8.388 -37.719  1.00  0.00    -0.550 OA
ENDBRANCH   3   4
ENDBRANCH   2   3
ENDBRANCH   1   2
BRANCH   1   7
ATOM      7  C   UNL     1      23.410  -5.120 -36.082  1.00  0.00     0.000 C 
BRANCH   7   8
ATOM      8  C   UNL     1      22.161  -4.255 -36.293  1.00  0.00    -0.000 C 
BRANCH   8   9
ATOM      9  C   UNL     1      21.216  -4.895 -37.322  1.00  0.00    -0.000 C 
BRANCH   9  10
ATOM     10  C   UNL     1      20.827  -3.926 -38.449  1.00  0.00    -0.003 C 
ATOM     11  C   UNL     1      21.572  -4.206 -39.753  1.00  0.00     0.004 C 
ENDBRANCH   9  10
ENDBRANCH   8   9
ENDBRANCH   7   8
ENDBRANCH   1   7
TORSDOF 7
ENDMDL
MODEL 8
REMARK VINA RESULT:    -4.040      2.069      3.051
REMARK INTER + INTRA:          -6.574
REMARK INTER:                  -5.820
REMARK INTRA:                  -0.754
REMARK UNBOUND:                -0.881
REMARK SMILES CCCCCCCCC(=O)[O-]
REMARK SMILES IDX 6 1 7 2 8 3 9 4 10 5 11 6 5 7 4 8 3 9 2 10 1 11
REMARK H PARENT
REMARK Flexibility Score: inf
ROOT
ATOM      1  C   UNL     1      24.227  -4.914 -39.805  1.00  0.00     0.000 C 
ENDROOT
BRANCH   1   2
ATOM      2  C   UNL     1      24.315  -5.892 -38.623  1.00  0.00     0.006 C 
BRANCH   2   3
ATOM      3  C   UNL     1      24.173  -7.358 -39.056  1.00  0.00     0.053 C 
BRANCH   3   4
ATOM      4  C   UNL     1      22.778  -7.840 -38.817  1.00  0.00     0.041 C 
ATOM      5  O   UNL     1      22.509  -8.518 -37.790  1.00  0.00    -0.550 OA
ATOM      6  O   UNL     1      21.782  -7.582 -39.751  1.00  0.00    -0.550 OA
ENDBRANCH   3   4
ENDBRANCH   2   3
ENDBRANCH   1   2
BRANCH   1   7
ATOM      7  C   UNL     1      23.269  -3.744 -39.533  1.00  0.00     0.000 C 
BRANCH   7   8
ATOM      8  C   UNL     1      21.819  -4.141 -39.837  1.00  0.00    -0.000 C 
BRANCH   8   9
ATOM      9  C   UNL     1      20.898  -3.810 -38.652  1.00  0.00    -0.000 C 
BRANCH   9  10
ATOM     10  C   UNL     1      20.955  -4.874 -37.545  1.00  0.00    -0.003 C 
ATOM     11  C   UNL     1      21.730  -4.405 -36.314  1.00  0.00     0.004 C 
ENDBRANCH   9  10
ENDBRANCH   8   9
ENDBRANCH   7   8
ENDBRANCH   1   7
TORSDOF 7
ENDMDL
MODEL 9
REMARK VINA RESULT:    -3.988      2.156      2.765
REMARK INTER + INTRA:          -6.502
REMARK INTER:                  -5.768
REMARK INTRA:                  -0.734
REMARK UNBOUND:                -0.881
REMARK SMILES CCCCCCCCC(=O)[O-]
REMARK SMILES IDX 6 1 7 2 8 3 9 4 10 5 11 6 5 7 4 8 3 9 2 10 1 11
REMARK H PARENT
REMARK Flexibility Score: inf
ROOT
ATOM      1  C   UNL     1      22.355  -6.959 -37.213  1.00  0.00     0.000 C 
ENDROOT
BRANCH   1   2
ATOM      2  C   UNL     1      22.746  -8.326 -37.798  1.00  0.00     0.006 C 
BRANCH   2   3
ATOM      3  C   UNL     1      23.177  -8.239 -39.268  1.00  0.00     0.053 C 
BRANCH   3   4
ATOM      4  C   UNL     1      24.662  -8.369 -39.385  1.00  0.00     0.041 C 
ATOM      5  O   UNL     1      25.203  -9.506 -39.356  1.00  0.00    -0.550 OA
ATOM      6  O   UNL     1      25.455  -7.232 -39.477  1.00  0.00    -0.550 OA
ENDBRANCH   3   4
ENDBRANCH   2   3
ENDBRANCH   1   2
BRANCH   1   7
ATOM      7  C   UNL     1      23.543  -6.229 -36.569  1.00  0.00     0.000 C 
BRANCH   7   8
ATOM      8  C   UNL     1      23.732  -4.838 -37.186  1.00  0.00    -0.000 C 
BRANCH   8   9
ATOM      9  C   UNL     1      22.726  -4.599 -38.322  1.00  0.00    -0.000 C 
BRANCH   9  10
ATOM     10  C   UNL     1      23.411  -4.281 -39.660  1.00  0.00    -0.003 C 
ATOM     11  C   UNL     1      24.606  -3.342 -39.503  1.00  0.00     0.004 C 
ENDBRANCH   9  10
ENDBRANCH   8   9
ENDBRANCH   7   8
ENDBRANCH   1   7
TORSDOF 7
ENDMDL
