MODEL 1
REMARK VINA RESULT:    -3.510      0.000      0.000
REMARK INTER + INTRA:          -5.220
REMARK INTER:                  -4.741
REMARK INTRA:                  -0.479
REMARK UNBOUND:                -0.479
REMARK SMILES CCCCCCCC(=O)[O-]
REMARK SMILES IDX 5 1 6 2 7 3 8 4 9 5 10 6 4 7 3 8 2 9 1 10
REMARK H PARENT
REMARK Flexibility Score: inf
ROOT
ATOM      1  C   UNL     1       9.465  15.035  32.340  1.00  0.00     0.000 C 
ENDROOT
BRANCH   1   2
ATOM      2  C   UNL     1       9.890  13.651  31.821  1.00  0.00     0.006 C 
BRANCH   2   3
ATOM      3  C   UNL     1       9.190  13.269  30.510  1.00  0.00     0.053 C 
BRANCH   3   4
ATOM      4  C   UNL     1       7.756  12.929  30.765  1.00  0.00     0.041 C 
ATOM      5  O   UNL     1       6.838  13.643  30.281  1.00  0.00    -0.550 OA
ATOM      6  O   UNL     1       7.431  11.851  31.579  1.00  0.00    -0.550 OA
ENDBRANCH   3   4
ENDBRANCH   2   3
ENDBRANCH   1   2
BRANCH   1   7
ATOM      7  C   UNL     1      10.666  15.950  32.629  1.00  0.00     0.000 C 
BRANCH   7   8
ATOM      8  C   UNL     1      11.737  15.884  31.528  1.00  0.00    -0.000 C 
BRANCH   8   9
ATOM      9  C   UNL     1      11.423  16.804  30.339  1.00  0.00    -0.003 C 
ATOM     10  C   UNL     1      11.765  16.127  29.015  1.00  0.00     0.004 C 
ENDBRANCH   8   9
ENDBRANCH   7   8
ENDBRANCH   1   7
TORSDOF 6
ENDMDL
MODEL 2
REMARK VINA RESULT:    -3.393      1.699      2.806
REMARK INTER + INTRA:          -5.061
REMARK INTER:                  -4.825
REMARK INTRA:                  -0.236
REMARK UNBOUND:                -0.479
REMARK SMILES CCCCCCCC(=O)[O-]
REMARK SMILES IDX 5 1 6 2 7 3 8 4 9 5 10 6 4 7 3 8 2 9 1 10
REMARK H PARENT
REMARK Flexibility Score: inf
ROOT
ATOM      1  C   UNL     1       8.628  13.269  30.562  1.00  0.00     0.000 C 
ENDROOT
BRANCH   1   2
ATOM      2  C   UNL     1       7.926  12.376  31.598  1.00  0.00     0.006 C 
BRANCH   2   3
ATOM      3  C   UNL     1       6.524  12.883  31.965  1.00  0.00     0.053 C 
BRANCH   3   4
ATOM      4  C   UNL     1       5.645  11.741  32.366  1.00  0.00     0.041 C 
ATOM      5  O   UNL     1       6.075  10.559  32.310  1.00  0.00    -0.550 OA
ATOM      6  O   UNL     1       4.332  11.978  32.755  1.00  0.00    -0.550 OA
ENDBRANCH   3   4
ENDBRANCH   2   3
ENDBRANCH   1   2
BRANCH   1   7
ATOM      7  C   UNL     1       9.968  13.824  31.073  1.00  0.00     0.000 C 
BRANCH   7   8
ATOM      8  C   UNL     1       9.798  14.742  32.295  1.00  0.00    -0.000 C 
BRANCH   8   9
ATOM      9  C   UNL     1      10.900  15.808  32.393  1.00  0.00    -0.003 C 
ATOM     10  C   UNL     1      11.774  15.810  31.142  1.00  0.00     0.004 C 
ENDBRANCH   8   9
ENDBRANCH   7   8
ENDBRANCH   1   7
TORSDOF 6
ENDMDL
MODEL 3
REMARK VINA RESULT:    -3.327      1.106      2.083
REMARK INTER + INTRA:          -4.972
REMARK INTER:                  -4.617
REMARK INTRA:                  -0.356
REMARK UNBOUND:                -0.479
REMARK SMILES CCCCCCCC(=O)[O-]
REMARK SMILES IDX 5 1 6 2 7 3 8 4 9 5 10 6 4 7 3 8 2 9 1 10
REMARK H PARENT
REMARK Flexibility Score: inf
ROOT
ATOM      1  C   UNL     1      10.001  15.086  30.321  1.00  0.00     0.000 C 
ENDROOT
BRANCH   1   2
ATOM      2  C   UNL     1       9.845  13.560  30.422  1.00  0.00     0.006 C 
BRANCH   2   3
ATOM      3  C   UNL     1       9.045  13.127  31.659  1.00  0.00     0.053 C 
BRANCH   3   4
ATOM      4  C   UNL     1       7.682  12.656  31.259  1.00  0.00     0.041 C 
ATOM      5  O   UNL     1       6.950  13.376  30.530  1.00  0.00    -0.550 OA
ATOM      6  O   UNL     1       7.199  11.442  31.733  1.00  0.00    -0.550 OA
ENDBRANCH   3   4
ENDBRANCH   2   3
ENDBRANCH   1   2
BRANCH   1   7
ATOM      7  C   UNL     1      11.461  15.541  30.475  1.00  0.00     0.000 C 
BRANCH   7   8
ATOM      8  C   UNL     1      11.653  16.526  31.640  1.00  0.00    -0.000 C 
BRANCH   8   9
ATOM      9  C   UNL     1      10.545  16.414  32.699  1.00  0.00    -0.003 C 
ATOM     10  C   UNL     1      10.052  17.793  33.125  1.00  0.00     0.004 C 
ENDBRANCH   8   9
ENDBRANCH   7   8
ENDBRANCH   1   7
TORSDOF 6
ENDMDL
MODEL 4
REMARK VINA RESULT:    -3.244     12.409     13.199
REMARK INTER + INTRA:          -4.861
REMARK INTER:                  -4.632
REMARK INTRA:                  -0.229
REMARK UNBOUND:                -0.479
REMARK SMILES CCCCCCCC(=O)[O-]
REMARK SMILES IDX 5 1 6 2 7 3 8 4 9 5 10 6 4 7 3 8 2 9 1 10
REMARK H PARENT
REMARK Flexibility Score: inf
ROOT
ATOM      1  C   UNL     1      15.846  21.975  23.709  1.00  0.00     0.000 C 
ENDROOT
BRANCH   1   2
ATOM      2  C   UNL     1      15.302  23.359  23.321  1.00  0.00     0.006 C 
BRANCH   2   3
ATOM      3  C   UNL     1      15.729  24.460  24.302  1.00  0.00     0.053 C 
BRANCH   3   4
ATOM      4  C   UNL     1      14.598  24.809  25.218  1.00  0.00     0.041 C 
ATOM      5  O   UNL     1      13.735  25.656  24.867  1.00  0.00    -0.550 OA
ATOM      6  O   UNL     1      14.525  24.236  26.481  1.00  0.00    -0.550 OA
ENDBRANCH   3   4
ENDBRANCH   2   3
ENDBRANCH   1   2
BRANCH   1   7
ATOM      7  C   UNL     1      17.365  21.859  23.500  1.00  0.00     0.000 C 
BRANCH   7   8
ATOM      8  C   UNL     1      17.789  20.460  23.021  1.00  0.00    -0.000 C 
BRANCH   8   9
ATOM      9  C   UNL     1      17.241  20.120  21.627  1.00  0.00    -0.003 C 
ATOM     10  C   UNL     1      17.162  18.610  21.422  1.00  0.00     0.004 C 
ENDBRANCH   8   9
ENDBRANCH   7   8
ENDBRANCH   1   7
TORSDOF 6
ENDMDL
MODEL 5
REMARK VINA RESULT:    -3.240      1.715      3.163
REMARK INTER + INTRA:          -4.854
REMARK INTER:                  -4.424
REMARK INTRA:                  -0.430
REMARK UNBOUND:                -0.479
REMARK SMILES CCCCCCCC(=O)[O-]
REMARK SMILES IDX 5 1 6 2 7 3 8 4 9 5 10 6 4 7 3 8 2 9 1 10
REMARK H PARENT
REMARK Flexibility Score: inf
ROOT
ATOM      1  C   UNL     1      11.633  17.374  30.966  1.00  0.00     0.000 C 
ENDROOT
BRANCH   1   2
ATOM      2  C   UNL     1      11.805  15.917  31.427  1.00  0.00     0.006 C 
BRANCH   2   3
ATOM      3  C   UNL     1      10.567  15.377  32.156  1.00  0.00     0.053 C 
BRANCH   3   4
ATOM      4  C   UNL     1       9.805  14.444  31.268  1.00  0.00     0.041 C 
ATOM      5  O   UNL     1      10.084  13.217  31.249  1.00  0.00    -0.550 OA
ATOM      6  O   UNL     1       8.818  14.939  30.424  1.00  0.00    -0.550 OA
ENDBRANCH   3   4
ENDBRANCH   2   3
ENDBRANCH   1   2
BRANCH   1   7
ATOM      7  C   UNL     1      11.398  17.490  29.451  1.00  0.00     0.000 C 
BRANCH   7   8
ATOM      8  C   UNL     1      11.797  16.212  28.693  1.00  0.00    -0.000 C 
BRANCH   8   9
ATOM      9  C   UNL     1      12.732  16.494  27.507  1.00  0.00    -0.003 C 
ATOM     10  C   UNL     1      12.835  17.992  27.234  1.00  0.00     0.004 C 
ENDBRANCH   8   9
ENDBRANCH   7   8
ENDBRANCH   1   7
TORSDOF 6
ENDMDL
MODEL 6
REMARK VINA RESULT:    -3.230     12.376     13.450
REMARK INTER + INTRA:          -4.841
REMARK INTER:                  -4.438
REMARK INTRA:                  -0.403
REMARK UNBOUND:                -0.479
REMARK SMILES CCCCCCCC(=O)[O-]
REMARK SMILES IDX 5 1 6 2 7 3 8 4 9 5 10 6 4 7 3 8 2 9 1 10
REMARK H PARENT
REMARK Flexibility Score: inf
ROOT
ATOM      1  C   UNL     1      15.755  21.573  23.423  1.00  0.00     0.000 C 
ENDROOT
BRANCH   1   2
ATOM      2  C   UNL     1      16.723  22.663  23.910  1.00  0.00     0.006 C 
BRANCH   2   3
ATOM      3  C   UNL     1      16.108  24.069  23.854  1.00  0.00     0.053 C 
BRANCH   3   4
ATOM      4  C   UNL     1      14.811  24.100  24.598  1.00  0.00     0.041 C 
ATOM      5  O   UNL     1      13.723  24.216  23.974  1.00  0.00    -0.550 OA
ATOM      6  O   UNL     1      14.805  24.053  25.987  1.00  0.00    -0.550 OA
ENDBRANCH   3   4
ENDBRANCH   2   3
ENDBRANCH   1   2
BRANCH   1   7
ATOM      7  C   UNL     1      15.972  21.209  21.945  1.00  0.00     0.000 C 
BRANCH   7   8
ATOM      8  C   UNL     1      14.678  21.303  21.118  1.00  0.00    -0.000 C 
BRANCH   8   9
ATOM      9  C   UNL     1      14.316  22.748  20.745  1.00  0.00    -0.003 C 
ATOM     10  C   UNL     1      14.483  22.987  19.248  1.00  0.00     0.004 C 
ENDBRANCH   8   9
ENDBRANCH   7   8
ENDBRANCH   1   7
TORSDOF 6
ENDMDL
MODEL 7
REMARK VINA RESULT:    -3.224      8.101     10.419
REMARK INTER + INTRA:          -4.833
REMARK INTER:                  -4.659
REMARK INTRA:                  -0.174
REMARK UNBOUND:                -0.479
REMARK SMILES CCCCCCCC(=O)[O-]
REMARK SMILES IDX 5 1 6 2 7 3 8 4 9 5 10 6 4 7 3 8 2 9 1 10
REMARK H PARENT
REMARK Flexibility Score: inf
ROOT
ATOM      1  C   UNL     1      14.831  18.188  24.720  1.00  0.00     0.000 C 
ENDROOT
BRANCH   1   2
ATOM      2  C   UNL     1      14.990  19.670  24.346  1.00  0.00     0.006 C 
BRANCH   2   3
ATOM      3  C   UNL     1      16.360  19.982  23.728  1.00  0.00     0.053 C 
BRANCH   3   4
ATOM      4  C   UNL     1      16.398  19.542  22.298  1.00  0.00     0.041 C 
ATOM      5  O   UNL     1      15.409  19.744  21.546  1.00  0.00    -0.550 OA
ATOM      6  O   UNL     1      17.509  18.865  21.808  1.00  0.00    -0.550 OA
ENDBRANCH   3   4
ENDBRANCH   2   3
ENDBRANCH   1   2
BRANCH   1   7
ATOM      7  C   UNL     1      14.889  17.953  26.239  1.00  0.00     0.000 C 
BRANCH   7   8
ATOM      8  C   UNL     1      13.495  17.939  26.888  1.00  0.00    -0.000 C 
BRANCH   8   9
ATOM      9  C   UNL     1      12.969  16.516  27.132  1.00  0.00    -0.003 C 
ATOM     10  C   UNL     1      12.071  16.467  28.364  1.00  0.00     0.004 C 
ENDBRANCH   8   9
ENDBRANCH   7   8
ENDBRANCH   1   7
TORSDOF 6
ENDMDL
MODEL 8
REMARK VINA RESULT:    -3.144     11.989     13.525
REMARK INTER + INTRA:          -4.725
REMARK INTER:                  -4.502
REMARK INTRA:                  -0.223
REMARK UNBOUND:                -0.479
REMARK SMILES CCCCCCCC(=O)[O-]
REMARK SMILES IDX 5 1 6 2 7 3 8 4 9 5 10 6 4 7 3 8 2 9 1 10
REMARK H PARENT
REMARK Flexibility Score: inf
ROOT
ATOM      1  C   UNL     1      14.571  20.459  21.893  1.00  0.00     0.000 C 
ENDROOT
BRANCH   1   2
ATOM      2  C   UNL     1      14.940  20.592  23.379  1.00  0.00     0.006 C 
BRANCH   2   3
ATOM      3  C   UNL     1      16.221  19.826  23.741  1.00  0.00     0.053 C 
BRANCH   3   4
ATOM      4  C   UNL     1      17.407  20.453  23.080  1.00  0.00     0.041 C 
ATOM      5  O   UNL     1      18.106  19.791  22.269  1.00  0.00    -0.550 OA
ATOM      6  O   UNL     1      17.772  21.756  23.399  1.00  0.00    -0.550 OA
ENDBRANCH   3   4
ENDBRANCH   2   3
ENDBRANCH   1   2
BRANCH   1   7
ATOM      7  C   UNL     1      14.789  21.767  21.112  1.00  0.00     0.000 C 
BRANCH   7   8
ATOM      8  C   UNL     1      13.474  22.517  20.839  1.00  0.00    -0.000 C 
BRANCH   8   9
ATOM      9  C   UNL     1      13.385  23.052  19.402  1.00  0.00    -0.003 C 
ATOM     10  C   UNL     1      14.774  23.308  18.825  1.00  0.00     0.004 C 
ENDBRANCH   8   9
ENDBRANCH   7   8
ENDBRANCH   1   7
TORSDOF 6
ENDMDL
MODEL 9
REMARK VINA RESULT:    -3.129      3.363      5.011
REMARK INTER + INTRA:          -4.704
REMARK INTER:                  -4.476
REMARK INTRA:                  -0.229
REMARK UNBOUND:                -0.479
REMARK SMILES CCCCCCCC(=O)[O-]
REMARK SMILES IDX 5 1 6 2 7 3 8 4 9 5 10 6 4 7 3 8 2 9 1 10
REMARK H PARENT
REMARK Flexibility Score: inf
ROOT
ATOM      1  C   UNL     1      11.620  16.814  29.055  1.00  0.00     0.000 C 
ENDROOT
BRANCH   1   2
ATOM      2  C   UNL     1      11.725  15.883  30.274  1.00  0.00     0.006 C 
BRANCH   2   3
ATOM      3  C   UNL     1      11.880  16.651  31.594  1.00  0.00     0.053 C 
BRANCH   3   4
ATOM      4  C   UNL     1      10.664  17.482  31.860  1.00  0.00     0.041 C 
ATOM      5  O   UNL     1       9.545  16.931  32.031  1.00  0.00    -0.550 OA
ATOM      6  O   UNL     1      10.758  18.868  31.871  1.00  0.00    -0.550 OA
ENDBRANCH   3   4
ENDBRANCH   2   3
ENDBRANCH   1   2
BRANCH   1   7
ATOM      7  C   UNL     1      12.368  16.265  27.829  1.00  0.00     0.000 C 
BRANCH   7   8
ATOM      8  C   UNL     1      12.545  17.321  26.725  1.00  0.00    -0.000 C 
BRANCH   8   9
ATOM      9  C   UNL     1      13.690  18.302  27.020  1.00  0.00    -0.003 C 
ATOM     10  C   UNL     1      15.016  17.776  26.478  1.00  0.00     0.004 C 
ENDBRANCH   8   9
ENDBRANCH   7   8
ENDBRANCH   1   7
TORSDOF 6
ENDMDL
