MODEL 1
REMARK VINA RESULT:    -3.396      0.000      0.000
REMARK INTER + INTRA:          -8.299
REMARK INTER:                  -6.176
REMARK INTRA:                  -2.123
REMARK UNBOUND:                -2.123
REMARK SMILES CCCCCCCCCCCCCCCC(=O)[O-]
REMARK SMILES IDX 9 1 10 2 11 3 12 4 13 5 14 6 15 7 16 8 17 9 18 10 8 11 7 12
REMARK SMILES IDX 6 13 5 14 4 15 3 16 2 17 1 18
REMARK H PARENT
REMARK Flexibility Score: inf
ROOT
ATOM      1  C   UNL     1       9.294 -28.918  17.345  1.00  0.00     0.000 C 
ENDROOT
BRANCH   1   2
ATOM      2  C   UNL     1       8.327 -29.973  17.912  1.00  0.00     0.000 C 
BRANCH   2   3
ATOM      3  C   UNL     1       6.864 -29.508  18.060  1.00  0.00     0.000 C 
BRANCH   3   4
ATOM      4  C   UNL     1       5.947 -29.850  16.872  1.00  0.00     0.000 C 
BRANCH   4   5
ATOM      5  C   UNL     1       6.243 -31.231  16.269  1.00  0.00     0.000 C 
BRANCH   5   6
ATOM      6  C   UNL     1       6.011 -31.229  14.753  1.00  0.00     0.006 C 
BRANCH   6   7
ATOM      7  C   UNL     1       6.817 -30.118  14.075  1.00  0.00     0.053 C 
BRANCH   7   8
ATOM      8  C   UNL     1       6.604 -30.145  12.594  1.00  0.00     0.041 C 
ATOM      9  O   UNL     1       6.919 -29.149  11.891  1.00  0.00    -0.550 OA
ATOM     10  O   UNL     1       6.012 -31.251  11.997  1.00  0.00    -0.550 OA
ENDBRANCH   7   8
ENDBRANCH   6   7
ENDBRANCH   5   6
ENDBRANCH   4   5
ENDBRANCH   3   4
ENDBRANCH   2   3
ENDBRANCH   1   2
BRANCH   1  11
ATOM     11  C   UNL     1       9.536 -29.078  15.838  1.00  0.00     0.000 C 
BRANCH  11  12
ATOM     12  C   UNL     1      10.889 -28.481  15.431  1.00  0.00    -0.000 C 
BRANCH  12  13
ATOM     13  C   UNL     1      11.334 -29.012  14.061  1.00  0.00    -0.000 C 
BRANCH  13  14
ATOM     14  C   UNL     1      10.172 -29.131  13.064  1.00  0.00    -0.000 C 
BRANCH  14  15
ATOM     15  C   UNL     1      10.387 -30.251  12.031  1.00  0.00    -0.000 C 
BRANCH  15  16
ATOM     16  C   UNL     1      10.834 -31.572  12.688  1.00  0.00    -0.000 C 
BRANCH  16  17
ATOM     17  C   UNL     1       9.663 -32.449  13.165  1.00  0.00    -0.003 C 
ATOM     18  C   UNL     1       9.516 -32.476  14.685  1.00  0.00     0.004 C 
ENDBRANCH  16  17
ENDBRANCH  15  16
ENDBRANCH  14  15
ENDBRANCH  13  14
ENDBRANCH  12  13
ENDBRANCH  11  12
ENDBRANCH   1  11
TORSDOF 14
ENDMDL
MODEL 2
REMARK VINA RESULT:    -3.336      2.172      4.653
REMARK INTER + INTRA:          -8.188
REMARK INTER:                  -6.045
REMARK INTRA:                  -2.144
REMARK UNBOUND:                -2.123
REMARK SMILES CCCCCCCCCCCCCCCC(=O)[O-]
REMARK SMILES IDX 9 1 10 2 11 3 12 4 13 5 14 6 15 7 16 8 17 9 18 10 8 11 7 12
REMARK SMILES IDX 6 13 5 14 4 15 3 16 2 17 1 18
REMARK H PARENT
REMARK Flexibility Score: inf
ROOT
ATOM      1  C   UNL     1       9.607 -28.703  17.854  1.00  0.00     0.000 C 
ENDROOT
BRANCH   1   2
ATOM      2  C   UNL     1      10.323 -28.384  16.529  1.00  0.00     0.000 C 
BRANCH   2   3
ATOM      3  C   UNL     1       9.777 -29.129  15.294  1.00  0.00     0.000 C 
BRANCH   3   4
ATOM      4  C   UNL     1      10.732 -29.178  14.087  1.00  0.00     0.000 C 
BRANCH   4   5
ATOM      5  C   UNL     1      10.003 -29.434  12.760  1.00  0.00     0.000 C 
BRANCH   5   6
ATOM      6  C   UNL     1      10.487 -30.735  12.109  1.00  0.00     0.006 C 
BRANCH   6   7
ATOM      7  C   UNL     1      11.550 -31.419  12.974  1.00  0.00     0.053 C 
BRANCH   7   8
ATOM      8  C   UNL     1      11.378 -32.906  12.937  1.00  0.00     0.041 C 
ATOM      9  O   UNL     1      11.928 -33.628  13.809  1.00  0.00    -0.550 OA
ATOM     10  O   UNL     1      10.653 -33.497  11.910  1.00  0.00    -0.550 OA
ENDBRANCH   7   8
ENDBRANCH   6   7
ENDBRANCH   5   6
ENDBRANCH   4   5
ENDBRANCH   3   4
ENDBRANCH   2   3
ENDBRANCH   1   2
BRANCH   1  11
ATOM     11  C   UNL     1       8.596 -29.851  17.725  1.00  0.00     0.000 C 
BRANCH  11  12
ATOM     12  C   UNL     1       7.291 -29.518  18.459  1.00  0.00    -0.000 C 
BRANCH  12  13
ATOM     13  C   UNL     1       6.077 -29.720  17.541  1.00  0.00    -0.000 C 
BRANCH  13  14
ATOM     14  C   UNL     1       6.452 -29.713  16.051  1.00  0.00    -0.000 C 
BRANCH  14  15
ATOM     15  C   UNL     1       6.088 -31.029  15.340  1.00  0.00    -0.000 C 
BRANCH  15  16
ATOM     16  C   UNL     1       6.801 -31.171  13.979  1.00  0.00    -0.000 C 
BRANCH  16  17
ATOM     17  C   UNL     1       7.786 -32.353  13.922  1.00  0.00    -0.003 C 
ATOM     18  C   UNL     1       8.460 -32.635  15.262  1.00  0.00     0.004 C 
ENDBRANCH  16  17
ENDBRANCH  15  16
ENDBRANCH  14  15
ENDBRANCH  13  14
ENDBRANCH  12  13
ENDBRANCH  11  12
ENDBRANCH   1  11
TORSDOF 14
ENDMDL
MODEL 3
REMARK VINA RESULT:    -3.328      2.872      4.998
REMARK INTER + INTRA:          -8.175
REMARK INTER:                  -6.074
REMARK INTRA:                  -2.100
REMARK UNBOUND:                -2.123
REMARK SMILES CCCCCCCCCCCCCCCC(=O)[O-]
REMARK SMILES IDX 9 1 10 2 11 3 12 4 13 5 14 6 15 7 16 8 17 9 18 10 8 11 7 12
REMARK SMILES IDX 6 13 5 14 4 15 3 16 2 17 1 18
REMARK H PARENT
REMARK Flexibility Score: inf
ROOT
ATOM      1  C   UNL     1      10.682 -30.146  13.416  1.00  0.00     0.000 C 
ENDROOT
BRANCH   1   2
ATOM      2  C   UNL     1       9.483 -29.590  12.628  1.00  0.00     0.000 C 
BRANCH   2   3
ATOM      3  C   UNL     1       8.120 -29.703  13.341  1.00  0.00     0.000 C 
BRANCH   3   4
ATOM      4  C   UNL     1       8.194 -30.081  14.832  1.00  0.00     0.000 C 
BRANCH   4   5
ATOM      5  C   UNL     1       6.883 -29.803  15.583  1.00  0.00     0.000 C 
BRANCH   5   6
ATOM      6  C   UNL     1       7.139 -29.619  17.084  1.00  0.00     0.006 C 
BRANCH   6   7
ATOM      7  C   UNL     1       8.534 -30.120  17.469  1.00  0.00     0.053 C 
BRANCH   7   8
ATOM      8  C   UNL     1       9.304 -29.042  18.166  1.00  0.00     0.041 C 
ATOM      9  O   UNL     1       9.245 -28.932  19.419  1.00  0.00    -0.550 OA
ATOM     10  O   UNL     1      10.046 -28.129  17.428  1.00  0.00    -0.550 OA
ENDBRANCH   7   8
ENDBRANCH   6   7
ENDBRANCH   5   6
ENDBRANCH   4   5
ENDBRANCH   3   4
ENDBRANCH   2   3
ENDBRANCH   1   2
BRANCH   1  11
ATOM     11  C   UNL     1      11.134 -31.527  12.921  1.00  0.00     0.000 C 
BRANCH  11  12
ATOM     12  C   UNL     1      10.501 -32.646  13.757  1.00  0.00    -0.000 C 
BRANCH  12  13
ATOM     13  C   UNL     1       9.287 -33.251  13.038  1.00  0.00    -0.000 C 
BRANCH  13  14
ATOM     14  C   UNL     1       8.272 -33.874  14.008  1.00  0.00    -0.000 C 
BRANCH  14  15
ATOM     15  C   UNL     1       6.827 -33.421  13.730  1.00  0.00    -0.000 C 
BRANCH  15  16
ATOM     16  C   UNL     1       6.015 -33.235  15.028  1.00  0.00    -0.000 C 
BRANCH  16  17
ATOM     17  C   UNL     1       6.850 -33.418  16.308  1.00  0.00    -0.003 C 
ATOM     18  C   UNL     1       6.283 -34.482  17.245  1.00  0.00     0.004 C 
ENDBRANCH  16  17
ENDBRANCH  15  16
ENDBRANCH  14  15
ENDBRANCH  13  14
ENDBRANCH  12  13
ENDBRANCH  11  12
ENDBRANCH   1  11
TORSDOF 14
ENDMDL
MODEL 4
REMARK VINA RESULT:    -3.289      1.831      4.702
REMARK INTER + INTRA:          -8.103
REMARK INTER:                  -6.223
REMARK INTRA:                  -1.881
REMARK UNBOUND:                -2.123
REMARK SMILES CCCCCCCCCCCCCCCC(=O)[O-]
REMARK SMILES IDX 9 1 10 2 11 3 12 4 13 5 14 6 15 7 16 8 17 9 18 10 8 11 7 12
REMARK SMILES IDX 6 13 5 14 4 15 3 16 2 17 1 18
REMARK H PARENT
REMARK Flexibility Score: inf
ROOT
ATOM      1  C   UNL     1       9.928 -28.737  16.332  1.00  0.00     0.000 C 
ENDROOT
BRANCH   1   2
ATOM      2  C   UNL     1      11.175 -28.294  15.547  1.00  0.00     0.000 C 
BRANCH   2   3
ATOM      3  C   UNL     1      11.231 -28.775  14.082  1.00  0.00     0.000 C 
BRANCH   3   4
ATOM      4  C   UNL     1      10.310 -29.962  13.749  1.00  0.00     0.000 C 
BRANCH   4   5
ATOM      5  C   UNL     1      11.039 -31.094  13.010  1.00  0.00     0.000 C 
BRANCH   5   6
ATOM      6  C   UNL     1      10.385 -32.450  13.300  1.00  0.00     0.006 C 
BRANCH   6   7
ATOM      7  C   UNL     1       9.434 -32.357  14.496  1.00  0.00     0.053 C 
BRANCH   7   8
ATOM      8  C   UNL     1       8.459 -33.491  14.480  1.00  0.00     0.041 C 
ATOM      9  O   UNL     1       8.540 -34.383  13.595  1.00  0.00    -0.550 OA
ATOM     10  O   UNL     1       7.430 -33.537  15.412  1.00  0.00    -0.550 OA
ENDBRANCH   7   8
ENDBRANCH   6   7
ENDBRANCH   5   6
ENDBRANCH   4   5
ENDBRANCH   3   4
ENDBRANCH   2   3
ENDBRANCH   1   2
BRANCH   1  11
ATOM     11  C   UNL     1       9.976 -28.326  17.810  1.00  0.00     0.000 C 
BRANCH  11  12
ATOM     12  C   UNL     1       8.822 -28.961  18.596  1.00  0.00    -0.000 C 
BRANCH  12  13
ATOM     13  C   UNL     1       8.110 -30.032  17.758  1.00  0.00    -0.000 C 
BRANCH  13  14
ATOM     14  C   UNL     1       6.583 -29.865  17.755  1.00  0.00    -0.000 C 
BRANCH  14  15
ATOM     15  C   UNL     1       5.939 -30.311  16.430  1.00  0.00    -0.000 C 
BRANCH  15  16
ATOM     16  C   UNL     1       6.814 -29.957  15.209  1.00  0.00    -0.000 C 
BRANCH  16  17
ATOM     17  C   UNL     1       6.294 -30.551  13.888  1.00  0.00    -0.003 C 
ATOM     18  C   UNL     1       6.875 -29.863  12.654  1.00  0.00     0.004 C 
ENDBRANCH  16  17
ENDBRANCH  15  16
ENDBRANCH  14  15
ENDBRANCH  13  14
ENDBRANCH  12  13
ENDBRANCH  11  12
ENDBRANCH   1  11
TORSDOF 14
ENDMDL
MODEL 5
REMARK VINA RESULT:    -3.272      2.474      3.105
REMARK INTER + INTRA:          -8.072
REMARK INTER:                  -6.375
REMARK INTRA:                  -1.697
REMARK UNBOUND:                -2.123
REMARK SMILES CCCCCCCCCCCCCCCC(=O)[O-]
REMARK SMILES IDX 9 1 10 2 11 3 12 4 13 5 14 6 15 7 16 8 17 9 18 10 8 11 7 12
REMARK SMILES IDX 6 13 5 14 4 15 3 16 2 17 1 18
REMARK H PARENT
REMARK Flexibility Score: inf
ROOT
ATOM      1  C   UNL     1       8.747 -29.806  17.871  1.00  0.00     0.000 C 
ENDROOT
BRANCH   1   2
ATOM      2  C   UNL     1       7.310 -29.667  18.405  1.00  0.00     0.000 C 
BRANCH   2   3
ATOM      3  C   UNL     1       6.198 -29.959  17.377  1.00  0.00     0.000 C 
BRANCH   3   4
ATOM      4  C   UNL     1       6.588 -29.719  15.907  1.00  0.00     0.000 C 
BRANCH   4   5
ATOM      5  C   UNL     1       6.313 -30.936  15.011  1.00  0.00     0.000 C 
BRANCH   5   6
ATOM      6  C   UNL     1       7.273 -32.086  15.338  1.00  0.00     0.006 C 
BRANCH   6   7
ATOM      7  C   UNL     1       6.504 -33.375  15.637  1.00  0.00     0.053 C 
BRANCH   7   8
ATOM      8  C   UNL     1       6.742 -33.812  17.049  1.00  0.00     0.041 C 
ATOM      9  O   UNL     1       7.545 -33.176  17.781  1.00  0.00    -0.550 OA
ATOM     10  O   UNL     1       6.115 -34.950  17.540  1.00  0.00    -0.550 OA
ENDBRANCH   7   8
ENDBRANCH   6   7
ENDBRANCH   5   6
ENDBRANCH   4   5
ENDBRANCH   3   4
ENDBRANCH   2   3
ENDBRANCH   1   2
BRANCH   1  11
ATOM     11  C   UNL     1       9.553 -28.505  17.980  1.00  0.00     0.000 C 
BRANCH  11  12
ATOM     12  C   UNL     1      10.375 -28.259  16.708  1.00  0.00    -0.000 C 
BRANCH  12  13
ATOM     13  C   UNL     1       9.840 -29.096  15.537  1.00  0.00    -0.000 C 
BRANCH  13  14
ATOM     14  C   UNL     1      10.775 -29.076  14.318  1.00  0.00    -0.000 C 
BRANCH  14  15
ATOM     15  C   UNL     1      10.127 -29.685  13.062  1.00  0.00    -0.000 C 
BRANCH  15  16
ATOM     16  C   UNL     1      10.840 -30.975  12.607  1.00  0.00    -0.000 C 
BRANCH  16  17
ATOM     17  C   UNL     1      10.424 -32.222  13.407  1.00  0.00    -0.003 C 
ATOM     18  C   UNL     1      11.531 -33.270  13.499  1.00  0.00     0.004 C 
ENDBRANCH  16  17
ENDBRANCH  15  16
ENDBRANCH  14  15
ENDBRANCH  13  14
ENDBRANCH  12  13
ENDBRANCH  11  12
ENDBRANCH   1  11
TORSDOF 14
ENDMDL
MODEL 6
REMARK VINA RESULT:    -3.247      2.797      4.856
REMARK INTER + INTRA:          -8.027
REMARK INTER:                  -6.192
REMARK INTRA:                  -1.835
REMARK UNBOUND:                -2.123
REMARK SMILES CCCCCCCCCCCCCCCC(=O)[O-]
REMARK SMILES IDX 9 1 10 2 11 3 12 4 13 5 14 6 15 7 16 8 17 9 18 10 8 11 7 12
REMARK SMILES IDX 6 13 5 14 4 15 3 16 2 17 1 18
REMARK H PARENT
REMARK Flexibility Score: inf
ROOT
ATOM      1  C   UNL     1       7.073 -33.418  15.578  1.00  0.00     0.000 C 
ENDROOT
BRANCH   1   2
ATOM      2  C   UNL     1       5.999 -32.326  15.423  1.00  0.00     0.000 C 
BRANCH   2   3
ATOM      3  C   UNL     1       6.462 -31.053  14.686  1.00  0.00     0.000 C 
BRANCH   3   4
ATOM      4  C   UNL     1       6.813 -29.863  15.597  1.00  0.00     0.000 C 
BRANCH   4   5
ATOM      5  C   UNL     1       6.151 -29.954  16.980  1.00  0.00     0.000 C 
BRANCH   5   6
ATOM      6  C   UNL     1       7.206 -30.040  18.089  1.00  0.00     0.006 C 
BRANCH   6   7
ATOM      7  C   UNL     1       8.621 -29.944  17.511  1.00  0.00     0.053 C 
BRANCH   7   8
ATOM      8  C   UNL     1       9.366 -28.805  18.133  1.00  0.00     0.041 C 
ATOM      9  O   UNL     1       9.090 -28.434  19.304  1.00  0.00    -0.550 OA
ATOM     10  O   UNL     1      10.329 -28.123  17.402  1.00  0.00    -0.550 OA
ENDBRANCH   7   8
ENDBRANCH   6   7
ENDBRANCH   5   6
ENDBRANCH   4   5
ENDBRANCH   3   4
ENDBRANCH   2   3
ENDBRANCH   1   2
BRANCH   1  11
ATOM     11  C   UNL     1       6.999 -34.488  14.481  1.00  0.00     0.000 C 
BRANCH  11  12
ATOM     12  C   UNL     1       7.864 -34.100  13.275  1.00  0.00    -0.000 C 
BRANCH  12  13
ATOM     13  C   UNL     1       9.308 -34.588  13.453  1.00  0.00    -0.000 C 
BRANCH  13  14
ATOM     14  C   UNL     1      10.344 -33.483  13.198  1.00  0.00    -0.000 C 
BRANCH  14  15
ATOM     15  C   UNL     1      10.103 -32.231  14.059  1.00  0.00    -0.000 C 
BRANCH  15  16
ATOM     16  C   UNL     1      10.393 -30.928  13.286  1.00  0.00    -0.000 C 
BRANCH  16  17
ATOM     17  C   UNL     1      10.232 -29.657  14.141  1.00  0.00    -0.003 C 
ATOM     18  C   UNL     1      11.476 -28.771  14.133  1.00  0.00     0.004 C 
ENDBRANCH  16  17
ENDBRANCH  15  16
ENDBRANCH  14  15
ENDBRANCH  13  14
ENDBRANCH  12  13
ENDBRANCH  11  12
ENDBRANCH   1  11
TORSDOF 14
ENDMDL
MODEL 7
REMARK VINA RESULT:    -3.185      1.850      4.643
REMARK INTER + INTRA:          -7.914
REMARK INTER:                  -6.063
REMARK INTRA:                  -1.852
REMARK UNBOUND:                -2.123
REMARK SMILES CCCCCCCCCCCCCCCC(=O)[O-]
REMARK SMILES IDX 9 1 10 2 11 3 12 4 13 5 14 6 15 7 16 8 17 9 18 10 8 11 7 12
REMARK SMILES IDX 6 13 5 14 4 15 3 16 2 17 1 18
REMARK H PARENT
REMARK Flexibility Score: inf
ROOT
ATOM      1  C   UNL     1      10.190 -28.120  17.515  1.00  0.00     0.000 C 
ENDROOT
BRANCH   1   2
ATOM      2  C   UNL     1      10.009 -28.768  16.131  1.00  0.00     0.000 C 
BRANCH   2   3
ATOM      3  C   UNL     1      11.114 -28.442  15.106  1.00  0.00     0.000 C 
BRANCH   3   4
ATOM      4  C   UNL     1      11.014 -29.207  13.773  1.00  0.00     0.000 C 
BRANCH   4   5
ATOM      5  C   UNL     1       9.864 -30.224  13.753  1.00  0.00     0.000 C 
BRANCH   5   6
ATOM      6  C   UNL     1      10.369 -31.616  13.357  1.00  0.00     0.006 C 
BRANCH   6   7
ATOM      7  C   UNL     1       9.805 -32.691  14.289  1.00  0.00     0.053 C 
BRANCH   7   8
ATOM      8  C   UNL     1       9.147 -33.779  13.498  1.00  0.00     0.041 C 
ATOM      9  O   UNL     1       8.042 -33.570  12.933  1.00  0.00    -0.550 OA
ATOM     10  O   UNL     1       9.731 -35.037  13.427  1.00  0.00    -0.550 OA
ENDBRANCH   7   8
ENDBRANCH   6   7
ENDBRANCH   5   6
ENDBRANCH   4   5
ENDBRANCH   3   4
ENDBRANCH   2   3
ENDBRANCH   1   2
BRANCH   1  11
ATOM     11  C   UNL     1       9.251 -28.710  18.577  1.00  0.00     0.000 C 
BRANCH  11  12
ATOM     12  C   UNL     1       8.341 -29.786  17.971  1.00  0.00    -0.000 C 
BRANCH  12  13
ATOM     13  C   UNL     1       6.871 -29.528  18.328  1.00  0.00    -0.000 C 
BRANCH  13  14
ATOM     14  C   UNL     1       5.918 -29.805  17.155  1.00  0.00    -0.000 C 
BRANCH  14  15
ATOM     15  C   UNL     1       6.663 -30.105  15.842  1.00  0.00    -0.000 C 
BRANCH  15  16
ATOM     16  C   UNL     1       6.410 -31.544  15.345  1.00  0.00    -0.000 C 
BRANCH  16  17
ATOM     17  C   UNL     1       6.657 -32.618  16.420  1.00  0.00    -0.003 C 
ATOM     18  C   UNL     1       6.203 -34.011  15.989  1.00  0.00     0.004 C 
ENDBRANCH  16  17
ENDBRANCH  15  16
ENDBRANCH  14  15
ENDBRANCH  13  14
ENDBRANCH  12  13
ENDBRANCH  11  12
ENDBRANCH   1  11
TORSDOF 14
ENDMDL
MODEL 8
REMARK VINA RESULT:    -3.143      2.693      4.689
REMARK INTER + INTRA:          -7.839
REMARK INTER:                  -5.704
REMARK INTRA:                  -2.134
REMARK UNBOUND:                -2.123
REMARK SMILES CCCCCCCCCCCCCCCC(=O)[O-]
REMARK SMILES IDX 9 1 10 2 11 3 12 4 13 5 14 6 15 7 16 8 17 9 18 10 8 11 7 12
REMARK SMILES IDX 6 13 5 14 4 15 3 16 2 17 1 18
REMARK H PARENT
REMARK Flexibility Score: inf
ROOT
ATOM      1  C   UNL     1       8.201 -33.837  14.081  1.00  0.00     0.000 C 
ENDROOT
BRANCH   1   2
ATOM      2  C   UNL     1       6.766 -34.228  14.478  1.00  0.00     0.000 C 
BRANCH   2   3
ATOM      3  C   UNL     1       6.021 -33.192  15.344  1.00  0.00     0.000 C 
BRANCH   3   4
ATOM      4  C   UNL     1       6.926 -32.224  16.128  1.00  0.00     0.000 C 
BRANCH   4   5
ATOM      5  C   UNL     1       6.209 -30.924  16.523  1.00  0.00     0.000 C 
BRANCH   5   6
ATOM      6  C   UNL     1       7.216 -29.793  16.760  1.00  0.00     0.006 C 
BRANCH   6   7
ATOM      7  C   UNL     1       8.096 -30.087  17.978  1.00  0.00     0.053 C 
BRANCH   7   8
ATOM      8  C   UNL     1       9.073 -28.975  18.200  1.00  0.00     0.041 C 
ATOM      9  O   UNL     1       9.181 -28.445  19.338  1.00  0.00    -0.550 OA
ATOM     10  O   UNL     1       9.828 -28.490  17.140  1.00  0.00    -0.550 OA
ENDBRANCH   7   8
ENDBRANCH   6   7
ENDBRANCH   5   6
ENDBRANCH   4   5
ENDBRANCH   3   4
ENDBRANCH   2   3
ENDBRANCH   1   2
BRANCH   1  11
ATOM     11  C   UNL     1       8.390 -33.724  12.562  1.00  0.00     0.000 C 
BRANCH  11  12
ATOM     12  C   UNL     1       9.839 -33.359  12.214  1.00  0.00    -0.000 C 
BRANCH  12  13
ATOM     13  C   UNL     1      10.502 -32.586  13.362  1.00  0.00    -0.000 C 
BRANCH  13  14
ATOM     14  C   UNL     1      11.044 -31.218  12.921  1.00  0.00    -0.000 C 
BRANCH  14  15
ATOM     15  C   UNL     1       9.939 -30.277  12.408  1.00  0.00    -0.000 C 
BRANCH  15  16
ATOM     16  C   UNL     1       8.811 -30.086  13.443  1.00  0.00    -0.000 C 
BRANCH  16  17
ATOM     17  C   UNL     1       7.503 -29.549  12.834  1.00  0.00    -0.003 C 
ATOM     18  C   UNL     1       6.416 -30.615  12.715  1.00  0.00     0.004 C 
ENDBRANCH  16  17
ENDBRANCH  15  16
ENDBRANCH  14  15
ENDBRANCH  13  14
ENDBRANCH  12  13
ENDBRANCH  11  12
ENDBRANCH   1  11
TORSDOF 14
ENDMDL
MODEL 9
REMARK VINA RESULT:    -3.123      2.414      5.683
REMARK INTER + INTRA:          -7.802
REMARK INTER:                  -5.788
REMARK INTRA:                  -2.014
REMARK UNBOUND:                -2.123
REMARK SMILES CCCCCCCCCCCCCCCC(=O)[O-]
REMARK SMILES IDX 9 1 10 2 11 3 12 4 13 5 14 6 15 7 16 8 17 9 18 10 8 11 7 12
REMARK SMILES IDX 6 13 5 14 4 15 3 16 2 17 1 18
REMARK H PARENT
REMARK Flexibility Score: inf
ROOT
ATOM      1  C   UNL     1       7.178 -33.011  12.886  1.00  0.00     0.000 C 
ENDROOT
BRANCH   1   2
ATOM      2  C   UNL     1       6.704 -31.819  12.036  1.00  0.00     0.000 C 
BRANCH   2   3
ATOM      3  C   UNL     1       6.280 -30.571  12.837  1.00  0.00     0.000 C 
BRANCH   3   4
ATOM      4  C   UNL     1       7.373 -29.500  13.005  1.00  0.00     0.000 C 
BRANCH   4   5
ATOM      5  C   UNL     1       8.679 -29.862  12.281  1.00  0.00     0.000 C 
BRANCH   5   6
ATOM      6  C   UNL     1       9.774 -30.244  13.283  1.00  0.00     0.006 C 
BRANCH   6   7
ATOM      7  C   UNL     1       9.575 -29.519  14.617  1.00  0.00     0.053 C 
BRANCH   7   8
ATOM      8  C   UNL     1      10.805 -28.751  14.985  1.00  0.00     0.041 C 
ATOM      9  O   UNL     1      10.915 -28.243  16.133  1.00  0.00    -0.550 OA
ATOM     10  O   UNL     1      11.809 -28.553  14.046  1.00  0.00    -0.550 OA
ENDBRANCH   7   8
ENDBRANCH   6   7
ENDBRANCH   5   6
ENDBRANCH   4   5
ENDBRANCH   3   4
ENDBRANCH   2   3
ENDBRANCH   1   2
BRANCH   1  11
ATOM     11  C   UNL     1       6.018 -33.777  13.539  1.00  0.00     0.000 C 
BRANCH  11  12
ATOM     12  C   UNL     1       6.134 -33.750  15.069  1.00  0.00    -0.000 C 
BRANCH  12  13
ATOM     13  C   UNL     1       7.279 -32.831  15.518  1.00  0.00    -0.000 C 
BRANCH  13  14
ATOM     14  C   UNL     1       6.980 -32.114  16.843  1.00  0.00    -0.000 C 
BRANCH  14  15
ATOM     15  C   UNL     1       6.294 -30.751  16.641  1.00  0.00    -0.000 C 
BRANCH  15  16
ATOM     16  C   UNL     1       6.917 -29.649  17.522  1.00  0.00    -0.000 C 
BRANCH  16  17
ATOM     17  C   UNL     1       8.353 -29.964  17.976  1.00  0.00    -0.003 C 
ATOM     18  C   UNL     1       8.937 -28.895  18.898  1.00  0.00     0.004 C 
ENDBRANCH  16  17
ENDBRANCH  15  16
ENDBRANCH  14  15
ENDBRANCH  13  14
ENDBRANCH  12  13
ENDBRANCH  11  12
ENDBRANCH   1  11
TORSDOF 14
ENDMDL
