MODEL 1
REMARK VINA RESULT:    -4.865      0.000      0.000
REMARK INTER + INTRA:          -6.091
REMARK INTER:                  -5.860
REMARK INTRA:                  -0.232
REMARK UNBOUND:                -0.232
REMARK SMILES C=CCc1ccc(O)c(OC)c1
REMARK SMILES IDX 9 1 7 2 6 3 5 4 4 5 12 6 10 7 11 8 8 9 3 11 2 12 1 13
REMARK H PARENT 8 10
REMARK Flexibility Score: inf
ROOT
ATOM      1  C   UNL     1     111.379 105.466 136.140  1.00  0.00     0.160 A 
ATOM      2  C   UNL     1     112.168 104.338 136.402  1.00  0.00     0.157 A 
ATOM      3  C   UNL     1     113.497 104.291 135.960  1.00  0.00     0.050 A 
ATOM      4  C   UNL     1     114.044 105.367 135.258  1.00  0.00     0.008 A 
ATOM      5  C   UNL     1     113.271 106.507 134.998  1.00  0.00    -0.040 A 
ATOM      6  C   UNL     1     111.936 106.550 135.433  1.00  0.00     0.054 A 
ENDROOT
BRANCH   1   7
ATOM      7  O   UNL     1     110.050 105.474 136.595  1.00  0.00    -0.493 OA
ATOM      8  C   UNL     1     109.186 106.603 136.539  1.00  0.00     0.278 C 
ENDBRANCH   1   7
BRANCH   2   9
ATOM      9  O   UNL     1     111.623 103.263 137.103  1.00  0.00    -0.504 OA
ATOM     10  H   UNL     1     110.643 103.018 137.020  1.00  0.00     0.293 HD
ENDBRANCH   2   9
BRANCH   5  11
ATOM     11  C   UNL     1     113.855 107.654 134.215  1.00  0.00     0.062 C 
BRANCH  11  12
ATOM     12  C   UNL     1     115.354 107.549 134.156  1.00  0.00    -0.030 C 
ATOM     13  C   UNL     1     116.144 108.391 134.828  1.00  0.00     0.004 C 
ENDBRANCH  11  12
ENDBRANCH   5  11
TORSDOF 4
ENDMDL
MODEL 2
REMARK VINA RESULT:    -4.519      2.059      4.519
REMARK INTER + INTRA:          -5.675
REMARK INTER:                  -5.492
REMARK INTRA:                  -0.184
REMARK UNBOUND:                -0.232
REMARK SMILES C=CCc1ccc(O)c(OC)c1
REMARK SMILES IDX 9 1 7 2 6 3 5 4 4 5 12 6 10 7 11 8 8 9 3 11 2 12 1 13
REMARK H PARENT 8 10
REMARK Flexibility Score: inf
ROOT
ATOM      1  C   UNL     1     111.438 106.161 135.625  1.00  0.00     0.160 A 
ATOM      2  C   UNL     1     112.743 106.508 135.248  1.00  0.00     0.157 A 
ATOM      3  C   UNL     1     113.747 105.531 135.209  1.00  0.00     0.050 A 
ATOM      4  C   UNL     1     113.454 104.207 135.541  1.00  0.00     0.008 A 
ATOM      5  C   UNL     1     112.151 103.842 135.909  1.00  0.00    -0.040 A 
ATOM      6  C   UNL     1     111.147 104.824 135.957  1.00  0.00     0.054 A 
ENDROOT
BRANCH   1   7
ATOM      7  O   UNL     1     110.461 107.169 135.658  1.00  0.00    -0.493 OA
ATOM      8  C   UNL     1     109.062 106.932 135.771  1.00  0.00     0.278 C 
ENDBRANCH   1   7
BRANCH   2   9
ATOM      9  O   UNL     1     113.037 107.830 134.917  1.00  0.00    -0.504 OA
ATOM     10  H   UNL     1     113.989 108.178 134.916  1.00  0.00     0.293 HD
ENDBRANCH   2   9
BRANCH   5  11
ATOM     11  C   UNL     1     111.846 102.419 136.295  1.00  0.00     0.062 C 
BRANCH  11  12
ATOM     12  C   UNL     1     110.580 102.346 137.103  1.00  0.00    -0.030 C 
ATOM     13  C   UNL     1     110.268 101.265 137.824  1.00  0.00     0.004 C 
ENDBRANCH  11  12
ENDBRANCH   5  11
TORSDOF 4
ENDMDL
MODEL 3
REMARK VINA RESULT:    -4.303      2.472      5.606
REMARK INTER + INTRA:          -5.415
REMARK INTER:                  -5.246
REMARK INTRA:                  -0.169
REMARK UNBOUND:                -0.232
REMARK SMILES C=CCc1ccc(O)c(OC)c1
REMARK SMILES IDX 9 1 7 2 6 3 5 4 4 5 12 6 10 7 11 8 8 9 3 11 2 12 1 13
REMARK H PARENT 8 10
REMARK Flexibility Score: inf
ROOT
ATOM      1  C   UNL     1     111.688 105.322 135.436  1.00  0.00     0.160 A 
ATOM      2  C   UNL     1     111.348 106.643 135.758  1.00  0.00     0.157 A 
ATOM      3  C   UNL     1     110.107 106.927 136.344  1.00  0.00     0.050 A 
ATOM      4  C   UNL     1     109.204 105.897 136.614  1.00  0.00     0.008 A 
ATOM      5  C   UNL     1     109.533 104.569 136.308  1.00  0.00    -0.040 A 
ATOM      6  C   UNL     1     110.774 104.286 135.712  1.00  0.00     0.054 A 
ENDROOT
BRANCH   1   7
ATOM      7  O   UNL     1     112.938 105.078 134.845  1.00  0.00    -0.493 OA
ATOM      8  C   UNL     1     114.037 104.462 135.508  1.00  0.00     0.278 C 
ENDBRANCH   1   7
BRANCH   2   9
ATOM      9  O   UNL     1     112.249 107.672 135.490  1.00  0.00    -0.504 OA
ATOM     10  H   UNL     1     113.242 107.566 135.662  1.00  0.00     0.293 HD
ENDBRANCH   2   9
BRANCH   5  11
ATOM     11  C   UNL     1     108.544 103.465 136.573  1.00  0.00     0.062 C 
BRANCH  11  12
ATOM     12  C   UNL     1     107.683 103.221 135.365  1.00  0.00    -0.030 C 
ATOM     13  C   UNL     1     106.763 104.105 134.968  1.00  0.00     0.004 C 
ENDBRANCH  11  12
ENDBRANCH   5  11
TORSDOF 4
ENDMDL
MODEL 4
REMARK VINA RESULT:    -4.260      2.575      5.232
REMARK INTER + INTRA:          -5.363
REMARK INTER:                  -5.147
REMARK INTRA:                  -0.216
REMARK UNBOUND:                -0.232
REMARK SMILES C=CCc1ccc(O)c(OC)c1
REMARK SMILES IDX 9 1 7 2 6 3 5 4 4 5 12 6 10 7 11 8 8 9 3 11 2 12 1 13
REMARK H PARENT 8 10
REMARK Flexibility Score: inf
ROOT
ATOM      1  C   UNL     1     111.809 104.819 136.140  1.00  0.00     0.160 A 
ATOM      2  C   UNL     1     112.652 103.708 136.000  1.00  0.00     0.157 A 
ATOM      3  C   UNL     1     112.183 102.425 136.315  1.00  0.00     0.050 A 
ATOM      4  C   UNL     1     110.874 102.246 136.766  1.00  0.00     0.008 A 
ATOM      5  C   UNL     1     110.015 103.347 136.901  1.00  0.00    -0.040 A 
ATOM      6  C   UNL     1     110.489 104.633 136.594  1.00  0.00     0.054 A 
ENDROOT
BRANCH   1   7
ATOM      7  O   UNL     1     112.318 106.088 135.820  1.00  0.00    -0.493 OA
ATOM      8  C   UNL     1     111.516 107.238 135.568  1.00  0.00     0.278 C 
ENDBRANCH   1   7
BRANCH   2   9
ATOM      9  O   UNL     1     113.959 103.886 135.549  1.00  0.00    -0.504 OA
ATOM     10  H   UNL     1     114.429 104.781 135.624  1.00  0.00     0.293 HD
ENDBRANCH   2   9
BRANCH   5  11
ATOM     11  C   UNL     1     108.613 103.152 137.417  1.00  0.00     0.062 C 
BRANCH  11  12
ATOM     12  C   UNL     1     107.710 102.649 136.326  1.00  0.00    -0.030 C 
ATOM     13  C   UNL     1     107.361 103.420 135.291  1.00  0.00     0.004 C 
ENDBRANCH  11  12
ENDBRANCH   5  11
TORSDOF 4
ENDMDL
MODEL 5
REMARK VINA RESULT:    -4.239      2.155      5.160
REMARK INTER + INTRA:          -5.338
REMARK INTER:                  -5.070
REMARK INTRA:                  -0.268
REMARK UNBOUND:                -0.232
REMARK SMILES C=CCc1ccc(O)c(OC)c1
REMARK SMILES IDX 9 1 7 2 6 3 5 4 4 5 12 6 10 7 11 8 8 9 3 11 2 12 1 13
REMARK H PARENT 8 10
REMARK Flexibility Score: inf
ROOT
ATOM      1  C   UNL     1     111.784 104.308 135.607  1.00  0.00     0.160 A 
ATOM      2  C   UNL     1     111.856 103.149 136.392  1.00  0.00     0.157 A 
ATOM      3  C   UNL     1     110.754 102.753 137.163  1.00  0.00     0.050 A 
ATOM      4  C   UNL     1     109.580 103.507 137.152  1.00  0.00     0.008 A 
ATOM      5  C   UNL     1     109.489 104.663 136.363  1.00  0.00    -0.040 A 
ATOM      6  C   UNL     1     110.596 105.065 135.598  1.00  0.00     0.054 A 
ENDROOT
BRANCH   1   7
ATOM      7  O   UNL     1     112.910 104.675 134.853  1.00  0.00    -0.493 OA
ATOM      8  C   UNL     1     113.851 105.672 135.242  1.00  0.00     0.278 C 
ENDBRANCH   1   7
BRANCH   2   9
ATOM      9  O   UNL     1     113.028 102.395 136.404  1.00  0.00    -0.504 OA
ATOM     10  H   UNL     1     113.098 101.515 135.906  1.00  0.00     0.293 HD
ENDBRANCH   2   9
BRANCH   5  11
ATOM     11  C   UNL     1     108.230 105.490 136.377  1.00  0.00     0.062 C 
BRANCH  11  12
ATOM     12  C   UNL     1     107.463 105.314 135.096  1.00  0.00    -0.030 C 
ATOM     13  C   UNL     1     106.747 104.212 134.852  1.00  0.00     0.004 C 
ENDBRANCH  11  12
ENDBRANCH   5  11
TORSDOF 4
ENDMDL
MODEL 6
REMARK VINA RESULT:    -4.212      9.691     12.093
REMARK INTER + INTRA:          -5.305
REMARK INTER:                  -5.042
REMARK INTRA:                  -0.263
REMARK UNBOUND:                -0.232
REMARK SMILES C=CCc1ccc(O)c(OC)c1
REMARK SMILES IDX 9 1 7 2 6 3 5 4 4 5 12 6 10 7 11 8 8 9 3 11 2 12 1 13
REMARK H PARENT 8 10
REMARK Flexibility Score: inf
ROOT
ATOM      1  C   UNL     1     106.241 113.614 135.817  1.00  0.00     0.160 A 
ATOM      2  C   UNL     1     106.159 113.109 134.513  1.00  0.00     0.157 A 
ATOM      3  C   UNL     1     104.974 113.248 133.778  1.00  0.00     0.050 A 
ATOM      4  C   UNL     1     103.870 113.894 134.339  1.00  0.00     0.008 A 
ATOM      5  C   UNL     1     103.941 114.415 135.638  1.00  0.00    -0.040 A 
ATOM      6  C   UNL     1     105.126 114.266 136.378  1.00  0.00     0.054 A 
ENDROOT
BRANCH   1   7
ATOM      7  O   UNL     1     107.444 113.450 136.523  1.00  0.00    -0.493 OA
ATOM      8  C   UNL     1     108.459 114.442 136.629  1.00  0.00     0.278 C 
ENDBRANCH   1   7
BRANCH   2   9
ATOM      9  O   UNL     1     107.261 112.464 133.952  1.00  0.00    -0.504 OA
ATOM     10  H   UNL     1     107.159 111.606 133.421  1.00  0.00     0.293 HD
ENDBRANCH   2   9
BRANCH   5  11
ATOM     11  C   UNL     1     102.738 115.084 136.250  1.00  0.00     0.062 C 
BRANCH  11  12
ATOM     12  C   UNL     1     101.907 115.755 135.193  1.00  0.00    -0.030 C 
ATOM     13  C   UNL     1     101.986 117.070 134.966  1.00  0.00     0.004 C 
ENDBRANCH  11  12
ENDBRANCH   5  11
TORSDOF 4
ENDMDL
MODEL 7
REMARK VINA RESULT:    -4.171      2.572      3.633
REMARK INTER + INTRA:          -5.256
REMARK INTER:                  -5.005
REMARK INTRA:                  -0.251
REMARK UNBOUND:                -0.232
REMARK SMILES C=CCc1ccc(O)c(OC)c1
REMARK SMILES IDX 9 1 7 2 6 3 5 4 4 5 12 6 10 7 11 8 8 9 3 11 2 12 1 13
REMARK H PARENT 8 10
REMARK Flexibility Score: inf
ROOT
ATOM      1  C   UNL     1     108.916 103.758 136.328  1.00  0.00     0.160 A 
ATOM      2  C   UNL     1     109.147 102.765 137.290  1.00  0.00     0.157 A 
ATOM      3  C   UNL     1     110.389 102.118 137.349  1.00  0.00     0.050 A 
ATOM      4  C   UNL     1     111.405 102.462 136.454  1.00  0.00     0.008 A 
ATOM      5  C   UNL     1     111.193 103.461 135.494  1.00  0.00    -0.040 A 
ATOM      6  C   UNL     1     109.944 104.102 135.429  1.00  0.00     0.054 A 
ENDROOT
BRANCH   1   7
ATOM      7  O   UNL     1     107.657 104.379 136.296  1.00  0.00    -0.493 OA
ATOM      8  C   UNL     1     106.733 104.271 135.219  1.00  0.00     0.278 C 
ENDBRANCH   1   7
BRANCH   2   9
ATOM      9  O   UNL     1     108.133 102.421 138.183  1.00  0.00    -0.504 OA
ATOM     10  H   UNL     1     108.278 101.727 138.908  1.00  0.00     0.293 HD
ENDBRANCH   2   9
BRANCH   5  11
ATOM     11  C   UNL     1     112.281 103.807 134.512  1.00  0.00     0.062 C 
BRANCH  11  12
ATOM     12  C   UNL     1     113.503 104.313 135.227  1.00  0.00    -0.030 C 
ATOM     13  C   UNL     1     113.817 105.612 135.247  1.00  0.00     0.004 C 
ENDBRANCH  11  12
ENDBRANCH   5  11
TORSDOF 4
ENDMDL
MODEL 8
REMARK VINA RESULT:    -4.154      9.952     11.185
REMARK INTER + INTRA:          -5.236
REMARK INTER:                  -5.008
REMARK INTRA:                  -0.228
REMARK UNBOUND:                -0.232
REMARK SMILES C=CCc1ccc(O)c(OC)c1
REMARK SMILES IDX 9 1 7 2 6 3 5 4 4 5 12 6 10 7 11 8 8 9 3 11 2 12 1 13
REMARK H PARENT 8 10
REMARK Flexibility Score: inf
ROOT
ATOM      1  C   UNL     1     106.953 115.157 138.475  1.00  0.00     0.160 A 
ATOM      2  C   UNL     1     108.273 114.934 138.057  1.00  0.00     0.157 A 
ATOM      3  C   UNL     1     108.527 114.365 136.802  1.00  0.00     0.050 A 
ATOM      4  C   UNL     1     107.469 114.019 135.959  1.00  0.00     0.008 A 
ATOM      5  C   UNL     1     106.144 114.245 136.358  1.00  0.00    -0.040 A 
ATOM      6  C   UNL     1     105.889 114.807 137.620  1.00  0.00     0.054 A 
ENDROOT
BRANCH   1   7
ATOM      7  O   UNL     1     106.739 115.723 139.741  1.00  0.00    -0.493 OA
ATOM      8  C   UNL     1     105.650 116.581 140.067  1.00  0.00     0.278 C 
ENDBRANCH   1   7
BRANCH   2   9
ATOM      9  O   UNL     1     109.330 115.280 138.898  1.00  0.00    -0.504 OA
ATOM     10  H   UNL     1     109.170 115.704 139.805  1.00  0.00     0.293 HD
ENDBRANCH   2   9
BRANCH   5  11
ATOM     11  C   UNL     1     105.005 113.842 135.458  1.00  0.00     0.062 C 
BRANCH  11  12
ATOM     12  C   UNL     1     105.523 113.268 134.169  1.00  0.00    -0.030 C 
ATOM     13  C   UNL     1     105.219 112.026 133.781  1.00  0.00     0.004 C 
ENDBRANCH  11  12
ENDBRANCH   5  11
TORSDOF 4
ENDMDL
MODEL 9
REMARK VINA RESULT:    -4.065      2.918      4.762
REMARK INTER + INTRA:          -5.128
REMARK INTER:                  -4.895
REMARK INTRA:                  -0.233
REMARK UNBOUND:                -0.232
REMARK SMILES C=CCc1ccc(O)c(OC)c1
REMARK SMILES IDX 9 1 7 2 6 3 5 4 4 5 12 6 10 7 11 8 8 9 3 11 2 12 1 13
REMARK H PARENT 8 10
REMARK Flexibility Score: inf
ROOT
ATOM      1  C   UNL     1     108.080 103.585 136.069  1.00  0.00     0.160 A 
ATOM      2  C   UNL     1     107.490 104.503 135.189  1.00  0.00     0.157 A 
ATOM      3  C   UNL     1     108.087 105.752 134.972  1.00  0.00     0.050 A 
ATOM      4  C   UNL     1     109.273 106.089 135.628  1.00  0.00     0.008 A 
ATOM      5  C   UNL     1     109.881 105.177 136.503  1.00  0.00    -0.040 A 
ATOM      6  C   UNL     1     109.277 103.929 136.727  1.00  0.00     0.054 A 
ENDROOT
BRANCH   1   7
ATOM      7  O   UNL     1     107.448 102.346 136.265  1.00  0.00    -0.493 OA
ATOM      8  C   UNL     1     107.350 101.681 137.520  1.00  0.00     0.278 C 
ENDBRANCH   1   7
BRANCH   2   9
ATOM      9  O   UNL     1     106.306 104.168 134.534  1.00  0.00    -0.504 OA
ATOM     10  H   UNL     1     105.637 103.526 134.943  1.00  0.00     0.293 HD
ENDBRANCH   2   9
BRANCH   5  11
ATOM     11  C   UNL     1     111.144 105.556 137.231  1.00  0.00     0.062 C 
BRANCH  11  12
ATOM     12  C   UNL     1     112.286 104.675 136.808  1.00  0.00    -0.030 C 
ATOM     13  C   UNL     1     113.177 105.071 135.893  1.00  0.00     0.004 C 
ENDBRANCH  11  12
ENDBRANCH   5  11
TORSDOF 4
ENDMDL
