MODEL 1
REMARK VINA RESULT:    -3.862      0.000      0.000
REMARK INTER + INTRA:          -4.250
REMARK INTER:                  -4.088
REMARK INTRA:                  -0.162
REMARK UNBOUND:                -0.162
REMARK SMILES CC1=CC[C@H](C(C)C)C=C1
REMARK SMILES IDX 1 1 2 2 3 3 4 4 5 5 9 6 10 7 6 8 7 9 8 10
REMARK H PARENT
REMARK Flexibility Score: inf
ROOT
ATOM      1  C   UNL     1       3.671   4.875  12.010  1.00  0.00     0.044 C 
ATOM      2  C   UNL     1       4.745   5.790  12.518  1.00  0.00    -0.055 C 
ATOM      3  C   UNL     1       5.853   5.284  13.085  1.00  0.00    -0.023 C 
ATOM      4  C   UNL     1       6.903   6.198  13.660  1.00  0.00     0.035 C 
ATOM      5  C   UNL     1       7.046   7.477  12.801  1.00  0.00     0.018 C 
ATOM      6  C   UNL     1       5.679   8.057  12.492  1.00  0.00    -0.023 C 
ATOM      7  C   UNL     1       4.626   7.252  12.311  1.00  0.00    -0.001 C 
ENDROOT
BRANCH   5   8
ATOM      8  C   UNL     1       8.029   8.504  13.438  1.00  0.00    -0.010 C 
ATOM      9  C   UNL     1       9.508   8.222  13.122  1.00  0.00     0.008 C 
ATOM     10  C   UNL     1       7.823   8.606  14.957  1.00  0.00     0.008 C 
ENDBRANCH   5   8
TORSDOF 1
ENDMDL
MODEL 2
REMARK VINA RESULT:    -3.111      1.067      4.422
REMARK INTER + INTRA:          -3.455
REMARK INTER:                  -3.304
REMARK INTRA:                  -0.150
REMARK UNBOUND:                -0.162
REMARK SMILES CC1=CC[C@H](C(C)C)C=C1
REMARK SMILES IDX 1 1 2 2 3 3 4 4 5 5 9 6 10 7 6 8 7 9 8 10
REMARK H PARENT
REMARK Flexibility Score: inf
ROOT
ATOM      1  C   UNL     1       9.888   8.251  13.874  1.00  0.00     0.044 C 
ATOM      2  C   UNL     1       8.494   7.902  13.445  1.00  0.00    -0.055 C 
ATOM      3  C   UNL     1       8.218   7.692  12.147  1.00  0.00    -0.023 C 
ATOM      4  C   UNL     1       6.807   7.412  11.702  1.00  0.00     0.035 C 
ATOM      5  C   UNL     1       6.062   6.553  12.750  1.00  0.00     0.018 C 
ATOM      6  C   UNL     1       6.278   7.118  14.141  1.00  0.00    -0.023 C 
ATOM      7  C   UNL     1       7.439   7.699  14.464  1.00  0.00    -0.001 C 
ENDROOT
BRANCH   5   8
ATOM      8  C   UNL     1       4.561   6.353  12.385  1.00  0.00    -0.010 C 
ATOM      9  C   UNL     1       3.609   7.291  13.148  1.00  0.00     0.008 C 
ATOM     10  C   UNL     1       4.129   4.891  12.580  1.00  0.00     0.008 C 
ENDBRANCH   5   8
TORSDOF 1
ENDMDL
MODEL 3
REMARK VINA RESULT:    -2.894      1.106      4.408
REMARK INTER + INTRA:          -3.225
REMARK INTER:                  -3.050
REMARK INTRA:                  -0.175
REMARK UNBOUND:                -0.162
REMARK SMILES CC1=CC[C@H](C(C)C)C=C1
REMARK SMILES IDX 1 1 2 2 3 3 4 4 5 5 9 6 10 7 6 8 7 9 8 10
REMARK H PARENT
REMARK Flexibility Score: inf
ROOT
ATOM      1  C   UNL     1       9.959   8.608  13.859  1.00  0.00     0.044 C 
ATOM      2  C   UNL     1       8.649   7.926  13.597  1.00  0.00    -0.055 C 
ATOM      3  C   UNL     1       7.606   8.124  14.418  1.00  0.00    -0.023 C 
ATOM      4  C   UNL     1       6.310   7.388  14.200  1.00  0.00     0.035 C 
ATOM      5  C   UNL     1       6.023   7.221  12.689  1.00  0.00     0.018 C 
ATOM      6  C   UNL     1       7.263   6.723  11.971  1.00  0.00    -0.023 C 
ATOM      7  C   UNL     1       8.479   7.103  12.376  1.00  0.00    -0.001 C 
ENDROOT
BRANCH   5   8
ATOM      8  C   UNL     1       4.758   6.350  12.425  1.00  0.00    -0.010 C 
ATOM      9  C   UNL     1       3.498   6.854  13.150  1.00  0.00     0.008 C 
ATOM     10  C   UNL     1       5.013   4.875  12.773  1.00  0.00     0.008 C 
ENDBRANCH   5   8
TORSDOF 1
ENDMDL
