MODEL 1
REMARK VINA RESULT:    -3.706      0.000      0.000
REMARK INTER + INTRA:          -4.518
REMARK INTER:                  -4.465
REMARK INTRA:                  -0.053
REMARK UNBOUND:                -0.053
REMARK SMILES CCCCCO
REMARK SMILES IDX 4 1 3 2 2 3 1 4 5 5 6 6
REMARK H PARENT 6 7
REMARK Flexibility Score: inf
ROOT
ATOM      1  C   UNL     1       7.461  26.696  18.026  1.00  0.00     0.028 C 
ENDROOT
BRANCH   1   2
ATOM      2  C   UNL     1       8.967  26.997  17.995  1.00  0.00     0.002 C 
BRANCH   2   3
ATOM      3  C   UNL     1       9.366  28.117  18.966  1.00  0.00    -0.003 C 
ATOM      4  C   UNL     1       8.503  28.087  20.225  1.00  0.00     0.004 C 
ENDBRANCH   2   3
ENDBRANCH   1   2
BRANCH   1   5
ATOM      5  C   UNL     1       6.787  26.903  16.665  1.00  0.00     0.156 C 
BRANCH   5   6
ATOM      6  O   UNL     1       7.749  26.902  15.646  1.00  0.00    -0.396 OA
ATOM      7  H   UNL     1       8.586  27.260  16.044  1.00  0.00     0.210 HD
ENDBRANCH   5   6
ENDBRANCH   1   5
TORSDOF 4
ENDMDL
MODEL 2
REMARK VINA RESULT:    -3.626      2.207      3.419
REMARK INTER + INTRA:          -4.421
REMARK INTER:                  -4.380
REMARK INTRA:                  -0.041
REMARK UNBOUND:                -0.053
REMARK SMILES CCCCCO
REMARK SMILES IDX 4 1 3 2 2 3 1 4 5 5 6 6
REMARK H PARENT 6 7
REMARK Flexibility Score: inf
ROOT
ATOM      1  C   UNL     1       8.022  27.360  18.914  1.00  0.00     0.028 C 
ENDROOT
BRANCH   1   2
ATOM      2  C   UNL     1       8.935  26.952  17.748  1.00  0.00     0.002 C 
BRANCH   2   3
ATOM      3  C   UNL     1       8.404  27.423  16.388  1.00  0.00    -0.003 C 
ATOM      4  C   UNL     1       6.928  27.070  16.221  1.00  0.00     0.004 C 
ENDBRANCH   2   3
ENDBRANCH   1   2
BRANCH   1   5
ATOM      5  C   UNL     1       8.770  28.117  20.017  1.00  0.00     0.156 C 
BRANCH   5   6
ATOM      6  O   UNL     1      10.152  28.051  19.794  1.00  0.00    -0.396 OA
ATOM      7  H   UNL     1      10.343  27.139  19.449  1.00  0.00     0.210 HD
ENDBRANCH   5   6
ENDBRANCH   1   5
TORSDOF 4
ENDMDL
MODEL 3
REMARK VINA RESULT:    -3.215     20.161     21.351
REMARK INTER + INTRA:          -3.926
REMARK INTER:                  -3.917
REMARK INTRA:                  -0.009
REMARK UNBOUND:                -0.053
REMARK SMILES CCCCCO
REMARK SMILES IDX 4 1 3 2 2 3 1 4 5 5 6 6
REMARK H PARENT 6 7
REMARK Flexibility Score: inf
ROOT
ATOM      1  C   UNL     1      -6.135  13.043  17.128  1.00  0.00     0.028 C 
ENDROOT
BRANCH   1   2
ATOM      2  C   UNL     1      -6.855  11.727  17.463  1.00  0.00     0.002 C 
BRANCH   2   3
ATOM      3  C   UNL     1      -8.124  11.944  18.298  1.00  0.00    -0.003 C 
ATOM      4  C   UNL     1      -8.981  10.680  18.336  1.00  0.00     0.004 C 
ENDBRANCH   2   3
ENDBRANCH   1   2
BRANCH   1   5
ATOM      5  C   UNL     1      -5.901  13.224  15.624  1.00  0.00     0.156 C 
BRANCH   5   6
ATOM      6  O   UNL     1      -4.592  12.849  15.292  1.00  0.00    -0.396 OA
ATOM      7  H   UNL     1      -4.071  12.852  16.138  1.00  0.00     0.210 HD
ENDBRANCH   5   6
ENDBRANCH   1   5
TORSDOF 4
ENDMDL
MODEL 4
REMARK VINA RESULT:    -3.202     20.090     21.346
REMARK INTER + INTRA:          -3.911
REMARK INTER:                  -3.842
REMARK INTRA:                  -0.069
REMARK UNBOUND:                -0.053
REMARK SMILES CCCCCO
REMARK SMILES IDX 4 1 3 2 2 3 1 4 5 5 6 6
REMARK H PARENT 6 7
REMARK Flexibility Score: inf
ROOT
ATOM      1  C   UNL     1      -6.085  13.022  17.139  1.00  0.00     0.028 C 
ENDROOT
BRANCH   1   2
ATOM      2  C   UNL     1      -7.073  11.907  17.513  1.00  0.00     0.002 C 
BRANCH   2   3
ATOM      3  C   UNL     1      -6.636  10.531  16.992  1.00  0.00    -0.003 C 
ATOM      4  C   UNL     1      -7.680   9.944  16.045  1.00  0.00     0.004 C 
ENDBRANCH   2   3
ENDBRANCH   1   2
BRANCH   1   5
ATOM      5  C   UNL     1      -5.909  13.176  15.624  1.00  0.00     0.156 C 
BRANCH   5   6
ATOM      6  O   UNL     1      -4.588  12.882  15.259  1.00  0.00    -0.396 OA
ATOM      7  H   UNL     1      -4.341  13.522  14.541  1.00  0.00     0.210 HD
ENDBRANCH   5   6
ENDBRANCH   1   5
TORSDOF 4
ENDMDL
MODEL 5
REMARK VINA RESULT:    -3.174     12.058     13.024
REMARK INTER + INTRA:          -3.876
REMARK INTER:                  -3.867
REMARK INTRA:                  -0.010
REMARK UNBOUND:                -0.053
REMARK SMILES CCCCCO
REMARK SMILES IDX 4 1 3 2 2 3 1 4 5 5 6 6
REMARK H PARENT 6 7
REMARK Flexibility Score: inf
ROOT
ATOM      1  C   UNL     1       2.878  16.872  20.269  1.00  0.00     0.028 C 
ENDROOT
BRANCH   1   2
ATOM      2  C   UNL     1       1.688  15.975  20.642  1.00  0.00     0.002 C 
BRANCH   2   3
ATOM      3  C   UNL     1       1.203  15.117  19.465  1.00  0.00    -0.003 C 
ATOM      4  C   UNL     1       1.491  13.637  19.706  1.00  0.00     0.004 C 
ENDBRANCH   2   3
ENDBRANCH   1   2
BRANCH   1   5
ATOM      5  C   UNL     1       3.199  17.910  21.350  1.00  0.00     0.156 C 
BRANCH   5   6
ATOM      6  O   UNL     1       3.921  18.977  20.794  1.00  0.00    -0.396 OA
ATOM      7  H   UNL     1       4.265  18.662  19.917  1.00  0.00     0.210 HD
ENDBRANCH   5   6
ENDBRANCH   1   5
TORSDOF 4
ENDMDL
MODEL 6
REMARK VINA RESULT:    -3.163     19.749     20.282
REMARK INTER + INTRA:          -3.863
REMARK INTER:                  -3.829
REMARK INTRA:                  -0.034
REMARK UNBOUND:                -0.053
REMARK SMILES CCCCCO
REMARK SMILES IDX 4 1 3 2 2 3 1 4 5 5 6 6
REMARK H PARENT 6 7
REMARK Flexibility Score: inf
ROOT
ATOM      1  C   UNL     1      -4.607  12.368  17.484  1.00  0.00     0.028 C 
ENDROOT
BRANCH   1   2
ATOM      2  C   UNL     1      -5.941  12.882  16.919  1.00  0.00     0.002 C 
BRANCH   2   3
ATOM      3  C   UNL     1      -5.996  12.820  15.386  1.00  0.00    -0.003 C 
ATOM      4  C   UNL     1      -6.040  14.221  14.781  1.00  0.00     0.004 C 
ENDBRANCH   2   3
ENDBRANCH   1   2
BRANCH   1   5
ATOM      5  C   UNL     1      -4.487  10.841  17.426  1.00  0.00     0.156 C 
BRANCH   5   6
ATOM      6  O   UNL     1      -3.256  10.476  16.863  1.00  0.00    -0.396 OA
ATOM      7  H   UNL     1      -2.890  11.289  16.427  1.00  0.00     0.210 HD
ENDBRANCH   5   6
ENDBRANCH   1   5
TORSDOF 4
ENDMDL
MODEL 7
REMARK VINA RESULT:    -3.144     19.513     20.041
REMARK INTER + INTRA:          -3.841
REMARK INTER:                  -3.801
REMARK INTRA:                  -0.040
REMARK UNBOUND:                -0.053
REMARK SMILES CCCCCO
REMARK SMILES IDX 4 1 3 2 2 3 1 4 5 5 6 6
REMARK H PARENT 6 7
REMARK Flexibility Score: inf
ROOT
ATOM      1  C   UNL     1      -5.531  11.707  17.415  1.00  0.00     0.028 C 
ENDROOT
BRANCH   1   2
ATOM      2  C   UNL     1      -6.043  13.006  16.773  1.00  0.00     0.002 C 
BRANCH   2   3
ATOM      3  C   UNL     1      -5.927  12.995  15.243  1.00  0.00    -0.003 C 
ATOM      4  C   UNL     1      -6.120  14.396  14.666  1.00  0.00     0.004 C 
ENDBRANCH   2   3
ENDBRANCH   1   2
BRANCH   1   5
ATOM      5  C   UNL     1      -4.001  11.613  17.423  1.00  0.00     0.156 C 
BRANCH   5   6
ATOM      6  O   UNL     1      -3.457  12.677  18.154  1.00  0.00    -0.396 OA
ATOM      7  H   UNL     1      -4.222  13.168  18.556  1.00  0.00     0.210 HD
ENDBRANCH   5   6
ENDBRANCH   1   5
TORSDOF 4
ENDMDL
MODEL 8
REMARK VINA RESULT:    -3.106     15.050     15.841
REMARK INTER + INTRA:          -3.795
REMARK INTER:                  -3.785
REMARK INTRA:                  -0.010
REMARK UNBOUND:                -0.053
REMARK SMILES CCCCCO
REMARK SMILES IDX 4 1 3 2 2 3 1 4 5 5 6 6
REMARK H PARENT 6 7
REMARK Flexibility Score: inf
ROOT
ATOM      1  C   UNL     1       1.303  13.547  19.486  1.00  0.00     0.028 C 
ENDROOT
BRANCH   1   2
ATOM      2  C   UNL     1       2.218  12.875  20.522  1.00  0.00     0.002 C 
BRANCH   2   3
ATOM      3  C   UNL     1       2.257  11.347  20.373  1.00  0.00    -0.003 C 
ATOM      4  C   UNL     1       3.650  10.870  19.969  1.00  0.00     0.004 C 
ENDBRANCH   2   3
ENDBRANCH   1   2
BRANCH   1   5
ATOM      5  C   UNL     1       1.143  15.052  19.724  1.00  0.00     0.156 C 
BRANCH   5   6
ATOM      6  O   UNL     1      -0.124  15.475  19.299  1.00  0.00    -0.396 OA
ATOM      7  H   UNL     1       0.025  16.164  18.598  1.00  0.00     0.210 HD
ENDBRANCH   5   6
ENDBRANCH   1   5
TORSDOF 4
ENDMDL
MODEL 9
REMARK VINA RESULT:    -3.059      1.991      2.682
REMARK INTER + INTRA:          -3.737
REMARK INTER:                  -3.840
REMARK INTRA:                   0.102
REMARK UNBOUND:                -0.053
REMARK SMILES CCCCCO
REMARK SMILES IDX 4 1 3 2 2 3 1 4 5 5 6 6
REMARK H PARENT 6 7
REMARK Flexibility Score: inf
ROOT
ATOM      1  C   UNL     1       7.727  27.291  19.334  1.00  0.00     0.028 C 
ENDROOT
BRANCH   1   2
ATOM      2  C   UNL     1       8.925  27.836  18.540  1.00  0.00     0.002 C 
BRANCH   2   3
ATOM      3  C   UNL     1       9.046  27.204  17.147  1.00  0.00    -0.003 C 
ATOM      4  C   UNL     1       8.469  28.124  16.073  1.00  0.00     0.004 C 
ENDBRANCH   2   3
ENDBRANCH   1   2
BRANCH   1   5
ATOM      5  C   UNL     1       6.755  26.487  18.464  1.00  0.00     0.156 C 
BRANCH   5   6
ATOM      6  O   UNL     1       6.640  25.178  18.952  1.00  0.00    -0.396 OA
ATOM      7  H   UNL     1       7.512  24.734  18.786  1.00  0.00     0.210 HD
ENDBRANCH   5   6
ENDBRANCH   1   5
TORSDOF 4
ENDMDL
