MODEL 1
REMARK VINA RESULT:    -4.336      0.000      0.000
REMARK INTER + INTRA:          -7.374
REMARK INTER:                  -6.871
REMARK INTRA:                  -0.503
REMARK UNBOUND:                -0.503
REMARK SMILES CCCCCCCCCCCC(=O)[O-]
REMARK SMILES IDX 7 1 8 2 9 3 10 4 11 5 12 6 13 7 14 8 6 9 5 10 4 11 3 12 2 13
REMARK SMILES IDX 1 14
REMARK H PARENT
REMARK Flexibility Score: inf
ROOT
ATOM      1  C   UNL     1       1.629   1.792   6.833  1.00  0.00     0.000 C 
ENDROOT
BRANCH   1   2
ATOM      2  C   UNL     1       1.103   2.375   8.154  1.00  0.00     0.000 C 
BRANCH   2   3
ATOM      3  C   UNL     1       0.373   3.717   7.962  1.00  0.00     0.000 C 
BRANCH   3   4
ATOM      4  C   UNL     1       0.667   4.358   6.597  1.00  0.00     0.006 C 
BRANCH   4   5
ATOM      5  C   UNL     1      -0.071   5.689   6.401  1.00  0.00     0.053 C 
BRANCH   5   6
ATOM      6  C   UNL     1      -0.421   5.885   4.959  1.00  0.00     0.041 C 
ATOM      7  O   UNL     1       0.053   5.117   4.082  1.00  0.00    -0.550 OA
ATOM      8  O   UNL     1      -1.311   6.886   4.589  1.00  0.00    -0.550 OA
ENDBRANCH   5   6
ENDBRANCH   4   5
ENDBRANCH   3   4
ENDBRANCH   2   3
ENDBRANCH   1   2
BRANCH   1   9
ATOM      9  C   UNL     1       1.698   0.254   6.853  1.00  0.00     0.000 C 
BRANCH   9  10
ATOM     10  C   UNL     1       1.093  -0.378   5.589  1.00  0.00    -0.000 C 
BRANCH  10  11
ATOM     11  C   UNL     1       1.548  -1.832   5.376  1.00  0.00    -0.000 C 
BRANCH  11  12
ATOM     12  C   UNL     1       3.067  -1.955   5.157  1.00  0.00    -0.000 C 
BRANCH  12  13
ATOM     13  C   UNL     1       3.840  -2.571   6.337  1.00  0.00    -0.003 C 
ATOM     14  C   UNL     1       3.001  -3.553   7.155  1.00  0.00     0.004 C 
ENDBRANCH  12  13
ENDBRANCH  11  12
ENDBRANCH  10  11
ENDBRANCH   9  10
ENDBRANCH   1   9
TORSDOF 10
ENDMDL
MODEL 2
REMARK VINA RESULT:    -4.095      5.183      7.523
REMARK INTER + INTRA:          -6.992
REMARK INTER:                  -6.256
REMARK INTRA:                  -0.735
REMARK UNBOUND:                -0.503
REMARK SMILES CCCCCCCCCCCC(=O)[O-]
REMARK SMILES IDX 7 1 8 2 9 3 10 4 11 5 12 6 13 7 14 8 6 9 5 10 4 11 3 12 2 13
REMARK SMILES IDX 1 14
REMARK H PARENT
REMARK Flexibility Score: inf
ROOT
ATOM      1  C   UNL     1      -1.703  -3.594   4.804  1.00  0.00     0.000 C 
ENDROOT
BRANCH   1   2
ATOM      2  C   UNL     1      -1.704  -2.875   6.163  1.00  0.00     0.000 C 
BRANCH   2   3
ATOM      3  C   UNL     1      -0.317  -2.329   6.547  1.00  0.00     0.000 C 
BRANCH   3   4
ATOM      4  C   UNL     1       0.522  -1.935   5.322  1.00  0.00     0.006 C 
BRANCH   4   5
ATOM      5  C   UNL     1       1.686  -1.002   5.681  1.00  0.00     0.053 C 
BRANCH   5   6
ATOM      6  C   UNL     1       2.993  -1.715   5.531  1.00  0.00     0.041 C 
ATOM      7  O   UNL     1       3.287  -2.279   4.445  1.00  0.00    -0.550 OA
ATOM      8  O   UNL     1       3.908  -1.716   6.577  1.00  0.00    -0.550 OA
ENDBRANCH   5   6
ENDBRANCH   4   5
ENDBRANCH   3   4
ENDBRANCH   2   3
ENDBRANCH   1   2
BRANCH   1   9
ATOM      9  C   UNL     1      -2.735  -3.006   3.825  1.00  0.00     0.000 C 
BRANCH   9  10
ATOM     10  C   UNL     1      -2.916  -1.490   4.000  1.00  0.00    -0.000 C 
BRANCH  10  11
ATOM     11  C   UNL     1      -4.395  -1.073   4.073  1.00  0.00    -0.000 C 
BRANCH  11  12
ATOM     12  C   UNL     1      -5.077  -1.522   5.378  1.00  0.00    -0.000 C 
BRANCH  12  13
ATOM     13  C   UNL     1      -5.534  -0.373   6.294  1.00  0.00    -0.003 C 
ATOM     14  C   UNL     1      -5.699  -0.799   7.753  1.00  0.00     0.004 C 
ENDBRANCH  12  13
ENDBRANCH  11  12
ENDBRANCH  10  11
ENDBRANCH   9  10
ENDBRANCH   1   9
TORSDOF 10
ENDMDL
MODEL 3
REMARK VINA RESULT:    -4.081      8.006     10.592
REMARK INTER + INTRA:          -6.969
REMARK INTER:                  -6.607
REMARK INTRA:                  -0.362
REMARK UNBOUND:                -0.503
REMARK SMILES CCCCCCCCCCCC(=O)[O-]
REMARK SMILES IDX 7 1 8 2 9 3 10 4 11 5 12 6 13 7 14 8 6 9 5 10 4 11 3 12 2 13
REMARK SMILES IDX 1 14
REMARK H PARENT
REMARK Flexibility Score: inf
ROOT
ATOM      1  C   UNL     1      -3.276  -4.854   1.670  1.00  0.00     0.000 C 
ENDROOT
BRANCH   1   2
ATOM      2  C   UNL     1      -2.405  -5.140   0.437  1.00  0.00     0.000 C 
BRANCH   2   3
ATOM      3  C   UNL     1      -3.224  -5.217  -0.864  1.00  0.00     0.000 C 
BRANCH   3   4
ATOM      4  C   UNL     1      -2.409  -4.805  -2.100  1.00  0.00     0.006 C 
BRANCH   4   5
ATOM      5  C   UNL     1      -1.114  -4.069  -1.732  1.00  0.00     0.053 C 
BRANCH   5   6
ATOM      6  C   UNL     1       0.015  -4.537  -2.595  1.00  0.00     0.041 C 
ATOM      7  O   UNL     1      -0.048  -4.414  -3.846  1.00  0.00    -0.550 OA
ATOM      8  O   UNL     1       1.161  -5.066  -2.013  1.00  0.00    -0.550 OA
ENDBRANCH   5   6
ENDBRANCH   4   5
ENDBRANCH   3   4
ENDBRANCH   2   3
ENDBRANCH   1   2
BRANCH   1   9
ATOM      9  C   UNL     1      -2.639  -3.822   2.617  1.00  0.00     0.000 C 
BRANCH   9  10
ATOM     10  C   UNL     1      -3.687  -3.026   3.411  1.00  0.00    -0.000 C 
BRANCH  10  11
ATOM     11  C   UNL     1      -3.184  -1.634   3.830  1.00  0.00    -0.000 C 
BRANCH  11  12
ATOM     12  C   UNL     1      -4.290  -0.762   4.452  1.00  0.00    -0.000 C 
BRANCH  12  13
ATOM     13  C   UNL     1      -4.922  -1.340   5.731  1.00  0.00    -0.003 C 
ATOM     14  C   UNL     1      -5.631  -0.283   6.578  1.00  0.00     0.004 C 
ENDBRANCH  12  13
ENDBRANCH  11  12
ENDBRANCH  10  11
ENDBRANCH   9  10
ENDBRANCH   1   9
TORSDOF 10
ENDMDL
MODEL 4
REMARK VINA RESULT:    -4.080      5.320      6.644
REMARK INTER + INTRA:          -6.968
REMARK INTER:                  -6.121
REMARK INTRA:                  -0.847
REMARK UNBOUND:                -0.503
REMARK SMILES CCCCCCCCCCCC(=O)[O-]
REMARK SMILES IDX 7 1 8 2 9 3 10 4 11 5 12 6 13 7 14 8 6 9 5 10 4 11 3 12 2 13
REMARK SMILES IDX 1 14
REMARK H PARENT
REMARK Flexibility Score: inf
ROOT
ATOM      1  C   UNL     1      -1.811  -3.696   4.778  1.00  0.00     0.000 C 
ENDROOT
BRANCH   1   2
ATOM      2  C   UNL     1      -2.427  -2.966   3.574  1.00  0.00     0.000 C 
BRANCH   2   3
ATOM      3  C   UNL     1      -2.749  -1.491   3.875  1.00  0.00     0.000 C 
BRANCH   3   4
ATOM      4  C   UNL     1      -4.260  -1.223   3.965  1.00  0.00     0.006 C 
BRANCH   4   5
ATOM      5  C   UNL     1      -4.697  -0.785   5.369  1.00  0.00     0.053 C 
BRANCH   5   6
ATOM      6  C   UNL     1      -5.595  -1.813   5.981  1.00  0.00     0.041 C 
ATOM      7  O   UNL     1      -5.140  -2.941   6.306  1.00  0.00    -0.550 OA
ATOM      8  O   UNL     1      -6.927  -1.509   6.238  1.00  0.00    -0.550 OA
ENDBRANCH   5   6
ENDBRANCH   4   5
ENDBRANCH   3   4
ENDBRANCH   2   3
ENDBRANCH   1   2
BRANCH   1   9
ATOM      9  C   UNL     1      -1.585  -2.763   5.981  1.00  0.00     0.000 C 
BRANCH   9  10
ATOM     10  C   UNL     1      -0.098  -2.620   6.344  1.00  0.00    -0.000 C 
BRANCH  10  11
ATOM     11  C   UNL     1       0.697  -1.831   5.289  1.00  0.00    -0.000 C 
BRANCH  11  12
ATOM     12  C   UNL     1       1.784  -0.934   5.910  1.00  0.00    -0.000 C 
BRANCH  12  13
ATOM     13  C   UNL     1       3.216  -1.484   5.794  1.00  0.00    -0.003 C 
ATOM     14  C   UNL     1       3.375  -2.505   4.667  1.00  0.00     0.004 C 
ENDBRANCH  12  13
ENDBRANCH  11  12
ENDBRANCH  10  11
ENDBRANCH   9  10
ENDBRANCH   1   9
TORSDOF 10
ENDMDL
MODEL 5
REMARK VINA RESULT:    -4.070      5.323      7.082
REMARK INTER + INTRA:          -6.952
REMARK INTER:                  -5.851
REMARK INTRA:                  -1.101
REMARK UNBOUND:                -0.503
REMARK SMILES CCCCCCCCCCCC(=O)[O-]
REMARK SMILES IDX 7 1 8 2 9 3 10 4 11 5 12 6 13 7 14 8 6 9 5 10 4 11 3 12 2 13
REMARK SMILES IDX 1 14
REMARK H PARENT
REMARK Flexibility Score: inf
ROOT
ATOM      1  C   UNL     1      -1.860  -3.251   7.190  1.00  0.00     0.000 C 
ENDROOT
BRANCH   1   2
ATOM      2  C   UNL     1      -0.602  -2.392   7.394  1.00  0.00     0.000 C 
BRANCH   2   3
ATOM      3  C   UNL     1       0.565  -2.822   6.486  1.00  0.00     0.000 C 
BRANCH   3   4
ATOM      4  C   UNL     1       1.105  -1.665   5.631  1.00  0.00     0.006 C 
BRANCH   4   5
ATOM      5  C   UNL     1       2.465  -1.155   6.125  1.00  0.00     0.053 C 
BRANCH   5   6
ATOM      6  C   UNL     1       3.574  -1.785   5.343  1.00  0.00     0.041 C 
ATOM      7  O   UNL     1       3.320  -2.451   4.305  1.00  0.00    -0.550 OA
ATOM      8  O   UNL     1       4.895  -1.596   5.732  1.00  0.00    -0.550 OA
ENDBRANCH   5   6
ENDBRANCH   4   5
ENDBRANCH   3   4
ENDBRANCH   2   3
ENDBRANCH   1   2
BRANCH   1   9
ATOM      9  C   UNL     1      -1.699  -4.273   6.051  1.00  0.00     0.000 C 
BRANCH   9  10
ATOM     10  C   UNL     1      -2.658  -4.006   4.880  1.00  0.00    -0.000 C 
BRANCH  10  11
ATOM     11  C   UNL     1      -2.047  -3.085   3.811  1.00  0.00    -0.000 C 
BRANCH  11  12
ATOM     12  C   UNL     1      -2.537  -1.630   3.926  1.00  0.00    -0.000 C 
BRANCH  12  13
ATOM     13  C   UNL     1      -4.067  -1.467   3.966  1.00  0.00    -0.003 C 
ATOM     14  C   UNL     1      -4.572  -0.874   5.281  1.00  0.00     0.004 C 
ENDBRANCH  12  13
ENDBRANCH  11  12
ENDBRANCH  10  11
ENDBRANCH   9  10
ENDBRANCH   1   9
TORSDOF 10
ENDMDL
MODEL 6
REMARK VINA RESULT:    -4.067      5.139      7.182
REMARK INTER + INTRA:          -6.947
REMARK INTER:                  -5.654
REMARK INTRA:                  -1.293
REMARK UNBOUND:                -0.503
REMARK SMILES CCCCCCCCCCCC(=O)[O-]
REMARK SMILES IDX 7 1 8 2 9 3 10 4 11 5 12 6 13 7 14 8 6 9 5 10 4 11 3 12 2 13
REMARK SMILES IDX 1 14
REMARK H PARENT
REMARK Flexibility Score: inf
ROOT
ATOM      1  C   UNL     1      -2.571  -3.950   6.622  1.00  0.00     0.000 C 
ENDROOT
BRANCH   1   2
ATOM      2  C   UNL     1      -1.048  -3.914   6.828  1.00  0.00     0.000 C 
BRANCH   2   3
ATOM      3  C   UNL     1      -0.471  -2.489   6.744  1.00  0.00     0.000 C 
BRANCH   3   4
ATOM      4  C   UNL     1      -0.013  -2.121   5.324  1.00  0.00     0.006 C 
BRANCH   4   5
ATOM      5  C   UNL     1       1.113  -1.078   5.321  1.00  0.00     0.053 C 
BRANCH   5   6
ATOM      6  C   UNL     1       2.440  -1.743   5.505  1.00  0.00     0.041 C 
ATOM      7  O   UNL     1       3.044  -2.239   4.518  1.00  0.00    -0.550 OA
ATOM      8  O   UNL     1       3.035  -1.772   6.760  1.00  0.00    -0.550 OA
ENDBRANCH   5   6
ENDBRANCH   4   5
ENDBRANCH   3   4
ENDBRANCH   2   3
ENDBRANCH   1   2
BRANCH   1   9
ATOM      9  C   UNL     1      -3.251  -2.623   7.004  1.00  0.00     0.000 C 
BRANCH   9  10
ATOM     10  C   UNL     1      -4.516  -2.350   6.175  1.00  0.00    -0.000 C 
BRANCH  10  11
ATOM     11  C   UNL     1      -4.359  -1.143   5.235  1.00  0.00    -0.000 C 
BRANCH  11  12
ATOM     12  C   UNL     1      -3.478  -1.451   4.010  1.00  0.00    -0.000 C 
BRANCH  12  13
ATOM     13  C   UNL     1      -3.785  -2.792   3.318  1.00  0.00    -0.003 C 
ATOM     14  C   UNL     1      -2.525  -3.571   2.939  1.00  0.00     0.004 C 
ENDBRANCH  12  13
ENDBRANCH  11  12
ENDBRANCH  10  11
ENDBRANCH   9  10
ENDBRANCH   1   9
TORSDOF 10
ENDMDL
MODEL 7
REMARK VINA RESULT:    -4.034      1.166      2.015
REMARK INTER + INTRA:          -6.895
REMARK INTER:                  -6.395
REMARK INTRA:                  -0.500
REMARK UNBOUND:                -0.503
REMARK SMILES CCCCCCCCCCCC(=O)[O-]
REMARK SMILES IDX 7 1 8 2 9 3 10 4 11 5 12 6 13 7 14 8 6 9 5 10 4 11 3 12 2 13
REMARK SMILES IDX 1 14
REMARK H PARENT
REMARK Flexibility Score: inf
ROOT
ATOM      1  C   UNL     1       1.956   3.408   6.782  1.00  0.00     0.000 C 
ENDROOT
BRANCH   1   2
ATOM      2  C   UNL     1       1.369   4.092   8.027  1.00  0.00     0.000 C 
BRANCH   2   3
ATOM      3  C   UNL     1      -0.057   4.626   7.795  1.00  0.00     0.000 C 
BRANCH   3   4
ATOM      4  C   UNL     1      -0.069   6.084   7.311  1.00  0.00     0.006 C 
BRANCH   4   5
ATOM      5  C   UNL     1      -1.306   6.413   6.464  1.00  0.00     0.053 C 
BRANCH   5   6
ATOM      6  C   UNL     1      -0.950   6.448   5.011  1.00  0.00     0.041 C 
ATOM      7  O   UNL     1      -1.212   7.466   4.318  1.00  0.00    -0.550 OA
ATOM      8  O   UNL     1      -0.283   5.374   4.433  1.00  0.00    -0.550 OA
ENDBRANCH   5   6
ENDBRANCH   4   5
ENDBRANCH   3   4
ENDBRANCH   2   3
ENDBRANCH   1   2
BRANCH   1   9
ATOM      9  C   UNL     1       1.506   1.943   6.646  1.00  0.00     0.000 C 
BRANCH   9  10
ATOM     10  C   UNL     1       2.156   1.028   7.697  1.00  0.00    -0.000 C 
BRANCH  10  11
ATOM     11  C   UNL     1       2.395  -0.399   7.174  1.00  0.00    -0.000 C 
BRANCH  11  12
ATOM     12  C   UNL     1       1.572  -0.718   5.913  1.00  0.00    -0.000 C 
BRANCH  12  13
ATOM     13  C   UNL     1       1.905  -2.067   5.250  1.00  0.00    -0.003 C 
ATOM     14  C   UNL     1       3.393  -2.230   4.941  1.00  0.00     0.004 C 
ENDBRANCH  12  13
ENDBRANCH  11  12
ENDBRANCH  10  11
ENDBRANCH   9  10
ENDBRANCH   1   9
TORSDOF 10
ENDMDL
MODEL 8
REMARK VINA RESULT:    -3.991      5.068      7.466
REMARK INTER + INTRA:          -6.827
REMARK INTER:                  -5.426
REMARK INTRA:                  -1.401
REMARK UNBOUND:                -0.503
REMARK SMILES CCCCCCCCCCCC(=O)[O-]
REMARK SMILES IDX 7 1 8 2 9 3 10 4 11 5 12 6 13 7 14 8 6 9 5 10 4 11 3 12 2 13
REMARK SMILES IDX 1 14
REMARK H PARENT
REMARK Flexibility Score: inf
ROOT
ATOM      1  C   UNL     1      -2.265  -4.735   5.250  1.00  0.00     0.000 C 
ENDROOT
BRANCH   1   2
ATOM      2  C   UNL     1      -2.557  -4.075   6.607  1.00  0.00     0.000 C 
BRANCH   2   3
ATOM      3  C   UNL     1      -1.711  -2.811   6.847  1.00  0.00     0.000 C 
BRANCH   3   4
ATOM      4  C   UNL     1      -0.277  -2.951   6.313  1.00  0.00     0.006 C 
BRANCH   4   5
ATOM      5  C   UNL     1       0.081  -1.858   5.297  1.00  0.00     0.053 C 
BRANCH   5   6
ATOM      6  C   UNL     1       1.528  -1.496   5.409  1.00  0.00     0.041 C 
ATOM      7  O   UNL     1       2.394  -2.132   4.752  1.00  0.00    -0.550 OA
ATOM      8  O   UNL     1       1.917  -0.423   6.202  1.00  0.00    -0.550 OA
ENDBRANCH   5   6
ENDBRANCH   4   5
ENDBRANCH   3   4
ENDBRANCH   2   3
ENDBRANCH   1   2
BRANCH   1   9
ATOM      9  C   UNL     1      -3.548  -5.073   4.469  1.00  0.00     0.000 C 
BRANCH   9  10
ATOM     10  C   UNL     1      -3.877  -4.023   3.396  1.00  0.00    -0.000 C 
BRANCH  10  11
ATOM     11  C   UNL     1      -2.765  -2.973   3.232  1.00  0.00    -0.000 C 
BRANCH  11  12
ATOM     12  C   UNL     1      -3.203  -1.565   3.678  1.00  0.00    -0.000 C 
BRANCH  12  13
ATOM     13  C   UNL     1      -4.660  -1.469   4.164  1.00  0.00    -0.003 C 
ATOM     14  C   UNL     1      -4.781  -0.930   5.590  1.00  0.00     0.004 C 
ENDBRANCH  12  13
ENDBRANCH  11  12
ENDBRANCH  10  11
ENDBRANCH   9  10
ENDBRANCH   1   9
TORSDOF 10
ENDMDL
MODEL 9
REMARK VINA RESULT:    -3.877      8.636     11.400
REMARK INTER + INTRA:          -6.647
REMARK INTER:                  -6.166
REMARK INTRA:                  -0.481
REMARK UNBOUND:                -0.503
REMARK SMILES CCCCCCCCCCCC(=O)[O-]
REMARK SMILES IDX 7 1 8 2 9 3 10 4 11 5 12 6 13 7 14 8 6 9 5 10 4 11 3 12 2 13
REMARK SMILES IDX 1 14
REMARK H PARENT
REMARK Flexibility Score: inf
ROOT
ATOM      1  C   UNL     1      -2.723  -5.171  -0.898  1.00  0.00     0.000 C 
ENDROOT
BRANCH   1   2
ATOM      2  C   UNL     1      -1.391  -4.406  -0.839  1.00  0.00     0.000 C 
BRANCH   2   3
ATOM      3  C   UNL     1      -0.978  -3.824  -2.203  1.00  0.00     0.000 C 
BRANCH   3   4
ATOM      4  C   UNL     1      -0.067  -4.773  -2.998  1.00  0.00     0.006 C 
BRANCH   4   5
ATOM      5  C   UNL     1       1.037  -5.392  -2.131  1.00  0.00     0.053 C 
BRANCH   5   6
ATOM      6  C   UNL     1       1.145  -6.861  -2.394  1.00  0.00     0.041 C 
ATOM      7  O   UNL     1       0.450  -7.396  -3.296  1.00  0.00    -0.550 OA
ATOM      8  O   UNL     1       2.051  -7.631  -1.675  1.00  0.00    -0.550 OA
ENDBRANCH   5   6
ENDBRANCH   4   5
ENDBRANCH   3   4
ENDBRANCH   2   3
ENDBRANCH   1   2
BRANCH   1   9
ATOM      9  C   UNL     1      -3.452  -5.192   0.457  1.00  0.00     0.000 C 
BRANCH   9  10
ATOM     10  C   UNL     1      -2.614  -4.572   1.586  1.00  0.00    -0.000 C 
BRANCH  10  11
ATOM     11  C   UNL     1      -3.474  -3.827   2.622  1.00  0.00    -0.000 C 
BRANCH  11  12
ATOM     12  C   UNL     1      -2.640  -3.235   3.774  1.00  0.00    -0.000 C 
BRANCH  12  13
ATOM     13  C   UNL     1      -2.704  -1.702   3.894  1.00  0.00    -0.003 C 
ATOM     14  C   UNL     1      -4.129  -1.175   4.065  1.00  0.00     0.004 C 
ENDBRANCH  12  13
ENDBRANCH  11  12
ENDBRANCH  10  11
ENDBRANCH   9  10
ENDBRANCH   1   9
TORSDOF 10
ENDMDL
