MODEL 1
REMARK VINA RESULT:    -6.153      0.000      0.000
REMARK INTER + INTRA:          -7.320
REMARK INTER:                  -7.052
REMARK INTRA:                  -0.269
REMARK UNBOUND:                -0.269
REMARK SMILES O=C1C[C@H](c2ccc(O)cc2)Oc2cc(O)cc(O)c21
REMARK SMILES IDX 3 1 4 2 12 3 13 4 14 5 15 6 17 7 18 8 20 9 2 10 1 11 5 12
REMARK SMILES IDX 6 13 11 14 7 15 10 16 8 17 9 18 19 20 16 22
REMARK H PARENT 9 19 19 21 16 23
REMARK Flexibility Score: inf
ROOT
ATOM      1  C   UNL     1      24.627   5.075 -23.022  1.00  0.00     0.131 C 
ATOM      2  C   UNL     1      23.309   5.652 -22.462  1.00  0.00     0.211 C 
ATOM      3  O   UNL     1      22.323   4.601 -22.451  1.00  0.00    -0.484 OA
ATOM      4  C   UNL     1      22.028   3.908 -23.631  1.00  0.00     0.138 A 
ATOM      5  C   UNL     1      20.789   3.295 -23.796  1.00  0.00     0.093 A 
ATOM      6  C   UNL     1      20.413   2.783 -25.045  1.00  0.00     0.123 A 
ATOM      7  C   UNL     1      21.322   2.840 -26.110  1.00  0.00     0.093 A 
ATOM      8  C   UNL     1      22.614   3.364 -25.918  1.00  0.00     0.133 A 
ATOM      9  C   UNL     1      22.990   3.856 -24.652  1.00  0.00     0.102 A 
ATOM     10  C   UNL     1      24.362   4.388 -24.345  1.00  0.00     0.174 C 
ATOM     11  O   UNL     1      25.322   4.194 -25.142  1.00  0.00    -0.294 OA
ENDROOT
BRANCH   2  12
ATOM     12  C   UNL     1      23.382   6.337 -21.111  1.00  0.00    -0.007 A 
ATOM     13  C   UNL     1      23.326   5.523 -19.962  1.00  0.00     0.011 A 
ATOM     14  C   UNL     1      23.217   7.729 -20.961  1.00  0.00     0.011 A 
ATOM     15  C   UNL     1      22.983   6.065 -18.720  1.00  0.00     0.046 A 
ATOM     16  C   UNL     1      22.848   8.270 -19.714  1.00  0.00     0.046 A 
ATOM     17  C   UNL     1      22.690   7.433 -18.602  1.00  0.00     0.115 A 
BRANCH  17  18
ATOM     18  O   UNL     1      22.242   7.953 -17.383  1.00  0.00    -0.508 OA
ATOM     19  H   UNL     1      21.917   7.348 -16.648  1.00  0.00     0.293 HD
ENDBRANCH  17  18
ENDBRANCH   2  12
BRANCH   8  20
ATOM     20  O   UNL     1      23.497   3.434 -27.000  1.00  0.00    -0.507 OA
ATOM     21  H   UNL     1      23.486   4.237 -27.634  1.00  0.00     0.293 HD
ENDBRANCH   8  20
BRANCH   6  22
ATOM     22  O   UNL     1      19.127   2.250 -25.220  1.00  0.00    -0.508 OA
ATOM     23  H   UNL     1      18.537   2.050 -24.416  1.00  0.00     0.293 HD
ENDBRANCH   6  22
TORSDOF 4
ENDMDL
MODEL 2
REMARK VINA RESULT:    -6.051      2.150      6.770
REMARK INTER + INTRA:          -7.203
REMARK INTER:                  -6.917
REMARK INTRA:                  -0.286
REMARK UNBOUND:                -0.269
REMARK SMILES O=C1C[C@H](c2ccc(O)cc2)Oc2cc(O)cc(O)c21
REMARK SMILES IDX 3 1 4 2 12 3 13 4 14 5 15 6 17 7 18 8 20 9 2 10 1 11 5 12
REMARK SMILES IDX 6 13 11 14 7 15 10 16 8 17 9 18 19 20 16 22
REMARK H PARENT 9 19 19 21 16 23
REMARK Flexibility Score: inf
ROOT
ATOM      1  C   UNL     1      24.090   3.659 -21.724  1.00  0.00     0.131 C 
ATOM      2  C   UNL     1      23.346   4.680 -22.611  1.00  0.00     0.211 C 
ATOM      3  O   UNL     1      23.573   5.998 -22.075  1.00  0.00    -0.484 OA
ATOM      4  C   UNL     1      23.258   6.272 -20.740  1.00  0.00     0.138 A 
ATOM      5  C   UNL     1      22.965   7.573 -20.338  1.00  0.00     0.093 A 
ATOM      6  C   UNL     1      22.449   7.821 -19.059  1.00  0.00     0.123 A 
ATOM      7  C   UNL     1      22.287   6.751 -18.168  1.00  0.00     0.093 A 
ATOM      8  C   UNL     1      22.679   5.450 -18.535  1.00  0.00     0.133 A 
ATOM      9  C   UNL     1      23.218   5.216 -19.816  1.00  0.00     0.102 A 
ATOM     10  C   UNL     1      23.707   3.871 -20.274  1.00  0.00     0.174 C 
ATOM     11  O   UNL     1      23.885   2.933 -19.447  1.00  0.00    -0.294 OA
ENDROOT
BRANCH   2  12
ATOM     12  C   UNL     1      23.650   4.643 -24.098  1.00  0.00    -0.007 A 
ATOM     13  C   UNL     1      24.217   5.796 -24.677  1.00  0.00     0.011 A 
ATOM     14  C   UNL     1      23.138   3.642 -24.947  1.00  0.00     0.011 A 
ATOM     15  C   UNL     1      24.154   6.005 -26.058  1.00  0.00     0.046 A 
ATOM     16  C   UNL     1      23.054   3.864 -26.336  1.00  0.00     0.046 A 
ATOM     17  C   UNL     1      23.524   5.063 -26.887  1.00  0.00     0.115 A 
BRANCH  17  18
ATOM     18  O   UNL     1      23.367   5.323 -28.252  1.00  0.00    -0.508 OA
ATOM     19  H   UNL     1      23.312   4.575 -28.922  1.00  0.00     0.293 HD
ENDBRANCH  17  18
ENDBRANCH   2  12
BRANCH   8  20
ATOM     20  O   UNL     1      22.486   4.394 -17.640  1.00  0.00    -0.507 OA
ATOM     21  H   UNL     1      21.805   3.657 -17.839  1.00  0.00     0.293 HD
ENDBRANCH   8  20
BRANCH   6  22
ATOM     22  O   UNL     1      22.075   9.125 -18.700  1.00  0.00    -0.508 OA
ATOM     23  H   UNL     1      22.640   9.663 -18.048  1.00  0.00     0.293 HD
ENDBRANCH   6  22
TORSDOF 4
ENDMDL
MODEL 3
REMARK VINA RESULT:    -5.881      1.641      1.860
REMARK INTER + INTRA:          -7.009
REMARK INTER:                  -6.725
REMARK INTRA:                  -0.284
REMARK UNBOUND:                -0.269
REMARK SMILES O=C1C[C@H](c2ccc(O)cc2)Oc2cc(O)cc(O)c21
REMARK SMILES IDX 3 1 4 2 12 3 13 4 14 5 15 6 17 7 18 8 20 9 2 10 1 11 5 12
REMARK SMILES IDX 6 13 11 14 7 15 10 16 8 17 9 18 19 20 16 22
REMARK H PARENT 9 19 19 21 16 23
REMARK Flexibility Score: inf
ROOT
ATOM      1  C   UNL     1      25.153   7.133 -23.470  1.00  0.00     0.131 C 
ATOM      2  C   UNL     1      23.948   6.744 -22.587  1.00  0.00     0.211 C 
ATOM      3  O   UNL     1      23.717   5.329 -22.731  1.00  0.00    -0.484 OA
ATOM      4  C   UNL     1      23.520   4.779 -24.003  1.00  0.00     0.138 A 
ATOM      5  C   UNL     1      22.805   3.595 -24.155  1.00  0.00     0.093 A 
ATOM      6  C   UNL     1      22.427   3.153 -25.430  1.00  0.00     0.123 A 
ATOM      7  C   UNL     1      22.828   3.886 -26.554  1.00  0.00     0.093 A 
ATOM      8  C   UNL     1      23.639   5.028 -26.411  1.00  0.00     0.133 A 
ATOM      9  C   UNL     1      24.033   5.450 -25.124  1.00  0.00     0.102 A 
ATOM     10  C   UNL     1      24.935   6.627 -24.881  1.00  0.00     0.174 C 
ATOM     11  O   UNL     1      25.585   7.149 -25.829  1.00  0.00    -0.294 OA
ENDROOT
BRANCH   2  12
ATOM     12  C   UNL     1      24.019   7.133 -21.122  1.00  0.00    -0.007 A 
ATOM     13  C   UNL     1      23.231   6.399 -20.213  1.00  0.00     0.011 A 
ATOM     14  C   UNL     1      24.601   8.341 -20.690  1.00  0.00     0.011 A 
ATOM     15  C   UNL     1      22.921   6.923 -18.954  1.00  0.00     0.046 A 
ATOM     16  C   UNL     1      24.270   8.879 -19.431  1.00  0.00     0.046 A 
ATOM     17  C   UNL     1      23.397   8.190 -18.579  1.00  0.00     0.115 A 
BRANCH  17  18
ATOM     18  O   UNL     1      22.999   8.757 -17.365  1.00  0.00    -0.508 OA
ATOM     19  H   UNL     1      23.118   9.740 -17.185  1.00  0.00     0.293 HD
ENDBRANCH  17  18
ENDBRANCH   2  12
BRANCH   8  20
ATOM     20  O   UNL     1      24.008   5.758 -27.544  1.00  0.00    -0.507 OA
ATOM     21  H   UNL     1      24.242   6.752 -27.473  1.00  0.00     0.293 HD
ENDBRANCH   8  20
BRANCH   6  22
ATOM     22  O   UNL     1      21.630   2.005 -25.561  1.00  0.00    -0.508 OA
ATOM     23  H   UNL     1      20.828   2.002 -26.185  1.00  0.00     0.293 HD
ENDBRANCH   6  22
TORSDOF 4
ENDMDL
MODEL 4
REMARK VINA RESULT:    -5.638      2.023      6.696
REMARK INTER + INTRA:          -6.730
REMARK INTER:                  -6.419
REMARK INTRA:                  -0.312
REMARK UNBOUND:                -0.269
REMARK SMILES O=C1C[C@H](c2ccc(O)cc2)Oc2cc(O)cc(O)c21
REMARK SMILES IDX 3 1 4 2 12 3 13 4 14 5 15 6 17 7 18 8 20 9 2 10 1 11 5 12
REMARK SMILES IDX 6 13 11 14 7 15 10 16 8 17 9 18 19 20 16 22
REMARK H PARENT 9 19 19 21 16 23
REMARK Flexibility Score: inf
ROOT
ATOM      1  C   UNL     1      24.427   6.595 -23.537  1.00  0.00     0.131 C 
ATOM      2  C   UNL     1      23.734   5.488 -22.713  1.00  0.00     0.211 C 
ATOM      3  O   UNL     1      22.870   6.115 -21.746  1.00  0.00    -0.484 OA
ATOM      4  C   UNL     1      23.389   7.061 -20.854  1.00  0.00     0.138 A 
ATOM      5  C   UNL     1      22.770   7.288 -19.629  1.00  0.00     0.093 A 
ATOM      6  C   UNL     1      23.396   8.073 -18.652  1.00  0.00     0.123 A 
ATOM      7  C   UNL     1      24.627   8.676 -18.946  1.00  0.00     0.093 A 
ATOM      8  C   UNL     1      25.206   8.534 -20.220  1.00  0.00     0.133 A 
ATOM      9  C   UNL     1      24.555   7.761 -21.203  1.00  0.00     0.102 A 
ATOM     10  C   UNL     1      25.076   7.594 -22.603  1.00  0.00     0.174 C 
ATOM     11  O   UNL     1      25.996   8.340 -23.042  1.00  0.00    -0.294 OA
ENDROOT
BRANCH   2  12
ATOM     12  C   UNL     1      22.988   4.422 -23.492  1.00  0.00    -0.007 A 
ATOM     13  C   UNL     1      23.360   4.213 -24.836  1.00  0.00     0.011 A 
ATOM     14  C   UNL     1      21.785   3.852 -23.029  1.00  0.00     0.011 A 
ATOM     15  C   UNL     1      22.493   3.570 -25.724  1.00  0.00     0.046 A 
ATOM     16  C   UNL     1      20.902   3.226 -23.930  1.00  0.00     0.046 A 
ATOM     17  C   UNL     1      21.237   3.121 -25.286  1.00  0.00     0.115 A 
BRANCH  17  18
ATOM     18  O   UNL     1      20.329   2.576 -26.199  1.00  0.00    -0.508 OA
ATOM     19  H   UNL     1      20.631   1.938 -26.915  1.00  0.00     0.293 HD
ENDBRANCH  17  18
ENDBRANCH   2  12
BRANCH   8  20
ATOM     20  O   UNL     1      26.445   9.125 -20.484  1.00  0.00    -0.507 OA
ATOM     21  H   UNL     1      27.152   9.208 -19.749  1.00  0.00     0.293 HD
ENDBRANCH   8  20
BRANCH   6  22
ATOM     22  O   UNL     1      22.802   8.219 -17.390  1.00  0.00    -0.508 OA
ATOM     23  H   UNL     1      22.955   9.061 -16.841  1.00  0.00     0.293 HD
ENDBRANCH   6  22
TORSDOF 4
ENDMDL
MODEL 5
REMARK VINA RESULT:    -5.604      2.568      7.139
REMARK INTER + INTRA:          -6.692
REMARK INTER:                  -6.409
REMARK INTRA:                  -0.283
REMARK UNBOUND:                -0.269
REMARK SMILES O=C1C[C@H](c2ccc(O)cc2)Oc2cc(O)cc(O)c21
REMARK SMILES IDX 3 1 4 2 12 3 13 4 14 5 15 6 17 7 18 8 20 9 2 10 1 11 5 12
REMARK SMILES IDX 6 13 11 14 7 15 10 16 8 17 9 18 19 20 16 22
REMARK H PARENT 9 19 19 21 16 23
REMARK Flexibility Score: inf
ROOT
ATOM      1  C   UNL     1      26.095   7.890 -22.600  1.00  0.00     0.131 C 
ATOM      2  C   UNL     1      25.052   6.758 -22.717  1.00  0.00     0.211 C 
ATOM      3  O   UNL     1      23.799   7.239 -22.193  1.00  0.00    -0.484 OA
ATOM      4  C   UNL     1      23.737   7.754 -20.893  1.00  0.00     0.138 A 
ATOM      5  C   UNL     1      22.540   7.735 -20.184  1.00  0.00     0.093 A 
ATOM      6  C   UNL     1      22.519   8.054 -18.820  1.00  0.00     0.123 A 
ATOM      7  C   UNL     1      23.707   8.450 -18.191  1.00  0.00     0.093 A 
ATOM      8  C   UNL     1      24.899   8.571 -18.929  1.00  0.00     0.133 A 
ATOM      9  C   UNL     1      24.904   8.270 -20.307  1.00  0.00     0.102 A 
ATOM     10  C   UNL     1      26.118   8.416 -21.181  1.00  0.00     0.174 C 
ATOM     11  O   UNL     1      27.131   9.052 -20.776  1.00  0.00    -0.294 OA
ENDROOT
BRANCH   2  12
ATOM     12  C   UNL     1      24.861   6.143 -24.091  1.00  0.00    -0.007 A 
ATOM     13  C   UNL     1      25.278   6.897 -25.207  1.00  0.00     0.011 A 
ATOM     14  C   UNL     1      24.046   5.013 -24.306  1.00  0.00     0.011 A 
ATOM     15  C   UNL     1      24.788   6.609 -26.485  1.00  0.00     0.046 A 
ATOM     16  C   UNL     1      23.535   4.739 -25.589  1.00  0.00     0.046 A 
ATOM     17  C   UNL     1      23.872   5.562 -26.672  1.00  0.00     0.115 A 
BRANCH  17  18
ATOM     18  O   UNL     1      23.301   5.345 -27.930  1.00  0.00    -0.508 OA
ATOM     19  H   UNL     1      23.271   6.075 -28.620  1.00  0.00     0.293 HD
ENDBRANCH  17  18
ENDBRANCH   2  12
BRANCH   8  20
ATOM     20  O   UNL     1      26.078   8.944 -18.278  1.00  0.00    -0.507 OA
ATOM     21  H   UNL     1      26.301   9.931 -18.126  1.00  0.00     0.293 HD
ENDBRANCH   8  20
BRANCH   6  22
ATOM     22  O   UNL     1      21.320   7.943 -18.098  1.00  0.00    -0.508 OA
ATOM     23  H   UNL     1      20.452   8.310 -18.479  1.00  0.00     0.293 HD
ENDBRANCH   6  22
TORSDOF 4
ENDMDL
MODEL 6
REMARK VINA RESULT:    -5.388      1.887      3.758
REMARK INTER + INTRA:          -6.444
REMARK INTER:                  -6.159
REMARK INTRA:                  -0.284
REMARK UNBOUND:                -0.269
REMARK SMILES O=C1C[C@H](c2ccc(O)cc2)Oc2cc(O)cc(O)c21
REMARK SMILES IDX 3 1 4 2 12 3 13 4 14 5 15 6 17 7 18 8 20 9 2 10 1 11 5 12
REMARK SMILES IDX 6 13 11 14 7 15 10 16 8 17 9 18 19 20 16 22
REMARK H PARENT 9 19 19 21 16 23
REMARK Flexibility Score: inf
ROOT
ATOM      1  C   UNL     1      22.645   4.768 -22.605  1.00  0.00     0.131 C 
ATOM      2  C   UNL     1      23.589   5.792 -21.940  1.00  0.00     0.211 C 
ATOM      3  O   UNL     1      23.968   6.770 -22.927  1.00  0.00    -0.484 OA
ATOM      4  C   UNL     1      24.552   6.358 -24.131  1.00  0.00     0.138 A 
ATOM      5  C   UNL     1      25.377   7.222 -24.845  1.00  0.00     0.093 A 
ATOM      6  C   UNL     1      26.126   6.751 -25.932  1.00  0.00     0.123 A 
ATOM      7  C   UNL     1      25.990   5.414 -26.327  1.00  0.00     0.093 A 
ATOM      8  C   UNL     1      25.078   4.564 -25.672  1.00  0.00     0.133 A 
ATOM      9  C   UNL     1      24.313   5.055 -24.595  1.00  0.00     0.102 A 
ATOM     10  C   UNL     1      23.283   4.235 -23.871  1.00  0.00     0.174 C 
ATOM     11  O   UNL     1      22.878   3.139 -24.350  1.00  0.00    -0.294 OA
ENDROOT
BRANCH   2  12
ATOM     12  C   UNL     1      23.086   6.467 -20.678  1.00  0.00    -0.007 A 
ATOM     13  C   UNL     1      22.802   7.846 -20.744  1.00  0.00     0.011 A 
ATOM     14  C   UNL     1      23.164   5.853 -19.411  1.00  0.00     0.011 A 
ATOM     15  C   UNL     1      22.731   8.616 -19.578  1.00  0.00     0.046 A 
ATOM     16  C   UNL     1      23.116   6.633 -18.240  1.00  0.00     0.046 A 
ATOM     17  C   UNL     1      22.941   8.021 -18.324  1.00  0.00     0.115 A 
BRANCH  17  18
ATOM     18  O   UNL     1      22.977   8.810 -17.170  1.00  0.00    -0.508 OA
ATOM     19  H   UNL     1      22.130   9.114 -16.722  1.00  0.00     0.293 HD
ENDBRANCH  17  18
ENDBRANCH   2  12
BRANCH   8  20
ATOM     20  O   UNL     1      24.976   3.228 -26.068  1.00  0.00    -0.507 OA
ATOM     21  H   UNL     1      25.813   2.679 -26.280  1.00  0.00     0.293 HD
ENDBRANCH   8  20
BRANCH   6  22
ATOM     22  O   UNL     1      27.021   7.612 -26.585  1.00  0.00    -0.508 OA
ATOM     23  H   UNL     1      26.797   8.597 -26.703  1.00  0.00     0.293 HD
ENDBRANCH   6  22
TORSDOF 4
ENDMDL
MODEL 7
REMARK VINA RESULT:    -5.300     15.812     16.841
REMARK INTER + INTRA:          -6.343
REMARK INTER:                  -6.062
REMARK INTRA:                  -0.281
REMARK UNBOUND:                -0.269
REMARK SMILES O=C1C[C@H](c2ccc(O)cc2)Oc2cc(O)cc(O)c21
REMARK SMILES IDX 3 1 4 2 12 3 13 4 14 5 15 6 17 7 18 8 20 9 2 10 1 11 5 12
REMARK SMILES IDX 6 13 11 14 7 15 10 16 8 17 9 18 19 20 16 22
REMARK H PARENT 9 19 19 21 16 23
REMARK Flexibility Score: inf
ROOT
ATOM      1  C   UNL     1      33.246  -8.489 -28.680  1.00  0.00     0.131 C 
ATOM      2  C   UNL     1      32.174  -8.171 -27.616  1.00  0.00     0.211 C 
ATOM      3  O   UNL     1      30.879  -8.466 -28.173  1.00  0.00    -0.484 OA
ATOM      4  C   UNL     1      30.485  -7.873 -29.378  1.00  0.00     0.138 A 
ATOM      5  C   UNL     1      29.134  -7.705 -29.672  1.00  0.00     0.093 A 
ATOM      6  C   UNL     1      28.739  -6.930 -30.770  1.00  0.00     0.123 A 
ATOM      7  C   UNL     1      29.719  -6.376 -31.604  1.00  0.00     0.093 A 
ATOM      8  C   UNL     1      31.083  -6.630 -31.370  1.00  0.00     0.133 A 
ATOM      9  C   UNL     1      31.469  -7.430 -30.275  1.00  0.00     0.102 A 
ATOM     10  C   UNL     1      32.897  -7.792 -29.979  1.00  0.00     0.174 C 
ATOM     11  O   UNL     1      33.803  -7.600 -30.837  1.00  0.00    -0.294 OA
ENDROOT
BRANCH   2  12
ATOM     12  C   UNL     1      32.341  -8.830 -26.260  1.00  0.00    -0.007 A 
ATOM     13  C   UNL     1      31.508  -9.928 -25.960  1.00  0.00     0.011 A 
ATOM     14  C   UNL     1      33.068  -8.228 -25.213  1.00  0.00     0.011 A 
ATOM     15  C   UNL     1      31.304 -10.327 -24.636  1.00  0.00     0.046 A 
ATOM     16  C   UNL     1      32.843  -8.616 -23.878  1.00  0.00     0.046 A 
ATOM     17  C   UNL     1      31.930  -9.638 -23.585  1.00  0.00     0.115 A 
BRANCH  17  18
ATOM     18  O   UNL     1      31.641  -9.969 -22.258  1.00  0.00    -0.508 OA
ATOM     19  H   UNL     1      32.070 -10.763 -21.814  1.00  0.00     0.293 HD
ENDBRANCH  17  18
ENDBRANCH   2  12
BRANCH   8  20
ATOM     20  O   UNL     1      32.045  -6.047 -32.200  1.00  0.00    -0.507 OA
ATOM     21  H   UNL     1      32.658  -6.628 -32.779  1.00  0.00     0.293 HD
ENDBRANCH   8  20
BRANCH   6  22
ATOM     22  O   UNL     1      27.375  -6.696 -31.001  1.00  0.00    -0.508 OA
ATOM     23  H   UNL     1      26.826  -7.345 -31.559  1.00  0.00     0.293 HD
ENDBRANCH   6  22
TORSDOF 4
ENDMDL
MODEL 8
REMARK VINA RESULT:    -5.271     15.307     17.036
REMARK INTER + INTRA:          -6.310
REMARK INTER:                  -6.033
REMARK INTRA:                  -0.277
REMARK UNBOUND:                -0.269
REMARK SMILES O=C1C[C@H](c2ccc(O)cc2)Oc2cc(O)cc(O)c21
REMARK SMILES IDX 3 1 4 2 12 3 13 4 14 5 15 6 17 7 18 8 20 9 2 10 1 11 5 12
REMARK SMILES IDX 6 13 11 14 7 15 10 16 8 17 9 18 19 20 16 22
REMARK H PARENT 9 19 19 21 16 23
REMARK Flexibility Score: inf
ROOT
ATOM      1  C   UNL     1      30.380  -7.436 -27.019  1.00  0.00     0.131 C 
ATOM      2  C   UNL     1      31.448  -8.549 -27.066  1.00  0.00     0.211 C 
ATOM      3  O   UNL     1      32.440  -8.185 -28.046  1.00  0.00    -0.484 OA
ATOM      4  C   UNL     1      32.052  -7.900 -29.360  1.00  0.00     0.138 A 
ATOM      5  C   UNL     1      32.952  -8.060 -30.410  1.00  0.00     0.093 A 
ATOM      6  C   UNL     1      32.513  -7.978 -31.738  1.00  0.00     0.123 A 
ATOM      7  C   UNL     1      31.170  -7.674 -31.997  1.00  0.00     0.093 A 
ATOM      8  C   UNL     1      30.280  -7.409 -30.938  1.00  0.00     0.133 A 
ATOM      9  C   UNL     1      30.738  -7.472 -29.607  1.00  0.00     0.102 A 
ATOM     10  C   UNL     1      29.873  -7.158 -28.419  1.00  0.00     0.174 C 
ATOM     11  O   UNL     1      28.758  -6.583 -28.567  1.00  0.00    -0.294 OA
ENDROOT
BRANCH   2  12
ATOM     12  C   UNL     1      32.102  -8.924 -25.749  1.00  0.00    -0.007 A 
ATOM     13  C   UNL     1      31.462  -9.896 -24.955  1.00  0.00     0.011 A 
ATOM     14  C   UNL     1      33.135  -8.156 -25.174  1.00  0.00     0.011 A 
ATOM     15  C   UNL     1      31.750 -10.006 -23.592  1.00  0.00     0.046 A 
ATOM     16  C   UNL     1      33.408  -8.252 -23.796  1.00  0.00     0.046 A 
ATOM     17  C   UNL     1      32.687  -9.147 -22.996  1.00  0.00     0.115 A 
BRANCH  17  18
ATOM     18  O   UNL     1      32.896  -9.187 -21.614  1.00  0.00    -0.508 OA
ATOM     19  H   UNL     1      32.236  -8.776 -20.976  1.00  0.00     0.293 HD
ENDBRANCH  17  18
ENDBRANCH   2  12
BRANCH   8  20
ATOM     20  O   UNL     1      28.940  -7.132 -31.218  1.00  0.00    -0.507 OA
ATOM     21  H   UNL     1      28.264  -7.889 -31.349  1.00  0.00     0.293 HD
ENDBRANCH   8  20
BRANCH   6  22
ATOM     22  O   UNL     1      33.413  -8.230 -32.785  1.00  0.00    -0.508 OA
ATOM     23  H   UNL     1      33.072  -8.446 -33.718  1.00  0.00     0.293 HD
ENDBRANCH   6  22
TORSDOF 4
ENDMDL
MODEL 9
REMARK VINA RESULT:    -5.221     12.444     15.006
REMARK INTER + INTRA:          -6.253
REMARK INTER:                  -5.991
REMARK INTRA:                  -0.261
REMARK UNBOUND:                -0.269
REMARK SMILES O=C1C[C@H](c2ccc(O)cc2)Oc2cc(O)cc(O)c21
REMARK SMILES IDX 3 1 4 2 12 3 13 4 14 5 15 6 17 7 18 8 20 9 2 10 1 11 5 12
REMARK SMILES IDX 6 13 11 14 7 15 10 16 8 17 9 18 19 20 16 22
REMARK H PARENT 9 19 19 21 16 23
REMARK Flexibility Score: inf
ROOT
ATOM      1  C   UNL     1      27.299  -6.706 -29.811  1.00  0.00     0.131 C 
ATOM      2  C   UNL     1      27.477  -7.013 -28.308  1.00  0.00     0.211 C 
ATOM      3  O   UNL     1      28.812  -6.630 -27.922  1.00  0.00    -0.484 OA
ATOM      4  C   UNL     1      29.914  -7.154 -28.607  1.00  0.00     0.138 A 
ATOM      5  C   UNL     1      31.155  -7.242 -27.981  1.00  0.00     0.093 A 
ATOM      6  C   UNL     1      32.203  -7.952 -28.582  1.00  0.00     0.123 A 
ATOM      7  C   UNL     1      32.006  -8.521 -29.847  1.00  0.00     0.093 A 
ATOM      8  C   UNL     1      30.787  -8.345 -30.529  1.00  0.00     0.133 A 
ATOM      9  C   UNL     1      29.747  -7.610 -29.924  1.00  0.00     0.102 A 
ATOM     10  C   UNL     1      28.432  -7.332 -30.596  1.00  0.00     0.174 C 
ATOM     11  O   UNL     1      28.285  -7.534 -31.834  1.00  0.00    -0.294 OA
ENDROOT
BRANCH   2  12
ATOM     12  C   UNL     1      26.451  -6.418 -27.362  1.00  0.00    -0.007 A 
ATOM     13  C   UNL     1      25.974  -7.236 -26.318  1.00  0.00     0.011 A 
ATOM     14  C   UNL     1      25.764  -5.221 -27.650  1.00  0.00     0.011 A 
ATOM     15  C   UNL     1      24.773  -6.936 -25.669  1.00  0.00     0.046 A 
ATOM     16  C   UNL     1      24.542  -4.932 -27.012  1.00  0.00     0.046 A 
ATOM     17  C   UNL     1      24.024  -5.811 -26.051  1.00  0.00     0.115 A 
BRANCH  17  18
ATOM     18  O   UNL     1      22.772  -5.572 -25.476  1.00  0.00    -0.508 OA
ATOM     19  H   UNL     1      22.000  -6.196 -25.635  1.00  0.00     0.293 HD
ENDBRANCH  17  18
ENDBRANCH   2  12
BRANCH   8  20
ATOM     20  O   UNL     1      30.604  -8.941 -31.779  1.00  0.00    -0.507 OA
ATOM     21  H   UNL     1      29.783  -9.522 -31.967  1.00  0.00     0.293 HD
ENDBRANCH   8  20
BRANCH   6  22
ATOM     22  O   UNL     1      33.419  -8.108 -27.899  1.00  0.00    -0.508 OA
ATOM     23  H   UNL     1      33.932  -7.296 -27.566  1.00  0.00     0.293 HD
ENDBRANCH   6  22
TORSDOF 4
ENDMDL
