MODEL 1
REMARK VINA RESULT:    -3.962      0.000      0.000
REMARK INTER + INTRA:          -4.796
REMARK INTER:                  -4.657
REMARK INTRA:                  -0.140
REMARK UNBOUND:                -0.140
REMARK SMILES O=C([O-])CCC(=O)[O-]
REMARK SMILES IDX 4 1 2 2 1 3 3 4 5 5 6 6 7 7 8 8
REMARK H PARENT
REMARK Flexibility Score: inf
ROOT
ATOM      1  C   UNL     1      -6.357  -3.959 -13.586  1.00  0.00     0.059 C 
ENDROOT
BRANCH   1   2
ATOM      2  C   UNL     1      -6.634  -3.324 -12.258  1.00  0.00     0.042 C 
ATOM      3  O   UNL     1      -7.021  -2.127 -12.197  1.00  0.00    -0.550 OA
ATOM      4  O   UNL     1      -6.425  -4.040 -11.085  1.00  0.00    -0.550 OA
ENDBRANCH   1   2
BRANCH   1   5
ATOM      5  C   UNL     1      -6.657  -5.463 -13.565  1.00  0.00     0.059 C 
BRANCH   5   6
ATOM      6  C   UNL     1      -8.131  -5.732 -13.548  1.00  0.00     0.042 C 
ATOM      7  O   UNL     1      -8.850  -5.385 -14.520  1.00  0.00    -0.550 OA
ATOM      8  O   UNL     1      -8.716  -6.330 -12.438  1.00  0.00    -0.550 OA
ENDBRANCH   5   6
ENDBRANCH   1   5
TORSDOF 3
ENDMDL
MODEL 2
REMARK VINA RESULT:    -3.958      0.097      3.303
REMARK INTER + INTRA:          -4.791
REMARK INTER:                  -4.643
REMARK INTRA:                  -0.148
REMARK UNBOUND:                -0.140
REMARK SMILES O=C([O-])CCC(=O)[O-]
REMARK SMILES IDX 4 1 2 2 1 3 3 4 5 5 6 6 7 7 8 8
REMARK H PARENT
REMARK Flexibility Score: inf
ROOT
ATOM      1  C   UNL     1      -6.634  -5.520 -13.446  1.00  0.00     0.059 C 
ENDROOT
BRANCH   1   2
ATOM      2  C   UNL     1      -8.111  -5.763 -13.508  1.00  0.00     0.042 C 
ATOM      3  O   UNL     1      -8.778  -5.357 -14.496  1.00  0.00    -0.550 OA
ATOM      4  O   UNL     1      -8.756  -6.402 -12.457  1.00  0.00    -0.550 OA
ENDBRANCH   1   2
BRANCH   1   5
ATOM      5  C   UNL     1      -6.303  -4.026 -13.534  1.00  0.00     0.059 C 
BRANCH   5   6
ATOM      6  C   UNL     1      -6.652  -3.307 -12.266  1.00  0.00     0.042 C 
ATOM      7  O   UNL     1      -7.072  -2.122 -12.305  1.00  0.00    -0.550 OA
ATOM      8  O   UNL     1      -6.474  -3.935 -11.039  1.00  0.00    -0.550 OA
ENDBRANCH   5   6
ENDBRANCH   1   5
TORSDOF 3
ENDMDL
MODEL 3
REMARK VINA RESULT:    -3.956      1.567      2.047
REMARK INTER + INTRA:          -4.790
REMARK INTER:                  -4.706
REMARK INTRA:                  -0.084
REMARK UNBOUND:                -0.140
REMARK SMILES O=C([O-])CCC(=O)[O-]
REMARK SMILES IDX 4 1 2 2 1 3 3 4 5 5 6 6 7 7 8 8
REMARK H PARENT
REMARK Flexibility Score: inf
ROOT
ATOM      1  C   UNL     1      -6.778  -3.496 -12.141  1.00  0.00     0.059 C 
ENDROOT
BRANCH   1   2
ATOM      2  C   UNL     1      -6.892  -4.316 -10.893  1.00  0.00     0.042 C 
ATOM      3  O   UNL     1      -6.206  -4.024  -9.878  1.00  0.00    -0.550 OA
ATOM      4  O   UNL     1      -7.725  -5.428 -10.864  1.00  0.00    -0.550 OA
ENDBRANCH   1   2
BRANCH   1   5
ATOM      5  C   UNL     1      -6.074  -4.268 -13.263  1.00  0.00     0.059 C 
BRANCH   5   6
ATOM      6  C   UNL     1      -7.058  -4.946 -14.167  1.00  0.00     0.042 C 
ATOM      7  O   UNL     1      -6.660  -5.765 -15.036  1.00  0.00    -0.550 OA
ATOM      8  O   UNL     1      -8.411  -4.643 -14.076  1.00  0.00    -0.550 OA
ENDBRANCH   5   6
ENDBRANCH   1   5
TORSDOF 3
ENDMDL
MODEL 4
REMARK VINA RESULT:    -3.836      1.452      3.706
REMARK INTER + INTRA:          -4.649
REMARK INTER:                  -4.566
REMARK INTRA:                  -0.083
REMARK UNBOUND:                -0.140
REMARK SMILES O=C([O-])CCC(=O)[O-]
REMARK SMILES IDX 4 1 2 2 1 3 3 4 5 5 6 6 7 7 8 8
REMARK H PARENT
REMARK Flexibility Score: inf
ROOT
ATOM      1  C   UNL     1      -7.113  -6.174 -12.693  1.00  0.00     0.059 C 
ENDROOT
BRANCH   1   2
ATOM      2  C   UNL     1      -7.550  -5.605 -14.008  1.00  0.00     0.042 C 
ATOM      3  O   UNL     1      -6.702  -5.106 -14.795  1.00  0.00    -0.550 OA
ATOM      4  O   UNL     1      -8.897  -5.588 -14.348  1.00  0.00    -0.550 OA
ENDBRANCH   1   2
BRANCH   1   5
ATOM      5  C   UNL     1      -7.737  -5.416 -11.515  1.00  0.00     0.059 C 
BRANCH   5   6
ATOM      6  C   UNL     1      -6.811  -4.364 -10.984  1.00  0.00     0.042 C 
ATOM      7  O   UNL     1      -6.385  -4.433  -9.802  1.00  0.00    -0.550 OA
ATOM      8  O   UNL     1      -6.452  -3.285 -11.783  1.00  0.00    -0.550 OA
ENDBRANCH   5   6
ENDBRANCH   1   5
TORSDOF 3
ENDMDL
MODEL 5
REMARK VINA RESULT:    -3.805     12.193     13.300
REMARK INTER + INTRA:          -4.613
REMARK INTER:                  -4.499
REMARK INTRA:                  -0.113
REMARK UNBOUND:                -0.140
REMARK SMILES O=C([O-])CCC(=O)[O-]
REMARK SMILES IDX 4 1 2 2 1 3 3 4 5 5 6 6 7 7 8 8
REMARK H PARENT
REMARK Flexibility Score: inf
ROOT
ATOM      1  C   UNL     1       5.017  -2.736 -14.405  1.00  0.00     0.059 C 
ENDROOT
BRANCH   1   2
ATOM      2  C   UNL     1       5.511  -3.647 -13.324  1.00  0.00     0.042 C 
ATOM      3  O   UNL     1       4.769  -4.562 -12.879  1.00  0.00    -0.550 OA
ATOM      4  O   UNL     1       6.776  -3.462 -12.780  1.00  0.00    -0.550 OA
ENDBRANCH   1   2
BRANCH   1   5
ATOM      5  C   UNL     1       4.214  -1.563 -13.832  1.00  0.00     0.059 C 
BRANCH   5   6
ATOM      6  C   UNL     1       4.955  -0.267 -13.970  1.00  0.00     0.042 C 
ATOM      7  O   UNL     1       4.351   0.771 -14.347  1.00  0.00    -0.550 OA
ATOM      8  O   UNL     1       6.321  -0.217 -13.721  1.00  0.00    -0.550 OA
ENDBRANCH   5   6
ENDBRANCH   1   5
TORSDOF 3
ENDMDL
MODEL 6
REMARK VINA RESULT:    -3.804     12.261     13.139
REMARK INTER + INTRA:          -4.611
REMARK INTER:                  -4.500
REMARK INTRA:                  -0.111
REMARK UNBOUND:                -0.140
REMARK SMILES O=C([O-])CCC(=O)[O-]
REMARK SMILES IDX 4 1 2 2 1 3 3 4 5 5 6 6 7 7 8 8
REMARK H PARENT
REMARK Flexibility Score: inf
ROOT
ATOM      1  C   UNL     1       4.316  -1.526 -13.865  1.00  0.00     0.059 C 
ENDROOT
BRANCH   1   2
ATOM      2  C   UNL     1       5.119  -0.271 -14.015  1.00  0.00     0.042 C 
ATOM      3  O   UNL     1       4.589   0.766 -14.494  1.00  0.00    -0.550 OA
ATOM      4  O   UNL     1       6.463  -0.257 -13.664  1.00  0.00    -0.550 OA
ENDBRANCH   1   2
BRANCH   1   5
ATOM      5  C   UNL     1       5.070  -2.747 -14.404  1.00  0.00     0.059 C 
BRANCH   5   6
ATOM      6  C   UNL     1       5.536  -3.641 -13.296  1.00  0.00     0.042 C 
ATOM      7  O   UNL     1       4.771  -4.526 -12.831  1.00  0.00    -0.550 OA
ATOM      8  O   UNL     1       6.803  -3.470 -12.750  1.00  0.00    -0.550 OA
ENDBRANCH   5   6
ENDBRANCH   1   5
TORSDOF 3
ENDMDL
MODEL 7
REMARK VINA RESULT:    -3.792      0.863      1.455
REMARK INTER + INTRA:          -4.596
REMARK INTER:                  -4.515
REMARK INTRA:                  -0.081
REMARK UNBOUND:                -0.140
REMARK SMILES O=C([O-])CCC(=O)[O-]
REMARK SMILES IDX 4 1 2 2 1 3 3 4 5 5 6 6 7 7 8 8
REMARK H PARENT
REMARK Flexibility Score: inf
ROOT
ATOM      1  C   UNL     1      -6.271  -4.124 -13.468  1.00  0.00     0.059 C 
ENDROOT
BRANCH   1   2
ATOM      2  C   UNL     1      -6.598  -3.433 -12.180  1.00  0.00     0.042 C 
ATOM      3  O   UNL     1      -6.520  -4.057 -11.089  1.00  0.00    -0.550 OA
ATOM      4  O   UNL     1      -7.027  -2.111 -12.188  1.00  0.00    -0.550 OA
ENDBRANCH   1   2
BRANCH   1   5
ATOM      5  C   UNL     1      -6.479  -5.639 -13.365  1.00  0.00     0.059 C 
BRANCH   5   6
ATOM      6  C   UNL     1      -7.716  -6.077 -14.088  1.00  0.00     0.042 C 
ATOM      7  O   UNL     1      -8.594  -5.235 -14.409  1.00  0.00    -0.550 OA
ATOM      8  O   UNL     1      -7.916  -7.423 -14.372  1.00  0.00    -0.550 OA
ENDBRANCH   5   6
ENDBRANCH   1   5
TORSDOF 3
ENDMDL
MODEL 8
REMARK VINA RESULT:    -3.646      1.656      3.173
REMARK INTER + INTRA:          -4.425
REMARK INTER:                  -4.305
REMARK INTRA:                  -0.119
REMARK UNBOUND:                -0.140
REMARK SMILES O=C([O-])CCC(=O)[O-]
REMARK SMILES IDX 4 1 2 2 1 3 3 4 5 5 6 6 7 7 8 8
REMARK H PARENT
REMARK Flexibility Score: inf
ROOT
ATOM      1  C   UNL     1      -7.215  -6.033 -12.526  1.00  0.00     0.059 C 
ENDROOT
BRANCH   1   2
ATOM      2  C   UNL     1      -7.849  -5.786 -11.191  1.00  0.00     0.042 C 
ATOM      3  O   UNL     1      -9.051  -6.106 -10.993  1.00  0.00    -0.550 OA
ATOM      4  O   UNL     1      -7.126  -5.165 -10.180  1.00  0.00    -0.550 OA
ENDBRANCH   1   2
BRANCH   1   5
ATOM      5  C   UNL     1      -7.471  -4.875 -13.496  1.00  0.00     0.059 C 
BRANCH   5   6
ATOM      6  C   UNL     1      -6.617  -3.686 -13.176  1.00  0.00     0.042 C 
ATOM      7  O   UNL     1      -5.365  -3.804 -13.113  1.00  0.00    -0.550 OA
ATOM      8  O   UNL     1      -7.207  -2.457 -12.908  1.00  0.00    -0.550 OA
ENDBRANCH   5   6
ENDBRANCH   1   5
TORSDOF 3
ENDMDL
MODEL 9
REMARK VINA RESULT:    -3.601     10.011     11.900
REMARK INTER + INTRA:          -4.373
REMARK INTER:                  -4.347
REMARK INTRA:                  -0.026
REMARK UNBOUND:                -0.140
REMARK SMILES O=C([O-])CCC(=O)[O-]
REMARK SMILES IDX 4 1 2 2 1 3 3 4 5 5 6 6 7 7 8 8
REMARK H PARENT
REMARK Flexibility Score: inf
ROOT
ATOM      1  C   UNL     1      -7.386   6.333 -12.639  1.00  0.00     0.059 C 
ENDROOT
BRANCH   1   2
ATOM      2  C   UNL     1      -6.171   5.678 -13.221  1.00  0.00     0.042 C 
ATOM      3  O   UNL     1      -5.023   6.119 -12.950  1.00  0.00    -0.550 OA
ATOM      4  O   UNL     1      -6.308   4.606 -14.094  1.00  0.00    -0.550 OA
ENDBRANCH   1   2
BRANCH   1   5
ATOM      5  C   UNL     1      -7.863   7.507 -13.502  1.00  0.00     0.059 C 
BRANCH   5   6
ATOM      6  C   UNL     1      -9.002   8.238 -12.860  1.00  0.00     0.042 C 
ATOM      7  O   UNL     1      -8.820   9.372 -12.347  1.00  0.00    -0.550 OA
ATOM      8  O   UNL     1     -10.258   7.646 -12.793  1.00  0.00    -0.550 OA
ENDBRANCH   5   6
ENDBRANCH   1   5
TORSDOF 3
ENDMDL
