MODEL 1
REMARK VINA RESULT:    -5.895      0.000      0.000
REMARK INTER + INTRA:         -21.399
REMARK INTER:                 -15.543
REMARK INTRA:                  -5.856
REMARK UNBOUND:                -5.856
REMARK SMILES CCCCCCCCCCCCCCCCCCCCCCCCCCCCCC(=O)[O-]
REMARK SMILES IDX 16 1 17 2 18 3 19 4 20 5 21 6 22 7 23 8 24 9 25 10 26 11
REMARK SMILES IDX 27 12 28 13 29 14 30 15 31 16 32 17 15 18 14 19 13 20 12 21
REMARK SMILES IDX 11 22 10 23 9 24 8 25 7 26 6 27 5 28 4 29 3 30 2 31 1 32
REMARK H PARENT
REMARK Flexibility Score: inf
ROOT
ATOM      1  C   UNL     1      48.767  11.136  -4.344  1.00  0.00     0.000 C 
ENDROOT
BRANCH   1   2
ATOM      2  C   UNL     1      50.070  10.740  -5.071  1.00  0.00     0.000 C 
BRANCH   2   3
ATOM      3  C   UNL     1      50.242  11.415  -6.443  1.00  0.00     0.000 C 
BRANCH   3   4
ATOM      4  C   UNL     1      49.943  10.471  -7.620  1.00  0.00     0.000 C 
BRANCH   4   5
ATOM      5  C   UNL     1      49.585   9.045  -7.152  1.00  0.00     0.000 C 
BRANCH   5   6
ATOM      6  C   UNL     1      48.726   8.262  -8.161  1.00  0.00     0.000 C 
BRANCH   6   7
ATOM      7  C   UNL     1      47.291   8.029  -7.663  1.00  0.00     0.000 C 
BRANCH   7   8
ATOM      8  C   UNL     1      46.954   8.861  -6.414  1.00  0.00     0.000 C 
BRANCH   8   9
ATOM      9  C   UNL     1      46.587   7.997  -5.198  1.00  0.00     0.000 C 
BRANCH   9  10
ATOM     10  C   UNL     1      45.916   6.688  -5.641  1.00  0.00     0.000 C 
BRANCH  10  11
ATOM     11  C   UNL     1      45.372   5.870  -4.459  1.00  0.00     0.000 C 
BRANCH  11  12
ATOM     12  C   UNL     1      44.245   6.597  -3.702  1.00  0.00     0.000 C 
BRANCH  12  13
ATOM     13  C   UNL     1      44.641   7.004  -2.273  1.00  0.00     0.006 C 
BRANCH  13  14
ATOM     14  C   UNL     1      45.603   6.021  -1.585  1.00  0.00     0.053 C 
BRANCH  14  15
ATOM     15  C   UNL     1      46.227   6.598  -0.350  1.00  0.00     0.041 C 
ATOM     16  O   UNL     1      47.165   5.991   0.232  1.00  0.00    -0.550 OA
ATOM     17  O   UNL     1      45.751   7.794   0.177  1.00  0.00    -0.550 OA
ENDBRANCH  14  15
ENDBRANCH  13  14
ENDBRANCH  12  13
ENDBRANCH  11  12
ENDBRANCH  10  11
ENDBRANCH   9  10
ENDBRANCH   8   9
ENDBRANCH   7   8
ENDBRANCH   6   7
ENDBRANCH   5   6
ENDBRANCH   4   5
ENDBRANCH   3   4
ENDBRANCH   2   3
ENDBRANCH   1   2
BRANCH   1  18
ATOM     18  C   UNL     1      48.107  12.383  -4.959  1.00  0.00     0.000 C 
BRANCH  18  19
ATOM     19  C   UNL     1      46.587  12.223  -5.144  1.00  0.00     0.000 C 
BRANCH  19  20
ATOM     20  C   UNL     1      46.060  12.788  -6.480  1.00  0.00     0.000 C 
BRANCH  20  21
ATOM     21  C   UNL     1      46.959  12.415  -7.674  1.00  0.00     0.000 C 
BRANCH  21  22
ATOM     22  C   UNL     1      46.197  12.416  -9.009  1.00  0.00     0.000 C 
BRANCH  22  23
ATOM     23  C   UNL     1      46.676  11.314  -9.969  1.00  0.00     0.000 C 
BRANCH  23  24
ATOM     24  C   UNL     1      45.604  10.222 -10.184  1.00  0.00    -0.000 C 
BRANCH  24  25
ATOM     25  C   UNL     1      44.270  10.517  -9.473  1.00  0.00    -0.000 C 
BRANCH  25  26
ATOM     26  C   UNL     1      43.973   9.620  -8.261  1.00  0.00    -0.000 C 
BRANCH  26  27
ATOM     27  C   UNL     1      43.599  10.425  -7.003  1.00  0.00    -0.000 C 
BRANCH  27  28
ATOM     28  C   UNL     1      43.117   9.522  -5.855  1.00  0.00    -0.000 C 
BRANCH  28  29
ATOM     29  C   UNL     1      43.350  10.155  -4.471  1.00  0.00    -0.000 C 
BRANCH  29  30
ATOM     30  C   UNL     1      42.075  10.197  -3.610  1.00  0.00    -0.000 C 
BRANCH  30  31
ATOM     31  C   UNL     1      40.925   9.304  -4.115  1.00  0.00    -0.003 C 
ATOM     32  C   UNL     1      40.817   7.982  -3.355  1.00  0.00     0.004 C 
ENDBRANCH  30  31
ENDBRANCH  29  30
ENDBRANCH  28  29
ENDBRANCH  27  28
ENDBRANCH  26  27
ENDBRANCH  25  26
ENDBRANCH  24  25
ENDBRANCH  23  24
ENDBRANCH  22  23
ENDBRANCH  21  22
ENDBRANCH  20  21
ENDBRANCH  19  20
ENDBRANCH  18  19
ENDBRANCH   1  18
TORSDOF 28
ENDMDL
MODEL 2
REMARK VINA RESULT:    -5.834     11.316     16.321
REMARK INTER + INTRA:         -21.240
REMARK INTER:                 -15.912
REMARK INTRA:                  -5.328
REMARK UNBOUND:                -5.856
REMARK SMILES CCCCCCCCCCCCCCCCCCCCCCCCCCCCCC(=O)[O-]
REMARK SMILES IDX 16 1 17 2 18 3 19 4 20 5 21 6 22 7 23 8 24 9 25 10 26 11
REMARK SMILES IDX 27 12 28 13 29 14 30 15 31 16 32 17 15 18 14 19 13 20 12 21
REMARK SMILES IDX 11 22 10 23 9 24 8 25 7 26 6 27 5 28 4 29 3 30 2 31 1 32
REMARK H PARENT
REMARK Flexibility Score: inf
ROOT
ATOM      1  C   UNL     1      34.656   0.730   3.072  1.00  0.00     0.000 C 
ENDROOT
BRANCH   1   2
ATOM      2  C   UNL     1      34.998   2.088   3.721  1.00  0.00     0.000 C 
BRANCH   2   3
ATOM      3  C   UNL     1      36.030   2.910   2.928  1.00  0.00     0.000 C 
BRANCH   3   4
ATOM      4  C   UNL     1      35.460   4.235   2.393  1.00  0.00     0.000 C 
BRANCH   4   5
ATOM      5  C   UNL     1      36.424   4.936   1.413  1.00  0.00     0.000 C 
BRANCH   5   6
ATOM      6  C   UNL     1      36.951   6.287   1.926  1.00  0.00     0.000 C 
BRANCH   6   7
ATOM      7  C   UNL     1      38.461   6.266   2.206  1.00  0.00     0.000 C 
BRANCH   7   8
ATOM      8  C   UNL     1      38.832   5.368   3.397  1.00  0.00     0.000 C 
BRANCH   8   9
ATOM      9  C   UNL     1      40.049   4.472   3.119  1.00  0.00     0.000 C 
BRANCH   9  10
ATOM     10  C   UNL     1      39.694   2.991   3.322  1.00  0.00     0.000 C 
BRANCH  10  11
ATOM     11  C   UNL     1      39.846   2.162   2.038  1.00  0.00     0.000 C 
BRANCH  11  12
ATOM     12  C   UNL     1      39.415   2.936   0.777  1.00  0.00     0.000 C 
BRANCH  12  13
ATOM     13  C   UNL     1      39.948   2.314  -0.525  1.00  0.00     0.006 C 
BRANCH  13  14
ATOM     14  C   UNL     1      41.058   1.271  -0.314  1.00  0.00     0.053 C 
BRANCH  14  15
ATOM     15  C   UNL     1      41.055   0.207  -1.370  1.00  0.00     0.041 C 
ATOM     16  O   UNL     1      40.509   0.420  -2.485  1.00  0.00    -0.550 OA
ATOM     17  O   UNL     1      41.628  -1.033  -1.111  1.00  0.00    -0.550 OA
ENDBRANCH  14  15
ENDBRANCH  13  14
ENDBRANCH  12  13
ENDBRANCH  11  12
ENDBRANCH  10  11
ENDBRANCH   9  10
ENDBRANCH   8   9
ENDBRANCH   7   8
ENDBRANCH   6   7
ENDBRANCH   5   6
ENDBRANCH   4   5
ENDBRANCH   3   4
ENDBRANCH   2   3
ENDBRANCH   1   2
BRANCH   1  18
ATOM     18  C   UNL     1      34.387  -0.369   4.115  1.00  0.00     0.000 C 
BRANCH  18  19
ATOM     19  C   UNL     1      34.508   0.141   5.563  1.00  0.00     0.000 C 
BRANCH  19  20
ATOM     20  C   UNL     1      33.543  -0.549   6.548  1.00  0.00     0.000 C 
BRANCH  20  21
ATOM     21  C   UNL     1      33.364   0.246   7.855  1.00  0.00     0.000 C 
BRANCH  21  22
ATOM     22  C   UNL     1      34.466   1.298   8.061  1.00  0.00     0.000 C 
BRANCH  22  23
ATOM     23  C   UNL     1      33.905   2.716   8.266  1.00  0.00     0.000 C 
BRANCH  23  24
ATOM     24  C   UNL     1      33.678   3.451   6.926  1.00  0.00    -0.000 C 
BRANCH  24  25
ATOM     25  C   UNL     1      33.952   4.965   6.998  1.00  0.00    -0.000 C 
BRANCH  25  26
ATOM     26  C   UNL     1      34.764   5.530   5.822  1.00  0.00    -0.000 C 
BRANCH  26  27
ATOM     27  C   UNL     1      36.279   5.309   5.986  1.00  0.00    -0.000 C 
BRANCH  27  28
ATOM     28  C   UNL     1      36.699   5.220   7.464  1.00  0.00    -0.000 C 
BRANCH  28  29
ATOM     29  C   UNL     1      37.408   3.894   7.794  1.00  0.00    -0.000 C 
BRANCH  29  30
ATOM     30  C   UNL     1      37.494   2.945   6.584  1.00  0.00    -0.000 C 
BRANCH  30  31
ATOM     31  C   UNL     1      38.528   1.812   6.726  1.00  0.00    -0.003 C 
ATOM     32  C   UNL     1      37.895   0.466   7.076  1.00  0.00     0.004 C 
ENDBRANCH  30  31
ENDBRANCH  29  30
ENDBRANCH  28  29
ENDBRANCH  27  28
ENDBRANCH  26  27
ENDBRANCH  25  26
ENDBRANCH  24  25
ENDBRANCH  23  24
ENDBRANCH  22  23
ENDBRANCH  21  22
ENDBRANCH  20  21
ENDBRANCH  19  20
ENDBRANCH  18  19
ENDBRANCH   1  18
TORSDOF 28
ENDMDL
MODEL 3
REMARK VINA RESULT:    -5.831      1.204      4.852
REMARK INTER + INTRA:         -21.230
REMARK INTER:                 -15.163
REMARK INTRA:                  -6.067
REMARK UNBOUND:                -5.856
REMARK SMILES CCCCCCCCCCCCCCCCCCCCCCCCCCCCCC(=O)[O-]
REMARK SMILES IDX 16 1 17 2 18 3 19 4 20 5 21 6 22 7 23 8 24 9 25 10 26 11
REMARK SMILES IDX 27 12 28 13 29 14 30 15 31 16 32 17 15 18 14 19 13 20 12 21
REMARK SMILES IDX 11 22 10 23 9 24 8 25 7 26 6 27 5 28 4 29 3 30 2 31 1 32
REMARK H PARENT
REMARK Flexibility Score: inf
ROOT
ATOM      1  C   UNL     1      47.592  11.393  -4.876  1.00  0.00     0.000 C 
ENDROOT
BRANCH   1   2
ATOM      2  C   UNL     1      46.478  12.277  -5.477  1.00  0.00     0.000 C 
BRANCH   2   3
ATOM      3  C   UNL     1      45.057  11.837  -5.081  1.00  0.00     0.000 C 
BRANCH   3   4
ATOM      4  C   UNL     1      45.033  10.501  -4.319  1.00  0.00     0.000 C 
BRANCH   4   5
ATOM      5  C   UNL     1      43.979  10.487  -3.192  1.00  0.00     0.000 C 
BRANCH   5   6
ATOM      6  C   UNL     1      42.634  11.117  -3.598  1.00  0.00     0.000 C 
BRANCH   6   7
ATOM      7  C   UNL     1      41.449  10.159  -3.402  1.00  0.00     0.000 C 
BRANCH   7   8
ATOM      8  C   UNL     1      41.255   9.204  -4.590  1.00  0.00     0.000 C 
BRANCH   8   9
ATOM      9  C   UNL     1      41.109   7.735  -4.163  1.00  0.00     0.000 C 
BRANCH   9  10
ATOM     10  C   UNL     1      42.004   6.826  -5.020  1.00  0.00     0.000 C 
BRANCH  10  11
ATOM     11  C   UNL     1      43.373   7.454  -5.321  1.00  0.00     0.000 C 
BRANCH  11  12
ATOM     12  C   UNL     1      44.535   6.688  -4.661  1.00  0.00     0.000 C 
BRANCH  12  13
ATOM     13  C   UNL     1      44.516   6.770  -3.125  1.00  0.00     0.006 C 
BRANCH  13  14
ATOM     14  C   UNL     1      45.826   7.290  -2.508  1.00  0.00     0.053 C 
BRANCH  14  15
ATOM     15  C   UNL     1      45.758   7.382  -1.013  1.00  0.00     0.041 C 
ATOM     16  O   UNL     1      46.071   6.392  -0.300  1.00  0.00    -0.550 OA
ATOM     17  O   UNL     1      45.317   8.553  -0.407  1.00  0.00    -0.550 OA
ENDBRANCH  14  15
ENDBRANCH  13  14
ENDBRANCH  12  13
ENDBRANCH  11  12
ENDBRANCH  10  11
ENDBRANCH   9  10
ENDBRANCH   8   9
ENDBRANCH   7   8
ENDBRANCH   6   7
ENDBRANCH   5   6
ENDBRANCH   4   5
ENDBRANCH   3   4
ENDBRANCH   2   3
ENDBRANCH   1   2
BRANCH   1  18
ATOM     18  C   UNL     1      48.935  12.134  -4.766  1.00  0.00     0.000 C 
BRANCH  18  19
ATOM     19  C   UNL     1      50.023  11.537  -5.678  1.00  0.00     0.000 C 
BRANCH  19  20
ATOM     20  C   UNL     1      49.875  10.019  -5.911  1.00  0.00     0.000 C 
BRANCH  20  21
ATOM     21  C   UNL     1      49.935   9.642  -7.403  1.00  0.00     0.000 C 
BRANCH  21  22
ATOM     22  C   UNL     1      48.881   8.591  -7.789  1.00  0.00     0.000 C 
BRANCH  22  23
ATOM     23  C   UNL     1      47.811   8.394  -6.702  1.00  0.00     0.000 C 
BRANCH  23  24
ATOM     24  C   UNL     1      46.382   8.624  -7.244  1.00  0.00    -0.000 C 
BRANCH  24  25
ATOM     25  C   UNL     1      46.274   8.501  -8.775  1.00  0.00    -0.000 C 
BRANCH  25  26
ATOM     26  C   UNL     1      44.992   9.095  -9.380  1.00  0.00    -0.000 C 
BRANCH  26  27
ATOM     27  C   UNL     1      44.092   9.764  -8.326  1.00  0.00    -0.000 C 
BRANCH  27  28
ATOM     28  C   UNL     1      44.034  11.293  -8.494  1.00  0.00    -0.000 C 
BRANCH  28  29
ATOM     29  C   UNL     1      44.924  11.791  -9.647  1.00  0.00    -0.000 C 
BRANCH  29  30
ATOM     30  C   UNL     1      46.093  12.670  -9.164  1.00  0.00    -0.000 C 
BRANCH  30  31
ATOM     31  C   UNL     1      47.413  11.913  -8.924  1.00  0.00    -0.003 C 
ATOM     32  C   UNL     1      48.088  11.464 -10.219  1.00  0.00     0.004 C 
ENDBRANCH  30  31
ENDBRANCH  29  30
ENDBRANCH  28  29
ENDBRANCH  27  28
ENDBRANCH  26  27
ENDBRANCH  25  26
ENDBRANCH  24  25
ENDBRANCH  23  24
ENDBRANCH  22  23
ENDBRANCH  21  22
ENDBRANCH  20  21
ENDBRANCH  19  20
ENDBRANCH  18  19
ENDBRANCH   1  18
TORSDOF 28
ENDMDL
MODEL 4
REMARK VINA RESULT:    -5.830     10.894     15.154
REMARK INTER + INTRA:         -21.229
REMARK INTER:                 -15.554
REMARK INTRA:                  -5.675
REMARK UNBOUND:                -5.856
REMARK SMILES CCCCCCCCCCCCCCCCCCCCCCCCCCCCCC(=O)[O-]
REMARK SMILES IDX 16 1 17 2 18 3 19 4 20 5 21 6 22 7 23 8 24 9 25 10 26 11
REMARK SMILES IDX 27 12 28 13 29 14 30 15 31 16 32 17 15 18 14 19 13 20 12 21
REMARK SMILES IDX 11 22 10 23 9 24 8 25 7 26 6 27 5 28 4 29 3 30 2 31 1 32
REMARK H PARENT
REMARK Flexibility Score: inf
ROOT
ATOM      1  C   UNL     1      38.987   2.421   4.463  1.00  0.00     0.000 C 
ENDROOT
BRANCH   1   2
ATOM      2  C   UNL     1      40.413   2.991   4.619  1.00  0.00     0.000 C 
BRANCH   2   3
ATOM      3  C   UNL     1      40.970   3.625   3.332  1.00  0.00     0.000 C 
BRANCH   3   4
ATOM      4  C   UNL     1      41.413   2.583   2.291  1.00  0.00     0.000 C 
BRANCH   4   5
ATOM      5  C   UNL     1      40.987   2.966   0.859  1.00  0.00     0.000 C 
BRANCH   5   6
ATOM      6  C   UNL     1      39.861   4.014   0.809  1.00  0.00     0.000 C 
BRANCH   6   7
ATOM      7  C   UNL     1      38.493   3.397   0.482  1.00  0.00     0.000 C 
BRANCH   7   8
ATOM      8  C   UNL     1      37.453   3.639   1.588  1.00  0.00     0.000 C 
BRANCH   8   9
ATOM      9  C   UNL     1      36.907   5.076   1.596  1.00  0.00     0.000 C 
BRANCH   9  10
ATOM     10  C   UNL     1      36.512   5.501   3.019  1.00  0.00     0.000 C 
BRANCH  10  11
ATOM     11  C   UNL     1      37.355   6.674   3.543  1.00  0.00     0.000 C 
BRANCH  11  12
ATOM     12  C   UNL     1      38.854   6.516   3.227  1.00  0.00     0.000 C 
BRANCH  12  13
ATOM     13  C   UNL     1      39.508   7.818   2.734  1.00  0.00     0.006 C 
BRANCH  13  14
ATOM     14  C   UNL     1      38.506   8.878   2.247  1.00  0.00     0.053 C 
BRANCH  14  15
ATOM     15  C   UNL     1      38.668  10.189   2.956  1.00  0.00     0.041 C 
ATOM     16  O   UNL     1      37.690  10.975   3.071  1.00  0.00    -0.550 OA
ATOM     17  O   UNL     1      39.910  10.559   3.461  1.00  0.00    -0.550 OA
ENDBRANCH  14  15
ENDBRANCH  13  14
ENDBRANCH  12  13
ENDBRANCH  11  12
ENDBRANCH  10  11
ENDBRANCH   9  10
ENDBRANCH   8   9
ENDBRANCH   7   8
ENDBRANCH   6   7
ENDBRANCH   5   6
ENDBRANCH   4   5
ENDBRANCH   3   4
ENDBRANCH   2   3
ENDBRANCH   1   2
BRANCH   1  18
ATOM     18  C   UNL     1      37.942   3.228   5.253  1.00  0.00     0.000 C 
BRANCH  18  19
ATOM     19  C   UNL     1      37.902   2.852   6.746  1.00  0.00     0.000 C 
BRANCH  19  20
ATOM     20  C   UNL     1      37.203   3.902   7.634  1.00  0.00     0.000 C 
BRANCH  20  21
ATOM     21  C   UNL     1      36.651   5.089   6.822  1.00  0.00     0.000 C 
BRANCH  21  22
ATOM     22  C   UNL     1      35.118   5.182   6.880  1.00  0.00     0.000 C 
BRANCH  22  23
ATOM     23  C   UNL     1      34.462   3.886   7.388  1.00  0.00     0.000 C 
BRANCH  23  24
ATOM     24  C   UNL     1      33.890   3.033   6.234  1.00  0.00    -0.000 C 
BRANCH  24  25
ATOM     25  C   UNL     1      33.469   3.859   5.004  1.00  0.00    -0.000 C 
BRANCH  25  26
ATOM     26  C   UNL     1      33.657   3.148   3.655  1.00  0.00    -0.000 C 
BRANCH  26  27
ATOM     27  C   UNL     1      34.826   2.145   3.669  1.00  0.00    -0.000 C 
BRANCH  27  28
ATOM     28  C   UNL     1      34.450   0.802   3.020  1.00  0.00    -0.000 C 
BRANCH  28  29
ATOM     29  C   UNL     1      34.849  -0.403   3.890  1.00  0.00    -0.000 C 
BRANCH  29  30
ATOM     30  C   UNL     1      34.309  -0.306   5.329  1.00  0.00    -0.000 C 
BRANCH  30  31
ATOM     31  C   UNL     1      35.380  -0.431   6.429  1.00  0.00    -0.003 C 
ATOM     32  C   UNL     1      36.806  -0.409   5.881  1.00  0.00     0.004 C 
ENDBRANCH  30  31
ENDBRANCH  29  30
ENDBRANCH  28  29
ENDBRANCH  27  28
ENDBRANCH  26  27
ENDBRANCH  25  26
ENDBRANCH  24  25
ENDBRANCH  23  24
ENDBRANCH  22  23
ENDBRANCH  21  22
ENDBRANCH  20  21
ENDBRANCH  19  20
ENDBRANCH  18  19
ENDBRANCH   1  18
TORSDOF 28
ENDMDL
MODEL 5
REMARK VINA RESULT:    -5.821      3.001      6.733
REMARK INTER + INTRA:         -21.204
REMARK INTER:                 -15.737
REMARK INTRA:                  -5.467
REMARK UNBOUND:                -5.856
REMARK SMILES CCCCCCCCCCCCCCCCCCCCCCCCCCCCCC(=O)[O-]
REMARK SMILES IDX 16 1 17 2 18 3 19 4 20 5 21 6 22 7 23 8 24 9 25 10 26 11
REMARK SMILES IDX 27 12 28 13 29 14 30 15 31 16 32 17 15 18 14 19 13 20 12 21
REMARK SMILES IDX 11 22 10 23 9 24 8 25 7 26 6 27 5 28 4 29 3 30 2 31 1 32
REMARK H PARENT
REMARK Flexibility Score: inf
ROOT
ATOM      1  C   UNL     1      45.945   7.898  -5.169  1.00  0.00     0.000 C 
ENDROOT
BRANCH   1   2
ATOM      2  C   UNL     1      47.296   8.356  -4.576  1.00  0.00     0.000 C 
BRANCH   2   3
ATOM      3  C   UNL     1      47.297   9.819  -4.098  1.00  0.00     0.000 C 
BRANCH   3   4
ATOM      4  C   UNL     1      46.583  10.771  -5.073  1.00  0.00     0.000 C 
BRANCH   4   5
ATOM      5  C   UNL     1      47.529  11.850  -5.638  1.00  0.00     0.000 C 
BRANCH   5   6
ATOM      6  C   UNL     1      48.860  11.964  -4.875  1.00  0.00     0.000 C 
BRANCH   6   7
ATOM      7  C   UNL     1      50.079  11.669  -5.763  1.00  0.00     0.000 C 
BRANCH   7   8
ATOM      8  C   UNL     1      49.720  10.841  -7.008  1.00  0.00     0.000 C 
BRANCH   8   9
ATOM      9  C   UNL     1      49.937   9.333  -6.809  1.00  0.00     0.000 C 
BRANCH   9  10
ATOM     10  C   UNL     1      49.076   8.523  -7.790  1.00  0.00     0.000 C 
BRANCH  10  11
ATOM     11  C   UNL     1      47.969   9.365  -8.442  1.00  0.00     0.000 C 
BRANCH  11  12
ATOM     12  C   UNL     1      46.615   8.631  -8.490  1.00  0.00     0.000 C 
BRANCH  12  13
ATOM     13  C   UNL     1      45.674   9.171  -9.580  1.00  0.00     0.006 C 
BRANCH  13  14
ATOM     14  C   UNL     1      46.056  10.564 -10.106  1.00  0.00     0.053 C 
BRANCH  14  15
ATOM     15  C   UNL     1      45.261  11.659  -9.460  1.00  0.00     0.041 C 
ATOM     16  O   UNL     1      45.840  12.680  -9.002  1.00  0.00    -0.550 OA
ATOM     17  O   UNL     1      43.882  11.537  -9.335  1.00  0.00    -0.550 OA
ENDBRANCH  14  15
ENDBRANCH  13  14
ENDBRANCH  12  13
ENDBRANCH  11  12
ENDBRANCH  10  11
ENDBRANCH   9  10
ENDBRANCH   8   9
ENDBRANCH   7   8
ENDBRANCH   6   7
ENDBRANCH   5   6
ENDBRANCH   4   5
ENDBRANCH   3   4
ENDBRANCH   2   3
ENDBRANCH   1   2
BRANCH   1  18
ATOM     18  C   UNL     1      45.755   6.373  -5.086  1.00  0.00     0.000 C 
BRANCH  18  19
ATOM     19  C   UNL     1      44.950   5.939  -3.848  1.00  0.00     0.000 C 
BRANCH  19  20
ATOM     20  C   UNL     1      45.782   5.166  -2.804  1.00  0.00     0.000 C 
BRANCH  20  21
ATOM     21  C   UNL     1      45.363   5.488  -1.358  1.00  0.00     0.000 C 
BRANCH  21  22
ATOM     22  C   UNL     1      46.498   6.130  -0.543  1.00  0.00     0.000 C 
BRANCH  22  23
ATOM     23  C   UNL     1      46.117   7.506   0.030  1.00  0.00     0.000 C 
BRANCH  23  24
ATOM     24  C   UNL     1      44.729   7.975  -0.460  1.00  0.00    -0.000 C 
BRANCH  24  25
ATOM     25  C   UNL     1      44.790   9.125  -1.482  1.00  0.00    -0.000 C 
BRANCH  25  26
ATOM     26  C   UNL     1      43.680   9.103  -2.545  1.00  0.00    -0.000 C 
BRANCH  26  27
ATOM     27  C   UNL     1      43.320  10.510  -3.057  1.00  0.00    -0.000 C 
BRANCH  27  28
ATOM     28  C   UNL     1      42.906  10.503  -4.539  1.00  0.00    -0.000 C 
BRANCH  28  29
ATOM     29  C   UNL     1      42.584   9.088  -5.052  1.00  0.00    -0.000 C 
BRANCH  29  30
ATOM     30  C   UNL     1      41.087   8.885  -5.347  1.00  0.00    -0.000 C 
BRANCH  30  31
ATOM     31  C   UNL     1      40.245   8.442  -4.135  1.00  0.00    -0.003 C 
ATOM     32  C   UNL     1      39.487   9.595  -3.480  1.00  0.00     0.004 C 
ENDBRANCH  30  31
ENDBRANCH  29  30
ENDBRANCH  28  29
ENDBRANCH  27  28
ENDBRANCH  26  27
ENDBRANCH  25  26
ENDBRANCH  24  25
ENDBRANCH  23  24
ENDBRANCH  22  23
ENDBRANCH  21  22
ENDBRANCH  20  21
ENDBRANCH  19  20
ENDBRANCH  18  19
ENDBRANCH   1  18
TORSDOF 28
ENDMDL
MODEL 6
REMARK VINA RESULT:    -5.787      1.321      5.244
REMARK INTER + INTRA:         -21.116
REMARK INTER:                 -15.270
REMARK INTRA:                  -5.846
REMARK UNBOUND:                -5.856
REMARK SMILES CCCCCCCCCCCCCCCCCCCCCCCCCCCCCC(=O)[O-]
REMARK SMILES IDX 16 1 17 2 18 3 19 4 20 5 21 6 22 7 23 8 24 9 25 10 26 11
REMARK SMILES IDX 27 12 28 13 29 14 30 15 31 16 32 17 15 18 14 19 13 20 12 21
REMARK SMILES IDX 11 22 10 23 9 24 8 25 7 26 6 27 5 28 4 29 3 30 2 31 1 32
REMARK H PARENT
REMARK Flexibility Score: inf
ROOT
ATOM      1  C   UNL     1      46.138   8.633  -7.134  1.00  0.00     0.000 C 
ENDROOT
BRANCH   1   2
ATOM      2  C   UNL     1      46.529   7.351  -6.368  1.00  0.00     0.000 C 
BRANCH   2   3
ATOM      3  C   UNL     1      45.885   7.243  -4.974  1.00  0.00     0.000 C 
BRANCH   3   4
ATOM      4  C   UNL     1      44.667   6.304  -4.946  1.00  0.00     0.000 C 
BRANCH   4   5
ATOM      5  C   UNL     1      43.353   7.055  -4.648  1.00  0.00     0.000 C 
BRANCH   5   6
ATOM      6  C   UNL     1      42.811   7.850  -5.849  1.00  0.00     0.000 C 
BRANCH   6   7
ATOM      7  C   UNL     1      42.271   9.232  -5.449  1.00  0.00     0.000 C 
BRANCH   7   8
ATOM      8  C   UNL     1      43.371  10.304  -5.386  1.00  0.00     0.000 C 
BRANCH   8   9
ATOM      9  C   UNL     1      43.580  10.868  -3.973  1.00  0.00     0.000 C 
BRANCH   9  10
ATOM     10  C   UNL     1      44.753  10.166  -3.273  1.00  0.00     0.000 C 
BRANCH  10  11
ATOM     11  C   UNL     1      44.307   9.316  -2.073  1.00  0.00     0.000 C 
BRANCH  11  12
ATOM     12  C   UNL     1      45.452   9.044  -1.080  1.00  0.00     0.000 C 
BRANCH  12  13
ATOM     13  C   UNL     1      45.298   7.709  -0.332  1.00  0.00     0.006 C 
BRANCH  13  14
ATOM     14  C   UNL     1      46.493   6.754  -0.498  1.00  0.00     0.053 C 
BRANCH  14  15
ATOM     15  C   UNL     1      47.388   6.741   0.705  1.00  0.00     0.041 C 
ATOM     16  O   UNL     1      48.572   6.320   0.611  1.00  0.00    -0.550 OA
ATOM     17  O   UNL     1      46.904   7.163   1.938  1.00  0.00    -0.550 OA
ENDBRANCH  14  15
ENDBRANCH  13  14
ENDBRANCH  12  13
ENDBRANCH  11  12
ENDBRANCH  10  11
ENDBRANCH   9  10
ENDBRANCH   8   9
ENDBRANCH   7   8
ENDBRANCH   6   7
ENDBRANCH   5   6
ENDBRANCH   4   5
ENDBRANCH   3   4
ENDBRANCH   2   3
ENDBRANCH   1   2
BRANCH   1  18
ATOM     18  C   UNL     1      46.607   8.608  -8.599  1.00  0.00     0.000 C 
BRANCH  18  19
ATOM     19  C   UNL     1      45.527   9.101  -9.580  1.00  0.00     0.000 C 
BRANCH  19  20
ATOM     20  C   UNL     1      44.234   9.583  -8.891  1.00  0.00     0.000 C 
BRANCH  20  21
ATOM     21  C   UNL     1      44.105  11.118  -8.883  1.00  0.00     0.000 C 
BRANCH  21  22
ATOM     22  C   UNL     1      45.234  11.809  -9.666  1.00  0.00     0.000 C 
BRANCH  22  23
ATOM     23  C   UNL     1      46.287  12.454  -8.748  1.00  0.00     0.000 C 
BRANCH  23  24
ATOM     24  C   UNL     1      45.657  13.454  -7.753  1.00  0.00    -0.000 C 
BRANCH  24  25
ATOM     25  C   UNL     1      45.968  13.137  -6.279  1.00  0.00    -0.000 C 
BRANCH  25  26
ATOM     26  C   UNL     1      46.857  11.903  -6.058  1.00  0.00    -0.000 C 
BRANCH  26  27
ATOM     27  C   UNL     1      47.681  11.988  -4.761  1.00  0.00    -0.000 C 
BRANCH  27  28
ATOM     28  C   UNL     1      48.360  10.652  -4.411  1.00  0.00    -0.000 C 
BRANCH  28  29
ATOM     29  C   UNL     1      49.781  10.545  -4.992  1.00  0.00    -0.000 C 
BRANCH  29  30
ATOM     30  C   UNL     1      49.982   9.284  -5.852  1.00  0.00    -0.000 C 
BRANCH  30  31
ATOM     31  C   UNL     1      49.815   9.503  -7.368  1.00  0.00    -0.003 C 
ATOM     32  C   UNL     1      49.985  10.964  -7.782  1.00  0.00     0.004 C 
ENDBRANCH  30  31
ENDBRANCH  29  30
ENDBRANCH  28  29
ENDBRANCH  27  28
ENDBRANCH  26  27
ENDBRANCH  25  26
ENDBRANCH  24  25
ENDBRANCH  23  24
ENDBRANCH  22  23
ENDBRANCH  21  22
ENDBRANCH  20  21
ENDBRANCH  19  20
ENDBRANCH  18  19
ENDBRANCH   1  18
TORSDOF 28
ENDMDL
MODEL 7
REMARK VINA RESULT:    -5.776      2.875      5.551
REMARK INTER + INTRA:         -21.086
REMARK INTER:                 -15.717
REMARK INTRA:                  -5.368
REMARK UNBOUND:                -5.856
REMARK SMILES CCCCCCCCCCCCCCCCCCCCCCCCCCCCCC(=O)[O-]
REMARK SMILES IDX 16 1 17 2 18 3 19 4 20 5 21 6 22 7 23 8 24 9 25 10 26 11
REMARK SMILES IDX 27 12 28 13 29 14 30 15 31 16 32 17 15 18 14 19 13 20 12 21
REMARK SMILES IDX 11 22 10 23 9 24 8 25 7 26 6 27 5 28 4 29 3 30 2 31 1 32
REMARK H PARENT
REMARK Flexibility Score: inf
ROOT
ATOM      1  C   UNL     1      46.246  12.755  -6.773  1.00  0.00     0.000 C 
ENDROOT
BRANCH   1   2
ATOM      2  C   UNL     1      47.187  12.373  -7.936  1.00  0.00     0.000 C 
BRANCH   2   3
ATOM      3  C   UNL     1      46.460  12.165  -9.276  1.00  0.00     0.000 C 
BRANCH   3   4
ATOM      4  C   UNL     1      44.942  11.974  -9.114  1.00  0.00     0.000 C 
BRANCH   4   5
ATOM      5  C   UNL     1      44.475  10.575  -9.564  1.00  0.00     0.000 C 
BRANCH   5   6
ATOM      6  C   UNL     1      44.063   9.657  -8.399  1.00  0.00     0.000 C 
BRANCH   6   7
ATOM      7  C   UNL     1      43.323  10.412  -7.284  1.00  0.00     0.000 C 
BRANCH   7   8
ATOM      8  C   UNL     1      43.188   9.584  -5.996  1.00  0.00     0.000 C 
BRANCH   8   9
ATOM      9  C   UNL     1      43.334  10.429  -4.721  1.00  0.00     0.000 C 
BRANCH   9  10
ATOM     10  C   UNL     1      42.308   9.999  -3.661  1.00  0.00     0.000 C 
BRANCH  10  11
ATOM     11  C   UNL     1      42.202   8.473  -3.521  1.00  0.00     0.000 C 
BRANCH  11  12
ATOM     12  C   UNL     1      40.743   7.983  -3.454  1.00  0.00     0.000 C 
BRANCH  12  13
ATOM     13  C   UNL     1      40.094   7.828  -4.840  1.00  0.00     0.006 C 
BRANCH  13  14
ATOM     14  C   UNL     1      39.095   8.942  -5.193  1.00  0.00     0.053 C 
BRANCH  14  15
ATOM     15  C   UNL     1      38.107   8.517  -6.238  1.00  0.00     0.041 C 
ATOM     16  O   UNL     1      37.523   9.378  -6.949  1.00  0.00    -0.550 OA
ATOM     17  O   UNL     1      37.807   7.170  -6.405  1.00  0.00    -0.550 OA
ENDBRANCH  14  15
ENDBRANCH  13  14
ENDBRANCH  12  13
ENDBRANCH  11  12
ENDBRANCH  10  11
ENDBRANCH   9  10
ENDBRANCH   8   9
ENDBRANCH   7   8
ENDBRANCH   6   7
ENDBRANCH   5   6
ENDBRANCH   4   5
ENDBRANCH   3   4
ENDBRANCH   2   3
ENDBRANCH   1   2
BRANCH   1  18
ATOM     18  C   UNL     1      46.461  11.874  -5.530  1.00  0.00     0.000 C 
BRANCH  18  19
ATOM     19  C   UNL     1      47.862  12.042  -4.914  1.00  0.00     0.000 C 
BRANCH  19  20
ATOM     20  C   UNL     1      48.577  10.707  -4.621  1.00  0.00     0.000 C 
BRANCH  20  21
ATOM     21  C   UNL     1      50.017  10.674  -5.167  1.00  0.00     0.000 C 
BRANCH  21  22
ATOM     22  C   UNL     1      50.066  10.448  -6.688  1.00  0.00     0.000 C 
BRANCH  22  23
ATOM     23  C   UNL     1      49.625   9.032  -7.093  1.00  0.00     0.000 C 
BRANCH  23  24
ATOM     24  C   UNL     1      48.448   9.052  -8.093  1.00  0.00    -0.000 C 
BRANCH  24  25
ATOM     25  C   UNL     1      47.354   8.013  -7.782  1.00  0.00    -0.000 C 
BRANCH  25  26
ATOM     26  C   UNL     1      46.651   8.203  -6.429  1.00  0.00    -0.000 C 
BRANCH  26  27
ATOM     27  C   UNL     1      46.062   6.892  -5.877  1.00  0.00    -0.000 C 
BRANCH  27  28
ATOM     28  C   UNL     1      45.394   7.086  -4.504  1.00  0.00    -0.000 C 
BRANCH  28  29
ATOM     29  C   UNL     1      46.222   7.985  -3.569  1.00  0.00    -0.000 C 
BRANCH  29  30
ATOM     30  C   UNL     1      46.173   7.527  -2.100  1.00  0.00    -0.000 C 
BRANCH  30  31
ATOM     31  C   UNL     1      45.120   6.444  -1.796  1.00  0.00    -0.003 C 
ATOM     32  C   UNL     1      45.735   5.134  -1.306  1.00  0.00     0.004 C 
ENDBRANCH  30  31
ENDBRANCH  29  30
ENDBRANCH  28  29
ENDBRANCH  27  28
ENDBRANCH  26  27
ENDBRANCH  25  26
ENDBRANCH  24  25
ENDBRANCH  23  24
ENDBRANCH  22  23
ENDBRANCH  21  22
ENDBRANCH  20  21
ENDBRANCH  19  20
ENDBRANCH  18  19
ENDBRANCH   1  18
TORSDOF 28
ENDMDL
MODEL 8
REMARK VINA RESULT:    -5.725      1.323      5.228
REMARK INTER + INTRA:         -20.952
REMARK INTER:                 -15.041
REMARK INTRA:                  -5.911
REMARK UNBOUND:                -5.856
REMARK SMILES CCCCCCCCCCCCCCCCCCCCCCCCCCCCCC(=O)[O-]
REMARK SMILES IDX 16 1 17 2 18 3 19 4 20 5 21 6 22 7 23 8 24 9 25 10 26 11
REMARK SMILES IDX 27 12 28 13 29 14 30 15 31 16 32 17 15 18 14 19 13 20 12 21
REMARK SMILES IDX 11 22 10 23 9 24 8 25 7 26 6 27 5 28 4 29 3 30 2 31 1 32
REMARK H PARENT
REMARK Flexibility Score: inf
ROOT
ATOM      1  C   UNL     1      45.635   9.816  -5.362  1.00  0.00     0.000 C 
ENDROOT
BRANCH   1   2
ATOM      2  C   UNL     1      45.814   9.710  -3.833  1.00  0.00     0.000 C 
BRANCH   2   3
ATOM      3  C   UNL     1      44.522   9.980  -3.039  1.00  0.00     0.000 C 
BRANCH   3   4
ATOM      4  C   UNL     1      43.639  11.065  -3.678  1.00  0.00     0.000 C 
BRANCH   4   5
ATOM      5  C   UNL     1      42.136  10.740  -3.566  1.00  0.00     0.000 C 
BRANCH   5   6
ATOM      6  C   UNL     1      41.801   9.264  -3.841  1.00  0.00     0.000 C 
BRANCH   6   7
ATOM      7  C   UNL     1      41.978   8.882  -5.319  1.00  0.00     0.000 C 
BRANCH   7   8
ATOM      8  C   UNL     1      42.418   7.421  -5.507  1.00  0.00     0.000 C 
BRANCH   8   9
ATOM      9  C   UNL     1      43.241   6.885  -4.326  1.00  0.00     0.000 C 
BRANCH   9  10
ATOM     10  C   UNL     1      44.481   6.128  -4.824  1.00  0.00     0.000 C 
BRANCH  10  11
ATOM     11  C   UNL     1      45.421   5.709  -3.683  1.00  0.00     0.000 C 
BRANCH  11  12
ATOM     12  C   UNL     1      45.023   6.328  -2.329  1.00  0.00     0.000 C 
BRANCH  12  13
ATOM     13  C   UNL     1      46.211   6.952  -1.578  1.00  0.00     0.006 C 
BRANCH  13  14
ATOM     14  C   UNL     1      45.875   7.427  -0.155  1.00  0.00     0.053 C 
BRANCH  14  15
ATOM     15  C   UNL     1      46.923   7.037   0.843  1.00  0.00     0.041 C 
ATOM     16  O   UNL     1      47.059   7.692   1.911  1.00  0.00    -0.550 OA
ATOM     17  O   UNL     1      47.774   5.970   0.579  1.00  0.00    -0.550 OA
ENDBRANCH  14  15
ENDBRANCH  13  14
ENDBRANCH  12  13
ENDBRANCH  11  12
ENDBRANCH  10  11
ENDBRANCH   9  10
ENDBRANCH   8   9
ENDBRANCH   7   8
ENDBRANCH   6   7
ENDBRANCH   5   6
ENDBRANCH   4   5
ENDBRANCH   3   4
ENDBRANCH   2   3
ENDBRANCH   1   2
BRANCH   1  18
ATOM     18  C   UNL     1      46.649   8.954  -6.133  1.00  0.00     0.000 C 
BRANCH  18  19
ATOM     19  C   UNL     1      46.031   8.260  -7.361  1.00  0.00     0.000 C 
BRANCH  19  20
ATOM     20  C   UNL     1      46.550   8.802  -8.709  1.00  0.00     0.000 C 
BRANCH  20  21
ATOM     21  C   UNL     1      45.413   9.291  -9.627  1.00  0.00     0.000 C 
BRANCH  21  22
ATOM     22  C   UNL     1      44.170   9.736  -8.840  1.00  0.00     0.000 C 
BRANCH  22  23
ATOM     23  C   UNL     1      43.966  11.260  -8.861  1.00  0.00     0.000 C 
BRANCH  23  24
ATOM     24  C   UNL     1      45.294  12.023  -9.061  1.00  0.00    -0.000 C 
BRANCH  24  25
ATOM     25  C   UNL     1      45.873  12.609  -7.760  1.00  0.00    -0.000 C 
BRANCH  25  26
ATOM     26  C   UNL     1      47.385  12.404  -7.577  1.00  0.00    -0.000 C 
BRANCH  26  27
ATOM     27  C   UNL     1      48.091  11.993  -8.882  1.00  0.00    -0.000 C 
BRANCH  27  28
ATOM     28  C   UNL     1      49.580  11.670  -8.663  1.00  0.00    -0.000 C 
BRANCH  28  29
ATOM     29  C   UNL     1      49.966  11.661  -7.173  1.00  0.00    -0.000 C 
BRANCH  29  30
ATOM     30  C   UNL     1      50.200  10.241  -6.624  1.00  0.00    -0.000 C 
BRANCH  30  31
ATOM     31  C   UNL     1      49.899  10.071  -5.123  1.00  0.00    -0.003 C 
ATOM     32  C   UNL     1      49.181  11.277  -4.518  1.00  0.00     0.004 C 
ENDBRANCH  30  31
ENDBRANCH  29  30
ENDBRANCH  28  29
ENDBRANCH  27  28
ENDBRANCH  26  27
ENDBRANCH  25  26
ENDBRANCH  24  25
ENDBRANCH  23  24
ENDBRANCH  22  23
ENDBRANCH  21  22
ENDBRANCH  20  21
ENDBRANCH  19  20
ENDBRANCH  18  19
ENDBRANCH   1  18
TORSDOF 28
ENDMDL
MODEL 9
REMARK VINA RESULT:    -5.705      2.574      5.557
REMARK INTER + INTRA:         -20.899
REMARK INTER:                 -14.886
REMARK INTRA:                  -6.013
REMARK UNBOUND:                -5.856
REMARK SMILES CCCCCCCCCCCCCCCCCCCCCCCCCCCCCC(=O)[O-]
REMARK SMILES IDX 16 1 17 2 18 3 19 4 20 5 21 6 22 7 23 8 24 9 25 10 26 11
REMARK SMILES IDX 27 12 28 13 29 14 30 15 31 16 32 17 15 18 14 19 13 20 12 21
REMARK SMILES IDX 11 22 10 23 9 24 8 25 7 26 6 27 5 28 4 29 3 30 2 31 1 32
REMARK H PARENT
REMARK Flexibility Score: inf
ROOT
ATOM      1  C   UNL     1      44.260  11.065  -4.963  1.00  0.00     0.000 C 
ENDROOT
BRANCH   1   2
ATOM      2  C   UNL     1      45.780  10.885  -5.162  1.00  0.00     0.000 C 
BRANCH   2   3
ATOM      3  C   UNL     1      46.534  12.207  -5.388  1.00  0.00     0.000 C 
BRANCH   3   4
ATOM      4  C   UNL     1      46.989  12.398  -6.845  1.00  0.00     0.000 C 
BRANCH   4   5
ATOM      5  C   UNL     1      45.877  12.990  -7.735  1.00  0.00     0.000 C 
BRANCH   5   6
ATOM      6  C   UNL     1      46.045  12.666  -9.230  1.00  0.00     0.000 C 
BRANCH   6   7
ATOM      7  C   UNL     1      44.951  11.725  -9.758  1.00  0.00     0.000 C 
BRANCH   7   8
ATOM      8  C   UNL     1      43.952  11.304  -8.668  1.00  0.00     0.000 C 
BRANCH   8   9
ATOM      9  C   UNL     1      44.014   9.804  -8.343  1.00  0.00     0.000 C 
BRANCH   9  10
ATOM     10  C   UNL     1      45.158   9.126  -9.111  1.00  0.00     0.000 C 
BRANCH  10  11
ATOM     11  C   UNL     1      46.294   8.654  -8.190  1.00  0.00     0.000 C 
BRANCH  11  12
ATOM     12  C   UNL     1      47.659   9.255  -8.576  1.00  0.00     0.000 C 
BRANCH  12  13
ATOM     13  C   UNL     1      48.829   8.660  -7.775  1.00  0.00     0.006 C 
BRANCH  13  14
ATOM     14  C   UNL     1      48.806   9.008  -6.277  1.00  0.00     0.053 C 
BRANCH  14  15
ATOM     15  C   UNL     1      49.739  10.131  -5.934  1.00  0.00     0.041 C 
ATOM     16  O   UNL     1      49.956  10.432  -4.730  1.00  0.00    -0.550 OA
ATOM     17  O   UNL     1      50.344  10.867  -6.946  1.00  0.00    -0.550 OA
ENDBRANCH  14  15
ENDBRANCH  13  14
ENDBRANCH  12  13
ENDBRANCH  11  12
ENDBRANCH  10  11
ENDBRANCH   9  10
ENDBRANCH   8   9
ENDBRANCH   7   8
ENDBRANCH   6   7
ENDBRANCH   5   6
ENDBRANCH   4   5
ENDBRANCH   3   4
ENDBRANCH   2   3
ENDBRANCH   1   2
BRANCH   1  18
ATOM     18  C   UNL     1      43.882  11.280  -3.487  1.00  0.00     0.000 C 
BRANCH  18  19
ATOM     19  C   UNL     1      43.448   9.980  -2.786  1.00  0.00     0.000 C 
BRANCH  19  20
ATOM     20  C   UNL     1      44.544   9.355  -1.900  1.00  0.00     0.000 C 
BRANCH  20  21
ATOM     21  C   UNL     1      44.344   7.842  -1.691  1.00  0.00     0.000 C 
BRANCH  21  22
ATOM     22  C   UNL     1      45.505   7.009  -2.259  1.00  0.00     0.000 C 
BRANCH  22  23
ATOM     23  C   UNL     1      46.114   7.625  -3.530  1.00  0.00     0.000 C 
BRANCH  23  24
ATOM     24  C   UNL     1      45.839   6.764  -4.783  1.00  0.00    -0.000 C 
BRANCH  24  25
ATOM     25  C   UNL     1      44.359   6.379  -4.956  1.00  0.00    -0.000 C 
BRANCH  25  26
ATOM     26  C   UNL     1      43.464   7.494  -5.522  1.00  0.00    -0.000 C 
BRANCH  26  27
ATOM     27  C   UNL     1      42.026   7.437  -4.974  1.00  0.00    -0.000 C 
BRANCH  27  28
ATOM     28  C   UNL     1      41.232   8.718  -5.286  1.00  0.00    -0.000 C 
BRANCH  28  29
ATOM     29  C   UNL     1      40.160   9.018  -4.223  1.00  0.00    -0.000 C 
BRANCH  29  30
ATOM     30  C   UNL     1      38.750   9.173  -4.823  1.00  0.00    -0.000 C 
BRANCH  30  31
ATOM     31  C   UNL     1      38.597   8.634  -6.258  1.00  0.00    -0.003 C 
ATOM     32  C   UNL     1      37.936   7.258  -6.312  1.00  0.00     0.004 C 
ENDBRANCH  30  31
ENDBRANCH  29  30
ENDBRANCH  28  29
ENDBRANCH  27  28
ENDBRANCH  26  27
ENDBRANCH  25  26
ENDBRANCH  24  25
ENDBRANCH  23  24
ENDBRANCH  22  23
ENDBRANCH  21  22
ENDBRANCH  20  21
ENDBRANCH  19  20
ENDBRANCH  18  19
ENDBRANCH   1  18
TORSDOF 28
ENDMDL
