MODEL 1
REMARK VINA RESULT:    -4.782      0.000      0.000
REMARK INTER + INTRA:          -6.842
REMARK INTER:                  -6.319
REMARK INTRA:                  -0.523
REMARK UNBOUND:                -0.523
REMARK SMILES CC(C)=CCC[C@H](C(=O)[O-])[C@H]1CC[C@]2(C)C3=C(CC[C@]12C)[C@]1(C)CC[C@H](O)C(C)(C)[C@H]1CC3
REMARK SMILES IDX 6 1 7 2 8 3 9 4 10 5 11 6 12 7 20 8 13 9 14 10 19 11 21 12
REMARK SMILES IDX 15 13 16 14 18 15 17 16 33 17 22 18 32 19 31 20 24 21 23 22
REMARK SMILES IDX 28 23 25 24 26 25 29 26 30 27 27 28 5 30 4 31 2 32 1 33 3 34
REMARK H PARENT 27 29
REMARK Flexibility Score: inf
ROOT
ATOM      1  C   UNL     1      99.134 113.346 115.512  1.00  0.00     0.014 C 
ENDROOT
BRANCH   1   2
ATOM      2  C   UNL     1     100.210 112.852 116.528  1.00  0.00     0.039 C 
BRANCH   2   3
ATOM      3  C   UNL     1      99.715 111.711 117.383  1.00  0.00     0.045 C 
ATOM      4  O   UNL     1      99.468 111.903 118.602  1.00  0.00    -0.550 OA
ATOM      5  O   UNL     1      99.500 110.450 116.837  1.00  0.00    -0.550 OA
ENDBRANCH   2   3
BRANCH   2   6
ATOM      6  C   UNL     1     100.956 113.943 117.389  1.00  0.00     0.004 C 
ATOM      7  C   UNL     1     102.488 113.854 117.339  1.00  0.00     0.006 C 
ATOM      8  C   UNL     1     100.633 115.474 117.268  1.00  0.00    -0.020 C 
ATOM      9  C   UNL     1     103.022 115.244 117.681  1.00  0.00     0.012 C 
ATOM     10  C   UNL     1     101.810 116.128 118.080  1.00  0.00    -0.006 C 
ATOM     11  C   UNL     1      99.283 115.912 117.879  1.00  0.00     0.012 C 
ATOM     12  C   UNL     1     100.623 115.915 115.779  1.00  0.00     0.012 C 
ATOM     13  C   UNL     1     102.076 117.612 117.707  1.00  0.00     0.017 C 
ATOM     14  C   UNL     1     101.583 116.073 119.620  1.00  0.00    -0.064 C 
ATOM     15  C   UNL     1      99.132 115.548 119.347  1.00  0.00     0.032 C 
ATOM     16  C   UNL     1     100.352 115.886 120.195  1.00  0.00    -0.064 C 
ATOM     17  C   UNL     1     102.791 116.258 120.532  1.00  0.00     0.032 C 
ATOM     18  C   UNL     1     100.243 115.835 121.745  1.00  0.00    -0.008 C 
ATOM     19  C   UNL     1     102.525 117.104 121.786  1.00  0.00     0.009 C 
ATOM     20  C   UNL     1     101.059 117.058 122.300  1.00  0.00     0.007 C 
ATOM     21  C   UNL     1      98.762 115.993 122.217  1.00  0.00     0.014 C 
ATOM     22  C   UNL     1     100.790 114.450 122.208  1.00  0.00     0.016 C 
ATOM     23  C   UNL     1     100.904 117.358 123.846  1.00  0.00    -0.006 C 
ATOM     24  C   UNL     1      98.606 116.214 123.728  1.00  0.00     0.033 C 
ATOM     25  C   UNL     1      99.387 117.449 124.206  1.00  0.00     0.120 C 
ATOM     26  C   UNL     1     101.568 118.721 124.176  1.00  0.00     0.014 C 
ATOM     27  C   UNL     1     101.582 116.301 124.765  1.00  0.00     0.014 C 
BRANCH  25  28
ATOM     28  O   UNL     1      98.820 118.607 123.642  1.00  0.00    -0.393 OA
ATOM     29  H   UNL     1      98.521 118.368 122.725  1.00  0.00     0.210 HD
ENDBRANCH  25  28
ENDBRANCH   2   6
ENDBRANCH   1   2
BRANCH   1  30
ATOM     30  C   UNL     1      99.232 112.704 114.111  1.00  0.00     0.028 C 
BRANCH  30  31
ATOM     31  C   UNL     1     100.286 113.335 113.230  1.00  0.00    -0.028 C 
ATOM     32  C   UNL     1     100.456 113.074 111.915  1.00  0.00    -0.080 C 
ATOM     33  C   UNL     1      99.583 112.094 111.168  1.00  0.00     0.039 C 
ATOM     34  C   UNL     1     101.593 113.756 111.194  1.00  0.00     0.039 C 
ENDBRANCH  30  31
ENDBRANCH   1  30
TORSDOF 6
ENDMDL
MODEL 2
REMARK VINA RESULT:    -3.706      1.702      3.267
REMARK INTER + INTRA:          -5.420
REMARK INTER:                  -5.128
REMARK INTRA:                  -0.292
REMARK UNBOUND:                -0.523
REMARK SMILES CC(C)=CCC[C@H](C(=O)[O-])[C@H]1CC[C@]2(C)C3=C(CC[C@]12C)[C@]1(C)CC[C@H](O)C(C)(C)[C@H]1CC3
REMARK SMILES IDX 6 1 7 2 8 3 9 4 10 5 11 6 12 7 20 8 13 9 14 10 19 11 21 12
REMARK SMILES IDX 15 13 16 14 18 15 17 16 33 17 22 18 32 19 31 20 24 21 23 22
REMARK SMILES IDX 28 23 25 24 26 25 29 26 30 27 27 28 5 30 4 31 2 32 1 33 3 34
REMARK H PARENT 27 29
REMARK Flexibility Score: inf
ROOT
ATOM      1  C   UNL     1      99.550 111.785 116.309  1.00  0.00     0.014 C 
ENDROOT
BRANCH   1   2
ATOM      2  C   UNL     1      99.512 113.333 116.115  1.00  0.00     0.039 C 
BRANCH   2   3
ATOM      3  C   UNL     1      99.638 113.736 114.667  1.00  0.00     0.045 C 
ATOM      4  O   UNL     1      98.653 114.244 114.070  1.00  0.00    -0.550 OA
ATOM      5  O   UNL     1     100.839 113.579 113.983  1.00  0.00    -0.550 OA
ENDBRANCH   2   3
BRANCH   2   6
ATOM      6  C   UNL     1     100.438 114.207 117.045  1.00  0.00     0.004 C 
ATOM      7  C   UNL     1     101.929 113.841 116.984  1.00  0.00     0.006 C 
ATOM      8  C   UNL     1     100.405 115.777 117.029  1.00  0.00    -0.020 C 
ATOM      9  C   UNL     1     102.707 115.082 117.417  1.00  0.00     0.012 C 
ATOM     10  C   UNL     1     101.675 116.146 117.879  1.00  0.00    -0.006 C 
ATOM     11  C   UNL     1      99.153 116.414 117.673  1.00  0.00     0.012 C 
ATOM     12  C   UNL     1     100.490 116.311 115.573  1.00  0.00     0.012 C 
ATOM     13  C   UNL     1     102.213 117.577 117.607  1.00  0.00     0.017 C 
ATOM     14  C   UNL     1     101.428 116.031 119.412  1.00  0.00    -0.064 C 
ATOM     15  C   UNL     1      98.925 115.987 119.113  1.00  0.00     0.032 C 
ATOM     16  C   UNL     1     100.179 116.036 119.978  1.00  0.00    -0.064 C 
ATOM     17  C   UNL     1     102.640 115.928 120.331  1.00  0.00     0.032 C 
ATOM     18  C   UNL     1     100.048 115.902 121.522  1.00  0.00    -0.008 C 
ATOM     19  C   UNL     1     102.524 116.722 121.640  1.00  0.00     0.009 C 
ATOM     20  C   UNL     1     101.070 116.913 122.155  1.00  0.00     0.007 C 
ATOM     21  C   UNL     1      98.617 116.299 122.008  1.00  0.00     0.014 C 
ATOM     22  C   UNL     1     100.326 114.412 121.887  1.00  0.00     0.016 C 
ATOM     23  C   UNL     1     100.959 117.132 123.718  1.00  0.00    -0.006 C 
ATOM     24  C   UNL     1      98.490 116.443 123.531  1.00  0.00     0.033 C 
ATOM     25  C   UNL     1      99.482 117.477 124.089  1.00  0.00     0.120 C 
ATOM     26  C   UNL     1     101.860 118.325 124.137  1.00  0.00     0.014 C 
ATOM     27  C   UNL     1     101.423 115.910 124.561  1.00  0.00     0.014 C 
BRANCH  25  28
ATOM     28  O   UNL     1      99.143 118.755 123.606  1.00  0.00    -0.393 OA
ATOM     29  H   UNL     1      98.259 118.989 123.995  1.00  0.00     0.210 HD
ENDBRANCH  25  28
ENDBRANCH   2   6
ENDBRANCH   1   2
BRANCH   1  30
ATOM     30  C   UNL     1      99.093 111.302 117.703  1.00  0.00     0.028 C 
BRANCH  30  31
ATOM     31  C   UNL     1     100.014 110.273 118.317  1.00  0.00    -0.028 C 
ATOM     32  C   UNL     1     100.854 110.502 119.350  1.00  0.00    -0.080 C 
ATOM     33  C   UNL     1     100.961 111.853 120.017  1.00  0.00     0.039 C 
ATOM     34  C   UNL     1     101.743 109.374 119.810  1.00  0.00     0.039 C 
ENDBRANCH  30  31
ENDBRANCH   1  30
TORSDOF 6
ENDMDL
MODEL 3
REMARK VINA RESULT:    -1.934      2.239      8.534
REMARK INTER + INTRA:          -3.078
REMARK INTER:                  -3.065
REMARK INTRA:                  -0.014
REMARK UNBOUND:                -0.523
REMARK SMILES CC(C)=CCC[C@H](C(=O)[O-])[C@H]1CC[C@]2(C)C3=C(CC[C@]12C)[C@]1(C)CC[C@H](O)C(C)(C)[C@H]1CC3
REMARK SMILES IDX 6 1 7 2 8 3 9 4 10 5 11 6 12 7 20 8 13 9 14 10 19 11 21 12
REMARK SMILES IDX 15 13 16 14 18 15 17 16 33 17 22 18 32 19 31 20 24 21 23 22
REMARK SMILES IDX 28 23 25 24 26 25 29 26 30 27 27 28 5 30 4 31 2 32 1 33 3 34
REMARK H PARENT 27 29
REMARK Flexibility Score: inf
ROOT
ATOM      1  C   UNL     1     100.861 117.689 124.173  1.00  0.00     0.014 C 
ENDROOT
BRANCH   1   2
ATOM      2  C   UNL     1     101.798 116.743 123.360  1.00  0.00     0.039 C 
BRANCH   2   3
ATOM      3  C   UNL     1     102.813 117.502 122.541  1.00  0.00     0.045 C 
ATOM      4  O   UNL     1     102.955 117.237 121.318  1.00  0.00    -0.550 OA
ATOM      5  O   UNL     1     103.581 118.512 123.110  1.00  0.00    -0.550 OA
ENDBRANCH   2   3
BRANCH   2   6
ATOM      6  C   UNL     1     101.123 115.588 122.525  1.00  0.00     0.004 C 
ATOM      7  C   UNL     1     101.381 114.176 123.069  1.00  0.00     0.006 C 
ATOM      8  C   UNL     1      99.599 115.606 122.146  1.00  0.00    -0.020 C 
ATOM      9  C   UNL     1     100.239 113.293 122.568  1.00  0.00     0.012 C 
ATOM     10  C   UNL     1      99.375 114.147 121.602  1.00  0.00    -0.006 C 
ATOM     11  C   UNL     1      99.205 116.627 121.056  1.00  0.00     0.012 C 
ATOM     12  C   UNL     1      98.728 115.913 123.395  1.00  0.00     0.012 C 
ATOM     13  C   UNL     1      97.893 113.686 121.647  1.00  0.00     0.017 C 
ATOM     14  C   UNL     1      99.868 113.970 120.135  1.00  0.00    -0.064 C 
ATOM     15  C   UNL     1      99.977 116.461 119.757  1.00  0.00     0.032 C 
ATOM     16  C   UNL     1     100.067 115.019 119.273  1.00  0.00    -0.064 C 
ATOM     17  C   UNL     1     100.121 112.555 119.627  1.00  0.00     0.032 C 
ATOM     18  C   UNL     1     100.574 114.727 117.833  1.00  0.00    -0.008 C 
ATOM     19  C   UNL     1      99.671 112.301 118.180  1.00  0.00     0.009 C 
ATOM     20  C   UNL     1      99.689 113.558 117.266  1.00  0.00     0.007 C 
ATOM     21  C   UNL     1     100.385 115.967 116.901  1.00  0.00     0.014 C 
ATOM     22  C   UNL     1     102.091 114.378 117.932  1.00  0.00     0.016 C 
ATOM     23  C   UNL     1      99.857 113.238 115.726  1.00  0.00    -0.006 C 
ATOM     24  C   UNL     1     100.617 115.673 115.412  1.00  0.00     0.033 C 
ATOM     25  C   UNL     1      99.693 114.554 114.902  1.00  0.00     0.120 C 
ATOM     26  C   UNL     1      98.752 112.242 115.283  1.00  0.00     0.014 C 
ATOM     27  C   UNL     1     101.219 112.578 115.364  1.00  0.00     0.014 C 
BRANCH  25  28
ATOM     28  O   UNL     1      98.357 114.996 114.948  1.00  0.00    -0.393 OA
ATOM     29  H   UNL     1      97.955 114.800 114.062  1.00  0.00     0.210 HD
ENDBRANCH  25  28
ENDBRANCH   2   6
ENDBRANCH   1   2
BRANCH   1  30
ATOM     30  C   UNL     1     100.989 119.185 123.812  1.00  0.00     0.028 C 
BRANCH  30  31
ATOM     31  C   UNL     1     100.012 120.070 124.550  1.00  0.00    -0.028 C 
ATOM     32  C   UNL     1      98.688 120.149 124.293  1.00  0.00    -0.080 C 
ATOM     33  C   UNL     1      98.028 119.334 123.206  1.00  0.00     0.039 C 
ATOM     34  C   UNL     1      97.863 121.125 125.095  1.00  0.00     0.039 C 
ENDBRANCH  30  31
ENDBRANCH   1  30
TORSDOF 6
ENDMDL
