MODEL 1
REMARK VINA RESULT:    -3.943      0.000      0.000
REMARK INTER + INTRA:          -9.324
REMARK INTER:                  -7.169
REMARK INTRA:                  -2.155
REMARK UNBOUND:                -2.155
REMARK SMILES CCCCCCCCCCCCCCCC(=O)[O-]
REMARK SMILES IDX 9 1 10 2 11 3 12 4 13 5 14 6 15 7 16 8 17 9 18 10 8 11 7 12
REMARK SMILES IDX 6 13 5 14 4 15 3 16 2 17 1 18
REMARK H PARENT
REMARK Flexibility Score: inf
ROOT
ATOM      1  C   UNL     1      25.729   0.658   5.712  1.00  0.00     0.000 C 
ENDROOT
BRANCH   1   2
ATOM      2  C   UNL     1      25.031   2.021   5.862  1.00  0.00     0.000 C 
BRANCH   2   3
ATOM      3  C   UNL     1      24.500   2.266   7.286  1.00  0.00     0.000 C 
BRANCH   3   4
ATOM      4  C   UNL     1      24.900   3.618   7.908  1.00  0.00     0.000 C 
BRANCH   4   5
ATOM      5  C   UNL     1      25.483   4.649   6.921  1.00  0.00     0.000 C 
BRANCH   5   6
ATOM      6  C   UNL     1      25.055   6.106   7.175  1.00  0.00     0.006 C 
BRANCH   6   7
ATOM      7  C   UNL     1      25.508   6.628   8.545  1.00  0.00     0.053 C 
BRANCH   7   8
ATOM      8  C   UNL     1      26.291   7.894   8.387  1.00  0.00     0.041 C 
ATOM      9  O   UNL     1      27.261   7.943   7.586  1.00  0.00    -0.550 OA
ATOM     10  O   UNL     1      25.917   9.033   9.086  1.00  0.00    -0.550 OA
ENDBRANCH   7   8
ENDBRANCH   6   7
ENDBRANCH   5   6
ENDBRANCH   4   5
ENDBRANCH   3   4
ENDBRANCH   2   3
ENDBRANCH   1   2
BRANCH   1  11
ATOM     11  C   UNL     1      27.176   0.790   5.209  1.00  0.00     0.000 C 
BRANCH  11  12
ATOM     12  C   UNL     1      27.786   2.167   5.525  1.00  0.00    -0.000 C 
BRANCH  12  13
ATOM     13  C   UNL     1      28.882   2.094   6.600  1.00  0.00    -0.000 C 
BRANCH  13  14
ATOM     14  C   UNL     1      28.409   2.618   7.968  1.00  0.00    -0.000 C 
BRANCH  14  15
ATOM     15  C   UNL     1      27.812   1.508   8.847  1.00  0.00    -0.000 C 
BRANCH  15  16
ATOM     16  C   UNL     1      28.829   0.395   9.164  1.00  0.00    -0.000 C 
BRANCH  16  17
ATOM     17  C   UNL     1      28.264  -1.009   8.903  1.00  0.00    -0.003 C 
ATOM     18  C   UNL     1      28.640  -1.549   7.524  1.00  0.00     0.004 C 
ENDBRANCH  16  17
ENDBRANCH  15  16
ENDBRANCH  14  15
ENDBRANCH  13  14
ENDBRANCH  12  13
ENDBRANCH  11  12
ENDBRANCH   1  11
TORSDOF 14
ENDMDL
MODEL 2
REMARK VINA RESULT:    -3.939      1.612      3.098
REMARK INTER + INTRA:          -9.318
REMARK INTER:                  -7.411
REMARK INTRA:                  -1.907
REMARK UNBOUND:                -2.155
REMARK SMILES CCCCCCCCCCCCCCCC(=O)[O-]
REMARK SMILES IDX 9 1 10 2 11 3 12 4 13 5 14 6 15 7 16 8 17 9 18 10 8 11 7 12
REMARK SMILES IDX 6 13 5 14 4 15 3 16 2 17 1 18
REMARK H PARENT
REMARK Flexibility Score: inf
ROOT
ATOM      1  C   UNL     1      27.170   2.569   6.674  1.00  0.00     0.000 C 
ENDROOT
BRANCH   1   2
ATOM      2  C   UNL     1      28.514   2.432   7.410  1.00  0.00     0.000 C 
BRANCH   2   3
ATOM      3  C   UNL     1      28.350   2.313   8.936  1.00  0.00     0.000 C 
BRANCH   3   4
ATOM      4  C   UNL     1      28.534   3.630   9.717  1.00  0.00     0.000 C 
BRANCH   4   5
ATOM      5  C   UNL     1      27.279   4.137  10.454  1.00  0.00     0.000 C 
BRANCH   5   6
ATOM      6  C   UNL     1      26.292   4.936   9.584  1.00  0.00     0.006 C 
BRANCH   6   7
ATOM      7  C   UNL     1      26.994   5.785   8.515  1.00  0.00     0.053 C 
BRANCH   7   8
ATOM      8  C   UNL     1      26.479   7.189   8.543  1.00  0.00     0.041 C 
ATOM      9  O   UNL     1      25.486   7.485   9.259  1.00  0.00    -0.550 OA
ATOM     10  O   UNL     1      27.125   8.181   7.818  1.00  0.00    -0.550 OA
ENDBRANCH   7   8
ENDBRANCH   6   7
ENDBRANCH   5   6
ENDBRANCH   4   5
ENDBRANCH   3   4
ENDBRANCH   2   3
ENDBRANCH   1   2
BRANCH   1  11
ATOM     11  C   UNL     1      26.008   1.922   7.446  1.00  0.00     0.000 C 
BRANCH  11  12
ATOM     12  C   UNL     1      25.264   0.864   6.612  1.00  0.00    -0.000 C 
BRANCH  12  13
ATOM     13  C   UNL     1      25.805  -0.556   6.844  1.00  0.00    -0.000 C 
BRANCH  13  14
ATOM     14  C   UNL     1      26.993  -0.896   5.925  1.00  0.00    -0.000 C 
BRANCH  14  15
ATOM     15  C   UNL     1      28.058  -1.748   6.633  1.00  0.00    -0.000 C 
BRANCH  15  16
ATOM     16  C   UNL     1      28.405  -1.214   8.035  1.00  0.00    -0.000 C 
BRANCH  16  17
ATOM     17  C   UNL     1      28.277  -2.291   9.123  1.00  0.00    -0.003 C 
ATOM     18  C   UNL     1      27.986  -3.677   8.549  1.00  0.00     0.004 C 
ENDBRANCH  16  17
ENDBRANCH  15  16
ENDBRANCH  14  15
ENDBRANCH  13  14
ENDBRANCH  12  13
ENDBRANCH  11  12
ENDBRANCH   1  11
TORSDOF 14
ENDMDL
MODEL 3
REMARK VINA RESULT:    -3.935      2.123      4.444
REMARK INTER + INTRA:          -9.310
REMARK INTER:                  -7.050
REMARK INTRA:                  -2.260
REMARK UNBOUND:                -2.155
REMARK SMILES CCCCCCCCCCCCCCCC(=O)[O-]
REMARK SMILES IDX 9 1 10 2 11 3 12 4 13 5 14 6 15 7 16 8 17 9 18 10 8 11 7 12
REMARK SMILES IDX 6 13 5 14 4 15 3 16 2 17 1 18
REMARK H PARENT
REMARK Flexibility Score: inf
ROOT
ATOM      1  C   UNL     1      27.168   3.971  10.410  1.00  0.00     0.000 C 
ENDROOT
BRANCH   1   2
ATOM      2  C   UNL     1      26.703   5.370   9.969  1.00  0.00     0.000 C 
BRANCH   2   3
ATOM      3  C   UNL     1      27.199   5.746   8.561  1.00  0.00     0.000 C 
BRANCH   3   4
ATOM      4  C   UNL     1      26.342   6.797   7.827  1.00  0.00     0.000 C 
BRANCH   4   5
ATOM      5  C   UNL     1      26.419   8.226   8.401  1.00  0.00     0.000 C 
BRANCH   5   6
ATOM      6  C   UNL     1      25.133   8.721   9.086  1.00  0.00     0.006 C 
BRANCH   6   7
ATOM      7  C   UNL     1      23.973   7.724   8.965  1.00  0.00     0.053 C 
BRANCH   7   8
ATOM      8  C   UNL     1      23.264   7.588  10.275  1.00  0.00     0.041 C 
ATOM      9  O   UNL     1      22.124   8.100  10.434  1.00  0.00    -0.550 OA
ATOM     10  O   UNL     1      23.838   6.854  11.304  1.00  0.00    -0.550 OA
ENDBRANCH   7   8
ENDBRANCH   6   7
ENDBRANCH   5   6
ENDBRANCH   4   5
ENDBRANCH   3   4
ENDBRANCH   2   3
ENDBRANCH   1   2
BRANCH   1  11
ATOM     11  C   UNL     1      28.525   3.582   9.802  1.00  0.00     0.000 C 
BRANCH  11  12
ATOM     12  C   UNL     1      28.749   2.060   9.784  1.00  0.00    -0.000 C 
BRANCH  12  13
ATOM     13  C   UNL     1      28.332   1.418   8.451  1.00  0.00    -0.000 C 
BRANCH  13  14
ATOM     14  C   UNL     1      28.485   2.377   7.256  1.00  0.00    -0.000 C 
BRANCH  14  15
ATOM     15  C   UNL     1      27.241   2.397   6.355  1.00  0.00    -0.000 C 
BRANCH  15  16
ATOM     16  C   UNL     1      25.929   2.363   7.161  1.00  0.00    -0.000 C 
BRANCH  16  17
ATOM     17  C   UNL     1      24.961   3.485   6.757  1.00  0.00    -0.003 C 
ATOM     18  C   UNL     1      23.968   3.834   7.865  1.00  0.00     0.004 C 
ENDBRANCH  16  17
ENDBRANCH  15  16
ENDBRANCH  14  15
ENDBRANCH  13  14
ENDBRANCH  12  13
ENDBRANCH  11  12
ENDBRANCH   1  11
TORSDOF 14
ENDMDL
MODEL 4
REMARK VINA RESULT:    -3.931      3.491      6.690
REMARK INTER + INTRA:          -9.303
REMARK INTER:                  -7.289
REMARK INTRA:                  -2.013
REMARK UNBOUND:                -2.155
REMARK SMILES CCCCCCCCCCCCCCCC(=O)[O-]
REMARK SMILES IDX 9 1 10 2 11 3 12 4 13 5 14 6 15 7 16 8 17 9 18 10 8 11 7 12
REMARK SMILES IDX 6 13 5 14 4 15 3 16 2 17 1 18
REMARK H PARENT
REMARK Flexibility Score: inf
ROOT
ATOM      1  C   UNL     1      24.766   2.009   7.570  1.00  0.00     0.000 C 
ENDROOT
BRANCH   1   2
ATOM      2  C   UNL     1      25.708   2.788   6.636  1.00  0.00     0.000 C 
BRANCH   2   3
ATOM      3  C   UNL     1      26.801   1.900   6.014  1.00  0.00     0.000 C 
BRANCH   3   4
ATOM      4  C   UNL     1      28.240   2.227   6.460  1.00  0.00     0.000 C 
BRANCH   4   5
ATOM      5  C   UNL     1      28.413   2.509   7.965  1.00  0.00     0.000 C 
BRANCH   5   6
ATOM      6  C   UNL     1      28.422   1.259   8.863  1.00  0.00     0.006 C 
BRANCH   6   7
ATOM      7  C   UNL     1      29.042   0.036   8.174  1.00  0.00     0.053 C 
BRANCH   7   8
ATOM      8  C   UNL     1      28.146  -1.153   8.319  1.00  0.00     0.041 C 
ATOM      9  O   UNL     1      27.219  -1.352   7.491  1.00  0.00    -0.550 OA
ATOM     10  O   UNL     1      28.367  -2.070   9.338  1.00  0.00    -0.550 OA
ENDBRANCH   7   8
ENDBRANCH   6   7
ENDBRANCH   5   6
ENDBRANCH   4   5
ENDBRANCH   3   4
ENDBRANCH   2   3
ENDBRANCH   1   2
BRANCH   1  11
ATOM     11  C   UNL     1      24.596   2.691   8.938  1.00  0.00     0.000 C 
BRANCH  11  12
ATOM     12  C   UNL     1      23.674   3.922   8.871  1.00  0.00    -0.000 C 
BRANCH  12  13
ATOM     13  C   UNL     1      24.405   5.226   9.232  1.00  0.00    -0.000 C 
BRANCH  13  14
ATOM     14  C   UNL     1      25.787   4.977   9.863  1.00  0.00    -0.000 C 
BRANCH  14  15
ATOM     15  C   UNL     1      26.928   5.597   9.042  1.00  0.00    -0.000 C 
BRANCH  15  16
ATOM     16  C   UNL     1      26.415   6.418   7.845  1.00  0.00    -0.000 C 
BRANCH  16  17
ATOM     17  C   UNL     1      26.768   7.909   7.959  1.00  0.00    -0.003 C 
ATOM     18  C   UNL     1      25.808   8.674   8.868  1.00  0.00     0.004 C 
ENDBRANCH  16  17
ENDBRANCH  15  16
ENDBRANCH  14  15
ENDBRANCH  13  14
ENDBRANCH  12  13
ENDBRANCH  11  12
ENDBRANCH   1  11
TORSDOF 14
ENDMDL
MODEL 5
REMARK VINA RESULT:    -3.929      1.394      2.142
REMARK INTER + INTRA:          -9.299
REMARK INTER:                  -7.273
REMARK INTRA:                  -2.026
REMARK UNBOUND:                -2.155
REMARK SMILES CCCCCCCCCCCCCCCC(=O)[O-]
REMARK SMILES IDX 9 1 10 2 11 3 12 4 13 5 14 6 15 7 16 8 17 9 18 10 8 11 7 12
REMARK SMILES IDX 6 13 5 14 4 15 3 16 2 17 1 18
REMARK H PARENT
REMARK Flexibility Score: inf
ROOT
ATOM      1  C   UNL     1      25.237   2.767   7.074  1.00  0.00     0.000 C 
ENDROOT
BRANCH   1   2
ATOM      2  C   UNL     1      24.654   2.560   8.483  1.00  0.00     0.000 C 
BRANCH   2   3
ATOM      3  C   UNL     1      23.770   3.734   8.941  1.00  0.00     0.000 C 
BRANCH   3   4
ATOM      4  C   UNL     1      24.384   4.623  10.041  1.00  0.00     0.000 C 
BRANCH   4   5
ATOM      5  C   UNL     1      25.859   4.330  10.376  1.00  0.00     0.000 C 
BRANCH   5   6
ATOM      6  C   UNL     1      26.840   5.469  10.043  1.00  0.00     0.006 C 
BRANCH   6   7
ATOM      7  C   UNL     1      26.852   5.826   8.551  1.00  0.00     0.053 C 
BRANCH   7   8
ATOM      8  C   UNL     1      26.700   7.303   8.367  1.00  0.00     0.041 C 
ATOM      9  O   UNL     1      25.851   7.942   9.043  1.00  0.00    -0.550 OA
ATOM     10  O   UNL     1      27.531   7.983   7.486  1.00  0.00    -0.550 OA
ENDBRANCH   7   8
ENDBRANCH   6   7
ENDBRANCH   5   6
ENDBRANCH   4   5
ENDBRANCH   3   4
ENDBRANCH   2   3
ENDBRANCH   1   2
BRANCH   1  11
ATOM     11  C   UNL     1      26.295   1.711   6.714  1.00  0.00     0.000 C 
BRANCH  11  12
ATOM     12  C   UNL     1      27.684   2.327   6.472  1.00  0.00    -0.000 C 
BRANCH  12  13
ATOM     13  C   UNL     1      28.440   2.609   7.781  1.00  0.00    -0.000 C 
BRANCH  13  14
ATOM     14  C   UNL     1      28.200   1.529   8.851  1.00  0.00    -0.000 C 
BRANCH  14  15
ATOM     15  C   UNL     1      29.125   0.314   8.677  1.00  0.00    -0.000 C 
BRANCH  15  16
ATOM     16  C   UNL     1      28.372  -1.023   8.806  1.00  0.00    -0.000 C 
BRANCH  16  17
ATOM     17  C   UNL     1      28.368  -1.824   7.495  1.00  0.00    -0.003 C 
ATOM     18  C   UNL     1      27.003  -1.821   6.807  1.00  0.00     0.004 C 
ENDBRANCH  16  17
ENDBRANCH  15  16
ENDBRANCH  14  15
ENDBRANCH  13  14
ENDBRANCH  12  13
ENDBRANCH  11  12
ENDBRANCH   1  11
TORSDOF 14
ENDMDL
MODEL 6
REMARK VINA RESULT:    -3.915      1.415      3.639
REMARK INTER + INTRA:          -9.274
REMARK INTER:                  -7.372
REMARK INTRA:                  -1.902
REMARK UNBOUND:                -2.155
REMARK SMILES CCCCCCCCCCCCCCCC(=O)[O-]
REMARK SMILES IDX 9 1 10 2 11 3 12 4 13 5 14 6 15 7 16 8 17 9 18 10 8 11 7 12
REMARK SMILES IDX 6 13 5 14 4 15 3 16 2 17 1 18
REMARK H PARENT
REMARK Flexibility Score: inf
ROOT
ATOM      1  C   UNL     1      28.615   2.449   8.021  1.00  0.00     0.000 C 
ENDROOT
BRANCH   1   2
ATOM      2  C   UNL     1      28.634   3.769   8.811  1.00  0.00     0.000 C 
BRANCH   2   3
ATOM      3  C   UNL     1      28.047   3.625  10.227  1.00  0.00     0.000 C 
BRANCH   3   4
ATOM      4  C   UNL     1      26.641   4.228  10.415  1.00  0.00     0.000 C 
BRANCH   4   5
ATOM      5  C   UNL     1      26.452   5.647   9.843  1.00  0.00     0.000 C 
BRANCH   5   6
ATOM      6  C   UNL     1      25.592   5.725   8.569  1.00  0.00     0.006 C 
BRANCH   6   7
ATOM      7  C   UNL     1      24.986   7.117   8.345  1.00  0.00     0.053 C 
BRANCH   7   8
ATOM      8  C   UNL     1      26.047   8.167   8.428  1.00  0.00     0.041 C 
ATOM      9  O   UNL     1      25.950   9.100   9.269  1.00  0.00    -0.550 OA
ATOM     10  O   UNL     1      27.168   8.090   7.612  1.00  0.00    -0.550 OA
ENDBRANCH   7   8
ENDBRANCH   6   7
ENDBRANCH   5   6
ENDBRANCH   4   5
ENDBRANCH   3   4
ENDBRANCH   2   3
ENDBRANCH   1   2
BRANCH   1  11
ATOM     11  C   UNL     1      28.631   1.214   8.937  1.00  0.00     0.000 C 
BRANCH  11  12
ATOM     12  C   UNL     1      28.838  -0.096   8.156  1.00  0.00    -0.000 C 
BRANCH  12  13
ATOM     13  C   UNL     1      28.064  -0.120   6.828  1.00  0.00    -0.000 C 
BRANCH  13  14
ATOM     14  C   UNL     1      26.776  -0.959   6.906  1.00  0.00    -0.000 C 
BRANCH  14  15
ATOM     15  C   UNL     1      25.506  -0.096   6.829  1.00  0.00    -0.000 C 
BRANCH  15  16
ATOM     16  C   UNL     1      25.696   1.155   5.952  1.00  0.00    -0.000 C 
BRANCH  16  17
ATOM     17  C   UNL     1      25.335   2.452   6.692  1.00  0.00    -0.003 C 
ATOM     18  C   UNL     1      24.642   2.195   8.029  1.00  0.00     0.004 C 
ENDBRANCH  16  17
ENDBRANCH  15  16
ENDBRANCH  14  15
ENDBRANCH  13  14
ENDBRANCH  12  13
ENDBRANCH  11  12
ENDBRANCH   1  11
TORSDOF 14
ENDMDL
MODEL 7
REMARK VINA RESULT:    -3.902      3.410      6.470
REMARK INTER + INTRA:          -9.251
REMARK INTER:                  -7.170
REMARK INTRA:                  -2.081
REMARK UNBOUND:                -2.155
REMARK SMILES CCCCCCCCCCCCCCCC(=O)[O-]
REMARK SMILES IDX 9 1 10 2 11 3 12 4 13 5 14 6 15 7 16 8 17 9 18 10 8 11 7 12
REMARK SMILES IDX 6 13 5 14 4 15 3 16 2 17 1 18
REMARK H PARENT
REMARK Flexibility Score: inf
ROOT
ATOM      1  C   UNL     1      28.566   2.517   8.043  1.00  0.00     0.000 C 
ENDROOT
BRANCH   1   2
ATOM      2  C   UNL     1      27.854   1.398   8.823  1.00  0.00     0.000 C 
BRANCH   2   3
ATOM      3  C   UNL     1      28.782   0.214   9.149  1.00  0.00     0.000 C 
BRANCH   3   4
ATOM      4  C   UNL     1      28.400  -1.120   8.476  1.00  0.00     0.000 C 
BRANCH   4   5
ATOM      5  C   UNL     1      28.295  -1.074   6.939  1.00  0.00     0.000 C 
BRANCH   5   6
ATOM      6  C   UNL     1      26.859  -1.033   6.387  1.00  0.00     0.006 C 
BRANCH   6   7
ATOM      7  C   UNL     1      26.607   0.172   5.473  1.00  0.00     0.053 C 
BRANCH   7   8
ATOM      8  C   UNL     1      26.651  -0.244   4.037  1.00  0.00     0.041 C 
ATOM      9  O   UNL     1      26.637  -1.466   3.731  1.00  0.00    -0.550 OA
ATOM     10  O   UNL     1      26.656   0.716   3.034  1.00  0.00    -0.550 OA
ENDBRANCH   7   8
ENDBRANCH   6   7
ENDBRANCH   5   6
ENDBRANCH   4   5
ENDBRANCH   3   4
ENDBRANCH   2   3
ENDBRANCH   1   2
BRANCH   1  11
ATOM     11  C   UNL     1      28.727   3.802   8.871  1.00  0.00     0.000 C 
BRANCH  11  12
ATOM     12  C   UNL     1      27.961   3.742  10.205  1.00  0.00    -0.000 C 
BRANCH  12  13
ATOM     13  C   UNL     1      26.887   4.835  10.317  1.00  0.00    -0.000 C 
BRANCH  13  14
ATOM     14  C   UNL     1      26.799   5.714   9.056  1.00  0.00    -0.000 C 
BRANCH  14  15
ATOM     15  C   UNL     1      25.482   5.515   8.290  1.00  0.00    -0.000 C 
BRANCH  15  16
ATOM     16  C   UNL     1      25.698   4.910   6.891  1.00  0.00    -0.000 C 
BRANCH  16  17
ATOM     17  C   UNL     1      25.320   3.423   6.827  1.00  0.00    -0.003 C 
ATOM     18  C   UNL     1      24.538   2.961   8.056  1.00  0.00     0.004 C 
ENDBRANCH  16  17
ENDBRANCH  15  16
ENDBRANCH  14  15
ENDBRANCH  13  14
ENDBRANCH  12  13
ENDBRANCH  11  12
ENDBRANCH   1  11
TORSDOF 14
ENDMDL
MODEL 8
REMARK VINA RESULT:    -3.886      2.000      4.051
REMARK INTER + INTRA:          -9.222
REMARK INTER:                  -7.423
REMARK INTRA:                  -1.799
REMARK UNBOUND:                -2.155
REMARK SMILES CCCCCCCCCCCCCCCC(=O)[O-]
REMARK SMILES IDX 9 1 10 2 11 3 12 4 13 5 14 6 15 7 16 8 17 9 18 10 8 11 7 12
REMARK SMILES IDX 6 13 5 14 4 15 3 16 2 17 1 18
REMARK H PARENT
REMARK Flexibility Score: inf
ROOT
ATOM      1  C   UNL     1      27.790   1.396   8.478  1.00  0.00     0.000 C 
ENDROOT
BRANCH   1   2
ATOM      2  C   UNL     1      28.384   2.642   7.799  1.00  0.00     0.000 C 
BRANCH   2   3
ATOM      3  C   UNL     1      28.714   3.766   8.798  1.00  0.00     0.000 C 
BRANCH   3   4
ATOM      4  C   UNL     1      28.002   3.657  10.161  1.00  0.00     0.000 C 
BRANCH   4   5
ATOM      5  C   UNL     1      26.799   4.601  10.351  1.00  0.00     0.000 C 
BRANCH   5   6
ATOM      6  C   UNL     1      26.676   5.717   9.298  1.00  0.00     0.006 C 
BRANCH   6   7
ATOM      7  C   UNL     1      25.238   5.911   8.801  1.00  0.00     0.053 C 
BRANCH   7   8
ATOM      8  C   UNL     1      24.994   5.090   7.575  1.00  0.00     0.041 C 
ATOM      9  O   UNL     1      25.925   4.891   6.750  1.00  0.00    -0.550 OA
ATOM     10  O   UNL     1      23.754   4.501   7.368  1.00  0.00    -0.550 OA
ENDBRANCH   7   8
ENDBRANCH   6   7
ENDBRANCH   5   6
ENDBRANCH   4   5
ENDBRANCH   3   4
ENDBRANCH   2   3
ENDBRANCH   1   2
BRANCH   1  11
ATOM     11  C   UNL     1      28.797   0.237   8.564  1.00  0.00     0.000 C 
BRANCH  11  12
ATOM     12  C   UNL     1      28.357  -0.852   9.559  1.00  0.00    -0.000 C 
BRANCH  12  13
ATOM     13  C   UNL     1      28.327  -2.252   8.925  1.00  0.00    -0.000 C 
BRANCH  13  14
ATOM     14  C   UNL     1      28.174  -2.208   7.393  1.00  0.00    -0.000 C 
BRANCH  14  15
ATOM     15  C   UNL     1      26.729  -2.469   6.939  1.00  0.00    -0.000 C 
BRANCH  15  16
ATOM     16  C   UNL     1      26.023  -1.190   6.454  1.00  0.00    -0.000 C 
BRANCH  16  17
ATOM     17  C   UNL     1      26.832  -0.440   5.385  1.00  0.00    -0.003 C 
ATOM     18  C   UNL     1      26.278   0.955   5.098  1.00  0.00     0.004 C 
ENDBRANCH  16  17
ENDBRANCH  15  16
ENDBRANCH  14  15
ENDBRANCH  13  14
ENDBRANCH  12  13
ENDBRANCH  11  12
ENDBRANCH   1  11
TORSDOF 14
ENDMDL
MODEL 9
REMARK VINA RESULT:    -3.864      0.987      3.364
REMARK INTER + INTRA:          -9.181
REMARK INTER:                  -7.218
REMARK INTRA:                  -1.963
REMARK UNBOUND:                -2.155
REMARK SMILES CCCCCCCCCCCCCCCC(=O)[O-]
REMARK SMILES IDX 9 1 10 2 11 3 12 4 13 5 14 6 15 7 16 8 17 9 18 10 8 11 7 12
REMARK SMILES IDX 6 13 5 14 4 15 3 16 2 17 1 18
REMARK H PARENT
REMARK Flexibility Score: inf
ROOT
ATOM      1  C   UNL     1      29.052   1.298   7.856  1.00  0.00     0.000 C 
ENDROOT
BRANCH   1   2
ATOM      2  C   UNL     1      28.317   2.648   7.921  1.00  0.00     0.000 C 
BRANCH   2   3
ATOM      3  C   UNL     1      27.025   2.585   8.756  1.00  0.00     0.000 C 
BRANCH   3   4
ATOM      4  C   UNL     1      25.913   3.556   8.314  1.00  0.00     0.000 C 
BRANCH   4   5
ATOM      5  C   UNL     1      26.161   4.271   6.971  1.00  0.00     0.000 C 
BRANCH   5   6
ATOM      6  C   UNL     1      25.675   5.730   6.913  1.00  0.00     0.006 C 
BRANCH   6   7
ATOM      7  C   UNL     1      25.643   6.403   8.291  1.00  0.00     0.053 C 
BRANCH   7   8
ATOM      8  C   UNL     1      26.307   7.742   8.234  1.00  0.00     0.041 C 
ATOM      9  O   UNL     1      25.850   8.704   8.906  1.00  0.00    -0.550 OA
ATOM     10  O   UNL     1      27.459   7.915   7.479  1.00  0.00    -0.550 OA
ENDBRANCH   7   8
ENDBRANCH   6   7
ENDBRANCH   5   6
ENDBRANCH   4   5
ENDBRANCH   3   4
ENDBRANCH   2   3
ENDBRANCH   1   2
BRANCH   1  11
ATOM     11  C   UNL     1      28.791   0.426   9.095  1.00  0.00     0.000 C 
BRANCH  11  12
ATOM     12  C   UNL     1      28.190  -0.944   8.735  1.00  0.00    -0.000 C 
BRANCH  12  13
ATOM     13  C   UNL     1      28.453  -1.337   7.273  1.00  0.00    -0.000 C 
BRANCH  13  14
ATOM     14  C   UNL     1      27.158  -1.476   6.452  1.00  0.00    -0.000 C 
BRANCH  14  15
ATOM     15  C   UNL     1      26.072  -0.484   6.895  1.00  0.00    -0.000 C 
BRANCH  15  16
ATOM     16  C   UNL     1      25.650   0.473   5.765  1.00  0.00    -0.000 C 
BRANCH  16  17
ATOM     17  C   UNL     1      26.841   0.940   4.914  1.00  0.00    -0.003 C 
ATOM     18  C   UNL     1      26.672   0.608   3.432  1.00  0.00     0.004 C 
ENDBRANCH  16  17
ENDBRANCH  15  16
ENDBRANCH  14  15
ENDBRANCH  13  14
ENDBRANCH  12  13
ENDBRANCH  11  12
ENDBRANCH   1  11
TORSDOF 14
ENDMDL
