MODEL 1
REMARK VINA RESULT:    -5.731      0.000      0.000
REMARK INTER + INTRA:          -9.423
REMARK INTER:                  -8.747
REMARK INTRA:                  -0.676
REMARK UNBOUND:                -0.676
REMARK SMILES CCCCCCCCCC=CC(=O)[O-]
REMARK SMILES IDX 7 1 8 2 9 3 10 4 11 5 12 6 13 7 14 8 6 9 5 10 4 11 3 12 2 13
REMARK SMILES IDX 1 14
REMARK H PARENT
REMARK Flexibility Score: inf
ROOT
ATOM      1  C   UNL     1       0.554  45.014   1.451  1.00  0.00     0.000 C 
ENDROOT
BRANCH   1   2
ATOM      2  C   UNL     1      -0.673  44.142   1.121  1.00  0.00     0.004 C 
BRANCH   2   3
ATOM      3  C   UNL     1      -1.792  44.201   2.175  1.00  0.00     0.027 C 
BRANCH   3   4
ATOM      4  C   UNL     1      -1.536  45.249   3.227  1.00  0.00    -0.025 C 
ATOM      5  C   UNL     1      -2.211  45.348   4.384  1.00  0.00     0.020 C 
BRANCH   5   6
ATOM      6  C   UNL     1      -3.311  44.468   4.828  1.00  0.00     0.064 C 
ATOM      7  O   UNL     1      -4.511  44.847   4.829  1.00  0.00    -0.545 OA
ATOM      8  O   UNL     1      -3.010  43.183   5.263  1.00  0.00    -0.545 OA
ENDBRANCH   5   6
ENDBRANCH   3   4
ENDBRANCH   2   3
ENDBRANCH   1   2
BRANCH   1   9
ATOM      9  C   UNL     1       1.910  44.428   1.010  1.00  0.00     0.000 C 
BRANCH   9  10
ATOM     10  C   UNL     1       3.082  44.794   1.946  1.00  0.00     0.000 C 
BRANCH  10  11
ATOM     11  C   UNL     1       2.665  45.797   3.036  1.00  0.00    -0.000 C 
BRANCH  11  12
ATOM     12  C   UNL     1       3.712  45.925   4.152  1.00  0.00    -0.000 C 
BRANCH  12  13
ATOM     13  C   UNL     1       4.495  44.623   4.376  1.00  0.00    -0.003 C 
ATOM     14  C   UNL     1       4.367  44.146   5.820  1.00  0.00     0.004 C 
ENDBRANCH  12  13
ENDBRANCH  11  12
ENDBRANCH  10  11
ENDBRANCH   9  10
ENDBRANCH   1   9
TORSDOF 9
ENDMDL
MODEL 2
REMARK VINA RESULT:    -5.612      1.263      1.942
REMARK INTER + INTRA:          -9.240
REMARK INTER:                  -8.424
REMARK INTRA:                  -0.816
REMARK UNBOUND:                -0.676
REMARK SMILES CCCCCCCCCC=CC(=O)[O-]
REMARK SMILES IDX 7 1 8 2 9 3 10 4 11 5 12 6 13 7 14 8 6 9 5 10 4 11 3 12 2 13
REMARK SMILES IDX 1 14
REMARK H PARENT
REMARK Flexibility Score: inf
ROOT
ATOM      1  C   UNL     1      -0.995  44.762   0.502  1.00  0.00     0.000 C 
ENDROOT
BRANCH   1   2
ATOM      2  C   UNL     1      -1.585  43.471   1.104  1.00  0.00     0.004 C 
BRANCH   2   3
ATOM      3  C   UNL     1      -2.273  43.667   2.467  1.00  0.00     0.027 C 
BRANCH   3   4
ATOM      4  C   UNL     1      -1.758  44.878   3.202  1.00  0.00    -0.025 C 
ATOM      5  C   UNL     1      -2.195  45.280   4.407  1.00  0.00     0.020 C 
BRANCH   5   6
ATOM      6  C   UNL     1      -3.244  44.626   5.215  1.00  0.00     0.064 C 
ATOM      7  O   UNL     1      -2.973  43.753   6.082  1.00  0.00    -0.545 OA
ATOM      8  O   UNL     1      -4.571  44.979   5.007  1.00  0.00    -0.545 OA
ENDBRANCH   5   6
ENDBRANCH   3   4
ENDBRANCH   2   3
ENDBRANCH   1   2
BRANCH   1   9
ATOM      9  C   UNL     1       0.475  44.659   0.049  1.00  0.00     0.000 C 
BRANCH   9  10
ATOM     10  C   UNL     1       1.436  44.173   1.155  1.00  0.00     0.000 C 
BRANCH  10  11
ATOM     11  C   UNL     1       2.656  45.098   1.314  1.00  0.00    -0.000 C 
BRANCH  11  12
ATOM     12  C   UNL     1       3.307  44.983   2.700  1.00  0.00    -0.000 C 
BRANCH  12  13
ATOM     13  C   UNL     1       3.045  46.217   3.576  1.00  0.00    -0.003 C 
ATOM     14  C   UNL     1       1.548  46.470   3.736  1.00  0.00     0.004 C 
ENDBRANCH  12  13
ENDBRANCH  11  12
ENDBRANCH  10  11
ENDBRANCH   9  10
ENDBRANCH   1   9
TORSDOF 9
ENDMDL
MODEL 3
REMARK VINA RESULT:    -5.535      5.853      7.768
REMARK INTER + INTRA:          -9.124
REMARK INTER:                  -8.459
REMARK INTRA:                  -0.665
REMARK UNBOUND:                -0.676
REMARK SMILES CCCCCCCCCC=CC(=O)[O-]
REMARK SMILES IDX 7 1 8 2 9 3 10 4 11 5 12 6 13 7 14 8 6 9 5 10 4 11 3 12 2 13
REMARK SMILES IDX 1 14
REMARK H PARENT
REMARK Flexibility Score: inf
ROOT
ATOM      1  C   UNL     1       0.206  45.304  -3.011  1.00  0.00     0.000 C 
ENDROOT
BRANCH   1   2
ATOM      2  C   UNL     1       1.161  44.169  -3.429  1.00  0.00     0.004 C 
BRANCH   2   3
ATOM      3  C   UNL     1       2.652  44.538  -3.353  1.00  0.00     0.027 C 
BRANCH   3   4
ATOM      4  C   UNL     1       3.403  43.697  -2.352  1.00  0.00    -0.025 C 
ATOM      5  C   UNL     1       4.721  43.445  -2.406  1.00  0.00     0.020 C 
BRANCH   5   6
ATOM      6  C   UNL     1       5.659  43.931  -3.438  1.00  0.00     0.064 C 
ATOM      7  O   UNL     1       6.240  43.148  -4.235  1.00  0.00    -0.545 OA
ATOM      8  O   UNL     1       5.913  45.294  -3.528  1.00  0.00    -0.545 OA
ENDBRANCH   5   6
ENDBRANCH   3   4
ENDBRANCH   2   3
ENDBRANCH   1   2
BRANCH   1   9
ATOM      9  C   UNL     1      -0.582  45.049  -1.710  1.00  0.00     0.000 C 
BRANCH   9  10
ATOM     10  C   UNL     1       0.295  44.568  -0.534  1.00  0.00     0.000 C 
BRANCH  10  11
ATOM     11  C   UNL     1      -0.295  44.962   0.831  1.00  0.00    -0.000 C 
BRANCH  11  12
ATOM     12  C   UNL     1       0.786  45.198   1.896  1.00  0.00    -0.000 C 
BRANCH  12  13
ATOM     13  C   UNL     1       2.189  44.806   1.407  1.00  0.00    -0.003 C 
ATOM     14  C   UNL     1       3.224  44.968   2.517  1.00  0.00     0.004 C 
ENDBRANCH  12  13
ENDBRANCH  11  12
ENDBRANCH  10  11
ENDBRANCH   9  10
ENDBRANCH   1   9
TORSDOF 9
ENDMDL
MODEL 4
REMARK VINA RESULT:    -5.455      3.165      6.002
REMARK INTER + INTRA:          -9.000
REMARK INTER:                  -8.563
REMARK INTRA:                  -0.437
REMARK UNBOUND:                -0.676
REMARK SMILES CCCCCCCCCC=CC(=O)[O-]
REMARK SMILES IDX 7 1 8 2 9 3 10 4 11 5 12 6 13 7 14 8 6 9 5 10 4 11 3 12 2 13
REMARK SMILES IDX 1 14
REMARK H PARENT
REMARK Flexibility Score: inf
ROOT
ATOM      1  C   UNL     1       3.216  44.757   2.159  1.00  0.00     0.000 C 
ENDROOT
BRANCH   1   2
ATOM      2  C   UNL     1       3.085  45.973   3.096  1.00  0.00     0.004 C 
BRANCH   2   3
ATOM      3  C   UNL     1       3.352  45.659   4.579  1.00  0.00     0.027 C 
BRANCH   3   4
ATOM      4  C   UNL     1       4.631  44.886   4.782  1.00  0.00    -0.025 C 
ATOM      5  C   UNL     1       4.902  44.134   5.860  1.00  0.00     0.020 C 
BRANCH   5   6
ATOM      6  C   UNL     1       4.018  43.933   7.026  1.00  0.00     0.064 C 
ATOM      7  O   UNL     1       3.684  44.882   7.784  1.00  0.00    -0.545 OA
ATOM      8  O   UNL     1       3.547  42.655   7.300  1.00  0.00    -0.545 OA
ENDBRANCH   5   6
ENDBRANCH   3   4
ENDBRANCH   2   3
ENDBRANCH   1   2
BRANCH   1   9
ATOM      9  C   UNL     1       2.342  44.813   0.890  1.00  0.00     0.000 C 
BRANCH   9  10
ATOM     10  C   UNL     1       0.954  44.159   1.060  1.00  0.00     0.000 C 
BRANCH  10  11
ATOM     11  C   UNL     1      -0.111  44.811   0.160  1.00  0.00    -0.000 C 
BRANCH  11  12
ATOM     12  C   UNL     1      -1.543  44.525   0.637  1.00  0.00    -0.000 C 
BRANCH  12  13
ATOM     13  C   UNL     1      -1.606  43.369   1.646  1.00  0.00    -0.003 C 
ATOM     14  C   UNL     1      -2.298  43.803   2.936  1.00  0.00     0.004 C 
ENDBRANCH  12  13
ENDBRANCH  11  12
ENDBRANCH  10  11
ENDBRANCH   9  10
ENDBRANCH   1   9
TORSDOF 9
ENDMDL
MODEL 5
REMARK VINA RESULT:    -5.402      2.181      3.683
REMARK INTER + INTRA:          -8.920
REMARK INTER:                  -8.406
REMARK INTRA:                  -0.515
REMARK UNBOUND:                -0.676
REMARK SMILES CCCCCCCCCC=CC(=O)[O-]
REMARK SMILES IDX 7 1 8 2 9 3 10 4 11 5 12 6 13 7 14 8 6 9 5 10 4 11 3 12 2 13
REMARK SMILES IDX 1 14
REMARK H PARENT
REMARK Flexibility Score: inf
ROOT
ATOM      1  C   UNL     1      -2.951  45.088   1.115  1.00  0.00     0.000 C 
ENDROOT
BRANCH   1   2
ATOM      2  C   UNL     1      -2.441  44.183   2.254  1.00  0.00     0.004 C 
BRANCH   2   3
ATOM      3  C   UNL     1      -2.309  44.893   3.612  1.00  0.00     0.027 C 
BRANCH   3   4
ATOM      4  C   UNL     1      -3.057  44.180   4.709  1.00  0.00    -0.025 C 
ATOM      5  C   UNL     1      -3.107  44.589   5.987  1.00  0.00     0.020 C 
BRANCH   5   6
ATOM      6  C   UNL     1      -2.445  45.786   6.544  1.00  0.00     0.064 C 
ATOM      7  O   UNL     1      -3.100  46.762   6.997  1.00  0.00    -0.545 OA
ATOM      8  O   UNL     1      -1.058  45.840   6.562  1.00  0.00    -0.545 OA
ENDBRANCH   5   6
ENDBRANCH   3   4
ENDBRANCH   2   3
ENDBRANCH   1   2
BRANCH   1   9
ATOM      9  C   UNL     1      -1.855  45.850   0.345  1.00  0.00     0.000 C 
BRANCH   9  10
ATOM     10  C   UNL     1      -1.403  45.150  -0.955  1.00  0.00     0.000 C 
BRANCH  10  11
ATOM     11  C   UNL     1       0.094  44.794  -0.934  1.00  0.00    -0.000 C 
BRANCH  11  12
ATOM     12  C   UNL     1       0.647  44.651   0.492  1.00  0.00    -0.000 C 
BRANCH  12  13
ATOM     13  C   UNL     1       2.181  44.579   0.522  1.00  0.00    -0.003 C 
ATOM     14  C   UNL     1       2.725  45.022   1.879  1.00  0.00     0.004 C 
ENDBRANCH  12  13
ENDBRANCH  11  12
ENDBRANCH  10  11
ENDBRANCH   9  10
ENDBRANCH   1   9
TORSDOF 9
ENDMDL
MODEL 6
REMARK VINA RESULT:    -5.377      3.744      5.122
REMARK INTER + INTRA:          -8.882
REMARK INTER:                  -7.900
REMARK INTRA:                  -0.983
REMARK UNBOUND:                -0.676
REMARK SMILES CCCCCCCCCC=CC(=O)[O-]
REMARK SMILES IDX 7 1 8 2 9 3 10 4 11 5 12 6 13 7 14 8 6 9 5 10 4 11 3 12 2 13
REMARK SMILES IDX 1 14
REMARK H PARENT
REMARK Flexibility Score: inf
ROOT
ATOM      1  C   UNL     1      -1.672  44.437   2.503  1.00  0.00     0.000 C 
ENDROOT
BRANCH   1   2
ATOM      2  C   UNL     1      -2.687  44.743   1.384  1.00  0.00     0.004 C 
BRANCH   2   3
ATOM      3  C   UNL     1      -2.072  45.398   0.135  1.00  0.00     0.027 C 
BRANCH   3   4
ATOM      4  C   UNL     1      -0.692  44.874  -0.168  1.00  0.00    -0.025 C 
ATOM      5  C   UNL     1      -0.142  44.842  -1.393  1.00  0.00     0.020 C 
BRANCH   5   6
ATOM      6  C   UNL     1      -0.778  45.301  -2.645  1.00  0.00     0.064 C 
ATOM      7  O   UNL     1      -1.624  44.601  -3.260  1.00  0.00    -0.545 OA
ATOM      8  O   UNL     1      -0.425  46.541  -3.162  1.00  0.00    -0.545 OA
ENDBRANCH   5   6
ENDBRANCH   3   4
ENDBRANCH   2   3
ENDBRANCH   1   2
BRANCH   1   9
ATOM      9  C   UNL     1      -1.778  45.342   3.747  1.00  0.00     0.000 C 
BRANCH   9  10
ATOM     10  C   UNL     1      -0.606  46.334   3.898  1.00  0.00     0.000 C 
BRANCH  10  11
ATOM     11  C   UNL     1       0.584  45.973   2.992  1.00  0.00    -0.000 C 
BRANCH  11  12
ATOM     12  C   UNL     1       1.939  46.281   3.645  1.00  0.00    -0.000 C 
BRANCH  12  13
ATOM     13  C   UNL     1       3.098  45.521   2.983  1.00  0.00    -0.003 C 
ATOM     14  C   UNL     1       2.639  44.827   1.703  1.00  0.00     0.004 C 
ENDBRANCH  12  13
ENDBRANCH  11  12
ENDBRANCH  10  11
ENDBRANCH   9  10
ENDBRANCH   1   9
TORSDOF 9
ENDMDL
MODEL 7
REMARK VINA RESULT:    -5.365      4.720      6.216
REMARK INTER + INTRA:          -8.864
REMARK INTER:                  -8.103
REMARK INTRA:                  -0.761
REMARK UNBOUND:                -0.676
REMARK SMILES CCCCCCCCCC=CC(=O)[O-]
REMARK SMILES IDX 7 1 8 2 9 3 10 4 11 5 12 6 13 7 14 8 6 9 5 10 4 11 3 12 2 13
REMARK SMILES IDX 1 14
REMARK H PARENT
REMARK Flexibility Score: inf
ROOT
ATOM      1  C   UNL     1       0.994  47.174   7.931  1.00  0.00     0.000 C 
ENDROOT
BRANCH   1   2
ATOM      2  C   UNL     1      -0.389  47.611   7.410  1.00  0.00     0.004 C 
BRANCH   2   3
ATOM      3  C   UNL     1      -1.171  46.501   6.686  1.00  0.00     0.027 C 
BRANCH   3   4
ATOM      4  C   UNL     1      -2.575  46.349   7.212  1.00  0.00    -0.025 C 
ATOM      5  C   UNL     1      -3.469  45.459   6.752  1.00  0.00     0.020 C 
BRANCH   5   6
ATOM      6  C   UNL     1      -3.247  44.486   5.663  1.00  0.00     0.064 C 
ATOM      7  O   UNL     1      -3.202  44.835   4.454  1.00  0.00    -0.545 OA
ATOM      8  O   UNL     1      -3.089  43.144   5.982  1.00  0.00    -0.545 OA
ENDBRANCH   5   6
ENDBRANCH   3   4
ENDBRANCH   2   3
ENDBRANCH   1   2
BRANCH   1   9
ATOM      9  C   UNL     1       1.357  47.695   9.336  1.00  0.00     0.000 C 
BRANCH   9  10
ATOM     10  C   UNL     1       0.248  47.480  10.387  1.00  0.00     0.000 C 
BRANCH  10  11
ATOM     11  C   UNL     1       0.083  45.997  10.765  1.00  0.00    -0.000 C 
BRANCH  11  12
ATOM     12  C   UNL     1       1.073  45.552  11.852  1.00  0.00    -0.000 C 
BRANCH  12  13
ATOM     13  C   UNL     1       2.319  44.869  11.268  1.00  0.00    -0.003 C 
ATOM     14  C   UNL     1       3.580  45.675  11.569  1.00  0.00     0.004 C 
ENDBRANCH  12  13
ENDBRANCH  11  12
ENDBRANCH  10  11
ENDBRANCH   9  10
ENDBRANCH   1   9
TORSDOF 9
ENDMDL
MODEL 8
REMARK VINA RESULT:    -5.338      5.706      8.192
REMARK INTER + INTRA:          -8.822
REMARK INTER:                  -8.321
REMARK INTRA:                  -0.501
REMARK UNBOUND:                -0.676
REMARK SMILES CCCCCCCCCC=CC(=O)[O-]
REMARK SMILES IDX 7 1 8 2 9 3 10 4 11 5 12 6 13 7 14 8 6 9 5 10 4 11 3 12 2 13
REMARK SMILES IDX 1 14
REMARK H PARENT
REMARK Flexibility Score: inf
ROOT
ATOM      1  C   UNL     1       2.340  44.508  -0.282  1.00  0.00     0.000 C 
ENDROOT
BRANCH   1   2
ATOM      2  C   UNL     1       1.783  44.491  -1.719  1.00  0.00     0.004 C 
BRANCH   2   3
ATOM      3  C   UNL     1       2.829  44.158  -2.798  1.00  0.00     0.027 C 
BRANCH   3   4
ATOM      4  C   UNL     1       3.982  43.355  -2.253  1.00  0.00    -0.025 C 
ATOM      5  C   UNL     1       5.248  43.449  -2.689  1.00  0.00     0.020 C 
BRANCH   5   6
ATOM      6  C   UNL     1       5.734  44.334  -3.767  1.00  0.00     0.064 C 
ATOM      7  O   UNL     1       5.661  44.011  -4.982  1.00  0.00    -0.545 OA
ATOM      8  O   UNL     1       6.297  45.558  -3.429  1.00  0.00    -0.545 OA
ENDBRANCH   5   6
ENDBRANCH   3   4
ENDBRANCH   2   3
ENDBRANCH   1   2
BRANCH   1   9
ATOM      9  C   UNL     1       1.276  44.442   0.832  1.00  0.00     0.000 C 
BRANCH   9  10
ATOM     10  C   UNL     1      -0.176  44.487   0.311  1.00  0.00     0.000 C 
BRANCH  10  11
ATOM     11  C   UNL     1      -1.162  43.802   1.273  1.00  0.00    -0.000 C 
BRANCH  11  12
ATOM     12  C   UNL     1      -2.212  44.773   1.834  1.00  0.00    -0.000 C 
BRANCH  12  13
ATOM     13  C   UNL     1      -1.918  45.184   3.284  1.00  0.00    -0.003 C 
ATOM     14  C   UNL     1      -2.912  44.542   4.249  1.00  0.00     0.004 C 
ENDBRANCH  12  13
ENDBRANCH  11  12
ENDBRANCH  10  11
ENDBRANCH   9  10
ENDBRANCH   1   9
TORSDOF 9
ENDMDL
MODEL 9
REMARK VINA RESULT:    -5.270      4.378      6.425
REMARK INTER + INTRA:          -8.719
REMARK INTER:                  -8.238
REMARK INTRA:                  -0.480
REMARK UNBOUND:                -0.676
REMARK SMILES CCCCCCCCCC=CC(=O)[O-]
REMARK SMILES IDX 7 1 8 2 9 3 10 4 11 5 12 6 13 7 14 8 6 9 5 10 4 11 3 12 2 13
REMARK SMILES IDX 1 14
REMARK H PARENT
REMARK Flexibility Score: inf
ROOT
ATOM      1  C   UNL     1      -3.117  45.331   6.126  1.00  0.00     0.000 C 
ENDROOT
BRANCH   1   2
ATOM      2  C   UNL     1      -2.579  46.409   7.088  1.00  0.00     0.004 C 
BRANCH   2   3
ATOM      3  C   UNL     1      -1.046  46.431   7.216  1.00  0.00     0.027 C 
BRANCH   3   4
ATOM      4  C   UNL     1      -0.499  47.829   7.347  1.00  0.00    -0.025 C 
ATOM      5  C   UNL     1       0.262  48.257   8.368  1.00  0.00     0.020 C 
BRANCH   5   6
ATOM      6  C   UNL     1       0.692  47.452   9.529  1.00  0.00     0.064 C 
ATOM      7  O   UNL     1       0.183  47.602  10.671  1.00  0.00    -0.545 OA
ATOM      8  O   UNL     1       1.694  46.506   9.358  1.00  0.00    -0.545 OA
ENDBRANCH   5   6
ENDBRANCH   3   4
ENDBRANCH   2   3
ENDBRANCH   1   2
BRANCH   1   9
ATOM      9  C   UNL     1      -2.372  45.224   4.781  1.00  0.00     0.000 C 
BRANCH   9  10
ATOM     10  C   UNL     1      -2.746  43.972   3.959  1.00  0.00     0.000 C 
BRANCH  10  11
ATOM     11  C   UNL     1      -2.191  44.031   2.524  1.00  0.00    -0.000 C 
BRANCH  11  12
ATOM     12  C   UNL     1      -1.187  45.176   2.326  1.00  0.00    -0.000 C 
BRANCH  12  13
ATOM     13  C   UNL     1      -1.710  46.258   1.370  1.00  0.00    -0.003 C 
ATOM     14  C   UNL     1      -1.720  45.759  -0.073  1.00  0.00     0.004 C 
ENDBRANCH  12  13
ENDBRANCH  11  12
ENDBRANCH  10  11
ENDBRANCH   9  10
ENDBRANCH   1   9
TORSDOF 9
ENDMDL
