MODEL 1
REMARK VINA RESULT:    -5.446      0.000      0.000
REMARK INTER + INTRA:         -11.620
REMARK INTER:                  -9.903
REMARK INTRA:                  -1.717
REMARK UNBOUND:                -1.717
REMARK SMILES CCCCCCCCCCCCCC[C@H](C)C(=O)[O-]
REMARK SMILES IDX 9 1 10 2 11 3 12 4 13 5 14 6 15 7 16 8 17 9 18 10 19 11 8 12
REMARK SMILES IDX 7 13 6 14 5 15 4 16 3 17 2 18 1 19
REMARK H PARENT
REMARK Flexibility Score: inf
ROOT
ATOM      1  C   UNL     1      13.364  23.046  -7.554  1.00  0.00     0.000 C 
ENDROOT
BRANCH   1   2
ATOM      2  C   UNL     1      12.198  22.282  -6.887  1.00  0.00     0.000 C 
BRANCH   2   3
ATOM      3  C   UNL     1      11.807  21.018  -7.675  1.00  0.00     0.000 C 
BRANCH   3   4
ATOM      4  C   UNL     1      10.310  20.674  -7.516  1.00  0.00     0.000 C 
BRANCH   4   5
ATOM      5  C   UNL     1       9.671  21.267  -6.249  1.00  0.00     0.001 C 
BRANCH   5   6
ATOM      6  C   UNL     1       8.714  22.434  -6.556  1.00  0.00     0.009 C 
BRANCH   6   7
ATOM      7  C   UNL     1       7.778  22.816  -5.387  1.00  0.00     0.032 C 
ATOM      8  C   UNL     1       7.415  21.616  -4.500  1.00  0.00     0.014 C 
BRANCH   7   9
ATOM      9  C   UNL     1       6.548  23.539  -5.870  1.00  0.00     0.044 C 
ATOM     10  O   UNL     1       6.633  24.738  -6.247  1.00  0.00    -0.550 OA
ATOM     11  O   UNL     1       5.326  22.883  -5.957  1.00  0.00    -0.550 OA
ENDBRANCH   7   9
ENDBRANCH   6   7
ENDBRANCH   5   6
ENDBRANCH   4   5
ENDBRANCH   3   4
ENDBRANCH   2   3
ENDBRANCH   1   2
BRANCH   1  12
ATOM     12  C   UNL     1      12.940  24.377  -8.200  1.00  0.00     0.000 C 
BRANCH  12  13
ATOM     13  C   UNL     1      11.504  24.343  -8.747  1.00  0.00    -0.000 C 
BRANCH  13  14
ATOM     14  C   UNL     1      11.441  23.869 -10.208  1.00  0.00    -0.000 C 
BRANCH  14  15
ATOM     15  C   UNL     1      10.293  22.877 -10.460  1.00  0.00    -0.000 C 
BRANCH  15  16
ATOM     16  C   UNL     1       9.033  23.214  -9.647  1.00  0.00    -0.000 C 
BRANCH  16  17
ATOM     17  C   UNL     1       7.804  22.408 -10.102  1.00  0.00    -0.000 C 
BRANCH  17  18
ATOM     18  C   UNL     1       6.493  22.946  -9.507  1.00  0.00    -0.003 C 
ATOM     19  C   UNL     1       5.313  22.818 -10.469  1.00  0.00     0.004 C 
ENDBRANCH  17  18
ENDBRANCH  16  17
ENDBRANCH  15  16
ENDBRANCH  14  15
ENDBRANCH  13  14
ENDBRANCH  12  13
ENDBRANCH   1  12
TORSDOF 14
ENDMDL
MODEL 2
REMARK VINA RESULT:    -5.348      2.698      4.818
REMARK INTER + INTRA:         -11.442
REMARK INTER:                  -9.458
REMARK INTRA:                  -1.984
REMARK UNBOUND:                -1.717
REMARK SMILES CCCCCCCCCCCCCC[C@H](C)C(=O)[O-]
REMARK SMILES IDX 9 1 10 2 11 3 12 4 13 5 14 6 15 7 16 8 17 9 18 10 19 11 8 12
REMARK SMILES IDX 7 13 6 14 5 15 4 16 3 17 2 18 1 19
REMARK H PARENT
REMARK Flexibility Score: inf
ROOT
ATOM      1  C   UNL     1       6.883  22.470  -5.259  1.00  0.00     0.000 C 
ENDROOT
BRANCH   1   2
ATOM      2  C   UNL     1       8.008  21.484  -4.875  1.00  0.00     0.000 C 
BRANCH   2   3
ATOM      3  C   UNL     1       9.308  21.752  -5.656  1.00  0.00     0.000 C 
BRANCH   3   4
ATOM      4  C   UNL     1       9.561  20.691  -6.748  1.00  0.00     0.000 C 
BRANCH   4   5
ATOM      5  C   UNL     1      10.709  21.052  -7.706  1.00  0.00     0.001 C 
BRANCH   5   6
ATOM      6  C   UNL     1      11.165  22.516  -7.561  1.00  0.00     0.009 C 
BRANCH   6   7
ATOM      7  C   UNL     1      12.697  22.701  -7.474  1.00  0.00     0.032 C 
ATOM      8  C   UNL     1      13.249  22.435  -6.066  1.00  0.00     0.014 C 
BRANCH   7   9
ATOM      9  C   UNL     1      13.126  24.049  -7.992  1.00  0.00     0.044 C 
ATOM     10  O   UNL     1      12.565  24.539  -9.008  1.00  0.00    -0.550 OA
ATOM     11  O   UNL     1      14.100  24.787  -7.330  1.00  0.00    -0.550 OA
ENDBRANCH   7   9
ENDBRANCH   6   7
ENDBRANCH   5   6
ENDBRANCH   4   5
ENDBRANCH   3   4
ENDBRANCH   2   3
ENDBRANCH   1   2
BRANCH   1  12
ATOM     12  C   UNL     1       7.399  23.812  -5.806  1.00  0.00     0.000 C 
BRANCH  12  13
ATOM     13  C   UNL     1       6.473  24.413  -6.876  1.00  0.00    -0.000 C 
BRANCH  13  14
ATOM     14  C   UNL     1       7.222  24.774  -8.169  1.00  0.00    -0.000 C 
BRANCH  14  15
ATOM     15  C   UNL     1       8.034  23.596  -8.733  1.00  0.00    -0.000 C 
BRANCH  15  16
ATOM     16  C   UNL     1       7.148  22.546  -9.422  1.00  0.00    -0.000 C 
BRANCH  16  17
ATOM     17  C   UNL     1       6.399  23.115 -10.640  1.00  0.00    -0.000 C 
BRANCH  17  18
ATOM     18  C   UNL     1       4.879  23.178 -10.420  1.00  0.00    -0.003 C 
ATOM     19  C   UNL     1       4.444  22.505  -9.118  1.00  0.00     0.004 C 
ENDBRANCH  17  18
ENDBRANCH  16  17
ENDBRANCH  15  16
ENDBRANCH  14  15
ENDBRANCH  13  14
ENDBRANCH  12  13
ENDBRANCH   1  12
TORSDOF 14
ENDMDL
MODEL 3
REMARK VINA RESULT:    -5.339      2.763      5.576
REMARK INTER + INTRA:         -11.426
REMARK INTER:                  -9.823
REMARK INTRA:                  -1.603
REMARK UNBOUND:                -1.717
REMARK SMILES CCCCCCCCCCCCCC[C@H](C)C(=O)[O-]
REMARK SMILES IDX 9 1 10 2 11 3 12 4 13 5 14 6 15 7 16 8 17 9 18 10 19 11 8 12
REMARK SMILES IDX 7 13 6 14 5 15 4 16 3 17 2 18 1 19
REMARK H PARENT
REMARK Flexibility Score: inf
ROOT
ATOM      1  C   UNL     1       6.885  23.714  -5.581  1.00  0.00     0.000 C 
ENDROOT
BRANCH   1   2
ATOM      2  C   UNL     1       7.897  22.565  -5.379  1.00  0.00     0.000 C 
BRANCH   2   3
ATOM      3  C   UNL     1       8.812  22.374  -6.602  1.00  0.00     0.000 C 
BRANCH   3   4
ATOM      4  C   UNL     1      10.026  21.473  -6.287  1.00  0.00     0.000 C 
BRANCH   4   5
ATOM      5  C   UNL     1      10.635  20.802  -7.530  1.00  0.00     0.001 C 
BRANCH   5   6
ATOM      6  C   UNL     1      12.050  21.320  -7.851  1.00  0.00     0.009 C 
BRANCH   6   7
ATOM      7  C   UNL     1      12.326  22.763  -7.367  1.00  0.00     0.032 C 
ATOM      8  C   UNL     1      12.230  23.796  -8.498  1.00  0.00     0.014 C 
BRANCH   7   9
ATOM      9  C   UNL     1      13.637  22.864  -6.633  1.00  0.00     0.044 C 
ATOM     10  O   UNL     1      14.645  23.346  -7.213  1.00  0.00    -0.550 OA
ATOM     11  O   UNL     1      13.737  22.480  -5.301  1.00  0.00    -0.550 OA
ENDBRANCH   7   9
ENDBRANCH   6   7
ENDBRANCH   5   6
ENDBRANCH   4   5
ENDBRANCH   3   4
ENDBRANCH   2   3
ENDBRANCH   1   2
BRANCH   1  12
ATOM     12  C   UNL     1       6.077  23.602  -6.885  1.00  0.00     0.000 C 
BRANCH  12  13
ATOM     13  C   UNL     1       4.660  23.049  -6.662  1.00  0.00    -0.000 C 
BRANCH  13  14
ATOM     14  C   UNL     1       4.088  22.368  -7.915  1.00  0.00    -0.000 C 
BRANCH  14  15
ATOM     15  C   UNL     1       4.439  23.119  -9.211  1.00  0.00    -0.000 C 
BRANCH  15  16
ATOM     16  C   UNL     1       5.238  22.252 -10.197  1.00  0.00    -0.000 C 
BRANCH  16  17
ATOM     17  C   UNL     1       6.604  22.866 -10.549  1.00  0.00    -0.000 C 
BRANCH  17  18
ATOM     18  C   UNL     1       7.776  22.085  -9.935  1.00  0.00    -0.003 C 
ATOM     19  C   UNL     1       9.116  22.799 -10.110  1.00  0.00     0.004 C 
ENDBRANCH  17  18
ENDBRANCH  16  17
ENDBRANCH  15  16
ENDBRANCH  14  15
ENDBRANCH  13  14
ENDBRANCH  12  13
ENDBRANCH   1  12
TORSDOF 14
ENDMDL
MODEL 4
REMARK VINA RESULT:    -5.181      3.510      5.773
REMARK INTER + INTRA:         -11.138
REMARK INTER:                  -9.301
REMARK INTRA:                  -1.837
REMARK UNBOUND:                -1.717
REMARK SMILES CCCCCCCCCCCCCC[C@H](C)C(=O)[O-]
REMARK SMILES IDX 9 1 10 2 11 3 12 4 13 5 14 6 15 7 16 8 17 9 18 10 19 11 8 12
REMARK SMILES IDX 7 13 6 14 5 15 4 16 3 17 2 18 1 19
REMARK H PARENT
REMARK Flexibility Score: inf
ROOT
ATOM      1  C   UNL     1      12.845  24.419  -8.210  1.00  0.00     0.000 C 
ENDROOT
BRANCH   1   2
ATOM      2  C   UNL     1      12.799  23.086  -7.431  1.00  0.00     0.000 C 
BRANCH   2   3
ATOM      3  C   UNL     1      14.195  22.452  -7.284  1.00  0.00     0.000 C 
BRANCH   3   4
ATOM      4  C   UNL     1      15.289  23.508  -7.017  1.00  0.00     0.000 C 
BRANCH   4   5
ATOM      5  C   UNL     1      16.509  22.955  -6.261  1.00  0.00     0.001 C 
BRANCH   5   6
ATOM      6  C   UNL     1      16.374  23.093  -4.733  1.00  0.00     0.009 C 
BRANCH   6   7
ATOM      7  C   UNL     1      15.206  23.996  -4.276  1.00  0.00     0.032 C 
ATOM      8  C   UNL     1      15.683  25.334  -3.692  1.00  0.00     0.014 C 
BRANCH   7   9
ATOM      9  C   UNL     1      14.282  23.276  -3.328  1.00  0.00     0.044 C 
ATOM     10  O   UNL     1      14.459  23.372  -2.085  1.00  0.00    -0.550 OA
ATOM     11  O   UNL     1      13.201  22.547  -3.808  1.00  0.00    -0.550 OA
ENDBRANCH   7   9
ENDBRANCH   6   7
ENDBRANCH   5   6
ENDBRANCH   4   5
ENDBRANCH   3   4
ENDBRANCH   2   3
ENDBRANCH   1   2
BRANCH   1  12
ATOM     12  C   UNL     1      11.909  24.454  -9.431  1.00  0.00     0.000 C 
BRANCH  12  13
ATOM     13  C   UNL     1      11.195  23.114  -9.671  1.00  0.00    -0.000 C 
BRANCH  13  14
ATOM     14  C   UNL     1       9.665  23.236  -9.577  1.00  0.00    -0.000 C 
BRANCH  14  15
ATOM     15  C   UNL     1       9.038  22.159  -8.676  1.00  0.00    -0.000 C 
BRANCH  15  16
ATOM     16  C   UNL     1       9.347  22.384  -7.187  1.00  0.00    -0.000 C 
BRANCH  16  17
ATOM     17  C   UNL     1       9.839  21.105  -6.488  1.00  0.00    -0.000 C 
BRANCH  17  18
ATOM     18  C   UNL     1      10.126  19.965  -7.479  1.00  0.00    -0.003 C 
ATOM     19  C   UNL     1      11.615  19.814  -7.788  1.00  0.00     0.004 C 
ENDBRANCH  17  18
ENDBRANCH  16  17
ENDBRANCH  15  16
ENDBRANCH  14  15
ENDBRANCH  13  14
ENDBRANCH  12  13
ENDBRANCH   1  12
TORSDOF 14
ENDMDL
MODEL 5
REMARK VINA RESULT:    -5.148      3.653      6.136
REMARK INTER + INTRA:         -11.078
REMARK INTER:                  -9.920
REMARK INTRA:                  -1.158
REMARK UNBOUND:                -1.717
REMARK SMILES CCCCCCCCCCCCCC[C@H](C)C(=O)[O-]
REMARK SMILES IDX 9 1 10 2 11 3 12 4 13 5 14 6 15 7 16 8 17 9 18 10 19 11 8 12
REMARK SMILES IDX 7 13 6 14 5 15 4 16 3 17 2 18 1 19
REMARK H PARENT
REMARK Flexibility Score: inf
ROOT
ATOM      1  C   UNL     1      10.450  23.940  -8.974  1.00  0.00     0.000 C 
ENDROOT
BRANCH   1   2
ATOM      2  C   UNL     1      11.879  24.391  -9.347  1.00  0.00     0.000 C 
BRANCH   2   3
ATOM      3  C   UNL     1      12.870  24.199  -8.184  1.00  0.00     0.000 C 
BRANCH   3   4
ATOM      4  C   UNL     1      12.655  22.858  -7.451  1.00  0.00     0.000 C 
BRANCH   4   5
ATOM      5  C   UNL     1      13.784  22.504  -6.468  1.00  0.00     0.001 C 
BRANCH   5   6
ATOM      6  C   UNL     1      15.181  22.587  -7.112  1.00  0.00     0.009 C 
BRANCH   6   7
ATOM      7  C   UNL     1      16.245  23.291  -6.239  1.00  0.00     0.032 C 
ATOM      8  C   UNL     1      15.936  23.199  -4.738  1.00  0.00     0.014 C 
BRANCH   7   9
ATOM      9  C   UNL     1      16.468  24.716  -6.672  1.00  0.00     0.044 C 
ATOM     10  O   UNL     1      17.205  24.963  -7.663  1.00  0.00    -0.550 OA
ATOM     11  O   UNL     1      15.825  25.765  -6.024  1.00  0.00    -0.550 OA
ENDBRANCH   7   9
ENDBRANCH   6   7
ENDBRANCH   5   6
ENDBRANCH   4   5
ENDBRANCH   3   4
ENDBRANCH   2   3
ENDBRANCH   1   2
BRANCH   1  12
ATOM     12  C   UNL     1       9.869  22.879  -9.925  1.00  0.00     0.000 C 
BRANCH  12  13
ATOM     13  C   UNL     1       8.651  22.151  -9.333  1.00  0.00    -0.000 C 
BRANCH  13  14
ATOM     14  C   UNL     1       7.379  22.355 -10.170  1.00  0.00    -0.000 C 
BRANCH  14  15
ATOM     15  C   UNL     1       6.517  23.525  -9.666  1.00  0.00    -0.000 C 
BRANCH  15  16
ATOM     16  C   UNL     1       6.190  23.413  -8.168  1.00  0.00    -0.000 C 
BRANCH  16  17
ATOM     17  C   UNL     1       6.890  24.496  -7.329  1.00  0.00    -0.000 C 
BRANCH  17  18
ATOM     18  C   UNL     1       6.735  24.262  -5.818  1.00  0.00    -0.003 C 
ATOM     19  C   UNL     1       7.274  22.903  -5.374  1.00  0.00     0.004 C 
ENDBRANCH  17  18
ENDBRANCH  16  17
ENDBRANCH  15  16
ENDBRANCH  14  15
ENDBRANCH  13  14
ENDBRANCH  12  13
ENDBRANCH   1  12
TORSDOF 14
ENDMDL
MODEL 6
REMARK VINA RESULT:    -5.111      3.355      5.845
REMARK INTER + INTRA:         -11.010
REMARK INTER:                  -9.688
REMARK INTRA:                  -1.322
REMARK UNBOUND:                -1.717
REMARK SMILES CCCCCCCCCCCCCC[C@H](C)C(=O)[O-]
REMARK SMILES IDX 9 1 10 2 11 3 12 4 13 5 14 6 15 7 16 8 17 9 18 10 19 11 8 12
REMARK SMILES IDX 7 13 6 14 5 15 4 16 3 17 2 18 1 19
REMARK H PARENT
REMARK Flexibility Score: inf
ROOT
ATOM      1  C   UNL     1       8.851  23.275  -8.566  1.00  0.00     0.000 C 
ENDROOT
BRANCH   1   2
ATOM      2  C   UNL     1       9.652  22.476  -7.513  1.00  0.00     0.000 C 
BRANCH   2   3
ATOM      3  C   UNL     1      10.274  21.198  -8.104  1.00  0.00     0.000 C 
BRANCH   3   4
ATOM      4  C   UNL     1      11.784  21.092  -7.803  1.00  0.00     0.000 C 
BRANCH   4   5
ATOM      5  C   UNL     1      12.441  22.441  -7.462  1.00  0.00     0.001 C 
BRANCH   5   6
ATOM      6  C   UNL     1      13.183  22.416  -6.112  1.00  0.00     0.009 C 
BRANCH   6   7
ATOM      7  C   UNL     1      14.560  23.118  -6.127  1.00  0.00     0.032 C 
ATOM      8  C   UNL     1      15.498  22.563  -7.208  1.00  0.00     0.014 C 
BRANCH   7   9
ATOM      9  C   UNL     1      15.209  23.102  -4.768  1.00  0.00     0.044 C 
ATOM     10  O   UNL     1      16.447  22.894  -4.667  1.00  0.00    -0.550 OA
ATOM     11  O   UNL     1      14.467  23.368  -3.623  1.00  0.00    -0.550 OA
ENDBRANCH   7   9
ENDBRANCH   6   7
ENDBRANCH   5   6
ENDBRANCH   4   5
ENDBRANCH   3   4
ENDBRANCH   2   3
ENDBRANCH   1   2
BRANCH   1  12
ATOM     12  C   UNL     1       8.620  22.507  -9.878  1.00  0.00     0.000 C 
BRANCH  12  13
ATOM     13  C   UNL     1       7.130  22.370 -10.233  1.00  0.00    -0.000 C 
BRANCH  13  14
ATOM     14  C   UNL     1       6.250  23.385  -9.486  1.00  0.00    -0.000 C 
BRANCH  14  15
ATOM     15  C   UNL     1       4.845  22.840  -9.179  1.00  0.00    -0.000 C 
BRANCH  15  16
ATOM     16  C   UNL     1       4.535  22.825  -7.674  1.00  0.00    -0.000 C 
BRANCH  16  17
ATOM     17  C   UNL     1       5.786  23.066  -6.812  1.00  0.00    -0.000 C 
BRANCH  17  18
ATOM     18  C   UNL     1       5.513  24.008  -5.629  1.00  0.00    -0.003 C 
ATOM     19  C   UNL     1       6.514  25.160  -5.550  1.00  0.00     0.004 C 
ENDBRANCH  17  18
ENDBRANCH  16  17
ENDBRANCH  15  16
ENDBRANCH  14  15
ENDBRANCH  13  14
ENDBRANCH  12  13
ENDBRANCH   1  12
TORSDOF 14
ENDMDL
MODEL 7
REMARK VINA RESULT:    -5.099      4.203      6.858
REMARK INTER + INTRA:         -10.990
REMARK INTER:                 -10.106
REMARK INTRA:                  -0.884
REMARK UNBOUND:                -1.717
REMARK SMILES CCCCCCCCCCCCCC[C@H](C)C(=O)[O-]
REMARK SMILES IDX 9 1 10 2 11 3 12 4 13 5 14 6 15 7 16 8 17 9 18 10 19 11 8 12
REMARK SMILES IDX 7 13 6 14 5 15 4 16 3 17 2 18 1 19
REMARK H PARENT
REMARK Flexibility Score: inf
ROOT
ATOM      1  C   UNL     1       5.893  23.640  -9.919  1.00  0.00     0.000 C 
ENDROOT
BRANCH   1   2
ATOM      2  C   UNL     1       6.495  24.215  -8.618  1.00  0.00     0.000 C 
BRANCH   2   3
ATOM      3  C   UNL     1       8.006  23.941  -8.507  1.00  0.00     0.000 C 
BRANCH   3   4
ATOM      4  C   UNL     1       8.499  22.948  -9.582  1.00  0.00     0.000 C 
BRANCH   4   5
ATOM      5  C   UNL     1      10.018  22.995  -9.815  1.00  0.00     0.001 C 
BRANCH   5   6
ATOM      6  C   UNL     1      10.825  22.718  -8.532  1.00  0.00     0.009 C 
BRANCH   6   7
ATOM      7  C   UNL     1      10.542  21.343  -7.885  1.00  0.00     0.032 C 
ATOM      8  C   UNL     1       9.892  21.461  -6.499  1.00  0.00     0.014 C 
BRANCH   7   9
ATOM      9  C   UNL     1      11.776  20.480  -7.847  1.00  0.00     0.044 C 
ATOM     10  O   UNL     1      11.665  19.226  -7.857  1.00  0.00    -0.550 OA
ATOM     11  O   UNL     1      13.043  21.052  -7.855  1.00  0.00    -0.550 OA
ENDBRANCH   7   9
ENDBRANCH   6   7
ENDBRANCH   5   6
ENDBRANCH   4   5
ENDBRANCH   3   4
ENDBRANCH   2   3
ENDBRANCH   1   2
BRANCH   1  12
ATOM     12  C   UNL     1       4.961  22.438  -9.690  1.00  0.00     0.000 C 
BRANCH  12  13
ATOM     13  C   UNL     1       4.201  22.520  -8.356  1.00  0.00    -0.000 C 
BRANCH  13  14
ATOM     14  C   UNL     1       2.732  22.086  -8.487  1.00  0.00    -0.000 C 
BRANCH  14  15
ATOM     15  C   UNL     1       1.968  22.169  -7.154  1.00  0.00    -0.000 C 
BRANCH  15  16
ATOM     16  C   UNL     1       0.835  21.135  -7.059  1.00  0.00    -0.000 C 
BRANCH  16  17
ATOM     17  C   UNL     1       0.459  20.545  -8.429  1.00  0.00    -0.000 C 
BRANCH  17  18
ATOM     18  C   UNL     1       0.629  19.018  -8.479  1.00  0.00    -0.003 C 
ATOM     19  C   UNL     1      -0.666  18.271  -8.163  1.00  0.00     0.004 C 
ENDBRANCH  17  18
ENDBRANCH  16  17
ENDBRANCH  15  16
ENDBRANCH  14  15
ENDBRANCH  13  14
ENDBRANCH  12  13
ENDBRANCH   1  12
TORSDOF 14
ENDMDL
MODEL 8
REMARK VINA RESULT:    -5.085      4.330      7.376
REMARK INTER + INTRA:         -10.964
REMARK INTER:                 -10.014
REMARK INTRA:                  -0.949
REMARK UNBOUND:                -1.717
REMARK SMILES CCCCCCCCCCCCCC[C@H](C)C(=O)[O-]
REMARK SMILES IDX 9 1 10 2 11 3 12 4 13 5 14 6 15 7 16 8 17 9 18 10 19 11 8 12
REMARK SMILES IDX 7 13 6 14 5 15 4 16 3 17 2 18 1 19
REMARK H PARENT
REMARK Flexibility Score: inf
ROOT
ATOM      1  C   UNL     1       4.846  22.546  -9.603  1.00  0.00     0.000 C 
ENDROOT
BRANCH   1   2
ATOM      2  C   UNL     1       5.955  23.567  -9.941  1.00  0.00     0.000 C 
BRANCH   2   3
ATOM      3  C   UNL     1       6.726  24.023  -8.688  1.00  0.00     0.000 C 
BRANCH   3   4
ATOM      4  C   UNL     1       8.079  23.293  -8.540  1.00  0.00     0.000 C 
BRANCH   4   5
ATOM      5  C   UNL     1       8.568  22.630  -9.839  1.00  0.00     0.001 C 
BRANCH   5   6
ATOM      6  C   UNL     1      10.104  22.628  -9.962  1.00  0.00     0.009 C 
BRANCH   6   7
ATOM      7  C   UNL     1      10.838  23.320  -8.791  1.00  0.00     0.032 C 
ATOM      8  C   UNL     1      11.754  24.461  -9.255  1.00  0.00     0.014 C 
BRANCH   7   9
ATOM      9  C   UNL     1      11.581  22.327  -7.935  1.00  0.00     0.044 C 
ATOM     10  O   UNL     1      12.306  22.733  -6.989  1.00  0.00    -0.550 OA
ATOM     11  O   UNL     1      11.434  20.961  -8.142  1.00  0.00    -0.550 OA
ENDBRANCH   7   9
ENDBRANCH   6   7
ENDBRANCH   5   6
ENDBRANCH   4   5
ENDBRANCH   3   4
ENDBRANCH   2   3
ENDBRANCH   1   2
BRANCH   1  12
ATOM     12  C   UNL     1       4.085  22.868  -8.305  1.00  0.00     0.000 C 
BRANCH  12  13
ATOM     13  C   UNL     1       3.134  21.738  -7.877  1.00  0.00    -0.000 C 
BRANCH  13  14
ATOM     14  C   UNL     1       1.709  22.240  -7.600  1.00  0.00    -0.000 C 
BRANCH  14  15
ATOM     15  C   UNL     1       0.629  21.252  -8.073  1.00  0.00    -0.000 C 
BRANCH  15  16
ATOM     16  C   UNL     1       1.221  19.914  -8.545  1.00  0.00    -0.000 C 
BRANCH  16  17
ATOM     17  C   UNL     1       0.663  18.713  -7.761  1.00  0.00    -0.000 C 
BRANCH  17  18
ATOM     18  C   UNL     1      -0.799  18.405  -8.119  1.00  0.00    -0.003 C 
ATOM     19  C   UNL     1      -1.042  18.371  -9.628  1.00  0.00     0.004 C 
ENDBRANCH  17  18
ENDBRANCH  16  17
ENDBRANCH  15  16
ENDBRANCH  14  15
ENDBRANCH  13  14
ENDBRANCH  12  13
ENDBRANCH   1  12
TORSDOF 14
ENDMDL
MODEL 9
REMARK VINA RESULT:    -5.066      3.584      5.855
REMARK INTER + INTRA:         -10.929
REMARK INTER:                  -9.451
REMARK INTRA:                  -1.478
REMARK UNBOUND:                -1.717
REMARK SMILES CCCCCCCCCCCCCC[C@H](C)C(=O)[O-]
REMARK SMILES IDX 9 1 10 2 11 3 12 4 13 5 14 6 15 7 16 8 17 9 18 10 19 11 8 12
REMARK SMILES IDX 7 13 6 14 5 15 4 16 3 17 2 18 1 19
REMARK H PARENT
REMARK Flexibility Score: inf
ROOT
ATOM      1  C   UNL     1      11.290  24.390  -9.405  1.00  0.00     0.000 C 
ENDROOT
BRANCH   1   2
ATOM      2  C   UNL     1      12.601  24.277  -8.595  1.00  0.00     0.000 C 
BRANCH   2   3
ATOM      3  C   UNL     1      12.499  23.232  -7.469  1.00  0.00     0.000 C 
BRANCH   3   4
ATOM      4  C   UNL     1      13.863  22.577  -7.159  1.00  0.00     0.000 C 
BRANCH   4   5
ATOM      5  C   UNL     1      14.213  22.560  -5.661  1.00  0.00     0.001 C 
BRANCH   5   6
ATOM      6  C   UNL     1      15.262  23.623  -5.285  1.00  0.00     0.009 C 
BRANCH   6   7
ATOM      7  C   UNL     1      15.977  24.269  -6.493  1.00  0.00     0.032 C 
ATOM      8  C   UNL     1      17.451  23.855  -6.603  1.00  0.00     0.014 C 
BRANCH   7   9
ATOM      9  C   UNL     1      15.821  25.767  -6.497  1.00  0.00     0.044 C 
ATOM     10  O   UNL     1      14.698  26.282  -6.251  1.00  0.00    -0.550 OA
ATOM     11  O   UNL     1      16.915  26.595  -6.718  1.00  0.00    -0.550 OA
ENDBRANCH   7   9
ENDBRANCH   6   7
ENDBRANCH   5   6
ENDBRANCH   4   5
ENDBRANCH   3   4
ENDBRANCH   2   3
ENDBRANCH   1   2
BRANCH   1  12
ATOM     12  C   UNL     1      10.882  23.082 -10.105  1.00  0.00     0.000 C 
BRANCH  12  13
ATOM     13  C   UNL     1       9.414  22.704  -9.852  1.00  0.00    -0.000 C 
BRANCH  13  14
ATOM     14  C   UNL     1       9.161  22.258  -8.403  1.00  0.00    -0.000 C 
BRANCH  14  15
ATOM     15  C   UNL     1       8.170  23.174  -7.665  1.00  0.00    -0.000 C 
BRANCH  15  16
ATOM     16  C   UNL     1       7.166  23.845  -8.616  1.00  0.00    -0.000 C 
BRANCH  16  17
ATOM     17  C   UNL     1       5.752  23.252  -8.494  1.00  0.00    -0.000 C 
BRANCH  17  18
ATOM     18  C   UNL     1       5.282  22.577  -9.792  1.00  0.00    -0.003 C 
ATOM     19  C   UNL     1       5.398  23.496 -11.009  1.00  0.00     0.004 C 
ENDBRANCH  17  18
ENDBRANCH  16  17
ENDBRANCH  15  16
ENDBRANCH  14  15
ENDBRANCH  13  14
ENDBRANCH  12  13
ENDBRANCH   1  12
TORSDOF 14
ENDMDL
