MODEL 1
REMARK VINA RESULT:    -5.320      0.000      0.000
REMARK INTER + INTRA:          -7.352
REMARK INTER:                  -6.875
REMARK INTRA:                  -0.477
REMARK UNBOUND:                -0.477
REMARK SMILES CO[C@@]1(CO)O[C@H](CO)[C@H](O)[C@H]1O
REMARK SMILES IDX 3 1 12 2 10 3 7 4 6 5 2 6 1 7 4 8 5 9 13 11 11 13 8 15 9 16
REMARK H PARENT 5 10 13 12 11 14 9 17
REMARK Flexibility Score: inf
ROOT
ATOM      1  C   UNL     1      38.111   7.006  44.300  1.00  0.00     0.221 C 
ATOM      2  C   UNL     1      37.351   5.878  45.011  1.00  0.00     0.207 C 
ATOM      3  C   UNL     1      35.923   6.316  44.856  1.00  0.00     0.180 C 
ATOM      4  C   UNL     1      36.045   7.846  44.853  1.00  0.00     0.179 C 
ATOM      5  O   UNL     1      37.373   8.196  44.519  1.00  0.00    -0.337 OA
ENDROOT
BRANCH   1   6
ATOM      6  O   UNL     1      38.153   6.692  42.908  1.00  0.00    -0.349 OA
ATOM      7  C   UNL     1      39.459   6.719  42.365  1.00  0.00     0.198 C 
ENDBRANCH   1   6
BRANCH   1   8
ATOM      8  C   UNL     1      39.535   7.135  44.907  1.00  0.00     0.224 C 
BRANCH   8   9
ATOM      9  O   UNL     1      39.583   8.111  45.914  1.00  0.00    -0.391 OA
ATOM     10  H   UNL     1      39.371   7.653  46.769  1.00  0.00     0.210 HD
ENDBRANCH   8   9
ENDBRANCH   1   8
BRANCH   2  11
ATOM     11  O   UNL     1      37.558   4.627  44.407  1.00  0.00    -0.385 OA
ATOM     12  H   UNL     1      36.972   4.603  43.607  1.00  0.00     0.211 HD
ENDBRANCH   2  11
BRANCH   3  13
ATOM     13  O   UNL     1      35.117   5.829  45.899  1.00  0.00    -0.387 OA
ATOM     14  H   UNL     1      34.753   6.623  46.370  1.00  0.00     0.211 HD
ENDBRANCH   3  13
BRANCH   4  15
ATOM     15  C   UNL     1      35.694   8.509  46.198  1.00  0.00     0.191 C 
BRANCH  15  16
ATOM     16  O   UNL     1      36.795   9.207  46.717  1.00  0.00    -0.394 OA
ATOM     17  H   UNL     1      37.331   9.511  45.940  1.00  0.00     0.210 HD
ENDBRANCH  15  16
ENDBRANCH   4  15
TORSDOF 7
ENDMDL
MODEL 2
REMARK VINA RESULT:    -5.171      1.847      3.693
REMARK INTER + INTRA:          -7.159
REMARK INTER:                  -6.579
REMARK INTRA:                  -0.580
REMARK UNBOUND:                -0.477
REMARK SMILES CO[C@@]1(CO)O[C@H](CO)[C@H](O)[C@H]1O
REMARK SMILES IDX 3 1 12 2 10 3 7 4 6 5 2 6 1 7 4 8 5 9 13 11 11 13 8 15 9 16
REMARK H PARENT 5 10 13 12 11 14 9 17
REMARK Flexibility Score: inf
ROOT
ATOM      1  C   UNL     1      35.656   5.521  43.774  1.00  0.00     0.221 C 
ATOM      2  C   UNL     1      36.926   6.241  43.301  1.00  0.00     0.207 C 
ATOM      3  C   UNL     1      37.532   6.695  44.599  1.00  0.00     0.180 C 
ATOM      4  C   UNL     1      36.295   6.925  45.478  1.00  0.00     0.179 C 
ATOM      5  O   UNL     1      35.209   6.203  44.933  1.00  0.00    -0.337 OA
ENDROOT
BRANCH   1   6
ATOM      6  O   UNL     1      36.013   4.175  44.093  1.00  0.00    -0.349 OA
ATOM      7  C   UNL     1      35.045   3.509  44.881  1.00  0.00     0.198 C 
ENDBRANCH   1   6
BRANCH   1   8
ATOM      8  C   UNL     1      34.576   5.585  42.660  1.00  0.00     0.224 C 
BRANCH   8   9
ATOM      9  O   UNL     1      34.950   4.839  41.532  1.00  0.00    -0.391 OA
ATOM     10  H   UNL     1      35.692   5.333  41.094  1.00  0.00     0.210 HD
ENDBRANCH   8   9
ENDBRANCH   1   8
BRANCH   2  11
ATOM     11  O   UNL     1      37.803   5.388  42.611  1.00  0.00    -0.385 OA
ATOM     12  H   UNL     1      38.144   5.906  41.837  1.00  0.00     0.211 HD
ENDBRANCH   2  11
BRANCH   3  13
ATOM     13  O   UNL     1      38.311   7.851  44.427  1.00  0.00    -0.387 OA
ATOM     14  H   UNL     1      37.740   8.507  43.948  1.00  0.00     0.211 HD
ENDBRANCH   3  13
BRANCH   4  15
ATOM     15  C   UNL     1      35.879   8.402  45.606  1.00  0.00     0.191 C 
BRANCH  15  16
ATOM     16  O   UNL     1      36.654   9.061  46.572  1.00  0.00    -0.394 OA
ATOM     17  H   UNL     1      37.603   8.851  46.368  1.00  0.00     0.210 HD
ENDBRANCH  15  16
ENDBRANCH   4  15
TORSDOF 7
ENDMDL
MODEL 3
REMARK VINA RESULT:    -5.094      5.176      6.699
REMARK INTER + INTRA:          -7.060
REMARK INTER:                  -6.499
REMARK INTRA:                  -0.562
REMARK UNBOUND:                -0.477
REMARK SMILES CO[C@@]1(CO)O[C@H](CO)[C@H](O)[C@H]1O
REMARK SMILES IDX 3 1 12 2 10 3 7 4 6 5 2 6 1 7 4 8 5 9 13 11 11 13 8 15 9 16
REMARK H PARENT 5 10 13 12 11 14 9 17
REMARK Flexibility Score: inf
ROOT
ATOM      1  C   UNL     1      37.869   0.014  44.913  1.00  0.00     0.221 C 
ATOM      2  C   UNL     1      37.777   0.389  46.399  1.00  0.00     0.207 C 
ATOM      3  C   UNL     1      36.819   1.545  46.372  1.00  0.00     0.180 C 
ATOM      4  C   UNL     1      37.105   2.180  45.004  1.00  0.00     0.179 C 
ATOM      5  O   UNL     1      37.735   1.220  44.180  1.00  0.00    -0.337 OA
ENDROOT
BRANCH   1   6
ATOM      6  O   UNL     1      36.787  -0.871  44.620  1.00  0.00    -0.349 OA
ATOM      7  C   UNL     1      37.203  -2.090  44.034  1.00  0.00     0.198 C 
ENDBRANCH   1   6
BRANCH   1   8
ATOM      8  C   UNL     1      39.248  -0.641  44.626  1.00  0.00     0.224 C 
BRANCH   8   9
ATOM      9  O   UNL     1      40.078  -0.616  45.757  1.00  0.00    -0.391 OA
ATOM     10  H   UNL     1      40.107  -1.542  46.114  1.00  0.00     0.210 HD
ENDBRANCH   8   9
ENDBRANCH   1   8
BRANCH   2  11
ATOM     11  O   UNL     1      37.274  -0.659  47.187  1.00  0.00    -0.385 OA
ATOM     12  H   UNL     1      38.063  -1.133  47.557  1.00  0.00     0.211 HD
ENDBRANCH   2  11
BRANCH   3  13
ATOM     13  O   UNL     1      37.041   2.423  47.446  1.00  0.00    -0.387 OA
ATOM     14  H   UNL     1      36.799   3.330  47.124  1.00  0.00     0.211 HD
ENDBRANCH   3  13
BRANCH   4  15
ATOM     15  C   UNL     1      38.002   3.430  45.065  1.00  0.00     0.191 C 
BRANCH  15  16
ATOM     16  O   UNL     1      37.279   4.548  45.507  1.00  0.00    -0.394 OA
ATOM     17  H   UNL     1      37.601   5.323  44.978  1.00  0.00     0.210 HD
ENDBRANCH  15  16
ENDBRANCH   4  15
TORSDOF 7
ENDMDL
MODEL 4
REMARK VINA RESULT:    -5.039      1.721      3.907
REMARK INTER + INTRA:          -6.989
REMARK INTER:                  -6.505
REMARK INTRA:                  -0.484
REMARK UNBOUND:                -0.477
REMARK SMILES CO[C@@]1(CO)O[C@H](CO)[C@H](O)[C@H]1O
REMARK SMILES IDX 3 1 12 2 10 3 7 4 6 5 2 6 1 7 4 8 5 9 13 11 11 13 8 15 9 16
REMARK H PARENT 5 10 13 12 11 14 9 17
REMARK Flexibility Score: inf
ROOT
ATOM      1  C   UNL     1      36.200   6.172  44.159  1.00  0.00     0.221 C 
ATOM      2  C   UNL     1      36.968   7.484  44.374  1.00  0.00     0.207 C 
ATOM      3  C   UNL     1      38.126   7.328  43.429  1.00  0.00     0.180 C 
ATOM      4  C   UNL     1      38.349   5.809  43.428  1.00  0.00     0.179 C 
ATOM      5  O   UNL     1      37.168   5.176  43.876  1.00  0.00    -0.337 OA
ENDROOT
BRANCH   1   6
ATOM      6  O   UNL     1      35.330   6.356  43.042  1.00  0.00    -0.349 OA
ATOM      7  C   UNL     1      34.769   5.148  42.564  1.00  0.00     0.198 C 
ENDBRANCH   1   6
BRANCH   1   8
ATOM      8  C   UNL     1      35.416   5.812  45.451  1.00  0.00     0.224 C 
BRANCH   8   9
ATOM      9  O   UNL     1      35.435   6.864  46.379  1.00  0.00    -0.391 OA
ATOM     10  H   UNL     1      36.290   6.792  46.879  1.00  0.00     0.210 HD
ENDBRANCH   8   9
ENDBRANCH   1   8
BRANCH   2  11
ATOM     11  O   UNL     1      36.203   8.615  44.044  1.00  0.00    -0.385 OA
ATOM     12  H   UNL     1      36.787   9.195  43.491  1.00  0.00     0.211 HD
ENDBRANCH   2  11
BRANCH   3  13
ATOM     13  O   UNL     1      39.249   8.051  43.866  1.00  0.00    -0.387 OA
ATOM     14  H   UNL     1      39.980   7.391  43.986  1.00  0.00     0.211 HD
ENDBRANCH   3  13
BRANCH   4  15
ATOM     15  C   UNL     1      39.516   5.343  44.317  1.00  0.00     0.191 C 
BRANCH  15  16
ATOM     16  O   UNL     1      39.386   5.845  45.621  1.00  0.00    -0.394 OA
ATOM     17  H   UNL     1      38.433   5.736  45.875  1.00  0.00     0.210 HD
ENDBRANCH  15  16
ENDBRANCH   4  15
TORSDOF 7
ENDMDL
MODEL 5
REMARK VINA RESULT:    -4.932      2.497      4.384
REMARK INTER + INTRA:          -6.850
REMARK INTER:                  -6.366
REMARK INTRA:                  -0.484
REMARK UNBOUND:                -0.477
REMARK SMILES CO[C@@]1(CO)O[C@H](CO)[C@H](O)[C@H]1O
REMARK SMILES IDX 3 1 12 2 10 3 7 4 6 5 2 6 1 7 4 8 5 9 13 11 11 13 8 15 9 16
REMARK H PARENT 5 10 13 12 11 14 9 17
REMARK Flexibility Score: inf
ROOT
ATOM      1  C   UNL     1      36.381   5.679  43.910  1.00  0.00     0.221 C 
ATOM      2  C   UNL     1      35.536   5.117  42.758  1.00  0.00     0.207 C 
ATOM      3  C   UNL     1      34.757   4.030  43.443  1.00  0.00     0.180 C 
ATOM      4  C   UNL     1      35.728   3.567  44.538  1.00  0.00     0.179 C 
ATOM      5  O   UNL     1      36.675   4.591  44.769  1.00  0.00    -0.337 OA
ENDROOT
BRANCH   1   6
ATOM      6  O   UNL     1      35.592   6.656  44.592  1.00  0.00    -0.349 OA
ATOM      7  C   UNL     1      36.325   7.806  44.968  1.00  0.00     0.198 C 
ENDBRANCH   1   6
BRANCH   1   8
ATOM      8  C   UNL     1      37.693   6.288  43.343  1.00  0.00     0.224 C 
BRANCH   8   9
ATOM      9  O   UNL     1      37.592   6.547  41.968  1.00  0.00    -0.391 OA
ATOM     10  H   UNL     1      36.851   7.196  41.850  1.00  0.00     0.210 HD
ENDBRANCH   8   9
ENDBRANCH   1   8
BRANCH   2  11
ATOM     11  O   UNL     1      34.674   6.078  42.206  1.00  0.00    -0.385 OA
ATOM     12  H   UNL     1      34.546   5.824  41.255  1.00  0.00     0.211 HD
ENDBRANCH   2  11
BRANCH   3  13
ATOM     13  O   UNL     1      34.406   3.006  42.548  1.00  0.00    -0.387 OA
ATOM     14  H   UNL     1      34.313   3.430  41.655  1.00  0.00     0.211 HD
ENDBRANCH   3  13
BRANCH   4  15
ATOM     15  C   UNL     1      36.489   2.272  44.200  1.00  0.00     0.191 C 
BRANCH  15  16
ATOM     16  O   UNL     1      37.110   2.367  42.945  1.00  0.00    -0.394 OA
ATOM     17  H   UNL     1      37.932   2.907  43.074  1.00  0.00     0.210 HD
ENDBRANCH  15  16
ENDBRANCH   4  15
TORSDOF 7
ENDMDL
MODEL 6
REMARK VINA RESULT:    -4.914      4.019      6.012
REMARK INTER + INTRA:          -6.827
REMARK INTER:                  -6.369
REMARK INTRA:                  -0.458
REMARK UNBOUND:                -0.477
REMARK SMILES CO[C@@]1(CO)O[C@H](CO)[C@H](O)[C@H]1O
REMARK SMILES IDX 3 1 12 2 10 3 7 4 6 5 2 6 1 7 4 8 5 9 13 11 11 13 8 15 9 16
REMARK H PARENT 5 10 13 12 11 14 9 17
REMARK Flexibility Score: inf
ROOT
ATOM      1  C   UNL     1      35.160   3.403  43.814  1.00  0.00     0.221 C 
ATOM      2  C   UNL     1      35.416   3.551  45.320  1.00  0.00     0.207 C 
ATOM      3  C   UNL     1      36.833   3.066  45.446  1.00  0.00     0.180 C 
ATOM      4  C   UNL     1      36.926   2.023  44.323  1.00  0.00     0.179 C 
ATOM      5  O   UNL     1      35.900   2.275  43.383  1.00  0.00    -0.337 OA
ENDROOT
BRANCH   1   6
ATOM      6  O   UNL     1      35.636   4.588  43.173  1.00  0.00    -0.349 OA
ATOM      7  C   UNL     1      34.722   5.127  42.239  1.00  0.00     0.198 C 
ENDBRANCH   1   6
BRANCH   1   8
ATOM      8  C   UNL     1      33.643   3.181  43.565  1.00  0.00     0.224 C 
BRANCH   8   9
ATOM      9  O   UNL     1      33.382   1.890  43.081  1.00  0.00    -0.391 OA
ATOM     10  H   UNL     1      32.655   1.513  43.642  1.00  0.00     0.210 HD
ENDBRANCH   8   9
ENDBRANCH   1   8
BRANCH   2  11
ATOM     11  O   UNL     1      35.303   4.881  45.757  1.00  0.00    -0.385 OA
ATOM     12  H   UNL     1      35.183   4.842  46.741  1.00  0.00     0.211 HD
ENDBRANCH   2  11
BRANCH   3  13
ATOM     13  O   UNL     1      37.082   2.529  46.720  1.00  0.00    -0.387 OA
ATOM     14  H   UNL     1      36.278   2.718  47.269  1.00  0.00     0.211 HD
ENDBRANCH   3  13
BRANCH   4  15
ATOM     15  C   UNL     1      36.797   0.566  44.803  1.00  0.00     0.191 C 
BRANCH  15  16
ATOM     16  O   UNL     1      35.584   0.003  44.377  1.00  0.00    -0.394 OA
ATOM     17  H   UNL     1      35.122  -0.327  45.191  1.00  0.00     0.210 HD
ENDBRANCH  15  16
ENDBRANCH   4  15
TORSDOF 7
ENDMDL
MODEL 7
REMARK VINA RESULT:    -4.910      2.638      4.143
REMARK INTER + INTRA:          -6.822
REMARK INTER:                  -6.254
REMARK INTRA:                  -0.568
REMARK UNBOUND:                -0.477
REMARK SMILES CO[C@@]1(CO)O[C@H](CO)[C@H](O)[C@H]1O
REMARK SMILES IDX 3 1 12 2 10 3 7 4 6 5 2 6 1 7 4 8 5 9 13 11 11 13 8 15 9 16
REMARK H PARENT 5 10 13 12 11 14 9 17
REMARK Flexibility Score: inf
ROOT
ATOM      1  C   UNL     1      36.249   3.747  44.360  1.00  0.00     0.221 C 
ATOM      2  C   UNL     1      35.154   4.166  43.368  1.00  0.00     0.207 C 
ATOM      3  C   UNL     1      35.780   5.354  42.695  1.00  0.00     0.180 C 
ATOM      4  C   UNL     1      36.659   5.940  43.808  1.00  0.00     0.179 C 
ATOM      5  O   UNL     1      36.901   4.936  44.773  1.00  0.00    -0.337 OA
ENDROOT
BRANCH   1   6
ATOM      6  O   UNL     1      37.160   2.892  43.667  1.00  0.00    -0.349 OA
ATOM      7  C   UNL     1      37.910   2.058  44.528  1.00  0.00     0.198 C 
ENDBRANCH   1   6
BRANCH   1   8
ATOM      8  C   UNL     1      35.601   3.036  45.580  1.00  0.00     0.224 C 
BRANCH   8   9
ATOM      9  O   UNL     1      34.307   2.580  45.286  1.00  0.00    -0.391 OA
ATOM     10  H   UNL     1      33.674   3.243  45.666  1.00  0.00     0.210 HD
ENDBRANCH   8   9
ENDBRANCH   1   8
BRANCH   2  11
ATOM     11  O   UNL     1      34.862   3.158  42.434  1.00  0.00    -0.385 OA
ATOM     12  H   UNL     1      33.900   2.942  42.550  1.00  0.00     0.211 HD
ENDBRANCH   2  11
BRANCH   3  13
ATOM     13  O   UNL     1      34.806   6.254  42.229  1.00  0.00    -0.387 OA
ATOM     14  H   UNL     1      34.974   7.116  42.691  1.00  0.00     0.211 HD
ENDBRANCH   3  13
BRANCH   4  15
ATOM     15  C   UNL     1      36.045   7.159  44.521  1.00  0.00     0.191 C 
BRANCH  15  16
ATOM     16  O   UNL     1      36.450   8.356  43.912  1.00  0.00    -0.394 OA
ATOM     17  H   UNL     1      36.836   8.924  44.628  1.00  0.00     0.210 HD
ENDBRANCH  15  16
ENDBRANCH   4  15
TORSDOF 7
ENDMDL
MODEL 8
REMARK VINA RESULT:    -4.840      4.848      6.856
REMARK INTER + INTRA:          -6.732
REMARK INTER:                  -6.127
REMARK INTRA:                  -0.605
REMARK UNBOUND:                -0.477
REMARK SMILES CO[C@@]1(CO)O[C@H](CO)[C@H](O)[C@H]1O
REMARK SMILES IDX 3 1 12 2 10 3 7 4 6 5 2 6 1 7 4 8 5 9 13 11 11 13 8 15 9 16
REMARK H PARENT 5 10 13 12 11 14 9 17
REMARK Flexibility Score: inf
ROOT
ATOM      1  C   UNL     1      36.619   2.070  45.023  1.00  0.00     0.221 C 
ATOM      2  C   UNL     1      36.796   1.551  46.457  1.00  0.00     0.207 C 
ATOM      3  C   UNL     1      37.513   0.250  46.234  1.00  0.00     0.180 C 
ATOM      4  C   UNL     1      36.970  -0.196  44.869  1.00  0.00     0.179 C 
ATOM      5  O   UNL     1      36.447   0.932  44.196  1.00  0.00    -0.337 OA
ENDROOT
BRANCH   1   6
ATOM      6  O   UNL     1      37.810   2.773  44.665  1.00  0.00    -0.349 OA
ATOM      7  C   UNL     1      37.800   3.251  43.334  1.00  0.00     0.198 C 
ENDBRANCH   1   6
BRANCH   1   8
ATOM      8  C   UNL     1      35.364   2.983  44.952  1.00  0.00     0.224 C 
BRANCH   8   9
ATOM      9  O   UNL     1      35.369   3.950  45.969  1.00  0.00    -0.391 OA
ATOM     10  H   UNL     1      36.199   4.482  45.857  1.00  0.00     0.210 HD
ENDBRANCH   8   9
ENDBRANCH   1   8
BRANCH   2  11
ATOM     11  O   UNL     1      37.567   2.417  47.250  1.00  0.00    -0.385 OA
ATOM     12  H   UNL     1      36.926   2.924  47.814  1.00  0.00     0.211 HD
ENDBRANCH   2  11
BRANCH   3  13
ATOM     13  O   UNL     1      37.245  -0.669  47.262  1.00  0.00    -0.387 OA
ATOM     14  H   UNL     1      37.182  -0.143  48.101  1.00  0.00     0.211 HD
ENDBRANCH   3  13
BRANCH   4  15
ATOM     15  C   UNL     1      35.867  -1.267  44.950  1.00  0.00     0.191 C 
BRANCH  15  16
ATOM     16  O   UNL     1      36.402  -2.517  45.294  1.00  0.00    -0.394 OA
ATOM     17  H   UNL     1      35.667  -3.177  45.204  1.00  0.00     0.210 HD
ENDBRANCH  15  16
ENDBRANCH   4  15
TORSDOF 7
ENDMDL
MODEL 9
REMARK VINA RESULT:    -4.815      4.468      5.804
REMARK INTER + INTRA:          -6.699
REMARK INTER:                  -6.215
REMARK INTRA:                  -0.484
REMARK UNBOUND:                -0.477
REMARK SMILES CO[C@@]1(CO)O[C@H](CO)[C@H](O)[C@H]1O
REMARK SMILES IDX 3 1 12 2 10 3 7 4 6 5 2 6 1 7 4 8 5 9 13 11 11 13 8 15 9 16
REMARK H PARENT 5 10 13 12 11 14 9 17
REMARK Flexibility Score: inf
ROOT
ATOM      1  C   UNL     1      36.768   1.483  44.511  1.00  0.00     0.221 C 
ATOM      2  C   UNL     1      36.862   2.811  45.276  1.00  0.00     0.207 C 
ATOM      3  C   UNL     1      35.431   3.047  45.670  1.00  0.00     0.180 C 
ATOM      4  C   UNL     1      34.658   2.395  44.516  1.00  0.00     0.179 C 
ATOM      5  O   UNL     1      35.509   1.476  43.860  1.00  0.00    -0.337 OA
ENDROOT
BRANCH   1   6
ATOM      6  O   UNL     1      36.843   0.424  45.466  1.00  0.00    -0.349 OA
ATOM      7  C   UNL     1      36.831  -0.863  44.879  1.00  0.00     0.198 C 
ENDBRANCH   1   6
BRANCH   1   8
ATOM      8  C   UNL     1      37.915   1.403  43.467  1.00  0.00     0.224 C 
BRANCH   8   9
ATOM      9  O   UNL     1      37.929   2.526  42.625  1.00  0.00    -0.391 OA
ATOM     10  H   UNL     1      37.037   2.570  42.190  1.00  0.00     0.210 HD
ENDBRANCH   8   9
ENDBRANCH   1   8
BRANCH   2  11
ATOM     11  O   UNL     1      37.684   2.720  46.410  1.00  0.00    -0.385 OA
ATOM     12  H   UNL     1      37.703   1.761  46.665  1.00  0.00     0.211 HD
ENDBRANCH   2  11
BRANCH   3  13
ATOM     13  O   UNL     1      35.156   4.417  45.815  1.00  0.00    -0.387 OA
ATOM     14  H   UNL     1      35.959   4.823  46.234  1.00  0.00     0.211 HD
ENDBRANCH   3  13
BRANCH   4  15
ATOM     15  C   UNL     1      34.127   3.393  43.470  1.00  0.00     0.191 C 
BRANCH  15  16
ATOM     16  O   UNL     1      34.905   3.361  42.304  1.00  0.00    -0.394 OA
ATOM     17  H   UNL     1      35.333   2.466  42.270  1.00  0.00     0.210 HD
ENDBRANCH  15  16
ENDBRANCH   4  15
TORSDOF 7
ENDMDL
