MODEL 1
REMARK VINA RESULT:     6.609      0.000      0.000
REMARK INTER + INTRA:          10.609
REMARK INTER:                   9.507
REMARK INTRA:                   1.102
REMARK UNBOUND:                 1.102
REMARK SMILES O=c1c(O[C@H]2O[C@@H](CO)[C@H](O)[C@H](O)[C@H]2O)c(-c2ccc(O)cc2)oc2cc(O)cc(O)c12
REMARK SMILES IDX 4 1 3 2 16 3 24 4 2 5 25 6 1 7 32 8 26 9 30 10 27 11 29 12
REMARK SMILES IDX 17 13 18 14 19 15 20 16 23 17 22 18 21 19 31 21 28 23 5 25
REMARK SMILES IDX 14 26 6 27 12 28 7 29 10 30 15 31 13 33 8 35 9 36 11 38
REMARK H PARENT 21 20 31 22 28 24 15 32 13 34 9 37 11 39
REMARK Flexibility Score: inf
ROOT
ATOM      1  O   UNL     1      14.142 -11.109  29.776  1.00  0.00    -0.454 OA
ENDROOT
BRANCH   1   2
ATOM      2  C   UNL     1      14.649 -12.069  28.895  1.00  0.00     0.214 A 
ATOM      3  C   UNL     1      15.039 -11.720  27.589  1.00  0.00     0.180 A 
ATOM      4  O   UNL     1      15.465 -12.665  26.752  1.00  0.00    -0.452 OA
ATOM      5  C   UNL     1      14.754 -13.400  29.306  1.00  0.00     0.239 A 
ATOM      6  C   UNL     1      15.569 -13.944  27.094  1.00  0.00     0.146 A 
ATOM      7  O   UNL     1      14.413 -13.709  30.482  1.00  0.00    -0.285 OA
ATOM      8  C   UNL     1      15.220 -14.372  28.399  1.00  0.00     0.111 A 
ATOM      9  C   UNL     1      16.036 -14.866  26.152  1.00  0.00     0.094 A 
ATOM     10  C   UNL     1      15.345 -15.741  28.732  1.00  0.00     0.134 A 
ATOM     11  C   UNL     1      16.155 -16.218  26.489  1.00  0.00     0.123 A 
ATOM     12  C   UNL     1      15.814 -16.651  27.775  1.00  0.00     0.093 A 
BRANCH   3  13
ATOM     13  C   UNL     1      14.979 -10.325  27.106  1.00  0.00     0.021 A 
ATOM     14  C   UNL     1      16.168  -9.618  26.883  1.00  0.00     0.016 A 
ATOM     15  C   UNL     1      16.130  -8.310  26.388  1.00  0.00     0.047 A 
ATOM     16  C   UNL     1      14.900  -7.692  26.127  1.00  0.00     0.115 A 
ATOM     17  C   UNL     1      13.746  -9.690  26.872  1.00  0.00     0.016 A 
ATOM     18  C   UNL     1      13.710  -8.382  26.380  1.00  0.00     0.047 A 
BRANCH  16  19
ATOM     19  O   UNL     1      14.847  -6.396  25.619  1.00  0.00    -0.508 OA
ATOM     20  H   UNL     1      15.675  -5.922  25.283  1.00  0.00     0.293 HD
ENDBRANCH  16  19
ENDBRANCH   3  13
BRANCH  10  21
ATOM     21  O   UNL     1      15.006 -16.200  30.005  1.00  0.00    -0.507 OA
ATOM     22  H   UNL     1      14.870 -17.187  30.197  1.00  0.00     0.293 HD
ENDBRANCH  10  21
BRANCH  11  23
ATOM     23  O   UNL     1      16.615 -17.125  25.538  1.00  0.00    -0.508 OA
ATOM     24  H   UNL     1      16.913 -18.058  25.796  1.00  0.00     0.293 HD
ENDBRANCH  11  23
ENDBRANCH   1   2
BRANCH   1  25
ATOM     25  C   UNL     1      12.747 -10.814  29.849  1.00  0.00     0.339 C 
ATOM     26  C   UNL     1      12.096 -11.560  31.047  1.00  0.00     0.214 C 
ATOM     27  O   UNL     1      12.137 -11.200  28.633  1.00  0.00    -0.332 OA
ATOM     28  C   UNL     1      10.676 -12.070  30.700  1.00  0.00     0.180 C 
ATOM     29  C   UNL     1      10.825 -10.666  28.551  1.00  0.00     0.179 C 
ATOM     30  C   UNL     1       9.933 -11.093  29.765  1.00  0.00     0.177 C 
BRANCH  26  31
ATOM     31  O   UNL     1      12.899 -12.622  31.496  1.00  0.00    -0.384 OA
ATOM     32  H   UNL     1      12.505 -13.463  31.144  1.00  0.00     0.211 HD
ENDBRANCH  26  31
BRANCH  28  33
ATOM     33  O   UNL     1       9.919 -12.273  31.868  1.00  0.00    -0.387 OA
ATOM     34  H   UNL     1      10.445 -11.903  32.624  1.00  0.00     0.211 HD
ENDBRANCH  28  33
BRANCH  29  35
ATOM     35  C   UNL     1      10.204 -11.100  27.216  1.00  0.00     0.191 C 
BRANCH  35  36
ATOM     36  O   UNL     1      10.839 -12.249  26.718  1.00  0.00    -0.394 OA
ATOM     37  H   UNL     1      11.678 -11.947  26.279  1.00  0.00     0.210 HD
ENDBRANCH  35  36
ENDBRANCH  29  35
BRANCH  30  38
ATOM     38  O   UNL     1       9.471  -9.961  30.469  1.00  0.00    -0.387 OA
ATOM     39  H   UNL     1       9.988  -9.174  30.159  1.00  0.00     0.211 HD
ENDBRANCH  30  38
ENDBRANCH   1  25
TORSDOF 11
ENDMDL
MODEL 2
REMARK VINA RESULT:     7.370      1.523      6.056
REMARK INTER + INTRA:          11.703
REMARK INTER:                  12.662
REMARK INTRA:                  -0.959
REMARK UNBOUND:                 1.102
REMARK SMILES O=c1c(O[C@H]2O[C@@H](CO)[C@H](O)[C@H](O)[C@H]2O)c(-c2ccc(O)cc2)oc2cc(O)cc(O)c12
REMARK SMILES IDX 4 1 3 2 16 3 24 4 2 5 25 6 1 7 32 8 26 9 30 10 27 11 29 12
REMARK SMILES IDX 17 13 18 14 19 15 20 16 23 17 22 18 21 19 31 21 28 23 5 25
REMARK SMILES IDX 14 26 6 27 12 28 7 29 10 30 15 31 13 33 8 35 9 36 11 38
REMARK H PARENT 21 20 31 22 28 24 15 32 13 34 9 37 11 39
REMARK Flexibility Score: inf
ROOT
ATOM      1  O   UNL     1      12.529 -11.359  27.260  1.00  0.00    -0.454 OA
ENDROOT
BRANCH   1   2
ATOM      2  C   UNL     1      13.628 -10.522  27.051  1.00  0.00     0.214 A 
ATOM      3  C   UNL     1      14.942 -10.996  27.218  1.00  0.00     0.180 A 
ATOM      4  O   UNL     1      15.970 -10.162  27.069  1.00  0.00    -0.452 OA
ATOM      5  C   UNL     1      13.424  -9.189  26.689  1.00  0.00     0.239 A 
ATOM      6  C   UNL     1      15.824  -8.884  26.738  1.00  0.00     0.146 A 
ATOM      7  O   UNL     1      12.245  -8.767  26.528  1.00  0.00    -0.285 OA
ATOM      8  C   UNL     1      14.535  -8.336  26.527  1.00  0.00     0.111 A 
ATOM      9  C   UNL     1      16.962  -8.084  26.592  1.00  0.00     0.094 A 
ATOM     10  C   UNL     1      14.414  -6.972  26.172  1.00  0.00     0.134 A 
ATOM     11  C   UNL     1      16.834  -6.735  26.243  1.00  0.00     0.123 A 
ATOM     12  C   UNL     1      15.566  -6.184  26.032  1.00  0.00     0.093 A 
BRANCH   3  13
ATOM     13  C   UNL     1      15.223 -12.403  27.572  1.00  0.00     0.021 A 
ATOM     14  C   UNL     1      15.139 -12.810  28.911  1.00  0.00     0.016 A 
ATOM     15  C   UNL     1      15.363 -14.146  29.259  1.00  0.00     0.047 A 
ATOM     16  C   UNL     1      15.689 -15.085  28.271  1.00  0.00     0.115 A 
ATOM     17  C   UNL     1      15.581 -13.342  26.589  1.00  0.00     0.016 A 
ATOM     18  C   UNL     1      15.807 -14.676  26.939  1.00  0.00     0.047 A 
BRANCH  16  19
ATOM     19  O   UNL     1      15.899 -16.422  28.600  1.00  0.00    -0.508 OA
ATOM     20  H   UNL     1      16.484 -16.692  29.381  1.00  0.00     0.293 HD
ENDBRANCH  16  19
ENDBRANCH   3  13
BRANCH  10  21
ATOM     21  O   UNL     1      13.161  -6.396  25.961  1.00  0.00    -0.507 OA
ATOM     22  H   UNL     1      12.578  -6.090  26.732  1.00  0.00     0.293 HD
ENDBRANCH  10  21
BRANCH  11  23
ATOM     23  O   UNL     1      17.976  -5.949  26.109  1.00  0.00    -0.508 OA
ATOM     24  H   UNL     1      17.958  -5.070  25.606  1.00  0.00     0.293 HD
ENDBRANCH  11  23
ENDBRANCH   1   2
BRANCH   1  25
ATOM     25  C   UNL     1      12.008 -11.610  28.566  1.00  0.00     0.339 C 
ATOM     26  C   UNL     1      10.512 -11.197  28.642  1.00  0.00     0.214 C 
ATOM     27  O   UNL     1      12.773 -10.882  29.506  1.00  0.00    -0.332 OA
ATOM     28  C   UNL     1      10.163 -10.557  30.008  1.00  0.00     0.180 C 
ATOM     29  C   UNL     1      12.480 -11.322  30.823  1.00  0.00     0.179 C 
ATOM     30  C   UNL     1      10.955 -11.211  31.161  1.00  0.00     0.177 C 
BRANCH  26  31
ATOM     31  O   UNL     1      10.158 -10.330  27.594  1.00  0.00    -0.384 OA
ATOM     32  H   UNL     1      10.999  -9.977  27.203  1.00  0.00     0.211 HD
ENDBRANCH  26  31
BRANCH  28  33
ATOM     33  O   UNL     1       8.785 -10.654  30.269  1.00  0.00    -0.387 OA
ATOM     34  H   UNL     1       8.475 -11.515  29.883  1.00  0.00     0.211 HD
ENDBRANCH  28  33
BRANCH  29  35
ATOM     35  C   UNL     1      13.335 -10.516  31.810  1.00  0.00     0.191 C 
BRANCH  35  36
ATOM     36  O   UNL     1      12.862  -9.198  31.923  1.00  0.00    -0.394 OA
ATOM     37  H   UNL     1      12.217  -9.188  32.680  1.00  0.00     0.210 HD
ENDBRANCH  35  36
ENDBRANCH  29  35
BRANCH  30  38
ATOM     38  O   UNL     1      10.423 -12.474  31.496  1.00  0.00    -0.387 OA
ATOM     39  H   UNL     1      10.483 -12.582  32.480  1.00  0.00     0.211 HD
ENDBRANCH  30  38
ENDBRANCH   1  25
TORSDOF 11
ENDMDL
MODEL 3
REMARK VINA RESULT:     8.383      6.329     10.284
REMARK INTER + INTRA:          13.161
REMARK INTER:                  14.169
REMARK INTRA:                  -1.008
REMARK UNBOUND:                 1.102
REMARK SMILES O=c1c(O[C@H]2O[C@@H](CO)[C@H](O)[C@H](O)[C@H]2O)c(-c2ccc(O)cc2)oc2cc(O)cc(O)c12
REMARK SMILES IDX 4 1 3 2 16 3 24 4 2 5 25 6 1 7 32 8 26 9 30 10 27 11 29 12
REMARK SMILES IDX 17 13 18 14 19 15 20 16 23 17 22 18 21 19 31 21 28 23 5 25
REMARK SMILES IDX 14 26 6 27 12 28 7 29 10 30 15 31 13 33 8 35 9 36 11 38
REMARK H PARENT 21 20 31 22 28 24 15 32 13 34 9 37 11 39
REMARK Flexibility Score: inf
ROOT
ATOM      1  O   UNL     1      15.600  -2.665  27.951  1.00  0.00    -0.454 OA
ENDROOT
BRANCH   1   2
ATOM      2  C   UNL     1      15.697  -3.894  27.294  1.00  0.00     0.214 A 
ATOM      3  C   UNL     1      16.949  -4.478  27.030  1.00  0.00     0.180 A 
ATOM      4  O   UNL     1      17.016  -5.622  26.350  1.00  0.00    -0.452 OA
ATOM      5  C   UNL     1      14.537  -4.548  26.872  1.00  0.00     0.239 A 
ATOM      6  C   UNL     1      15.941  -6.272  25.919  1.00  0.00     0.146 A 
ATOM      7  O   UNL     1      13.413  -4.028  27.119  1.00  0.00    -0.285 OA
ATOM      8  C   UNL     1      14.642  -5.763  26.166  1.00  0.00     0.111 A 
ATOM      9  C   UNL     1      16.105  -7.474  25.222  1.00  0.00     0.094 A 
ATOM     10  C   UNL     1      13.518  -6.481  25.696  1.00  0.00     0.134 A 
ATOM     11  C   UNL     1      14.988  -8.177  24.758  1.00  0.00     0.123 A 
ATOM     12  C   UNL     1      13.701  -7.683  24.998  1.00  0.00     0.093 A 
BRANCH   3  13
ATOM     13  C   UNL     1      18.210  -3.850  27.475  1.00  0.00     0.021 A 
ATOM     14  C   UNL     1      18.539  -3.847  28.838  1.00  0.00     0.016 A 
ATOM     15  C   UNL     1      19.746  -3.292  29.272  1.00  0.00     0.047 A 
ATOM     16  C   UNL     1      20.630  -2.717  28.347  1.00  0.00     0.115 A 
ATOM     17  C   UNL     1      19.086  -3.245  26.555  1.00  0.00     0.016 A 
ATOM     18  C   UNL     1      20.291  -2.688  26.991  1.00  0.00     0.047 A 
BRANCH  16  19
ATOM     19  O   UNL     1      21.843  -2.174  28.763  1.00  0.00    -0.508 OA
ATOM     20  H   UNL     1      22.384  -2.591  29.511  1.00  0.00     0.293 HD
ENDBRANCH  16  19
ENDBRANCH   3  13
BRANCH  10  21
ATOM     21  O   UNL     1      12.224  -6.009  25.916  1.00  0.00    -0.507 OA
ATOM     22  H   UNL     1      11.970  -5.531  26.774  1.00  0.00     0.293 HD
ENDBRANCH  10  21
BRANCH  11  23
ATOM     23  O   UNL     1      15.168  -9.368  24.060  1.00  0.00    -0.508 OA
ATOM     24  H   UNL     1      14.751 -10.236  24.375  1.00  0.00     0.293 HD
ENDBRANCH  11  23
ENDBRANCH   1   2
BRANCH   1  25
ATOM     25  C   UNL     1      15.885  -1.431  27.292  1.00  0.00     0.339 C 
ATOM     26  C   UNL     1      15.715  -0.239  28.274  1.00  0.00     0.214 C 
ATOM     27  O   UNL     1      15.011  -1.294  26.189  1.00  0.00    -0.332 OA
ATOM     28  C   UNL     1      15.092   0.995  27.575  1.00  0.00     0.180 C 
ATOM     29  C   UNL     1      15.447  -0.238  25.346  1.00  0.00     0.179 C 
ATOM     30  C   UNL     1      15.570   1.121  26.113  1.00  0.00     0.177 C 
BRANCH  26  31
ATOM     31  O   UNL     1      14.953  -0.597  29.399  1.00  0.00    -0.384 OA
ATOM     32  H   UNL     1      15.587  -0.854  30.119  1.00  0.00     0.211 HD
ENDBRANCH  26  31
BRANCH  28  33
ATOM     33  O   UNL     1      15.400   2.174  28.276  1.00  0.00    -0.387 OA
ATOM     34  H   UNL     1      16.308   2.056  28.661  1.00  0.00     0.211 HD
ENDBRANCH  28  33
BRANCH  29  35
ATOM     35  C   UNL     1      14.479  -0.129  24.159  1.00  0.00     0.191 C 
BRANCH  35  36
ATOM     36  O   UNL     1      14.255   1.214  23.817  1.00  0.00    -0.394 OA
ATOM     37  H   UNL     1      14.728   1.375  22.957  1.00  0.00     0.210 HD
ENDBRANCH  35  36
ENDBRANCH  29  35
BRANCH  30  38
ATOM     38  O   UNL     1      16.889   1.616  26.047  1.00  0.00    -0.387 OA
ATOM     39  H   UNL     1      16.868   2.485  25.568  1.00  0.00     0.211 HD
ENDBRANCH  30  38
ENDBRANCH   1  25
TORSDOF 11
ENDMDL
MODEL 4
REMARK VINA RESULT:     9.475      6.267     10.606
REMARK INTER + INTRA:          14.731
REMARK INTER:                  13.071
REMARK INTRA:                   1.660
REMARK UNBOUND:                 1.102
REMARK SMILES O=c1c(O[C@H]2O[C@@H](CO)[C@H](O)[C@H](O)[C@H]2O)c(-c2ccc(O)cc2)oc2cc(O)cc(O)c12
REMARK SMILES IDX 4 1 3 2 16 3 24 4 2 5 25 6 1 7 32 8 26 9 30 10 27 11 29 12
REMARK SMILES IDX 17 13 18 14 19 15 20 16 23 17 22 18 21 19 31 21 28 23 5 25
REMARK SMILES IDX 14 26 6 27 12 28 7 29 10 30 15 31 13 33 8 35 9 36 11 38
REMARK H PARENT 21 20 31 22 28 24 15 32 13 34 9 37 11 39
REMARK Flexibility Score: inf
ROOT
ATOM      1  O   UNL     1      15.928  -2.392  27.953  1.00  0.00    -0.454 OA
ENDROOT
BRANCH   1   2
ATOM      2  C   UNL     1      15.930  -3.661  27.370  1.00  0.00     0.214 A 
ATOM      3  C   UNL     1      17.133  -4.356  27.149  1.00  0.00     0.180 A 
ATOM      4  O   UNL     1      17.111  -5.540  26.538  1.00  0.00    -0.452 OA
ATOM      5  C   UNL     1      14.723  -4.247  26.981  1.00  0.00     0.239 A 
ATOM      6  C   UNL     1      15.989  -6.129  26.140  1.00  0.00     0.146 A 
ATOM      7  O   UNL     1      13.642  -3.627  27.191  1.00  0.00    -0.285 OA
ATOM      8  C   UNL     1      14.734  -5.506  26.349  1.00  0.00     0.111 A 
ATOM      9  C   UNL     1      16.060  -7.379  25.516  1.00  0.00     0.094 A 
ATOM     10  C   UNL     1      13.557  -6.162  25.916  1.00  0.00     0.134 A 
ATOM     11  C   UNL     1      14.892  -8.020  25.089  1.00  0.00     0.123 A 
ATOM     12  C   UNL     1      13.647  -7.414  25.291  1.00  0.00     0.093 A 
BRANCH   3  13
ATOM     13  C   UNL     1      18.439  -3.802  27.563  1.00  0.00     0.021 A 
ATOM     14  C   UNL     1      18.756  -3.725  28.926  1.00  0.00     0.016 A 
ATOM     15  C   UNL     1      20.003  -3.239  29.335  1.00  0.00     0.047 A 
ATOM     16  C   UNL     1      20.938  -2.811  28.382  1.00  0.00     0.115 A 
ATOM     17  C   UNL     1      19.368  -3.342  26.613  1.00  0.00     0.016 A 
ATOM     18  C   UNL     1      20.612  -2.856  27.023  1.00  0.00     0.047 A 
BRANCH  16  19
ATOM     19  O   UNL     1      22.189  -2.341  28.773  1.00  0.00    -0.508 OA
ATOM     20  H   UNL     1      22.770  -2.853  29.424  1.00  0.00     0.293 HD
ENDBRANCH  16  19
ENDBRANCH   3  13
BRANCH  10  21
ATOM     21  O   UNL     1      12.304  -5.578  26.100  1.00  0.00    -0.507 OA
ATOM     22  H   UNL     1      12.202  -4.590  26.311  1.00  0.00     0.293 HD
ENDBRANCH  10  21
BRANCH  11  23
ATOM     23  O   UNL     1      14.980  -9.261  24.463  1.00  0.00    -0.508 OA
ATOM     24  H   UNL     1      14.327  -9.537  23.739  1.00  0.00     0.293 HD
ENDBRANCH  11  23
ENDBRANCH   1   2
BRANCH   1  25
ATOM     25  C   UNL     1      15.466  -1.238  27.250  1.00  0.00     0.339 C 
ATOM     26  C   UNL     1      16.143  -1.145  25.855  1.00  0.00     0.214 C 
ATOM     27  O   UNL     1      15.758  -0.090  28.022  1.00  0.00    -0.332 OA
ATOM     28  C   UNL     1      16.472   0.319  25.475  1.00  0.00     0.180 C 
ATOM     29  C   UNL     1      15.067   1.037  27.506  1.00  0.00     0.179 C 
ATOM     30  C   UNL     1      15.399   1.297  25.998  1.00  0.00     0.177 C 
BRANCH  26  31
ATOM     31  O   UNL     1      17.302  -1.938  25.786  1.00  0.00    -0.384 OA
ATOM     32  H   UNL     1      17.222  -2.643  26.480  1.00  0.00     0.211 HD
ENDBRANCH  26  31
BRANCH  28  33
ATOM     33  O   UNL     1      16.597   0.458  24.081  1.00  0.00    -0.387 OA
ATOM     34  H   UNL     1      16.884  -0.424  23.725  1.00  0.00     0.211 HD
ENDBRANCH  28  33
BRANCH  29  35
ATOM     35  C   UNL     1      15.403   2.257  28.375  1.00  0.00     0.191 C 
BRANCH  35  36
ATOM     36  O   UNL     1      15.403   1.916  29.737  1.00  0.00    -0.394 OA
ATOM     37  H   UNL     1      16.350   1.754  29.994  1.00  0.00     0.210 HD
ENDBRANCH  35  36
ENDBRANCH  29  35
BRANCH  30  38
ATOM     38  O   UNL     1      14.229   1.243  25.211  1.00  0.00    -0.387 OA
ATOM     39  H   UNL     1      13.657   2.015  25.456  1.00  0.00     0.211 HD
ENDBRANCH  30  38
ENDBRANCH   1  25
TORSDOF 11
ENDMDL
