MODEL 1
REMARK VINA RESULT:    -1.683      0.000      0.000
REMARK INTER + INTRA:          -2.965
REMARK INTER:                  -2.569
REMARK INTRA:                  -0.396
REMARK UNBOUND:                -0.396
REMARK SMILES CC1=CCC[C@H](C)C(=O)C[C@@H](C(C)C)C(=O)C1
REMARK SMILES IDX 8 1 9 2 6 3 7 4 5 5 4 6 3 7 2 8 1 9 10 11 11 12 15 13 16 14
REMARK SMILES IDX 17 15 12 17 13 18 14 19
REMARK H PARENT
REMARK Flexibility Score: 70.00
ROOT
ATOM      1  C   UNL     1     109.049  86.615  55.124  1.00  0.00     0.136 C 
ATOM      2  O   UNL     1     110.156  86.472  54.629  1.00  0.00    -0.299 OA
ENDROOT
BRANCH   1   3
ATOM      3  C   UNL     1     108.667  87.987  55.654  1.00  0.00     0.053 C 
ATOM      4  C   UNL     1     107.194  88.024  56.080  1.00  0.00     0.016 C 
BRANCH   3   5
ATOM      5  C   UNL     1     109.591  88.435  56.805  1.00  0.00     0.015 C 
BRANCH   5   6
ATOM      6  C   UNL     1     109.332  87.612  58.079  1.00  0.00     0.028 C 
BRANCH   6   7
ATOM      7  C   UNL     1     110.532  86.833  58.556  1.00  0.00    -0.028 C 
ATOM      8  C   UNL     1     110.633  85.481  58.643  1.00  0.00    -0.070 CG0
ATOM      9  C   UNL     1     111.990  84.918  58.992  1.00  0.00     0.039 C 
ATOM     10  G   UNL     1     109.462  84.511  58.527  1.00  0.00     0.000 G0
ENDBRANCH   6   7
ENDBRANCH   5   6
ENDBRANCH   3   5
ENDBRANCH   1   3
BRANCH   1  11
ATOM     11  C   UNL     1     108.083  85.444  55.139  1.00  0.00     0.087 C 
BRANCH  11  12
ATOM     12  C   UNL     1     107.815  84.789  56.528  1.00  0.00     0.066 C 
BRANCH  12  13
ATOM     13  C   UNL     1     109.042  84.121  57.133  1.00  0.00     0.140 C 
ATOM     14  O   UNL     1     109.604  83.207  56.547  1.00  0.00    -0.299 OA
BRANCH  13  15
ATOM     15  C   UNL     1     109.471  84.490  58.533  1.00  0.00     0.106 CG0
ATOM     16  G   UNL     1     110.621  85.487  58.637  1.00  0.00     0.000 G0
ENDBRANCH  13  15
ENDBRANCH  12  13
BRANCH  12  17
ATOM     17  C   UNL     1     106.522  83.913  56.636  1.00  0.00    -0.006 C 
ATOM     18  C   UNL     1     105.692  84.270  57.882  1.00  0.00     0.008 C 
ATOM     19  C   UNL     1     105.625  83.946  55.391  1.00  0.00     0.008 C 
ENDBRANCH  12  17
ENDBRANCH  11  12
ENDBRANCH   1  11
TORSDOF 1
ENDMDL
MODEL 2
REMARK VINA RESULT:    -1.604     11.396     13.378
REMARK INTER + INTRA:          -2.844
REMARK INTER:                  -2.296
REMARK INTRA:                  -0.548
REMARK UNBOUND:                -0.396
REMARK SMILES CC1=CCC[C@H](C)C(=O)C[C@@H](C(C)C)C(=O)C1
REMARK SMILES IDX 8 1 9 2 6 3 7 4 5 5 4 6 3 7 2 8 1 9 10 11 11 12 15 13 16 14
REMARK SMILES IDX 17 15 12 17 13 18 14 19
REMARK H PARENT
REMARK Flexibility Score: 70.00
ROOT
ATOM      1  C   UNL     1     119.502  85.434  55.230  1.00  0.00     0.136 C 
ATOM      2  O   UNL     1     118.542  86.110  54.895  1.00  0.00    -0.299 OA
ENDROOT
BRANCH   1   3
ATOM      3  C   UNL     1     120.166  84.553  54.184  1.00  0.00     0.053 C 
ATOM      4  C   UNL     1     121.254  85.322  53.425  1.00  0.00     0.016 C 
BRANCH   3   5
ATOM      5  C   UNL     1     120.727  83.255  54.800  1.00  0.00     0.015 C 
BRANCH   5   6
ATOM      6  C   UNL     1     122.252  83.164  54.613  1.00  0.00     0.028 C 
BRANCH   6   7
ATOM      7  C   UNL     1     122.974  82.551  55.787  1.00  0.00    -0.028 C 
ATOM      8  C   UNL     1     123.425  83.206  56.888  1.00  0.00    -0.070 CG0
ATOM      9  C   UNL     1     123.973  82.359  58.011  1.00  0.00     0.039 C 
ATOM     10  G   UNL     1     123.520  84.723  57.022  1.00  0.00     0.000 G0
ENDBRANCH   6   7
ENDBRANCH   5   6
ENDBRANCH   3   5
ENDBRANCH   1   3
BRANCH   1  11
ATOM     11  C   UNL     1     120.029  85.541  56.650  1.00  0.00     0.087 C 
BRANCH  11  12
ATOM     12  C   UNL     1     121.423  86.220  56.819  1.00  0.00     0.066 C 
BRANCH  12  13
ATOM     13  C   UNL     1     122.385  85.425  57.690  1.00  0.00     0.140 C 
ATOM     14  O   UNL     1     122.286  85.451  58.908  1.00  0.00    -0.299 OA
BRANCH  13  15
ATOM     15  C   UNL     1     123.559  84.725  57.048  1.00  0.00     0.106 CG0
ATOM     16  G   UNL     1     123.430  83.212  56.893  1.00  0.00     0.000 G0
ENDBRANCH  13  15
ENDBRANCH  12  13
BRANCH  12  17
ATOM     17  C   UNL     1     121.405  87.748  57.157  1.00  0.00    -0.006 C 
ATOM     18  C   UNL     1     121.504  88.615  55.890  1.00  0.00     0.008 C 
ATOM     19  C   UNL     1     120.204  88.200  58.000  1.00  0.00     0.008 C 
ENDBRANCH  12  17
ENDBRANCH  11  12
ENDBRANCH   1  11
TORSDOF 1
ENDMDL
MODEL 3
REMARK VINA RESULT:    -1.548      2.105      2.939
REMARK INTER + INTRA:          -2.758
REMARK INTER:                  -2.297
REMARK INTRA:                  -0.461
REMARK UNBOUND:                -0.396
REMARK SMILES CC1=CCC[C@H](C)C(=O)C[C@@H](C(C)C)C(=O)C1
REMARK SMILES IDX 8 1 9 2 6 3 7 4 5 5 4 6 3 7 2 8 1 9 10 11 11 12 15 13 16 14
REMARK SMILES IDX 17 15 12 17 13 18 14 19
REMARK H PARENT
REMARK Flexibility Score: 70.00
ROOT
ATOM      1  C   UNL     1     107.222  85.196  54.018  1.00  0.00     0.136 C 
ATOM      2  O   UNL     1     106.104  85.154  53.528  1.00  0.00    -0.299 OA
ENDROOT
BRANCH   1   3
ATOM      3  C   UNL     1     108.185  86.266  53.528  1.00  0.00     0.053 C 
ATOM      4  C   UNL     1     108.730  85.923  52.136  1.00  0.00     0.016 C 
BRANCH   3   5
ATOM      5  C   UNL     1     107.543  87.668  53.546  1.00  0.00     0.015 C 
BRANCH   5   6
ATOM      6  C   UNL     1     107.308  88.154  54.987  1.00  0.00     0.028 C 
BRANCH   6   7
ATOM      7  C   UNL     1     108.548  88.142  55.846  1.00  0.00    -0.028 C 
ATOM      8  C   UNL     1     108.748  87.396  56.963  1.00  0.00    -0.070 CG0
ATOM      9  C   UNL     1     110.131  87.425  57.566  1.00  0.00     0.039 C 
ATOM     10  G   UNL     1     107.657  86.632  57.707  1.00  0.00     0.000 G0
ENDBRANCH   6   7
ENDBRANCH   5   6
ENDBRANCH   3   5
ENDBRANCH   1   3
BRANCH   1  11
ATOM     11  C   UNL     1     107.587  84.227  55.127  1.00  0.00     0.087 C 
BRANCH  11  12
ATOM     12  C   UNL     1     106.852  84.428  56.488  1.00  0.00     0.066 C 
BRANCH  12  13
ATOM     13  C   UNL     1     107.711  85.099  57.551  1.00  0.00     0.140 C 
ATOM     14  O   UNL     1     108.350  84.428  58.348  1.00  0.00    -0.299 OA
BRANCH  13  15
ATOM     15  C   UNL     1     107.651  86.600  57.712  1.00  0.00     0.106 CG0
ATOM     16  G   UNL     1     108.732  87.393  56.984  1.00  0.00     0.000 G0
ENDBRANCH  13  15
ENDBRANCH  12  13
BRANCH  12  17
ATOM     17  C   UNL     1     106.060  83.191  57.029  1.00  0.00    -0.006 C 
ATOM     18  C   UNL     1     104.900  83.613  57.949  1.00  0.00     0.008 C 
ATOM     19  C   UNL     1     105.537  82.243  55.941  1.00  0.00     0.008 C 
ENDBRANCH  12  17
ENDBRANCH  11  12
ENDBRANCH   1  11
TORSDOF 1
ENDMDL
MODEL 4
REMARK VINA RESULT:    -1.457      3.037      5.239
REMARK INTER + INTRA:          -2.619
REMARK INTER:                  -2.098
REMARK INTRA:                  -0.522
REMARK UNBOUND:                -0.396
REMARK SMILES CC1=CCC[C@H](C)C(=O)C[C@@H](C(C)C)C(=O)C1
REMARK SMILES IDX 8 1 9 2 6 3 7 4 5 5 4 6 3 7 2 8 1 9 10 11 11 12 15 13 16 14
REMARK SMILES IDX 17 15 12 17 13 18 14 19
REMARK H PARENT
REMARK Flexibility Score: 70.00
ROOT
ATOM      1  C   UNL     1     105.498  85.035  53.499  1.00  0.00     0.136 C 
ATOM      2  O   UNL     1     105.314  85.901  52.657  1.00  0.00    -0.299 OA
ENDROOT
BRANCH   1   3
ATOM      3  C   UNL     1     105.724  83.607  53.028  1.00  0.00     0.053 C 
ATOM      4  C   UNL     1     107.220  83.269  52.988  1.00  0.00     0.016 C 
BRANCH   3   5
ATOM      5  C   UNL     1     104.945  82.590  53.885  1.00  0.00     0.015 C 
BRANCH   5   6
ATOM      6  C   UNL     1     105.900  81.715  54.717  1.00  0.00     0.028 C 
BRANCH   6   7
ATOM      7  C   UNL     1     105.450  81.504  56.141  1.00  0.00    -0.028 C 
ATOM      8  C   UNL     1     105.873  82.196  57.231  1.00  0.00    -0.070 CG0
ATOM      9  C   UNL     1     105.160  81.921  58.533  1.00  0.00     0.039 C 
ATOM     10  G   UNL     1     107.075  83.134  57.255  1.00  0.00     0.000 G0
ENDBRANCH   6   7
ENDBRANCH   5   6
ENDBRANCH   3   5
ENDBRANCH   1   3
BRANCH   1  11
ATOM     11  C   UNL     1     105.553  85.420  54.965  1.00  0.00     0.087 C 
BRANCH  11  12
ATOM     12  C   UNL     1     106.926  85.223  55.680  1.00  0.00     0.066 C 
BRANCH  12  13
ATOM     13  C   UNL     1     106.807  84.616  57.071  1.00  0.00     0.140 C 
ATOM     14  O   UNL     1     106.602  85.327  58.043  1.00  0.00    -0.299 OA
BRANCH  13  15
ATOM     15  C   UNL     1     107.095  83.146  57.263  1.00  0.00     0.106 CG0
ATOM     16  G   UNL     1     105.883  82.219  57.231  1.00  0.00     0.000 G0
ENDBRANCH  13  15
ENDBRANCH  12  13
BRANCH  12  17
ATOM     17  C   UNL     1     107.910  86.439  55.621  1.00  0.00    -0.006 C 
ATOM     18  C   UNL     1     108.903  86.315  54.452  1.00  0.00     0.008 C 
ATOM     19  C   UNL     1     107.225  87.812  55.574  1.00  0.00     0.008 C 
ENDBRANCH  12  17
ENDBRANCH  11  12
ENDBRANCH   1  11
TORSDOF 1
ENDMDL
MODEL 5
REMARK VINA RESULT:    -1.415      2.058      3.780
REMARK INTER + INTRA:          -2.555
REMARK INTER:                  -2.337
REMARK INTRA:                  -0.218
REMARK UNBOUND:                -0.396
REMARK SMILES CC1=CCC[C@H](C)C(=O)C[C@@H](C(C)C)C(=O)C1
REMARK SMILES IDX 8 1 9 2 6 3 7 4 5 5 4 6 3 7 2 8 1 9 10 11 11 12 15 13 16 14
REMARK SMILES IDX 17 15 12 17 13 18 14 19
REMARK H PARENT
REMARK Flexibility Score: 70.00
ROOT
ATOM      1  C   UNL     1     110.681  86.521  55.959  1.00  0.00     0.136 C 
ATOM      2  O   UNL     1     111.550  87.316  55.635  1.00  0.00    -0.299 OA
ENDROOT
BRANCH   1   3
ATOM      3  C   UNL     1     110.267  86.460  57.421  1.00  0.00     0.053 C 
ATOM      4  C   UNL     1     111.493  86.407  58.340  1.00  0.00     0.016 C 
BRANCH   3   5
ATOM      5  C   UNL     1     109.334  87.627  57.802  1.00  0.00     0.015 C 
BRANCH   5   6
ATOM      6  C   UNL     1     107.857  87.199  57.753  1.00  0.00     0.028 C 
BRANCH   6   7
ATOM      7  C   UNL     1     107.633  85.743  58.076  1.00  0.00    -0.028 C 
ATOM      8  C   UNL     1     107.191  84.786  57.219  1.00  0.00    -0.070 CG0
ATOM      9  C   UNL     1     107.201  83.362  57.720  1.00  0.00     0.039 C 
ATOM     10  G   UNL     1     106.585  85.058  55.845  1.00  0.00     0.000 G0
ENDBRANCH   6   7
ENDBRANCH   5   6
ENDBRANCH   3   5
ENDBRANCH   1   3
BRANCH   1  11
ATOM     11  C   UNL     1     110.012  85.673  54.893  1.00  0.00     0.087 C 
BRANCH  11  12
ATOM     12  C   UNL     1     108.563  86.088  54.491  1.00  0.00     0.066 C 
BRANCH  12  13
ATOM     13  C   UNL     1     107.540  84.974  54.665  1.00  0.00     0.140 C 
ATOM     14  O   UNL     1     107.410  84.111  53.809  1.00  0.00    -0.299 OA
BRANCH  13  15
ATOM     15  C   UNL     1     106.580  85.025  55.829  1.00  0.00     0.106 CG0
ATOM     16  G   UNL     1     107.190  84.787  57.208  1.00  0.00     0.000 G0
ENDBRANCH  13  15
ENDBRANCH  12  13
BRANCH  12  17
ATOM     17  C   UNL     1     108.419  86.848  53.130  1.00  0.00    -0.006 C 
ATOM     18  C   UNL     1     106.945  87.111  52.775  1.00  0.00     0.008 C 
ATOM     19  C   UNL     1     109.213  88.159  53.045  1.00  0.00     0.008 C 
ENDBRANCH  12  17
ENDBRANCH  11  12
ENDBRANCH   1  11
TORSDOF 1
ENDMDL
MODEL 6
REMARK VINA RESULT:    -1.267      2.119      4.614
REMARK INTER + INTRA:          -2.329
REMARK INTER:                  -2.052
REMARK INTRA:                  -0.277
REMARK UNBOUND:                -0.396
REMARK SMILES CC1=CCC[C@H](C)C(=O)C[C@@H](C(C)C)C(=O)C1
REMARK SMILES IDX 8 1 9 2 6 3 7 4 5 5 4 6 3 7 2 8 1 9 10 11 11 12 15 13 16 14
REMARK SMILES IDX 17 15 12 17 13 18 14 19
REMARK H PARENT
REMARK Flexibility Score: 70.00
ROOT
ATOM      1  C   UNL     1     107.428  86.587  54.705  1.00  0.00     0.136 C 
ATOM      2  O   UNL     1     108.203  87.303  54.091  1.00  0.00    -0.299 OA
ENDROOT
BRANCH   1   3
ATOM      3  C   UNL     1     106.374  85.822  53.919  1.00  0.00     0.053 C 
ATOM      4  C   UNL     1     107.019  84.946  52.838  1.00  0.00     0.016 C 
BRANCH   3   5
ATOM      5  C   UNL     1     105.463  84.989  54.842  1.00  0.00     0.015 C 
BRANCH   5   6
ATOM      6  C   UNL     1     105.721  83.482  54.667  1.00  0.00     0.028 C 
BRANCH   6   7
ATOM      7  C   UNL     1     105.298  82.649  55.851  1.00  0.00    -0.028 C 
ATOM      8  C   UNL     1     105.995  82.474  57.004  1.00  0.00    -0.070 CG0
ATOM      9  C   UNL     1     105.298  81.730  58.117  1.00  0.00     0.039 C 
ATOM     10  G   UNL     1     107.453  82.872  57.210  1.00  0.00     0.000 G0
ENDBRANCH   6   7
ENDBRANCH   5   6
ENDBRANCH   3   5
ENDBRANCH   1   3
BRANCH   1  11
ATOM     11  C   UNL     1     107.579  86.440  56.208  1.00  0.00     0.087 C 
BRANCH  11  12
ATOM     12  C   UNL     1     108.447  85.241  56.701  1.00  0.00     0.066 C 
BRANCH  12  13
ATOM     13  C   UNL     1     107.705  84.297  57.636  1.00  0.00     0.140 C 
ATOM     14  O   UNL     1     107.419  84.646  58.772  1.00  0.00    -0.299 OA
BRANCH  13  15
ATOM     15  C   UNL     1     107.459  82.871  57.205  1.00  0.00     0.106 CG0
ATOM     16  G   UNL     1     105.998  82.474  57.014  1.00  0.00     0.000 G0
ENDBRANCH  13  15
ENDBRANCH  12  13
BRANCH  12  17
ATOM     17  C   UNL     1     109.887  85.597  57.201  1.00  0.00    -0.006 C 
ATOM     18  C   UNL     1     110.904  85.619  56.046  1.00  0.00     0.008 C 
ATOM     19  C   UNL     1     109.980  86.907  57.996  1.00  0.00     0.008 C 
ENDBRANCH  12  17
ENDBRANCH  11  12
ENDBRANCH   1  11
TORSDOF 1
ENDMDL
MODEL 7
REMARK VINA RESULT:    -1.262     10.864     13.187
REMARK INTER + INTRA:          -2.322
REMARK INTER:                  -1.800
REMARK INTRA:                  -0.522
REMARK UNBOUND:                -0.396
REMARK SMILES CC1=CCC[C@H](C)C(=O)C[C@@H](C(C)C)C(=O)C1
REMARK SMILES IDX 8 1 9 2 6 3 7 4 5 5 4 6 3 7 2 8 1 9 10 11 11 12 15 13 16 14
REMARK SMILES IDX 17 15 12 17 13 18 14 19
REMARK H PARENT
REMARK Flexibility Score: 70.00
ROOT
ATOM      1  C   UNL     1     119.888  85.928  54.676  1.00  0.00     0.136 C 
ATOM      2  O   UNL     1     118.762  86.306  54.392  1.00  0.00    -0.299 OA
ENDROOT
BRANCH   1   3
ATOM      3  C   UNL     1     121.066  86.563  53.954  1.00  0.00     0.053 C 
ATOM      4  C   UNL     1     121.595  87.779  54.724  1.00  0.00     0.016 C 
BRANCH   3   5
ATOM      5  C   UNL     1     122.189  85.543  53.682  1.00  0.00     0.015 C 
BRANCH   5   6
ATOM      6  C   UNL     1     123.510  85.979  54.342  1.00  0.00     0.028 C 
BRANCH   6   7
ATOM      7  C   UNL     1     124.306  84.839  54.926  1.00  0.00    -0.028 C 
ATOM      8  C   UNL     1     124.169  84.315  56.172  1.00  0.00    -0.070 CG0
ATOM      9  C   UNL     1     124.962  83.068  56.479  1.00  0.00     0.039 C 
ATOM     10  G   UNL     1     123.368  84.953  57.303  1.00  0.00     0.000 G0
ENDBRANCH   6   7
ENDBRANCH   5   6
ENDBRANCH   3   5
ENDBRANCH   1   3
BRANCH   1  11
ATOM     11  C   UNL     1     120.073  84.891  55.768  1.00  0.00     0.087 C 
BRANCH  11  12
ATOM     12  C   UNL     1     120.796  85.375  57.063  1.00  0.00     0.066 C 
BRANCH  12  13
ATOM     13  C   UNL     1     121.942  84.471  57.494  1.00  0.00     0.140 C 
ATOM     14  O   UNL     1     121.719  83.421  58.079  1.00  0.00    -0.299 OA
BRANCH  13  15
ATOM     15  C   UNL     1     123.365  84.950  57.331  1.00  0.00     0.106 CG0
ATOM     16  G   UNL     1     124.151  84.328  56.181  1.00  0.00     0.000 G0
ENDBRANCH  13  15
ENDBRANCH  12  13
BRANCH  12  17
ATOM     17  C   UNL     1     119.867  85.799  58.250  1.00  0.00    -0.006 C 
ATOM     18  C   UNL     1     119.640  87.321  58.282  1.00  0.00     0.008 C 
ATOM     19  C   UNL     1     118.515  85.074  58.291  1.00  0.00     0.008 C 
ENDBRANCH  12  17
ENDBRANCH  11  12
ENDBRANCH   1  11
TORSDOF 1
ENDMDL
MODEL 8
REMARK VINA RESULT:    -1.229      2.215      3.251
REMARK INTER + INTRA:          -2.271
REMARK INTER:                  -1.896
REMARK INTRA:                  -0.375
REMARK UNBOUND:                -0.396
REMARK SMILES CC1=CCC[C@H](C)C(=O)C[C@@H](C(C)C)C(=O)C1
REMARK SMILES IDX 8 1 9 2 6 3 7 4 5 5 4 6 3 7 2 8 1 9 10 11 11 12 15 13 16 14
REMARK SMILES IDX 17 15 12 17 13 18 14 19
REMARK H PARENT
REMARK Flexibility Score: 70.00
ROOT
ATOM      1  C   UNL     1     110.447  86.424  53.576  1.00  0.00     0.136 C 
ATOM      2  O   UNL     1     110.320  86.610  52.376  1.00  0.00    -0.299 OA
ENDROOT
BRANCH   1   3
ATOM      3  C   UNL     1     111.768  86.798  54.229  1.00  0.00     0.053 C 
ATOM      4  C   UNL     1     112.952  86.184  53.472  1.00  0.00     0.016 C 
BRANCH   3   5
ATOM      5  C   UNL     1     111.927  88.326  54.367  1.00  0.00     0.015 C 
BRANCH   5   6
ATOM      6  C   UNL     1     111.759  88.774  55.830  1.00  0.00     0.028 C 
BRANCH   6   7
ATOM      7  C   UNL     1     112.106  87.708  56.838  1.00  0.00    -0.028 C 
ATOM      8  C   UNL     1     111.228  86.981  57.578  1.00  0.00    -0.070 CG0
ATOM      9  C   UNL     1     111.798  85.853  58.403  1.00  0.00     0.039 C 
ATOM     10  G   UNL     1     109.741  87.294  57.721  1.00  0.00     0.000 G0
ENDBRANCH   6   7
ENDBRANCH   5   6
ENDBRANCH   3   5
ENDBRANCH   1   3
BRANCH   1  11
ATOM     11  C   UNL     1     109.274  85.886  54.376  1.00  0.00     0.087 C 
BRANCH  11  12
ATOM     12  C   UNL     1     108.614  86.877  55.384  1.00  0.00     0.066 C 
BRANCH  12  13
ATOM     13  C   UNL     1     108.801  86.477  56.841  1.00  0.00     0.140 C 
ATOM     14  O   UNL     1     108.125  85.585  57.332  1.00  0.00    -0.299 OA
BRANCH  13  15
ATOM     15  C   UNL     1     109.720  87.292  57.720  1.00  0.00     0.106 CG0
ATOM     16  G   UNL     1     111.212  87.004  57.573  1.00  0.00     0.000 G0
ENDBRANCH  13  15
ENDBRANCH  12  13
BRANCH  12  17
ATOM     17  C   UNL     1     107.151  87.321  55.051  1.00  0.00    -0.006 C 
ATOM     18  C   UNL     1     107.074  88.816  54.694  1.00  0.00     0.008 C 
ATOM     19  C   UNL     1     106.468  86.493  53.953  1.00  0.00     0.008 C 
ENDBRANCH  12  17
ENDBRANCH  11  12
ENDBRANCH   1  11
TORSDOF 1
ENDMDL
MODEL 9
REMARK VINA RESULT:    -0.987      6.776      9.520
REMARK INTER + INTRA:          -1.903
REMARK INTER:                  -1.810
REMARK INTRA:                  -0.093
REMARK UNBOUND:                -0.396
REMARK SMILES CC1=CCC[C@H](C)C(=O)C[C@@H](C(C)C)C(=O)C1
REMARK SMILES IDX 8 1 9 2 6 3 7 4 5 5 4 6 3 7 2 8 1 9 10 11 11 12 15 13 16 14
REMARK SMILES IDX 17 15 12 17 13 18 14 19
REMARK H PARENT
REMARK Flexibility Score: 70.00
ROOT
ATOM      1  C   UNL     1     118.117  86.530  54.488  1.00  0.00     0.136 C 
ATOM      2  O   UNL     1     118.776  85.961  53.632  1.00  0.00    -0.299 OA
ENDROOT
BRANCH   1   3
ATOM      3  C   UNL     1     116.651  86.153  54.641  1.00  0.00     0.053 C 
ATOM      4  C   UNL     1     115.891  86.347  53.324  1.00  0.00     0.016 C 
BRANCH   3   5
ATOM      5  C   UNL     1     116.482  84.717  55.177  1.00  0.00     0.015 C 
BRANCH   5   6
ATOM      6  C   UNL     1     116.497  84.691  56.716  1.00  0.00     0.028 C 
BRANCH   6   7
ATOM      7  C   UNL     1     115.299  85.354  57.349  1.00  0.00    -0.028 C 
ATOM      8  C   UNL     1     115.298  86.520  58.046  1.00  0.00    -0.070 CG0
ATOM      9  C   UNL     1     113.952  87.076  58.446  1.00  0.00     0.039 C 
ATOM     10  G   UNL     1     116.548  87.239  58.545  1.00  0.00     0.000 G0
ENDBRANCH   6   7
ENDBRANCH   5   6
ENDBRANCH   3   5
ENDBRANCH   1   3
BRANCH   1  11
ATOM     11  C   UNL     1     118.790  87.541  55.398  1.00  0.00     0.087 C 
BRANCH  11  12
ATOM     12  C   UNL     1     118.606  87.320  56.931  1.00  0.00     0.066 C 
BRANCH  12  13
ATOM     13  C   UNL     1     117.352  87.975  57.494  1.00  0.00     0.140 C 
ATOM     14  O   UNL     1     117.064  89.125  57.195  1.00  0.00    -0.299 OA
BRANCH  13  15
ATOM     15  C   UNL     1     116.547  87.249  58.545  1.00  0.00     0.106 CG0
ATOM     16  G   UNL     1     115.299  86.524  58.048  1.00  0.00     0.000 G0
ENDBRANCH  13  15
ENDBRANCH  12  13
BRANCH  12  17
ATOM     17  C   UNL     1     119.875  87.559  57.816  1.00  0.00    -0.006 C 
ATOM     18  C   UNL     1     120.286  86.288  58.580  1.00  0.00     0.008 C 
ATOM     19  C   UNL     1     121.085  88.119  57.056  1.00  0.00     0.008 C 
ENDBRANCH  12  17
ENDBRANCH  11  12
ENDBRANCH   1  11
TORSDOF 1
ENDMDL
