MODEL 1
REMARK VINA RESULT:     0.288      0.000      0.000
REMARK INTER + INTRA:          -0.196
REMARK INTER:                   0.541
REMARK INTRA:                  -0.736
REMARK UNBOUND:                -0.736
REMARK SMILES CCCCCCCCC=CCCCCCCCC(=O)[O-]
REMARK SMILES IDX 10 1 9 2 11 3 12 4 13 5 14 6 15 7 16 8 17 9 18 10 19 11
REMARK SMILES IDX 20 12 8 13 7 14 6 15 5 16 4 17 3 18 2 19 1 20
REMARK H PARENT
REMARK Flexibility Score: inf
ROOT
ATOM      1  C   UNL     1      55.373 146.799  -1.868  1.00  0.00    -0.031 C 
ATOM      2  C   UNL     1      55.399 147.113  -3.178  1.00  0.00    -0.031 C 
ENDROOT
BRANCH   1   3
ATOM      3  C   UNL     1      54.486 147.441  -0.828  1.00  0.00     0.027 C 
BRANCH   3   4
ATOM      4  C   UNL     1      53.001 147.069  -0.972  1.00  0.00     0.004 C 
BRANCH   4   5
ATOM      5  C   UNL     1      52.069 148.093  -0.306  1.00  0.00     0.000 C 
BRANCH   5   6
ATOM      6  C   UNL     1      52.218 148.063   1.220  1.00  0.00     0.000 C 
BRANCH   6   7
ATOM      7  C   UNL     1      50.875 147.885   1.950  1.00  0.00     0.000 C 
BRANCH   7   8
ATOM      8  C   UNL     1      49.790 147.194   1.096  1.00  0.00     0.006 C 
BRANCH   8   9
ATOM      9  C   UNL     1      48.597 148.119   0.809  1.00  0.00     0.053 C 
BRANCH   9  10
ATOM     10  C   UNL     1      47.773 147.578  -0.315  1.00  0.00     0.041 C 
ATOM     11  O   UNL     1      47.818 148.120  -1.450  1.00  0.00    -0.550 OA
ATOM     12  O   UNL     1      46.917 146.510  -0.097  1.00  0.00    -0.550 OA
ENDBRANCH   9  10
ENDBRANCH   8   9
ENDBRANCH   7   8
ENDBRANCH   6   7
ENDBRANCH   5   6
ENDBRANCH   4   5
ENDBRANCH   3   4
ENDBRANCH   1   3
BRANCH   2  13
ATOM     13  C   UNL     1      54.503 148.125  -3.851  1.00  0.00     0.027 C 
BRANCH  13  14
ATOM     14  C   UNL     1      53.128 147.526  -4.181  1.00  0.00     0.004 C 
BRANCH  14  15
ATOM     15  C   UNL     1      52.520 148.123  -5.459  1.00  0.00     0.000 C 
BRANCH  15  16
ATOM     16  C   UNL     1      52.693 147.166  -6.648  1.00  0.00     0.000 C 
BRANCH  16  17
ATOM     17  C   UNL     1      51.390 146.953  -7.437  1.00  0.00    -0.000 C 
BRANCH  17  18
ATOM     18  C   UNL     1      50.379 148.113  -7.342  1.00  0.00    -0.000 C 
BRANCH  18  19
ATOM     19  C   UNL     1      48.967 147.674  -6.899  1.00  0.00    -0.003 C 
ATOM     20  C   UNL     1      47.962 147.686  -8.052  1.00  0.00     0.004 C 
ENDBRANCH  18  19
ENDBRANCH  17  18
ENDBRANCH  16  17
ENDBRANCH  15  16
ENDBRANCH  14  15
ENDBRANCH  13  14
ENDBRANCH   2  13
TORSDOF 15
ENDMDL
