MODEL 1
REMARK VINA RESULT:    -6.437      0.000      0.000
REMARK INTER + INTRA:          -6.626
REMARK INTER:                  -6.626
REMARK INTRA:                   0.000
REMARK UNBOUND:                 0.000
REMARK SMILES Oc1ccc2[nH]ccc2c1
REMARK SMILES IDX 3 1 4 2 5 3 9 4 8 5 7 6 6 7 10 8 2 9 1 11
REMARK H PARENT 6 10 1 12
REMARK Flexibility Score: inf
ROOT
ATOM      1  C   UNL     1     137.578 122.922 141.360  1.00  0.00     0.048 A 
ATOM      2  C   UNL     1     136.239 122.713 140.978  1.00  0.00     0.030 A 
ATOM      3  C   UNL     1     135.937 122.758 139.617  1.00  0.00     0.046 A 
ATOM      4  C   UNL     1     136.900 122.996 138.674  1.00  0.00     0.003 A 
ATOM      5  C   UNL     1     136.283 122.976 137.441  1.00  0.00     0.028 A 
ATOM      6  C   UNL     1     134.942 122.719 137.711  1.00  0.00     0.083 A 
ATOM      7  N   UNL     1     134.736 122.587 139.041  1.00  0.00    -0.361 N 
ATOM      8  C   UNL     1     138.233 123.206 139.018  1.00  0.00     0.056 A 
ATOM      9  C   UNL     1     138.574 123.168 140.387  1.00  0.00     0.116 A 
ATOM     10  H   UNL     1     133.828 122.392 139.519  1.00  0.00     0.166 HD
ENDROOT
BRANCH   9  11
ATOM     11  O   UNL     1     139.891 123.371 140.792  1.00  0.00    -0.508 OA
ATOM     12  H   UNL     1     140.466 122.606 141.125  1.00  0.00     0.293 HD
ENDBRANCH   9  11
TORSDOF 1
ENDMDL
MODEL 2
REMARK VINA RESULT:    -6.214      2.611      4.057
REMARK INTER + INTRA:          -6.396
REMARK INTER:                  -6.396
REMARK INTRA:                   0.000
REMARK UNBOUND:                 0.000
REMARK SMILES Oc1ccc2[nH]ccc2c1
REMARK SMILES IDX 3 1 4 2 5 3 9 4 8 5 7 6 6 7 10 8 2 9 1 11
REMARK H PARENT 6 10 1 12
REMARK Flexibility Score: inf
ROOT
ATOM      1  C   UNL     1     136.519 123.051 137.406  1.00  0.00     0.048 A 
ATOM      2  C   UNL     1     137.734 123.355 138.047  1.00  0.00     0.030 A 
ATOM      3  C   UNL     1     137.769 123.287 139.440  1.00  0.00     0.046 A 
ATOM      4  C   UNL     1     136.666 122.936 140.170  1.00  0.00     0.003 A 
ATOM      5  C   UNL     1     137.028 122.963 141.500  1.00  0.00     0.028 A 
ATOM      6  C   UNL     1     138.368 123.338 141.505  1.00  0.00     0.083 A 
ATOM      7  N   UNL     1     138.816 123.535 140.243  1.00  0.00    -0.361 N 
ATOM      8  C   UNL     1     135.449 122.629 139.567  1.00  0.00     0.056 A 
ATOM      9  C   UNL     1     135.379 122.689 138.159  1.00  0.00     0.116 A 
ATOM     10  H   UNL     1     139.778 123.820 139.958  1.00  0.00     0.166 HD
ENDROOT
BRANCH   9  11
ATOM     11  O   UNL     1     134.188 122.392 137.499  1.00  0.00    -0.508 OA
ATOM     12  H   UNL     1     133.621 121.596 137.765  1.00  0.00     0.293 HD
ENDBRANCH   9  11
TORSDOF 1
ENDMDL
MODEL 3
REMARK VINA RESULT:    -5.823      0.864      2.301
REMARK INTER + INTRA:          -5.994
REMARK INTER:                  -5.994
REMARK INTRA:                   0.000
REMARK UNBOUND:                 0.000
REMARK SMILES Oc1ccc2[nH]ccc2c1
REMARK SMILES IDX 3 1 4 2 5 3 9 4 8 5 7 6 6 7 10 8 2 9 1 11
REMARK H PARENT 6 10 1 12
REMARK Flexibility Score: inf
ROOT
ATOM      1  C   UNL     1     138.353 123.231 139.007  1.00  0.00     0.048 A 
ATOM      2  C   UNL     1     137.004 123.114 138.622  1.00  0.00     0.030 A 
ATOM      3  C   UNL     1     136.050 122.979 139.629  1.00  0.00     0.046 A 
ATOM      4  C   UNL     1     136.399 122.960 140.953  1.00  0.00     0.003 A 
ATOM      5  C   UNL     1     135.237 122.816 141.682  1.00  0.00     0.028 A 
ATOM      6  C   UNL     1     134.219 122.755 140.736  1.00  0.00     0.083 A 
ATOM      7  N   UNL     1     134.721 122.854 139.483  1.00  0.00    -0.361 N 
ATOM      8  C   UNL     1     137.723 123.074 141.368  1.00  0.00     0.056 A 
ATOM      9  C   UNL     1     138.715 123.212 140.374  1.00  0.00     0.116 A 
ATOM     10  H   UNL     1     134.182 122.838 138.589  1.00  0.00     0.166 HD
ENDROOT
BRANCH   9  11
ATOM     11  O   UNL     1     140.057 123.330 140.729  1.00  0.00    -0.508 OA
ATOM     12  H   UNL     1     140.361 123.228 141.690  1.00  0.00     0.293 HD
ENDBRANCH   9  11
TORSDOF 1
ENDMDL
MODEL 4
REMARK VINA RESULT:    -5.731      2.596      3.236
REMARK INTER + INTRA:          -5.898
REMARK INTER:                  -5.898
REMARK INTRA:                   0.000
REMARK UNBOUND:                 0.000
REMARK SMILES Oc1ccc2[nH]ccc2c1
REMARK SMILES IDX 3 1 4 2 5 3 9 4 8 5 7 6 6 7 10 8 2 9 1 11
REMARK H PARENT 6 10 1 12
REMARK Flexibility Score: inf
ROOT
ATOM      1  C   UNL     1     135.679 122.834 141.853  1.00  0.00     0.048 A 
ATOM      2  C   UNL     1     136.961 123.272 141.472  1.00  0.00     0.030 A 
ATOM      3  C   UNL     1     137.258 123.307 140.110  1.00  0.00     0.046 A 
ATOM      4  C   UNL     1     136.343 122.931 139.164  1.00  0.00     0.003 A 
ATOM      5  C   UNL     1     136.941 123.079 137.931  1.00  0.00     0.028 A 
ATOM      6  C   UNL     1     138.222 123.551 138.202  1.00  0.00     0.083 A 
ATOM      7  N   UNL     1     138.411 123.689 139.535  1.00  0.00    -0.361 N 
ATOM      8  C   UNL     1     135.066 122.493 139.507  1.00  0.00     0.056 A 
ATOM      9  C   UNL     1     134.733 122.445 140.878  1.00  0.00     0.116 A 
ATOM     10  H   UNL     1     139.276 124.023 140.014  1.00  0.00     0.166 HD
ENDROOT
BRANCH   9  11
ATOM     11  O   UNL     1     133.470 122.016 141.281  1.00  0.00    -0.508 OA
ATOM     12  H   UNL     1     132.727 121.857 140.612  1.00  0.00     0.293 HD
ENDBRANCH   9  11
TORSDOF 1
ENDMDL
MODEL 5
REMARK VINA RESULT:    -5.703      2.577      3.621
REMARK INTER + INTRA:          -5.869
REMARK INTER:                  -5.869
REMARK INTRA:                   0.000
REMARK UNBOUND:                 0.000
REMARK SMILES Oc1ccc2[nH]ccc2c1
REMARK SMILES IDX 3 1 4 2 5 3 9 4 8 5 7 6 6 7 10 8 2 9 1 11
REMARK H PARENT 6 10 1 12
REMARK Flexibility Score: inf
ROOT
ATOM      1  C   UNL     1     134.658 122.977 140.026  1.00  0.00     0.048 A 
ATOM      2  C   UNL     1     135.540 123.106 141.114  1.00  0.00     0.030 A 
ATOM      3  C   UNL     1     136.906 123.154 140.842  1.00  0.00     0.046 A 
ATOM      4  C   UNL     1     137.388 123.079 139.562  1.00  0.00     0.003 A 
ATOM      5  C   UNL     1     138.763 123.154 139.635  1.00  0.00     0.028 A 
ATOM      6  C   UNL     1     139.049 123.274 140.991  1.00  0.00     0.083 A 
ATOM      7  N   UNL     1     137.912 123.273 141.725  1.00  0.00    -0.361 N 
ATOM      8  C   UNL     1     136.543 122.951 138.463  1.00  0.00     0.056 A 
ATOM      9  C   UNL     1     135.153 122.899 138.704  1.00  0.00     0.116 A 
ATOM     10  H   UNL     1     137.835 123.351 142.763  1.00  0.00     0.166 HD
ENDROOT
BRANCH   9  11
ATOM     11  O   UNL     1     134.258 122.772 137.643  1.00  0.00    -0.508 OA
ATOM     12  H   UNL     1     133.711 123.559 137.316  1.00  0.00     0.293 HD
ENDBRANCH   9  11
TORSDOF 1
ENDMDL
MODEL 6
REMARK VINA RESULT:    -5.495     12.136     12.498
REMARK INTER + INTRA:          -5.655
REMARK INTER:                  -5.655
REMARK INTRA:                   0.000
REMARK UNBOUND:                 0.000
REMARK SMILES Oc1ccc2[nH]ccc2c1
REMARK SMILES IDX 3 1 4 2 5 3 9 4 8 5 7 6 6 7 10 8 2 9 1 11
REMARK H PARENT 6 10 1 12
REMARK Flexibility Score: inf
ROOT
ATOM      1  C   UNL     1     132.020 136.125 139.154  1.00  0.00     0.048 A 
ATOM      2  C   UNL     1     131.634 135.472 137.968  1.00  0.00     0.030 A 
ATOM      3  C   UNL     1     131.668 134.078 137.953  1.00  0.00     0.046 A 
ATOM      4  C   UNL     1     132.062 133.356 139.048  1.00  0.00     0.003 A 
ATOM      5  C   UNL     1     131.985 132.021 138.710  1.00  0.00     0.028 A 
ATOM      6  C   UNL     1     131.535 132.006 137.393  1.00  0.00     0.083 A 
ATOM      7  N   UNL     1     131.344 133.264 136.935  1.00  0.00    -0.361 N 
ATOM      8  C   UNL     1     132.450 133.970 140.236  1.00  0.00     0.056 A 
ATOM      9  C   UNL     1     132.427 135.381 140.285  1.00  0.00     0.116 A 
ATOM     10  H   UNL     1     131.011 133.542 135.985  1.00  0.00     0.166 HD
ENDROOT
BRANCH   9  11
ATOM     11  O   UNL     1     132.804 136.051 141.447  1.00  0.00    -0.508 OA
ATOM     12  H   UNL     1     133.293 136.938 141.410  1.00  0.00     0.293 HD
ENDBRANCH   9  11
TORSDOF 1
ENDMDL
MODEL 7
REMARK VINA RESULT:    -5.477      3.583      5.216
REMARK INTER + INTRA:          -5.637
REMARK INTER:                  -5.637
REMARK INTRA:                   0.000
REMARK UNBOUND:                 0.000
REMARK SMILES Oc1ccc2[nH]ccc2c1
REMARK SMILES IDX 3 1 4 2 5 3 9 4 8 5 7 6 6 7 10 8 2 9 1 11
REMARK H PARENT 6 10 1 12
REMARK Flexibility Score: inf
ROOT
ATOM      1  C   UNL     1     136.261 122.594 141.128  1.00  0.00     0.048 A 
ATOM      2  C   UNL     1     137.322 123.100 141.902  1.00  0.00     0.030 A 
ATOM      3  C   UNL     1     137.002 123.860 143.027  1.00  0.00     0.046 A 
ATOM      4  C   UNL     1     135.703 124.113 143.378  1.00  0.00     0.003 A 
ATOM      5  C   UNL     1     135.729 124.881 144.523  1.00  0.00     0.028 A 
ATOM      6  C   UNL     1     137.079 125.058 144.812  1.00  0.00     0.083 A 
ATOM      7  N   UNL     1     137.852 124.432 143.895  1.00  0.00    -0.361 N 
ATOM      8  C   UNL     1     134.631 123.627 142.635  1.00  0.00     0.056 A 
ATOM      9  C   UNL     1     134.920 122.854 141.490  1.00  0.00     0.116 A 
ATOM     10  H   UNL     1     138.896 124.402 143.871  1.00  0.00     0.166 HD
ENDROOT
BRANCH   9  11
ATOM     11  O   UNL     1     133.888 122.341 140.707  1.00  0.00    -0.508 OA
ATOM     12  H   UNL     1     133.475 121.437 140.902  1.00  0.00     0.293 HD
ENDBRANCH   9  11
TORSDOF 1
ENDMDL
MODEL 8
REMARK VINA RESULT:    -5.454      3.175      4.633
REMARK INTER + INTRA:          -5.614
REMARK INTER:                  -5.614
REMARK INTRA:                   0.000
REMARK UNBOUND:                 0.000
REMARK SMILES Oc1ccc2[nH]ccc2c1
REMARK SMILES IDX 3 1 4 2 5 3 9 4 8 5 7 6 6 7 10 8 2 9 1 11
REMARK H PARENT 6 10 1 12
REMARK Flexibility Score: inf
ROOT
ATOM      1  C   UNL     1     133.920 122.668 141.158  1.00  0.00     0.048 A 
ATOM      2  C   UNL     1     133.767 123.383 142.361  1.00  0.00     0.030 A 
ATOM      3  C   UNL     1     134.922 123.825 143.005  1.00  0.00     0.046 A 
ATOM      4  C   UNL     1     136.169 123.580 142.497  1.00  0.00     0.003 A 
ATOM      5  C   UNL     1     137.084 124.143 143.361  1.00  0.00     0.028 A 
ATOM      6  C   UNL     1     136.322 124.715 144.375  1.00  0.00     0.083 A 
ATOM      7  N   UNL     1     135.002 124.518 144.153  1.00  0.00    -0.361 N 
ATOM      8  C   UNL     1     136.355 122.877 141.309  1.00  0.00     0.056 A 
ATOM      9  C   UNL     1     135.207 122.414 140.631  1.00  0.00     0.116 A 
ATOM     10  H   UNL     1     134.210 124.841 144.753  1.00  0.00     0.166 HD
ENDROOT
BRANCH   9  11
ATOM     11  O   UNL     1     135.331 121.704 139.439  1.00  0.00    -0.508 OA
ATOM     12  H   UNL     1     136.088 121.888 138.790  1.00  0.00     0.293 HD
ENDBRANCH   9  11
TORSDOF 1
ENDMDL
MODEL 9
REMARK VINA RESULT:    -5.366      2.605      3.367
REMARK INTER + INTRA:          -5.523
REMARK INTER:                  -5.523
REMARK INTRA:                   0.000
REMARK UNBOUND:                 0.000
REMARK SMILES Oc1ccc2[nH]ccc2c1
REMARK SMILES IDX 3 1 4 2 5 3 9 4 8 5 7 6 6 7 10 8 2 9 1 11
REMARK H PARENT 6 10 1 12
REMARK Flexibility Score: inf
ROOT
ATOM      1  C   UNL     1     133.809 123.222 142.626  1.00  0.00     0.048 A 
ATOM      2  C   UNL     1     133.744 122.630 141.351  1.00  0.00     0.030 A 
ATOM      3  C   UNL     1     134.858 122.749 140.521  1.00  0.00     0.046 A 
ATOM      4  C   UNL     1     135.984 123.418 140.920  1.00  0.00     0.003 A 
ATOM      5  C   UNL     1     136.889 123.355 139.882  1.00  0.00     0.028 A 
ATOM      6  C   UNL     1     136.246 122.631 138.882  1.00  0.00     0.083 A 
ATOM      7  N   UNL     1     135.006 122.264 139.277  1.00  0.00    -0.361 N 
ATOM      8  C   UNL     1     136.081 124.015 142.174  1.00  0.00     0.056 A 
ATOM      9  C   UNL     1     134.971 123.913 143.040  1.00  0.00     0.116 A 
ATOM     10  H   UNL     1     134.309 121.715 138.726  1.00  0.00     0.166 HD
ENDROOT
BRANCH   9  11
ATOM     11  O   UNL     1     135.009 124.490 144.307  1.00  0.00    -0.508 OA
ATOM     12  H   UNL     1     134.231 124.406 144.950  1.00  0.00     0.293 HD
ENDBRANCH   9  11
TORSDOF 1
ENDMDL
