MODEL 1
REMARK VINA RESULT:    -5.403      0.000      0.000
REMARK INTER + INTRA:         -12.404
REMARK INTER:                  -9.825
REMARK INTRA:                  -2.579
REMARK UNBOUND:                -2.579
REMARK SMILES CCCCCCCCCCCCCC[C@H](C)C(=O)[O-]
REMARK SMILES IDX 9 1 10 2 11 3 12 4 13 5 14 6 15 7 16 8 17 9 18 10 19 11 8 12
REMARK SMILES IDX 7 13 6 14 5 15 4 16 3 17 2 18 1 19
REMARK H PARENT
REMARK Flexibility Score: inf
ROOT
ATOM      1  C   UNL     1     103.388 105.123 227.379  1.00  0.00     0.000 C 
ENDROOT
BRANCH   1   2
ATOM      2  C   UNL     1     101.877 105.251 227.651  1.00  0.00     0.000 C 
BRANCH   2   3
ATOM      3  C   UNL     1     101.234 104.025 228.326  1.00  0.00     0.000 C 
BRANCH   3   4
ATOM      4  C   UNL     1     102.159 103.351 229.351  1.00  0.00     0.000 C 
BRANCH   4   5
ATOM      5  C   UNL     1     101.647 103.568 230.779  1.00  0.00     0.001 C 
BRANCH   5   6
ATOM      6  C   UNL     1     102.445 104.672 231.490  1.00  0.00     0.009 C 
BRANCH   6   7
ATOM      7  C   UNL     1     101.624 105.967 231.660  1.00  0.00     0.032 C 
ATOM      8  C   UNL     1     102.368 107.161 231.050  1.00  0.00     0.014 C 
BRANCH   7   9
ATOM      9  C   UNL     1     101.330 106.241 233.111  1.00  0.00     0.044 C 
ATOM     10  O   UNL     1     100.330 106.935 233.431  1.00  0.00    -0.550 OA
ATOM     11  O   UNL     1     102.158 105.732 234.105  1.00  0.00    -0.550 OA
ENDBRANCH   7   9
ENDBRANCH   6   7
ENDBRANCH   5   6
ENDBRANCH   4   5
ENDBRANCH   3   4
ENDBRANCH   2   3
ENDBRANCH   1   2
BRANCH   1  12
ATOM     12  C   UNL     1     104.262 106.205 228.042  1.00  0.00     0.000 C 
BRANCH  12  13
ATOM     13  C   UNL     1     105.242 105.651 229.098  1.00  0.00    -0.000 C 
BRANCH  13  14
ATOM     14  C   UNL     1     105.709 104.222 228.768  1.00  0.00    -0.000 C 
BRANCH  14  15
ATOM     15  C   UNL     1     105.666 103.291 229.991  1.00  0.00    -0.000 C 
BRANCH  15  16
ATOM     16  C   UNL     1     106.910 103.429 230.886  1.00  0.00    -0.000 C 
BRANCH  16  17
ATOM     17  C   UNL     1     106.557 103.365 232.387  1.00  0.00    -0.000 C 
BRANCH  17  18
ATOM     18  C   UNL     1     106.831 104.678 233.141  1.00  0.00    -0.003 C 
ATOM     19  C   UNL     1     105.617 105.603 233.192  1.00  0.00     0.004 C 
ENDBRANCH  17  18
ENDBRANCH  16  17
ENDBRANCH  15  16
ENDBRANCH  14  15
ENDBRANCH  13  14
ENDBRANCH  12  13
ENDBRANCH   1  12
TORSDOF 14
ENDMDL
MODEL 2
REMARK VINA RESULT:    -5.329      2.498      4.701
REMARK INTER + INTRA:         -12.269
REMARK INTER:                  -9.716
REMARK INTRA:                  -2.552
REMARK UNBOUND:                -2.579
REMARK SMILES CCCCCCCCCCCCCC[C@H](C)C(=O)[O-]
REMARK SMILES IDX 9 1 10 2 11 3 12 4 13 5 14 6 15 7 16 8 17 9 18 10 19 11 8 12
REMARK SMILES IDX 7 13 6 14 5 15 4 16 3 17 2 18 1 19
REMARK H PARENT
REMARK Flexibility Score: inf
ROOT
ATOM      1  C   UNL     1     101.581 105.129 227.453  1.00  0.00     0.000 C 
ENDROOT
BRANCH   1   2
ATOM      2  C   UNL     1     103.034 105.398 227.016  1.00  0.00     0.000 C 
BRANCH   2   3
ATOM      3  C   UNL     1     104.056 105.456 228.167  1.00  0.00     0.000 C 
BRANCH   3   4
ATOM      4  C   UNL     1     105.419 104.858 227.789  1.00  0.00     0.000 C 
BRANCH   4   5
ATOM      5  C   UNL     1     105.906 103.878 228.863  1.00  0.00     0.001 C 
BRANCH   5   6
ATOM      6  C   UNL     1     104.882 103.752 230.001  1.00  0.00     0.009 C 
BRANCH   6   7
ATOM      7  C   UNL     1     104.602 102.282 230.373  1.00  0.00     0.032 C 
ATOM      8  C   UNL     1     103.255 102.155 231.094  1.00  0.00     0.014 C 
BRANCH   7   9
ATOM      9  C   UNL     1     105.696 101.719 231.240  1.00  0.00     0.044 C 
ATOM     10  O   UNL     1     105.998 100.500 231.163  1.00  0.00    -0.550 OA
ATOM     11  O   UNL     1     106.379 102.539 232.131  1.00  0.00    -0.550 OA
ENDBRANCH   7   9
ENDBRANCH   6   7
ENDBRANCH   5   6
ENDBRANCH   4   5
ENDBRANCH   3   4
ENDBRANCH   2   3
ENDBRANCH   1   2
BRANCH   1  12
ATOM     12  C   UNL     1     101.403 103.957 228.436  1.00  0.00     0.000 C 
BRANCH  12  13
ATOM     13  C   UNL     1     100.724 104.358 229.764  1.00  0.00    -0.000 C 
BRANCH  13  14
ATOM     14  C   UNL     1     100.862 105.862 230.060  1.00  0.00    -0.000 C 
BRANCH  14  15
ATOM     15  C   UNL     1     101.125 106.149 231.547  1.00  0.00    -0.000 C 
BRANCH  15  16
ATOM     16  C   UNL     1     102.592 105.912 231.946  1.00  0.00    -0.000 C 
BRANCH  16  17
ATOM     17  C   UNL     1     103.508 107.075 231.511  1.00  0.00    -0.000 C 
BRANCH  17  18
ATOM     18  C   UNL     1     104.966 106.919 231.976  1.00  0.00    -0.003 C 
ATOM     19  C   UNL     1     105.119 105.968 233.161  1.00  0.00     0.004 C 
ENDBRANCH  17  18
ENDBRANCH  16  17
ENDBRANCH  15  16
ENDBRANCH  14  15
ENDBRANCH  13  14
ENDBRANCH  12  13
ENDBRANCH   1  12
TORSDOF 14
ENDMDL
MODEL 3
REMARK VINA RESULT:    -5.308      2.456      4.879
REMARK INTER + INTRA:         -12.231
REMARK INTER:                  -9.570
REMARK INTRA:                  -2.661
REMARK UNBOUND:                -2.579
REMARK SMILES CCCCCCCCCCCCCC[C@H](C)C(=O)[O-]
REMARK SMILES IDX 9 1 10 2 11 3 12 4 13 5 14 6 15 7 16 8 17 9 18 10 19 11 8 12
REMARK SMILES IDX 7 13 6 14 5 15 4 16 3 17 2 18 1 19
REMARK H PARENT
REMARK Flexibility Score: inf
ROOT
ATOM      1  C   UNL     1     101.352 103.644 229.298  1.00  0.00     0.000 C 
ENDROOT
BRANCH   1   2
ATOM      2  C   UNL     1     101.746 104.396 228.013  1.00  0.00     0.000 C 
BRANCH   2   3
ATOM      3  C   UNL     1     102.937 105.361 228.166  1.00  0.00     0.000 C 
BRANCH   3   4
ATOM      4  C   UNL     1     103.976 105.213 227.045  1.00  0.00     0.000 C 
BRANCH   4   5
ATOM      5  C   UNL     1     105.307 104.690 227.595  1.00  0.00     0.001 C 
BRANCH   5   6
ATOM      6  C   UNL     1     105.330 104.745 229.131  1.00  0.00     0.009 C 
BRANCH   6   7
ATOM      7  C   UNL     1     105.922 103.462 229.750  1.00  0.00     0.032 C 
ATOM      8  C   UNL     1     104.828 102.409 229.956  1.00  0.00     0.014 C 
BRANCH   7   9
ATOM      9  C   UNL     1     106.600 103.753 231.063  1.00  0.00     0.044 C 
ATOM     10  O   UNL     1     107.293 104.794 231.198  1.00  0.00    -0.550 OA
ATOM     11  O   UNL     1     106.468 102.874 232.132  1.00  0.00    -0.550 OA
ENDBRANCH   7   9
ENDBRANCH   6   7
ENDBRANCH   5   6
ENDBRANCH   4   5
ENDBRANCH   3   4
ENDBRANCH   2   3
ENDBRANCH   1   2
BRANCH   1  12
ATOM     12  C   UNL     1     101.163 104.535 230.541  1.00  0.00     0.000 C 
BRANCH  12  13
ATOM     13  C   UNL     1     102.288 104.386 231.588  1.00  0.00    -0.000 C 
BRANCH  13  14
ATOM     14  C   UNL     1     102.636 105.724 232.266  1.00  0.00    -0.000 C 
BRANCH  14  15
ATOM     15  C   UNL     1     101.898 106.915 231.633  1.00  0.00    -0.000 C 
BRANCH  15  16
ATOM     16  C   UNL     1     102.840 107.849 230.853  1.00  0.00    -0.000 C 
BRANCH  16  17
ATOM     17  C   UNL     1     104.325 107.489 231.066  1.00  0.00    -0.000 C 
BRANCH  17  18
ATOM     18  C   UNL     1     105.298 108.404 230.304  1.00  0.00    -0.003 C 
ATOM     19  C   UNL     1     105.047 108.423 228.798  1.00  0.00     0.004 C 
ENDBRANCH  17  18
ENDBRANCH  16  17
ENDBRANCH  15  16
ENDBRANCH  14  15
ENDBRANCH  13  14
ENDBRANCH  12  13
ENDBRANCH   1  12
TORSDOF 14
ENDMDL
MODEL 4
REMARK VINA RESULT:    -5.290      1.928      3.246
REMARK INTER + INTRA:         -12.197
REMARK INTER:                  -9.633
REMARK INTRA:                  -2.564
REMARK UNBOUND:                -2.579
REMARK SMILES CCCCCCCCCCCCCC[C@H](C)C(=O)[O-]
REMARK SMILES IDX 9 1 10 2 11 3 12 4 13 5 14 6 15 7 16 8 17 9 18 10 19 11 8 12
REMARK SMILES IDX 7 13 6 14 5 15 4 16 3 17 2 18 1 19
REMARK H PARENT
REMARK Flexibility Score: inf
ROOT
ATOM      1  C   UNL     1     105.256 106.957 228.607  1.00  0.00     0.000 C 
ENDROOT
BRANCH   1   2
ATOM      2  C   UNL     1     104.705 108.223 229.290  1.00  0.00     0.000 C 
BRANCH   2   3
ATOM      3  C   UNL     1     104.083 107.991 230.680  1.00  0.00     0.000 C 
BRANCH   3   4
ATOM      4  C   UNL     1     102.570 107.736 230.625  1.00  0.00     0.000 C 
BRANCH   4   5
ATOM      5  C   UNL     1     102.237 106.308 231.072  1.00  0.00     0.001 C 
BRANCH   5   6
ATOM      6  C   UNL     1     101.255 105.639 230.098  1.00  0.00     0.009 C 
BRANCH   6   7
ATOM      7  C   UNL     1     101.790 104.295 229.562  1.00  0.00     0.032 C 
ATOM      8  C   UNL     1     101.259 104.029 228.149  1.00  0.00     0.014 C 
BRANCH   7   9
ATOM      9  C   UNL     1     101.411 103.155 230.469  1.00  0.00     0.044 C 
ATOM     10  O   UNL     1     102.253 102.687 231.279  1.00  0.00    -0.550 OA
ATOM     11  O   UNL     1     100.133 102.610 230.418  1.00  0.00    -0.550 OA
ENDBRANCH   7   9
ENDBRANCH   6   7
ENDBRANCH   5   6
ENDBRANCH   4   5
ENDBRANCH   3   4
ENDBRANCH   2   3
ENDBRANCH   1   2
BRANCH   1  12
ATOM     12  C   UNL     1     104.240 106.193 227.736  1.00  0.00     0.000 C 
BRANCH  12  13
ATOM     13  C   UNL     1     104.758 104.830 227.228  1.00  0.00    -0.000 C 
BRANCH  13  14
ATOM     14  C   UNL     1     105.903 104.280 228.096  1.00  0.00    -0.000 C 
BRANCH  14  15
ATOM     15  C   UNL     1     105.394 103.478 229.305  1.00  0.00    -0.000 C 
BRANCH  15  16
ATOM     16  C   UNL     1     106.107 103.860 230.614  1.00  0.00    -0.000 C 
BRANCH  16  17
ATOM     17  C   UNL     1     105.168 104.591 231.596  1.00  0.00    -0.000 C 
BRANCH  17  18
ATOM     18  C   UNL     1     105.897 105.219 232.796  1.00  0.00    -0.003 C 
ATOM     19  C   UNL     1     104.973 106.030 233.701  1.00  0.00     0.004 C 
ENDBRANCH  17  18
ENDBRANCH  16  17
ENDBRANCH  15  16
ENDBRANCH  14  15
ENDBRANCH  13  14
ENDBRANCH  12  13
ENDBRANCH   1  12
TORSDOF 14
ENDMDL
MODEL 5
REMARK VINA RESULT:    -5.229      1.151      4.729
REMARK INTER + INTRA:         -12.088
REMARK INTER:                  -9.467
REMARK INTRA:                  -2.621
REMARK UNBOUND:                -2.579
REMARK SMILES CCCCCCCCCCCCCC[C@H](C)C(=O)[O-]
REMARK SMILES IDX 9 1 10 2 11 3 12 4 13 5 14 6 15 7 16 8 17 9 18 10 19 11 8 12
REMARK SMILES IDX 7 13 6 14 5 15 4 16 3 17 2 18 1 19
REMARK H PARENT
REMARK Flexibility Score: inf
ROOT
ATOM      1  C   UNL     1     106.612 102.852 231.605  1.00  0.00     0.000 C 
ENDROOT
BRANCH   1   2
ATOM      2  C   UNL     1     106.796 103.465 233.007  1.00  0.00     0.000 C 
BRANCH   2   3
ATOM      3  C   UNL     1     106.971 104.995 233.027  1.00  0.00     0.000 C 
BRANCH   3   4
ATOM      4  C   UNL     1     105.795 105.724 233.694  1.00  0.00     0.000 C 
BRANCH   4   5
ATOM      5  C   UNL     1     104.889 106.380 232.646  1.00  0.00     0.001 C 
BRANCH   5   6
ATOM      6  C   UNL     1     103.436 105.903 232.795  1.00  0.00     0.009 C 
BRANCH   6   7
ATOM      7  C   UNL     1     102.607 106.153 231.519  1.00  0.00     0.032 C 
ATOM      8  C   UNL     1     103.010 107.480 230.865  1.00  0.00     0.014 C 
BRANCH   7   9
ATOM      9  C   UNL     1     101.132 106.163 231.819  1.00  0.00     0.044 C 
ATOM     10  O   UNL     1     100.305 105.832 230.929  1.00  0.00    -0.550 OA
ATOM     11  O   UNL     1     100.672 106.538 233.076  1.00  0.00    -0.550 OA
ENDBRANCH   7   9
ENDBRANCH   6   7
ENDBRANCH   5   6
ENDBRANCH   4   5
ENDBRANCH   3   4
ENDBRANCH   2   3
ENDBRANCH   1   2
BRANCH   1  12
ATOM     12  C   UNL     1     105.148 102.662 231.165  1.00  0.00     0.000 C 
BRANCH  12  13
ATOM     13  C   UNL     1     104.781 103.434 229.879  1.00  0.00    -0.000 C 
BRANCH  13  14
ATOM     14  C   UNL     1     105.736 104.611 229.612  1.00  0.00    -0.000 C 
BRANCH  14  15
ATOM     15  C   UNL     1     105.229 105.541 228.498  1.00  0.00    -0.000 C 
BRANCH  15  16
ATOM     16  C   UNL     1     104.421 104.793 227.422  1.00  0.00    -0.000 C 
BRANCH  16  17
ATOM     17  C   UNL     1     103.223 105.622 226.914  1.00  0.00    -0.000 C 
BRANCH  17  18
ATOM     18  C   UNL     1     101.969 105.498 227.796  1.00  0.00    -0.003 C 
ATOM     19  C   UNL     1     101.588 104.049 228.095  1.00  0.00     0.004 C 
ENDBRANCH  17  18
ENDBRANCH  16  17
ENDBRANCH  15  16
ENDBRANCH  14  15
ENDBRANCH  13  14
ENDBRANCH  12  13
ENDBRANCH   1  12
TORSDOF 14
ENDMDL
MODEL 6
REMARK VINA RESULT:    -5.216      3.224      5.306
REMARK INTER + INTRA:         -12.063
REMARK INTER:                  -9.872
REMARK INTRA:                  -2.191
REMARK UNBOUND:                -2.579
REMARK SMILES CCCCCCCCCCCCCC[C@H](C)C(=O)[O-]
REMARK SMILES IDX 9 1 10 2 11 3 12 4 13 5 14 6 15 7 16 8 17 9 18 10 19 11 8 12
REMARK SMILES IDX 7 13 6 14 5 15 4 16 3 17 2 18 1 19
REMARK H PARENT
REMARK Flexibility Score: inf
ROOT
ATOM      1  C   UNL     1     101.045 104.074 230.214  1.00  0.00     0.000 C 
ENDROOT
BRANCH   1   2
ATOM      2  C   UNL     1     101.724 103.778 228.864  1.00  0.00     0.000 C 
BRANCH   2   3
ATOM      3  C   UNL     1     101.895 105.001 227.942  1.00  0.00     0.000 C 
BRANCH   3   4
ATOM      4  C   UNL     1     103.310 105.118 227.358  1.00  0.00     0.000 C 
BRANCH   4   5
ATOM      5  C   UNL     1     104.113 106.208 228.078  1.00  0.00     0.001 C 
BRANCH   5   6
ATOM      6  C   UNL     1     105.355 105.617 228.764  1.00  0.00     0.009 C 
BRANCH   6   7
ATOM      7  C   UNL     1     105.426 104.083 228.618  1.00  0.00     0.032 C 
ATOM      8  C   UNL     1     105.418 103.410 229.995  1.00  0.00     0.014 C 
BRANCH   7   9
ATOM      9  C   UNL     1     106.655 103.664 227.856  1.00  0.00     0.044 C 
ATOM     10  O   UNL     1     106.631 103.614 226.598  1.00  0.00    -0.550 OA
ATOM     11  O   UNL     1     107.822 103.327 228.532  1.00  0.00    -0.550 OA
ENDBRANCH   7   9
ENDBRANCH   6   7
ENDBRANCH   5   6
ENDBRANCH   4   5
ENDBRANCH   3   4
ENDBRANCH   2   3
ENDBRANCH   1   2
BRANCH   1  12
ATOM     12  C   UNL     1     100.589 105.533 230.408  1.00  0.00     0.000 C 
BRANCH  12  13
ATOM     13  C   UNL     1     100.243 105.887 231.870  1.00  0.00    -0.000 C 
BRANCH  13  14
ATOM     14  C   UNL     1     101.351 106.710 232.550  1.00  0.00    -0.000 C 
BRANCH  14  15
ATOM     15  C   UNL     1     101.937 106.005 233.784  1.00  0.00    -0.000 C 
BRANCH  15  16
ATOM     16  C   UNL     1     103.473 105.924 233.749  1.00  0.00    -0.000 C 
BRANCH  16  17
ATOM     17  C   UNL     1     104.028 106.037 232.313  1.00  0.00    -0.000 C 
BRANCH  17  18
ATOM     18  C   UNL     1     105.111 107.118 232.154  1.00  0.00    -0.003 C 
ATOM     19  C   UNL     1     104.730 108.204 231.150  1.00  0.00     0.004 C 
ENDBRANCH  17  18
ENDBRANCH  16  17
ENDBRANCH  15  16
ENDBRANCH  14  15
ENDBRANCH  13  14
ENDBRANCH  12  13
ENDBRANCH   1  12
TORSDOF 14
ENDMDL
MODEL 7
REMARK VINA RESULT:    -5.204      2.816      5.639
REMARK INTER + INTRA:         -12.042
REMARK INTER:                  -9.523
REMARK INTRA:                  -2.519
REMARK UNBOUND:                -2.579
REMARK SMILES CCCCCCCCCCCCCC[C@H](C)C(=O)[O-]
REMARK SMILES IDX 9 1 10 2 11 3 12 4 13 5 14 6 15 7 16 8 17 9 18 10 19 11 8 12
REMARK SMILES IDX 7 13 6 14 5 15 4 16 3 17 2 18 1 19
REMARK H PARENT
REMARK Flexibility Score: inf
ROOT
ATOM      1  C   UNL     1     102.381 105.489 232.955  1.00  0.00     0.000 C 
ENDROOT
BRANCH   1   2
ATOM      2  C   UNL     1     103.683 106.040 233.568  1.00  0.00     0.000 C 
BRANCH   2   3
ATOM      3  C   UNL     1     104.827 106.269 232.562  1.00  0.00     0.000 C 
BRANCH   3   4
ATOM      4  C   UNL     1     105.823 105.101 232.511  1.00  0.00     0.000 C 
BRANCH   4   5
ATOM      5  C   UNL     1     105.968 104.566 231.082  1.00  0.00     0.001 C 
BRANCH   5   6
ATOM      6  C   UNL     1     104.855 105.109 230.172  1.00  0.00     0.009 C 
BRANCH   6   7
ATOM      7  C   UNL     1     105.414 105.721 228.871  1.00  0.00     0.032 C 
ATOM      8  C   UNL     1     104.667 107.013 228.519  1.00  0.00     0.014 C 
BRANCH   7   9
ATOM      9  C   UNL     1     105.314 104.750 227.725  1.00  0.00     0.044 C 
ATOM     10  O   UNL     1     104.425 104.900 226.846  1.00  0.00    -0.550 OA
ATOM     11  O   UNL     1     106.199 103.682 227.628  1.00  0.00    -0.550 OA
ENDBRANCH   7   9
ENDBRANCH   6   7
ENDBRANCH   5   6
ENDBRANCH   4   5
ENDBRANCH   3   4
ENDBRANCH   2   3
ENDBRANCH   1   2
BRANCH   1  12
ATOM     12  C   UNL     1     101.469 106.549 232.307  1.00  0.00     0.000 C 
BRANCH  12  13
ATOM     13  C   UNL     1     101.681 106.703 230.785  1.00  0.00    -0.000 C 
BRANCH  13  14
ATOM     14  C   UNL     1     100.728 105.811 229.970  1.00  0.00    -0.000 C 
BRANCH  14  15
ATOM     15  C   UNL     1     101.412 105.181 228.746  1.00  0.00    -0.000 C 
BRANCH  15  16
ATOM     16  C   UNL     1     101.493 103.647 228.835  1.00  0.00    -0.000 C 
BRANCH  16  17
ATOM     17  C   UNL     1     100.713 103.093 230.045  1.00  0.00    -0.000 C 
BRANCH  17  18
ATOM     18  C   UNL     1     101.420 101.923 230.752  1.00  0.00    -0.003 C 
ATOM     19  C   UNL     1     102.930 102.118 230.867  1.00  0.00     0.004 C 
ENDBRANCH  17  18
ENDBRANCH  16  17
ENDBRANCH  15  16
ENDBRANCH  14  15
ENDBRANCH  13  14
ENDBRANCH  12  13
ENDBRANCH   1  12
TORSDOF 14
ENDMDL
MODEL 8
REMARK VINA RESULT:    -5.189      1.146      4.455
REMARK INTER + INTRA:         -12.015
REMARK INTER:                  -9.720
REMARK INTRA:                  -2.295
REMARK UNBOUND:                -2.579
REMARK SMILES CCCCCCCCCCCCCC[C@H](C)C(=O)[O-]
REMARK SMILES IDX 9 1 10 2 11 3 12 4 13 5 14 6 15 7 16 8 17 9 18 10 19 11 8 12
REMARK SMILES IDX 7 13 6 14 5 15 4 16 3 17 2 18 1 19
REMARK H PARENT
REMARK Flexibility Score: inf
ROOT
ATOM      1  C   UNL     1     105.449 102.827 230.311  1.00  0.00     0.000 C 
ENDROOT
BRANCH   1   2
ATOM      2  C   UNL     1     106.337 103.076 231.546  1.00  0.00     0.000 C 
BRANCH   2   3
ATOM      3  C   UNL     1     106.687 104.554 231.805  1.00  0.00     0.000 C 
BRANCH   3   4
ATOM      4  C   UNL     1     105.952 105.139 233.020  1.00  0.00     0.000 C 
BRANCH   4   5
ATOM      5  C   UNL     1     105.040 106.299 232.604  1.00  0.00     0.001 C 
BRANCH   5   6
ATOM      6  C   UNL     1     103.630 106.132 233.191  1.00  0.00     0.009 C 
BRANCH   6   7
ATOM      7  C   UNL     1     102.534 106.228 232.111  1.00  0.00     0.032 C 
ATOM      8  C   UNL     1     102.717 107.495 231.268  1.00  0.00     0.014 C 
BRANCH   7   9
ATOM      9  C   UNL     1     101.160 106.221 232.725  1.00  0.00     0.044 C 
ATOM     10  O   UNL     1     100.165 105.866 232.041  1.00  0.00    -0.550 OA
ATOM     11  O   UNL     1     100.978 106.609 234.048  1.00  0.00    -0.550 OA
ENDBRANCH   7   9
ENDBRANCH   6   7
ENDBRANCH   5   6
ENDBRANCH   4   5
ENDBRANCH   3   4
ENDBRANCH   2   3
ENDBRANCH   1   2
BRANCH   1  12
ATOM     12  C   UNL     1     104.101 102.141 230.607  1.00  0.00     0.000 C 
BRANCH  12  13
ATOM     13  C   UNL     1     102.918 103.125 230.729  1.00  0.00    -0.000 C 
BRANCH  13  14
ATOM     14  C   UNL     1     101.689 102.663 229.925  1.00  0.00    -0.000 C 
BRANCH  14  15
ATOM     15  C   UNL     1     101.313 103.647 228.805  1.00  0.00    -0.000 C 
BRANCH  15  16
ATOM     16  C   UNL     1     102.222 104.888 228.775  1.00  0.00    -0.000 C 
BRANCH  16  17
ATOM     17  C   UNL     1     102.830 105.130 227.378  1.00  0.00    -0.000 C 
BRANCH  17  18
ATOM     18  C   UNL     1     104.368 105.166 227.371  1.00  0.00    -0.003 C 
ATOM     19  C   UNL     1     104.953 105.959 228.538  1.00  0.00     0.004 C 
ENDBRANCH  17  18
ENDBRANCH  16  17
ENDBRANCH  15  16
ENDBRANCH  14  15
ENDBRANCH  13  14
ENDBRANCH  12  13
ENDBRANCH   1  12
TORSDOF 14
ENDMDL
MODEL 9
REMARK VINA RESULT:    -5.184      2.762      5.398
REMARK INTER + INTRA:         -12.005
REMARK INTER:                  -9.206
REMARK INTRA:                  -2.799
REMARK UNBOUND:                -2.579
REMARK SMILES CCCCCCCCCCCCCC[C@H](C)C(=O)[O-]
REMARK SMILES IDX 9 1 10 2 11 3 12 4 13 5 14 6 15 7 16 8 17 9 18 10 19 11 8 12
REMARK SMILES IDX 7 13 6 14 5 15 4 16 3 17 2 18 1 19
REMARK H PARENT
REMARK Flexibility Score: inf
ROOT
ATOM      1  C   UNL     1     105.301 107.394 228.898  1.00  0.00     0.000 C 
ENDROOT
BRANCH   1   2
ATOM      2  C   UNL     1     104.334 106.534 228.062  1.00  0.00     0.000 C 
BRANCH   2   3
ATOM      3  C   UNL     1     104.878 105.149 227.663  1.00  0.00     0.000 C 
BRANCH   3   4
ATOM      4  C   UNL     1     105.161 104.245 228.872  1.00  0.00     0.000 C 
BRANCH   4   5
ATOM      5  C   UNL     1     106.655 103.916 228.975  1.00  0.00     0.001 C 
BRANCH   5   6
ATOM      6  C   UNL     1     107.159 104.086 230.416  1.00  0.00     0.009 C 
BRANCH   6   7
ATOM      7  C   UNL     1     106.419 103.162 231.405  1.00  0.00     0.032 C 
ATOM      8  C   UNL     1     106.761 103.536 232.851  1.00  0.00     0.014 C 
BRANCH   7   9
ATOM      9  C   UNL     1     106.758 101.716 231.161  1.00  0.00     0.044 C 
ATOM     10  O   UNL     1     107.957 101.369 230.995  1.00  0.00    -0.550 OA
ATOM     11  O   UNL     1     105.754 100.756 231.115  1.00  0.00    -0.550 OA
ENDBRANCH   7   9
ENDBRANCH   6   7
ENDBRANCH   5   6
ENDBRANCH   4   5
ENDBRANCH   3   4
ENDBRANCH   2   3
ENDBRANCH   1   2
BRANCH   1  12
ATOM     12  C   UNL     1     104.709 107.953 230.206  1.00  0.00     0.000 C 
BRANCH  12  13
ATOM     13  C   UNL     1     105.002 107.078 231.444  1.00  0.00    -0.000 C 
BRANCH  13  14
ATOM     14  C   UNL     1     103.856 106.097 231.750  1.00  0.00    -0.000 C 
BRANCH  14  15
ATOM     15  C   UNL     1     102.481 106.651 231.343  1.00  0.00    -0.000 C 
BRANCH  15  16
ATOM     16  C   UNL     1     101.667 105.657 230.496  1.00  0.00    -0.000 C 
BRANCH  16  17
ATOM     17  C   UNL     1     102.022 104.191 230.819  1.00  0.00    -0.000 C 
BRANCH  17  18
ATOM     18  C   UNL     1     101.757 103.221 229.654  1.00  0.00    -0.003 C 
ATOM     19  C   UNL     1     101.343 103.931 228.367  1.00  0.00     0.004 C 
ENDBRANCH  17  18
ENDBRANCH  16  17
ENDBRANCH  15  16
ENDBRANCH  14  15
ENDBRANCH  13  14
ENDBRANCH  12  13
ENDBRANCH   1  12
TORSDOF 14
ENDMDL
