MODEL 1
REMARK VINA RESULT:    -3.709      0.000      0.000
REMARK INTER + INTRA:          -4.370
REMARK INTER:                  -4.251
REMARK INTRA:                  -0.119
REMARK UNBOUND:                -0.119
REMARK SMILES COc1ccc(C(C)=O)cc1O
REMARK SMILES IDX 6 1 10 2 11 3 3 4 4 5 5 6 7 7 8 8 9 9 12 10 2 12 1 13
REMARK H PARENT 12 11
REMARK Flexibility Score: inf
ROOT
ATOM      1  C   UNL     1       9.019 -31.879  16.281  1.00  0.00     0.021 A 
ATOM      2  C   UNL     1       9.783 -32.126  15.124  1.00  0.00     0.062 A 
ATOM      3  C   UNL     1       9.212 -32.737  14.003  1.00  0.00     0.158 A 
ATOM      4  C   UNL     1       7.858 -33.115  14.016  1.00  0.00     0.160 A 
ATOM      5  C   UNL     1       7.091 -32.870  15.170  1.00  0.00     0.051 A 
ATOM      6  C   UNL     1       7.666 -32.260  16.287  1.00  0.00     0.016 A 
ENDROOT
BRANCH   1   7
ATOM      7  C   UNL     1       9.616 -31.230  17.479  1.00  0.00     0.159 C 
ATOM      8  C   UNL     1       9.092 -31.483  18.862  1.00  0.00     0.093 C 
ATOM      9  O   UNL     1      10.590 -30.440  17.343  1.00  0.00    -0.295 OA
ENDBRANCH   1   7
BRANCH   3  10
ATOM     10  O   UNL     1      10.009 -32.962  12.880  1.00  0.00    -0.504 OA
ATOM     11  H   UNL     1      10.420 -32.205  12.348  1.00  0.00     0.293 HD
ENDBRANCH   3  10
BRANCH   4  12
ATOM     12  O   UNL     1       7.311 -33.727  12.876  1.00  0.00    -0.493 OA
ATOM     13  C   UNL     1       6.353 -34.779  12.906  1.00  0.00     0.278 C 
ENDBRANCH   4  12
TORSDOF 3
ENDMDL
MODEL 2
REMARK VINA RESULT:    -3.695      1.911      4.975
REMARK INTER + INTRA:          -4.354
REMARK INTER:                  -4.261
REMARK INTRA:                  -0.093
REMARK UNBOUND:                -0.119
REMARK SMILES COc1ccc(C(C)=O)cc1O
REMARK SMILES IDX 6 1 10 2 11 3 3 4 4 5 5 6 7 7 8 8 9 9 12 10 2 12 1 13
REMARK H PARENT 12 11
REMARK Flexibility Score: inf
ROOT
ATOM      1  C   UNL     1       8.441 -33.381  13.699  1.00  0.00     0.021 A 
ATOM      2  C   UNL     1       8.450 -32.610  14.876  1.00  0.00     0.062 A 
ATOM      3  C   UNL     1       9.583 -31.876  15.245  1.00  0.00     0.158 A 
ATOM      4  C   UNL     1      10.733 -31.897  14.438  1.00  0.00     0.160 A 
ATOM      5  C   UNL     1      10.728 -32.667  13.261  1.00  0.00     0.051 A 
ATOM      6  C   UNL     1       9.596 -33.398  12.897  1.00  0.00     0.016 A 
ENDROOT
BRANCH   1   7
ATOM      7  C   UNL     1       7.243 -34.166  13.296  1.00  0.00     0.159 C 
ATOM      8  C   UNL     1       5.895 -33.528  13.133  1.00  0.00     0.093 C 
ATOM      9  O   UNL     1       7.349 -35.405  13.084  1.00  0.00    -0.295 OA
ENDBRANCH   1   7
BRANCH   3  10
ATOM     10  O   UNL     1       9.545 -31.127  16.422  1.00  0.00    -0.504 OA
ATOM     11  H   UNL     1      10.009 -31.429  17.270  1.00  0.00     0.293 HD
ENDBRANCH   3  10
BRANCH   4  12
ATOM     12  O   UNL     1      11.856 -31.151  14.834  1.00  0.00    -0.493 OA
ATOM     13  C   UNL     1      13.112 -31.167  14.164  1.00  0.00     0.278 C 
ENDBRANCH   4  12
TORSDOF 3
ENDMDL
MODEL 3
REMARK VINA RESULT:    -3.609      2.703      4.323
REMARK INTER + INTRA:          -4.256
REMARK INTER:                  -4.162
REMARK INTRA:                  -0.093
REMARK UNBOUND:                -0.119
REMARK SMILES COc1ccc(C(C)=O)cc1O
REMARK SMILES IDX 6 1 10 2 11 3 3 4 4 5 5 6 7 7 8 8 9 9 12 10 2 12 1 13
REMARK H PARENT 12 11
REMARK Flexibility Score: inf
ROOT
ATOM      1  C   UNL     1      12.096 -31.441  14.491  1.00  0.00     0.021 A 
ATOM      2  C   UNL     1      11.694 -30.810  15.684  1.00  0.00     0.062 A 
ATOM      3  C   UNL     1      10.405 -30.997  16.197  1.00  0.00     0.158 A 
ATOM      4  C   UNL     1       9.490 -31.824  15.524  1.00  0.00     0.160 A 
ATOM      5  C   UNL     1       9.887 -32.456  14.332  1.00  0.00     0.051 A 
ATOM      6  C   UNL     1      11.174 -32.266  13.824  1.00  0.00     0.016 A 
ENDROOT
BRANCH   1   7
ATOM      7  C   UNL     1      13.463 -31.250  13.936  1.00  0.00     0.159 C 
ATOM      8  C   UNL     1      14.110 -29.899  13.868  1.00  0.00     0.093 C 
ATOM      9  O   UNL     1      14.108 -32.245  13.506  1.00  0.00    -0.295 OA
ENDBRANCH   1   7
BRANCH   3  10
ATOM     10  O   UNL     1      10.053 -30.349  17.382  1.00  0.00    -0.504 OA
ATOM     11  H   UNL     1      10.743 -29.953  18.007  1.00  0.00     0.293 HD
ENDBRANCH   3  10
BRANCH   4  12
ATOM     12  O   UNL     1       8.203 -31.992  16.062  1.00  0.00    -0.493 OA
ATOM     13  C   UNL     1       7.116 -32.605  15.377  1.00  0.00     0.278 C 
ENDBRANCH   4  12
TORSDOF 3
ENDMDL
MODEL 4
REMARK VINA RESULT:    -3.374      2.033      3.396
REMARK INTER + INTRA:          -3.986
REMARK INTER:                  -3.877
REMARK INTRA:                  -0.109
REMARK UNBOUND:                -0.119
REMARK SMILES COc1ccc(C(C)=O)cc1O
REMARK SMILES IDX 6 1 10 2 11 3 3 4 4 5 5 6 7 7 8 8 9 9 12 10 2 12 1 13
REMARK H PARENT 12 11
REMARK Flexibility Score: inf
ROOT
ATOM      1  C   UNL     1      10.670 -32.088  14.110  1.00  0.00     0.021 A 
ATOM      2  C   UNL     1       9.991 -31.886  15.327  1.00  0.00     0.062 A 
ATOM      3  C   UNL     1       8.609 -32.088  15.420  1.00  0.00     0.158 A 
ATOM      4  C   UNL     1       7.877 -32.499  14.293  1.00  0.00     0.160 A 
ATOM      5  C   UNL     1       8.551 -32.703  13.076  1.00  0.00     0.051 A 
ATOM      6  C   UNL     1       9.930 -32.499  12.988  1.00  0.00     0.016 A 
ENDROOT
BRANCH   1   7
ATOM      7  C   UNL     1      12.139 -31.877  13.999  1.00  0.00     0.159 C 
ATOM      8  C   UNL     1      12.834 -30.750  14.704  1.00  0.00     0.093 C 
ATOM      9  O   UNL     1      12.831 -32.660  13.293  1.00  0.00    -0.295 OA
ENDBRANCH   1   7
BRANCH   3  10
ATOM     10  O   UNL     1       7.980 -31.873  16.647  1.00  0.00    -0.504 OA
ATOM     11  H   UNL     1       7.338 -31.106  16.798  1.00  0.00     0.293 HD
ENDBRANCH   3  10
BRANCH   4  12
ATOM     12  O   UNL     1       6.491 -32.694  14.417  1.00  0.00    -0.493 OA
ATOM     13  C   UNL     1       5.875 -33.942  14.716  1.00  0.00     0.278 C 
ENDBRANCH   4  12
TORSDOF 3
ENDMDL
MODEL 5
REMARK VINA RESULT:    -3.300      1.144      4.648
REMARK INTER + INTRA:          -3.902
REMARK INTER:                  -3.796
REMARK INTRA:                  -0.106
REMARK UNBOUND:                -0.119
REMARK SMILES COc1ccc(C(C)=O)cc1O
REMARK SMILES IDX 6 1 10 2 11 3 3 4 4 5 5 6 7 7 8 8 9 9 12 10 2 12 1 13
REMARK H PARENT 12 11
REMARK Flexibility Score: inf
ROOT
ATOM      1  C   UNL     1       8.079 -33.805  14.304  1.00  0.00     0.021 A 
ATOM      2  C   UNL     1       9.261 -33.116  13.973  1.00  0.00     0.062 A 
ATOM      3  C   UNL     1       9.848 -32.222  14.875  1.00  0.00     0.158 A 
ATOM      4  C   UNL     1       9.262 -32.001  16.133  1.00  0.00     0.160 A 
ATOM      5  C   UNL     1       8.081 -32.687  16.468  1.00  0.00     0.051 A 
ATOM      6  C   UNL     1       7.498 -33.577  15.564  1.00  0.00     0.016 A 
ENDROOT
BRANCH   1   7
ATOM      7  C   UNL     1       7.445 -34.758  13.353  1.00  0.00     0.159 C 
ATOM      8  C   UNL     1       6.034 -34.582  12.876  1.00  0.00     0.093 C 
ATOM      9  O   UNL     1       8.102 -35.747  12.928  1.00  0.00    -0.295 OA
ENDBRANCH   1   7
BRANCH   3  10
ATOM     10  O   UNL     1      11.019 -31.562  14.502  1.00  0.00    -0.504 OA
ATOM     11  H   UNL     1      11.238 -30.627  14.822  1.00  0.00     0.293 HD
ENDBRANCH   3  10
BRANCH   4  12
ATOM     12  O   UNL     1       9.874 -31.097  17.019  1.00  0.00    -0.493 OA
ATOM     13  C   UNL     1       9.593 -31.018  18.412  1.00  0.00     0.278 C 
ENDBRANCH   4  12
TORSDOF 3
ENDMDL
MODEL 6
REMARK VINA RESULT:    -3.149     16.191     17.840
REMARK INTER + INTRA:          -3.728
REMARK INTER:                  -3.601
REMARK INTRA:                  -0.127
REMARK UNBOUND:                -0.119
REMARK SMILES COc1ccc(C(C)=O)cc1O
REMARK SMILES IDX 6 1 10 2 11 3 3 4 4 5 5 6 7 7 8 8 9 9 12 10 2 12 1 13
REMARK H PARENT 12 11
REMARK Flexibility Score: inf
ROOT
ATOM      1  C   UNL     1      16.709 -35.753  29.872  1.00  0.00     0.021 A 
ATOM      2  C   UNL     1      16.185 -34.596  30.478  1.00  0.00     0.062 A 
ATOM      3  C   UNL     1      15.294 -34.689  31.553  1.00  0.00     0.158 A 
ATOM      4  C   UNL     1      14.908 -35.947  32.045  1.00  0.00     0.160 A 
ATOM      5  C   UNL     1      15.429 -37.106  31.442  1.00  0.00     0.051 A 
ATOM      6  C   UNL     1      16.318 -37.009  30.369  1.00  0.00     0.016 A 
ENDROOT
BRANCH   1   7
ATOM      7  C   UNL     1      17.657 -35.668  28.729  1.00  0.00     0.159 C 
ATOM      8  C   UNL     1      17.497 -36.512  27.500  1.00  0.00     0.093 C 
ATOM      9  O   UNL     1      18.630 -34.866  28.781  1.00  0.00    -0.295 OA
ENDBRANCH   1   7
BRANCH   3  10
ATOM     10  O   UNL     1      14.801 -33.513  32.121  1.00  0.00    -0.504 OA
ATOM     11  H   UNL     1      13.812 -33.296  32.142  1.00  0.00     0.293 HD
ENDBRANCH   3  10
BRANCH   4  12
ATOM     12  O   UNL     1      14.012 -36.010  33.125  1.00  0.00    -0.493 OA
ATOM     13  C   UNL     1      12.673 -36.486  33.036  1.00  0.00     0.278 C 
ENDBRANCH   4  12
TORSDOF 3
ENDMDL
MODEL 7
REMARK VINA RESULT:    -3.031      1.903      2.644
REMARK INTER + INTRA:          -3.593
REMARK INTER:                  -3.462
REMARK INTRA:                  -0.132
REMARK UNBOUND:                -0.119
REMARK SMILES COc1ccc(C(C)=O)cc1O
REMARK SMILES IDX 6 1 10 2 11 3 3 4 4 5 5 6 7 7 8 8 9 9 12 10 2 12 1 13
REMARK H PARENT 12 11
REMARK Flexibility Score: inf
ROOT
ATOM      1  C   UNL     1       9.190 -31.755  17.309  1.00  0.00     0.021 A 
ATOM      2  C   UNL     1      10.336 -31.119  16.795  1.00  0.00     0.062 A 
ATOM      3  C   UNL     1      10.741 -31.327  15.472  1.00  0.00     0.158 A 
ATOM      4  C   UNL     1      10.002 -32.179  14.632  1.00  0.00     0.160 A 
ATOM      5  C   UNL     1       8.857 -32.817  15.141  1.00  0.00     0.051 A 
ATOM      6  C   UNL     1       8.458 -32.606  16.463  1.00  0.00     0.016 A 
ENDROOT
BRANCH   1   7
ATOM      7  C   UNL     1       8.750 -31.542  18.714  1.00  0.00     0.159 C 
ATOM      8  C   UNL     1       8.118 -32.636  19.522  1.00  0.00     0.093 C 
ATOM      9  O   UNL     1       8.907 -30.413  19.254  1.00  0.00    -0.295 OA
ENDBRANCH   1   7
BRANCH   3  10
ATOM     10  O   UNL     1      11.884 -30.675  15.008  1.00  0.00    -0.504 OA
ATOM     11  H   UNL     1      12.306 -30.894  14.114  1.00  0.00     0.293 HD
ENDBRANCH   3  10
BRANCH   4  12
ATOM     12  O   UNL     1      10.432 -32.369  13.308  1.00  0.00    -0.493 OA
ATOM     13  C   UNL     1      11.259 -33.444  12.875  1.00  0.00     0.278 C 
ENDBRANCH   4  12
TORSDOF 3
ENDMDL
MODEL 8
REMARK VINA RESULT:    -2.952      1.611      2.349
REMARK INTER + INTRA:          -3.503
REMARK INTER:                  -3.395
REMARK INTRA:                  -0.107
REMARK UNBOUND:                -0.119
REMARK SMILES COc1ccc(C(C)=O)cc1O
REMARK SMILES IDX 6 1 10 2 11 3 3 4 4 5 5 6 7 7 8 8 9 9 12 10 2 12 1 13
REMARK H PARENT 12 11
REMARK Flexibility Score: inf
ROOT
ATOM      1  C   UNL     1       9.910 -32.155  15.100  1.00  0.00     0.021 A 
ATOM      2  C   UNL     1       9.805 -33.104  14.066  1.00  0.00     0.062 A 
ATOM      3  C   UNL     1       8.651 -33.883  13.921  1.00  0.00     0.158 A 
ATOM      4  C   UNL     1       7.575 -33.726  14.811  1.00  0.00     0.160 A 
ATOM      5  C   UNL     1       7.676 -32.778  15.845  1.00  0.00     0.051 A 
ATOM      6  C   UNL     1       8.830 -32.003  15.986  1.00  0.00     0.016 A 
ENDROOT
BRANCH   1   7
ATOM      7  C   UNL     1      11.131 -31.321  15.264  1.00  0.00     0.159 C 
ATOM      8  C   UNL     1      12.155 -31.191  14.176  1.00  0.00     0.093 C 
ATOM      9  O   UNL     1      11.324 -30.700  16.345  1.00  0.00    -0.295 OA
ENDBRANCH   1   7
BRANCH   3  10
ATOM     10  O   UNL     1       8.594 -34.812  12.881  1.00  0.00    -0.504 OA
ATOM     11  H   UNL     1       8.690 -34.544  11.910  1.00  0.00     0.293 HD
ENDBRANCH   3  10
BRANCH   4  12
ATOM     12  O   UNL     1       6.430 -34.522  14.641  1.00  0.00    -0.493 OA
ATOM     13  C   UNL     1       6.219 -35.778  15.277  1.00  0.00     0.278 C 
ENDBRANCH   4  12
TORSDOF 3
ENDMDL
MODEL 9
REMARK VINA RESULT:    -2.850      1.852      5.049
REMARK INTER + INTRA:          -3.386
REMARK INTER:                  -3.282
REMARK INTRA:                  -0.104
REMARK UNBOUND:                -0.119
REMARK SMILES COc1ccc(C(C)=O)cc1O
REMARK SMILES IDX 6 1 10 2 11 3 3 4 4 5 5 6 7 7 8 8 9 9 12 10 2 12 1 13
REMARK H PARENT 12 11
REMARK Flexibility Score: inf
ROOT
ATOM      1  C   UNL     1       7.913 -34.020  14.535  1.00  0.00     0.021 A 
ATOM      2  C   UNL     1       7.845 -33.993  15.941  1.00  0.00     0.062 A 
ATOM      3  C   UNL     1       8.523 -33.014  16.674  1.00  0.00     0.158 A 
ATOM      4  C   UNL     1       9.286 -32.036  16.012  1.00  0.00     0.160 A 
ATOM      5  C   UNL     1       9.357 -32.059  14.608  1.00  0.00     0.051 A 
ATOM      6  C   UNL     1       8.679 -33.040  13.880  1.00  0.00     0.016 A 
ENDROOT
BRANCH   1   7
ATOM      7  C   UNL     1       7.196 -35.057  13.744  1.00  0.00     0.159 C 
ATOM      8  C   UNL     1       7.912 -36.225  13.135  1.00  0.00     0.093 C 
ATOM      9  O   UNL     1       5.950 -34.962  13.573  1.00  0.00    -0.295 OA
ENDBRANCH   1   7
BRANCH   3  10
ATOM     10  O   UNL     1       8.426 -33.028  18.067  1.00  0.00    -0.504 OA
ATOM     11  H   UNL     1       7.597 -32.713  18.554  1.00  0.00     0.293 HD
ENDBRANCH   3  10
BRANCH   4  12
ATOM     12  O   UNL     1       9.956 -31.065  16.775  1.00  0.00    -0.493 OA
ATOM     13  C   UNL     1      11.274 -30.597  16.506  1.00  0.00     0.278 C 
ENDBRANCH   4  12
TORSDOF 3
ENDMDL
