MODEL 1
REMARK VINA RESULT:    -3.183      0.000      0.000
REMARK INTER + INTRA:          -6.385
REMARK INTER:                  -5.044
REMARK INTRA:                  -1.341
REMARK UNBOUND:                -1.341
REMARK SMILES CCCCCCCCCCCC(=O)[O-]
REMARK SMILES IDX 7 1 8 2 9 3 10 4 11 5 12 6 13 7 14 8 6 9 5 10 4 11 3 12 2 13
REMARK SMILES IDX 1 14
REMARK H PARENT
REMARK Flexibility Score: inf
ROOT
ATOM      1  C   UNL     1       6.761 -35.828  16.275  1.00  0.00     0.000 C 
ENDROOT
BRANCH   1   2
ATOM      2  C   UNL     1       7.888 -35.110  17.035  1.00  0.00     0.000 C 
BRANCH   2   3
ATOM      3  C   UNL     1       7.341 -34.384  18.270  1.00  0.00     0.000 C 
BRANCH   3   4
ATOM      4  C   UNL     1       7.471 -32.861  18.116  1.00  0.00     0.006 C 
BRANCH   4   5
ATOM      5  C   UNL     1       8.722 -32.462  17.322  1.00  0.00     0.053 C 
BRANCH   5   6
ATOM      6  C   UNL     1       9.621 -31.563  18.114  1.00  0.00     0.041 C 
ATOM      7  O   UNL     1      10.393 -30.761  17.525  1.00  0.00    -0.550 OA
ATOM      8  O   UNL     1       9.580 -31.585  19.502  1.00  0.00    -0.550 OA
ENDBRANCH   5   6
ENDBRANCH   4   5
ENDBRANCH   3   4
ENDBRANCH   2   3
ENDBRANCH   1   2
BRANCH   1   9
ATOM      9  C   UNL     1       5.879 -34.861  15.469  1.00  0.00     0.000 C 
BRANCH   9  10
ATOM     10  C   UNL     1       5.875 -35.182  13.964  1.00  0.00    -0.000 C 
BRANCH  10  11
ATOM     11  C   UNL     1       7.065 -34.547  13.222  1.00  0.00    -0.000 C 
BRANCH  11  12
ATOM     12  C   UNL     1       7.389 -33.131  13.729  1.00  0.00    -0.000 C 
BRANCH  12  13
ATOM     13  C   UNL     1       8.897 -32.834  13.717  1.00  0.00    -0.003 C 
ATOM     14  C   UNL     1       9.748 -34.072  14.002  1.00  0.00     0.004 C 
ENDBRANCH  12  13
ENDBRANCH  11  12
ENDBRANCH  10  11
ENDBRANCH   9  10
ENDBRANCH   1   9
TORSDOF 10
ENDMDL
MODEL 2
REMARK VINA RESULT:    -3.094      0.880      1.460
REMARK INTER + INTRA:          -6.243
REMARK INTER:                  -4.838
REMARK INTRA:                  -1.405
REMARK UNBOUND:                -1.341
REMARK SMILES CCCCCCCCCCCC(=O)[O-]
REMARK SMILES IDX 7 1 8 2 9 3 10 4 11 5 12 6 13 7 14 8 6 9 5 10 4 11 3 12 2 13
REMARK SMILES IDX 1 14
REMARK H PARENT
REMARK Flexibility Score: inf
ROOT
ATOM      1  C   UNL     1       7.038 -35.384  16.260  1.00  0.00     0.000 C 
ENDROOT
BRANCH   1   2
ATOM      2  C   UNL     1       6.058 -34.200  16.270  1.00  0.00     0.000 C 
BRANCH   2   3
ATOM      3  C   UNL     1       6.806 -32.872  16.445  1.00  0.00     0.000 C 
BRANCH   3   4
ATOM      4  C   UNL     1       8.114 -33.074  17.224  1.00  0.00     0.006 C 
BRANCH   4   5
ATOM      5  C   UNL     1       8.130 -32.292  18.544  1.00  0.00     0.053 C 
BRANCH   5   6
ATOM      6  C   UNL     1       9.426 -31.569  18.747  1.00  0.00     0.041 C 
ATOM      7  O   UNL     1       9.924 -31.474  19.899  1.00  0.00    -0.550 OA
ATOM      8  O   UNL     1      10.102 -31.032  17.658  1.00  0.00    -0.550 OA
ENDBRANCH   5   6
ENDBRANCH   4   5
ENDBRANCH   3   4
ENDBRANCH   2   3
ENDBRANCH   1   2
BRANCH   1   9
ATOM      9  C   UNL     1       6.897 -36.261  15.005  1.00  0.00     0.000 C 
BRANCH   9  10
ATOM     10  C   UNL     1       6.322 -35.488  13.805  1.00  0.00    -0.000 C 
BRANCH  10  11
ATOM     11  C   UNL     1       7.420 -34.906  12.897  1.00  0.00    -0.000 C 
BRANCH  11  12
ATOM     12  C   UNL     1       7.414 -33.368  12.875  1.00  0.00    -0.000 C 
BRANCH  12  13
ATOM     13  C   UNL     1       8.780 -32.770  13.251  1.00  0.00    -0.003 C 
ATOM     14  C   UNL     1       9.689 -33.770  13.965  1.00  0.00     0.004 C 
ENDBRANCH  12  13
ENDBRANCH  11  12
ENDBRANCH  10  11
ENDBRANCH   9  10
ENDBRANCH   1   9
TORSDOF 10
ENDMDL
MODEL 3
REMARK VINA RESULT:    -2.928      1.532      3.310
REMARK INTER + INTRA:          -5.981
REMARK INTER:                  -4.594
REMARK INTRA:                  -1.386
REMARK UNBOUND:                -1.341
REMARK SMILES CCCCCCCCCCCC(=O)[O-]
REMARK SMILES IDX 7 1 8 2 9 3 10 4 11 5 12 6 13 7 14 8 6 9 5 10 4 11 3 12 2 13
REMARK SMILES IDX 1 14
REMARK H PARENT
REMARK Flexibility Score: inf
ROOT
ATOM      1  C   UNL     1       9.487 -35.269  14.081  1.00  0.00     0.000 C 
ENDROOT
BRANCH   1   2
ATOM      2  C   UNL     1       9.414 -33.738  14.194  1.00  0.00     0.000 C 
BRANCH   2   3
ATOM      3  C   UNL     1       7.958 -33.262  14.262  1.00  0.00     0.000 C 
BRANCH   3   4
ATOM      4  C   UNL     1       7.631 -32.687  15.649  1.00  0.00     0.006 C 
BRANCH   4   5
ATOM      5  C   UNL     1       8.890 -32.466  16.497  1.00  0.00     0.053 C 
BRANCH   5   6
ATOM      6  C   UNL     1       8.556 -32.234  17.939  1.00  0.00     0.041 C 
ATOM      7  O   UNL     1       9.403 -31.708  18.708  1.00  0.00    -0.550 OA
ATOM      8  O   UNL     1       7.298 -32.567  18.425  1.00  0.00    -0.550 OA
ENDBRANCH   5   6
ENDBRANCH   4   5
ENDBRANCH   3   4
ENDBRANCH   2   3
ENDBRANCH   1   2
BRANCH   1   9
ATOM      9  C   UNL     1       8.378 -35.852  13.191  1.00  0.00     0.000 C 
BRANCH   9  10
ATOM     10  C   UNL     1       7.706 -37.087  13.817  1.00  0.00    -0.000 C 
BRANCH  10  11
ATOM     11  C   UNL     1       6.226 -36.842  14.160  1.00  0.00    -0.000 C 
BRANCH  11  12
ATOM     12  C   UNL     1       5.924 -37.046  15.655  1.00  0.00    -0.000 C 
BRANCH  12  13
ATOM     13  C   UNL     1       6.156 -35.770  16.480  1.00  0.00    -0.003 C 
ATOM     14  C   UNL     1       7.363 -35.876  17.412  1.00  0.00     0.004 C 
ENDBRANCH  12  13
ENDBRANCH  11  12
ENDBRANCH  10  11
ENDBRANCH   9  10
ENDBRANCH   1   9
TORSDOF 10
ENDMDL
MODEL 4
REMARK VINA RESULT:    -2.902      2.162      4.399
REMARK INTER + INTRA:          -5.939
REMARK INTER:                  -4.769
REMARK INTRA:                  -1.171
REMARK UNBOUND:                -1.341
REMARK SMILES CCCCCCCCCCCC(=O)[O-]
REMARK SMILES IDX 7 1 8 2 9 3 10 4 11 5 12 6 13 7 14 8 6 9 5 10 4 11 3 12 2 13
REMARK SMILES IDX 1 14
REMARK H PARENT
REMARK Flexibility Score: inf
ROOT
ATOM      1  C   UNL     1       6.953 -35.727  14.939  1.00  0.00     0.000 C 
ENDROOT
BRANCH   1   2
ATOM      2  C   UNL     1       5.882 -34.852  14.269  1.00  0.00     0.000 C 
BRANCH   2   3
ATOM      3  C   UNL     1       6.518 -33.878  13.268  1.00  0.00     0.000 C 
BRANCH   3   4
ATOM      4  C   UNL     1       8.006 -34.196  13.060  1.00  0.00     0.006 C 
BRANCH   4   5
ATOM      5  C   UNL     1       8.868 -32.927  13.003  1.00  0.00     0.053 C 
BRANCH   5   6
ATOM      6  C   UNL     1      10.300 -33.212  13.336  1.00  0.00     0.041 C 
ATOM      7  O   UNL     1      10.722 -34.398  13.354  1.00  0.00    -0.550 OA
ATOM      8  O   UNL     1      11.177 -32.165  13.591  1.00  0.00    -0.550 OA
ENDBRANCH   5   6
ENDBRANCH   4   5
ENDBRANCH   3   4
ENDBRANCH   2   3
ENDBRANCH   1   2
BRANCH   1   9
ATOM      9  C   UNL     1       6.651 -36.004  16.421  1.00  0.00     0.000 C 
BRANCH   9  10
ATOM     10  C   UNL     1       7.512 -35.150  17.368  1.00  0.00    -0.000 C 
BRANCH  10  11
ATOM     11  C   UNL     1       8.659 -34.431  16.636  1.00  0.00    -0.000 C 
BRANCH  11  12
ATOM     12  C   UNL     1       8.522 -32.899  16.686  1.00  0.00    -0.000 C 
BRANCH  12  13
ATOM     13  C   UNL     1       8.114 -32.390  18.078  1.00  0.00    -0.003 C 
ATOM     14  C   UNL     1       9.251 -31.669  18.803  1.00  0.00     0.004 C 
ENDBRANCH  12  13
ENDBRANCH  11  12
ENDBRANCH  10  11
ENDBRANCH   9  10
ENDBRANCH   1   9
TORSDOF 10
ENDMDL
MODEL 5
REMARK VINA RESULT:    -2.874      1.429      2.257
REMARK INTER + INTRA:          -5.895
REMARK INTER:                  -4.531
REMARK INTRA:                  -1.364
REMARK UNBOUND:                -1.341
REMARK SMILES CCCCCCCCCCCC(=O)[O-]
REMARK SMILES IDX 7 1 8 2 9 3 10 4 11 5 12 6 13 7 14 8 6 9 5 10 4 11 3 12 2 13
REMARK SMILES IDX 1 14
REMARK H PARENT
REMARK Flexibility Score: inf
ROOT
ATOM      1  C   UNL     1       6.733 -36.709  14.421  1.00  0.00     0.000 C 
ENDROOT
BRANCH   1   2
ATOM      2  C   UNL     1       5.964 -36.298  15.687  1.00  0.00     0.000 C 
BRANCH   2   3
ATOM      3  C   UNL     1       6.830 -36.483  16.940  1.00  0.00     0.000 C 
BRANCH   3   4
ATOM      4  C   UNL     1       7.767 -35.283  17.144  1.00  0.00     0.006 C 
BRANCH   4   5
ATOM      5  C   UNL     1       7.277 -34.348  18.257  1.00  0.00     0.053 C 
BRANCH   5   6
ATOM      6  C   UNL     1       7.464 -32.906  17.894  1.00  0.00     0.041 C 
ATOM      7  O   UNL     1       8.505 -32.293  18.248  1.00  0.00    -0.550 OA
ATOM      8  O   UNL     1       6.503 -32.249  17.135  1.00  0.00    -0.550 OA
ENDBRANCH   5   6
ENDBRANCH   4   5
ENDBRANCH   3   4
ENDBRANCH   2   3
ENDBRANCH   1   2
BRANCH   1   9
ATOM      9  C   UNL     1       6.537 -35.720  13.261  1.00  0.00     0.000 C 
BRANCH   9  10
ATOM     10  C   UNL     1       6.118 -34.320  13.741  1.00  0.00    -0.000 C 
BRANCH  10  11
ATOM     11  C   UNL     1       7.112 -33.227  13.312  1.00  0.00    -0.000 C 
BRANCH  11  12
ATOM     12  C   UNL     1       8.308 -33.106  14.272  1.00  0.00    -0.000 C 
BRANCH  12  13
ATOM     13  C   UNL     1       9.622 -33.591  13.637  1.00  0.00    -0.003 C 
ATOM     14  C   UNL     1      10.017 -34.996  14.091  1.00  0.00     0.004 C 
ENDBRANCH  12  13
ENDBRANCH  11  12
ENDBRANCH  10  11
ENDBRANCH   9  10
ENDBRANCH   1   9
TORSDOF 10
ENDMDL
MODEL 6
REMARK VINA RESULT:    -2.874      1.344      3.014
REMARK INTER + INTRA:          -5.894
REMARK INTER:                  -4.711
REMARK INTRA:                  -1.184
REMARK UNBOUND:                -1.341
REMARK SMILES CCCCCCCCCCCC(=O)[O-]
REMARK SMILES IDX 7 1 8 2 9 3 10 4 11 5 12 6 13 7 14 8 6 9 5 10 4 11 3 12 2 13
REMARK SMILES IDX 1 14
REMARK H PARENT
REMARK Flexibility Score: inf
ROOT
ATOM      1  C   UNL     1       8.975 -32.949  14.797  1.00  0.00     0.000 C 
ENDROOT
BRANCH   1   2
ATOM      2  C   UNL     1       7.439 -32.922  14.850  1.00  0.00     0.000 C 
BRANCH   2   3
ATOM      3  C   UNL     1       6.933 -33.264  16.257  1.00  0.00     0.000 C 
BRANCH   3   4
ATOM      4  C   UNL     1       8.101 -33.399  17.244  1.00  0.00     0.006 C 
BRANCH   4   5
ATOM      5  C   UNL     1       8.015 -32.380  18.388  1.00  0.00     0.053 C 
BRANCH   5   6
ATOM      6  C   UNL     1       9.315 -31.665  18.596  1.00  0.00     0.041 C 
ATOM      7  O   UNL     1       9.940 -31.187  17.612  1.00  0.00    -0.550 OA
ATOM      8  O   UNL     1       9.820 -31.497  19.879  1.00  0.00    -0.550 OA
ENDBRANCH   5   6
ENDBRANCH   4   5
ENDBRANCH   3   4
ENDBRANCH   2   3
ENDBRANCH   1   2
BRANCH   1   9
ATOM      9  C   UNL     1       9.521 -34.156  14.018  1.00  0.00     0.000 C 
BRANCH   9  10
ATOM     10  C   UNL     1       8.404 -35.006  13.386  1.00  0.00    -0.000 C 
BRANCH  10  11
ATOM     11  C   UNL     1       8.309 -36.411  14.007  1.00  0.00    -0.000 C 
BRANCH  11  12
ATOM     12  C   UNL     1       6.897 -37.012  13.893  1.00  0.00    -0.000 C 
BRANCH  12  13
ATOM     13  C   UNL     1       5.933 -36.452  14.951  1.00  0.00    -0.003 C 
ATOM     14  C   UNL     1       6.289 -36.892  16.371  1.00  0.00     0.004 C 
ENDBRANCH  12  13
ENDBRANCH  11  12
ENDBRANCH  10  11
ENDBRANCH   9  10
ENDBRANCH   1   9
TORSDOF 10
ENDMDL
MODEL 7
REMARK VINA RESULT:    -2.873     12.620     14.745
REMARK INTER + INTRA:          -5.893
REMARK INTER:                  -5.574
REMARK INTRA:                  -0.319
REMARK UNBOUND:                -1.341
REMARK SMILES CCCCCCCCCCCC(=O)[O-]
REMARK SMILES IDX 7 1 8 2 9 3 10 4 11 5 12 6 13 7 14 8 6 9 5 10 4 11 3 12 2 13
REMARK SMILES IDX 1 14
REMARK H PARENT
REMARK Flexibility Score: inf
ROOT
ATOM      1  C   UNL     1      21.248 -26.736  13.552  1.00  0.00     0.000 C 
ENDROOT
BRANCH   1   2
ATOM      2  C   UNL     1      20.171 -25.874  12.875  1.00  0.00     0.000 C 
BRANCH   2   3
ATOM      3  C   UNL     1      20.497 -24.382  13.011  1.00  0.00     0.000 C 
BRANCH   3   4
ATOM      4  C   UNL     1      20.135 -23.864  14.411  1.00  0.00     0.006 C 
BRANCH   4   5
ATOM      5  C   UNL     1      20.923 -22.602  14.784  1.00  0.00     0.053 C 
BRANCH   5   6
ATOM      6  C   UNL     1      20.060 -21.377  14.752  1.00  0.00     0.041 C 
ATOM      7  O   UNL     1      18.997 -21.369  14.078  1.00  0.00    -0.550 OA
ATOM      8  O   UNL     1      20.414 -20.257  15.495  1.00  0.00    -0.550 OA
ENDBRANCH   5   6
ENDBRANCH   4   5
ENDBRANCH   3   4
ENDBRANCH   2   3
ENDBRANCH   1   2
BRANCH   1   9
ATOM      9  C   UNL     1      21.404 -28.117  12.894  1.00  0.00     0.000 C 
BRANCH   9  10
ATOM     10  C   UNL     1      20.829 -29.252  13.760  1.00  0.00    -0.000 C 
BRANCH  10  11
ATOM     11  C   UNL     1      19.804 -30.113  13.001  1.00  0.00    -0.000 C 
BRANCH  11  12
ATOM     12  C   UNL     1      19.371 -31.356  13.797  1.00  0.00    -0.000 C 
BRANCH  12  13
ATOM     13  C   UNL     1      17.924 -31.775  13.491  1.00  0.00    -0.003 C 
ATOM     14  C   UNL     1      17.126 -32.117  14.750  1.00  0.00     0.004 C 
ENDBRANCH  12  13
ENDBRANCH  11  12
ENDBRANCH  10  11
ENDBRANCH   9  10
ENDBRANCH   1   9
TORSDOF 10
ENDMDL
MODEL 8
REMARK VINA RESULT:    -2.680      1.965      3.992
REMARK INTER + INTRA:          -5.588
REMARK INTER:                  -4.595
REMARK INTRA:                  -0.993
REMARK UNBOUND:                -1.341
REMARK SMILES CCCCCCCCCCCC(=O)[O-]
REMARK SMILES IDX 7 1 8 2 9 3 10 4 11 5 12 6 13 7 14 8 6 9 5 10 4 11 3 12 2 13
REMARK SMILES IDX 1 14
REMARK H PARENT
REMARK Flexibility Score: inf
ROOT
ATOM      1  C   UNL     1      10.120 -33.309  13.740  1.00  0.00     0.000 C 
ENDROOT
BRANCH   1   2
ATOM      2  C   UNL     1       8.787 -32.796  13.170  1.00  0.00     0.000 C 
BRANCH   2   3
ATOM      3  C   UNL     1       7.659 -32.943  14.199  1.00  0.00     0.000 C 
BRANCH   3   4
ATOM      4  C   UNL     1       8.178 -32.706  15.625  1.00  0.00     0.006 C 
BRANCH   4   5
ATOM      5  C   UNL     1       7.094 -32.942  16.684  1.00  0.00     0.053 C 
BRANCH   5   6
ATOM      6  C   UNL     1       7.666 -32.974  18.069  1.00  0.00     0.041 C 
ATOM      7  O   UNL     1       7.214 -33.781  18.922  1.00  0.00    -0.550 OA
ATOM      8  O   UNL     1       8.721 -32.135  18.405  1.00  0.00    -0.550 OA
ENDBRANCH   5   6
ENDBRANCH   4   5
ENDBRANCH   3   4
ENDBRANCH   2   3
ENDBRANCH   1   2
BRANCH   1   9
ATOM      9  C   UNL     1      10.750 -34.412  12.875  1.00  0.00     0.000 C 
BRANCH   9  10
ATOM     10  C   UNL     1      10.781 -35.776  13.588  1.00  0.00    -0.000 C 
BRANCH  10  11
ATOM     11  C   UNL     1       9.878 -36.819  12.905  1.00  0.00    -0.000 C 
BRANCH  11  12
ATOM     12  C   UNL     1       8.400 -36.392  12.878  1.00  0.00    -0.000 C 
BRANCH  12  13
ATOM     13  C   UNL     1       7.697 -36.622  14.225  1.00  0.00    -0.003 C 
ATOM     14  C   UNL     1       6.800 -37.860  14.223  1.00  0.00     0.004 C 
ENDBRANCH  12  13
ENDBRANCH  11  12
ENDBRANCH  10  11
ENDBRANCH   9  10
ENDBRANCH   1   9
TORSDOF 10
ENDMDL
MODEL 9
REMARK VINA RESULT:    -2.519      1.773      2.888
REMARK INTER + INTRA:          -5.332
REMARK INTER:                  -4.446
REMARK INTRA:                  -0.886
REMARK UNBOUND:                -1.341
REMARK SMILES CCCCCCCCCCCC(=O)[O-]
REMARK SMILES IDX 7 1 8 2 9 3 10 4 11 5 12 6 13 7 14 8 6 9 5 10 4 11 3 12 2 13
REMARK SMILES IDX 1 14
REMARK H PARENT
REMARK Flexibility Score: inf
ROOT
ATOM      1  C   UNL     1       7.377 -37.002  14.208  1.00  0.00     0.000 C 
ENDROOT
BRANCH   1   2
ATOM      2  C   UNL     1       6.066 -36.398  14.736  1.00  0.00     0.000 C 
BRANCH   2   3
ATOM      3  C   UNL     1       6.171 -36.083  16.233  1.00  0.00     0.000 C 
BRANCH   3   4
ATOM      4  C   UNL     1       6.429 -34.586  16.464  1.00  0.00     0.006 C 
BRANCH   4   5
ATOM      5  C   UNL     1       7.897 -34.296  16.805  1.00  0.00     0.053 C 
BRANCH   5   6
ATOM      6  C   UNL     1       8.097 -32.877  17.242  1.00  0.00     0.041 C 
ATOM      7  O   UNL     1       7.359 -32.379  18.132  1.00  0.00    -0.550 OA
ATOM      8  O   UNL     1       9.120 -32.117  16.691  1.00  0.00    -0.550 OA
ENDBRANCH   5   6
ENDBRANCH   4   5
ENDBRANCH   3   4
ENDBRANCH   2   3
ENDBRANCH   1   2
BRANCH   1   9
ATOM      9  C   UNL     1       8.110 -36.068  13.232  1.00  0.00     0.000 C 
BRANCH   9  10
ATOM     10  C   UNL     1       9.603 -36.413  13.092  1.00  0.00    -0.000 C 
BRANCH  10  11
ATOM     11  C   UNL     1      10.506 -35.169  13.161  1.00  0.00    -0.000 C 
BRANCH  11  12
ATOM     12  C   UNL     1       9.786 -33.951  13.766  1.00  0.00    -0.000 C 
BRANCH  12  13
ATOM     13  C   UNL     1      10.228 -32.627  13.122  1.00  0.00    -0.003 C 
ATOM     14  C   UNL     1      11.435 -32.001  13.821  1.00  0.00     0.004 C 
ENDBRANCH  12  13
ENDBRANCH  11  12
ENDBRANCH  10  11
ENDBRANCH   9  10
ENDBRANCH   1   9
TORSDOF 10
ENDMDL
