MODEL 1
REMARK VINA RESULT:    -4.754      0.000      0.000
REMARK INTER + INTRA:          -5.436
REMARK INTER:                  -5.309
REMARK INTRA:                  -0.127
REMARK UNBOUND:                -0.127
REMARK SMILES O=C([O-])C=Cc1ccccc1
REMARK SMILES IDX 4 1 5 2 2 3 1 4 3 5 6 6 7 7 11 8 8 9 10 10 9 11
REMARK H PARENT
REMARK Flexibility Score: inf
ROOT
ATOM      1  C   UNL     1      17.567  55.451  53.457  1.00  0.00     0.025 C 
ATOM      2  C   UNL     1      16.965  54.405  54.042  1.00  0.00     0.010 C 
ENDROOT
BRANCH   1   3
ATOM      3  C   UNL     1      18.289  56.467  54.239  1.00  0.00     0.064 C 
ATOM      4  O   UNL     1      18.106  57.687  53.991  1.00  0.00    -0.545 OA
ATOM      5  O   UNL     1      19.170  56.102  55.251  1.00  0.00    -0.545 OA
ENDBRANCH   1   3
BRANCH   2   6
ATOM      6  C   UNL     1      16.218  53.340  53.318  1.00  0.00    -0.026 A 
ATOM      7  C   UNL     1      16.867  52.114  53.087  1.00  0.00     0.008 A 
ATOM      8  C   UNL     1      14.893  53.500  52.852  1.00  0.00     0.008 A 
ATOM      9  C   UNL     1      16.218  51.076  52.413  1.00  0.00     0.001 A 
ATOM     10  C   UNL     1      14.249  52.458  52.178  1.00  0.00     0.001 A 
ATOM     11  C   UNL     1      14.910  51.247  51.958  1.00  0.00     0.000 A 
ENDBRANCH   2   6
TORSDOF 2
ENDMDL
MODEL 2
REMARK VINA RESULT:    -4.603      3.355      5.213
REMARK INTER + INTRA:          -5.268
REMARK INTER:                  -5.133
REMARK INTRA:                  -0.135
REMARK UNBOUND:                -0.127
REMARK SMILES O=C([O-])C=Cc1ccccc1
REMARK SMILES IDX 4 1 5 2 2 3 1 4 3 5 6 6 7 7 11 8 8 9 10 10 9 11
REMARK H PARENT
REMARK Flexibility Score: inf
ROOT
ATOM      1  C   UNL     1      16.047  52.667  52.521  1.00  0.00     0.025 C 
ATOM      2  C   UNL     1      15.935  53.718  53.347  1.00  0.00     0.010 C 
ENDROOT
BRANCH   1   3
ATOM      3  C   UNL     1      14.866  51.970  51.988  1.00  0.00     0.064 C 
ATOM      4  O   UNL     1      13.716  52.414  52.240  1.00  0.00    -0.545 OA
ATOM      5  O   UNL     1      14.999  50.827  51.206  1.00  0.00    -0.545 OA
ENDBRANCH   1   3
BRANCH   2   6
ATOM      6  C   UNL     1      17.081  54.471  53.924  1.00  0.00    -0.026 A 
ATOM      7  C   UNL     1      17.907  53.813  54.854  1.00  0.00     0.008 A 
ATOM      8  C   UNL     1      17.381  55.810  53.585  1.00  0.00     0.008 A 
ATOM      9  C   UNL     1      18.999  54.468  55.431  1.00  0.00     0.001 A 
ATOM     10  C   UNL     1      18.474  56.460  54.166  1.00  0.00     0.001 A 
ATOM     11  C   UNL     1      19.283  55.790  55.088  1.00  0.00     0.000 A 
ENDBRANCH   2   6
TORSDOF 2
ENDMDL
MODEL 3
REMARK VINA RESULT:    -4.419     12.370     13.466
REMARK INTER + INTRA:          -5.063
REMARK INTER:                  -4.935
REMARK INTRA:                  -0.128
REMARK UNBOUND:                -0.127
REMARK SMILES O=C([O-])C=Cc1ccccc1
REMARK SMILES IDX 4 1 5 2 2 3 1 4 3 5 6 6 7 7 11 8 8 9 10 10 9 11
REMARK H PARENT
REMARK Flexibility Score: inf
ROOT
ATOM      1  C   UNL     1       7.159  49.022  45.021  1.00  0.00     0.025 C 
ATOM      2  C   UNL     1       6.931  49.135  46.338  1.00  0.00     0.010 C 
ENDROOT
BRANCH   1   3
ATOM      3  C   UNL     1       7.053  50.176  44.114  1.00  0.00     0.064 C 
ATOM      4  O   UNL     1       8.044  50.935  43.957  1.00  0.00    -0.545 OA
ATOM      5  O   UNL     1       5.875  50.442  43.424  1.00  0.00    -0.545 OA
ENDBRANCH   1   3
BRANCH   2   6
ATOM      6  C   UNL     1       7.019  48.016  47.315  1.00  0.00    -0.026 A 
ATOM      7  C   UNL     1       8.293  47.632  47.771  1.00  0.00     0.008 A 
ATOM      8  C   UNL     1       5.889  47.322  47.806  1.00  0.00     0.008 A 
ATOM      9  C   UNL     1       8.440  46.587  48.688  1.00  0.00     0.001 A 
ATOM     10  C   UNL     1       6.043  46.278  48.723  1.00  0.00     0.001 A 
ATOM     11  C   UNL     1       7.316  45.911  49.164  1.00  0.00     0.000 A 
ENDBRANCH   2   6
TORSDOF 2
ENDMDL
MODEL 4
REMARK VINA RESULT:    -4.388     10.656     11.107
REMARK INTER + INTRA:          -5.028
REMARK INTER:                  -4.885
REMARK INTRA:                  -0.143
REMARK UNBOUND:                -0.127
REMARK SMILES O=C([O-])C=Cc1ccccc1
REMARK SMILES IDX 4 1 5 2 2 3 1 4 3 5 6 6 7 7 11 8 8 9 10 10 9 11
REMARK H PARENT
REMARK Flexibility Score: inf
ROOT
ATOM      1  C   UNL     1      18.278  57.342  44.298  1.00  0.00     0.025 C 
ATOM      2  C   UNL     1      16.943  57.338  44.173  1.00  0.00     0.010 C 
ENDROOT
BRANCH   1   3
ATOM      3  C   UNL     1      18.949  56.772  45.477  1.00  0.00     0.064 C 
ATOM      4  O   UNL     1      20.121  56.326  45.369  1.00  0.00    -0.545 OA
ATOM      5  O   UNL     1      18.311  56.719  46.711  1.00  0.00    -0.545 OA
ENDBRANCH   1   3
BRANCH   2   6
ATOM      6  C   UNL     1      16.195  57.895  43.013  1.00  0.00    -0.026 A 
ATOM      7  C   UNL     1      16.856  57.969  41.773  1.00  0.00     0.008 A 
ATOM      8  C   UNL     1      14.860  58.349  43.094  1.00  0.00     0.008 A 
ATOM      9  C   UNL     1      16.207  58.482  40.646  1.00  0.00     0.001 A 
ATOM     10  C   UNL     1      14.216  58.861  41.963  1.00  0.00     0.001 A 
ATOM     11  C   UNL     1      14.888  58.928  40.740  1.00  0.00     0.000 A 
ENDBRANCH   2   6
TORSDOF 2
ENDMDL
MODEL 5
REMARK VINA RESULT:    -4.365     10.691     11.211
REMARK INTER + INTRA:          -5.002
REMARK INTER:                  -4.871
REMARK INTRA:                  -0.131
REMARK UNBOUND:                -0.127
REMARK SMILES O=C([O-])C=Cc1ccccc1
REMARK SMILES IDX 4 1 5 2 2 3 1 4 3 5 6 6 7 7 11 8 8 9 10 10 9 11
REMARK H PARENT
REMARK Flexibility Score: inf
ROOT
ATOM      1  C   UNL     1      18.269  57.361  44.273  1.00  0.00     0.025 C 
ATOM      2  C   UNL     1      16.939  57.345  44.101  1.00  0.00     0.010 C 
ENDROOT
BRANCH   1   3
ATOM      3  C   UNL     1      18.904  56.787  45.469  1.00  0.00     0.064 C 
ATOM      4  O   UNL     1      20.070  56.319  45.390  1.00  0.00    -0.545 OA
ATOM      5  O   UNL     1      18.238  56.753  46.690  1.00  0.00    -0.545 OA
ENDBRANCH   1   3
BRANCH   2   6
ATOM      6  C   UNL     1      16.228  57.905  42.920  1.00  0.00    -0.026 A 
ATOM      7  C   UNL     1      14.893  58.318  43.084  1.00  0.00     0.008 A 
ATOM      8  C   UNL     1      16.825  58.043  41.647  1.00  0.00     0.008 A 
ATOM      9  C   UNL     1      14.172  58.852  42.012  1.00  0.00     0.001 A 
ATOM     10  C   UNL     1      16.098  58.578  40.578  1.00  0.00     0.001 A 
ATOM     11  C   UNL     1      14.774  58.982  40.759  1.00  0.00     0.000 A 
ENDBRANCH   2   6
TORSDOF 2
ENDMDL
MODEL 6
REMARK VINA RESULT:    -4.275     11.021     12.532
REMARK INTER + INTRA:          -4.901
REMARK INTER:                  -4.772
REMARK INTRA:                  -0.129
REMARK UNBOUND:                -0.127
REMARK SMILES O=C([O-])C=Cc1ccccc1
REMARK SMILES IDX 4 1 5 2 2 3 1 4 3 5 6 6 7 7 11 8 8 9 10 10 9 11
REMARK H PARENT
REMARK Flexibility Score: inf
ROOT
ATOM      1  C   UNL     1       7.996  48.617  46.008  1.00  0.00     0.025 C 
ATOM      2  C   UNL     1       7.662  48.365  47.282  1.00  0.00     0.010 C 
ENDROOT
BRANCH   1   3
ATOM      3  C   UNL     1       7.123  49.396  45.116  1.00  0.00     0.064 C 
ATOM      4  O   UNL     1       5.875  49.345  45.269  1.00  0.00    -0.545 OA
ATOM      5  O   UNL     1       7.654  50.190  44.105  1.00  0.00    -0.545 OA
ENDBRANCH   1   3
BRANCH   2   6
ATOM      6  C   UNL     1       8.492  47.588  48.241  1.00  0.00    -0.026 A 
ATOM      7  C   UNL     1       8.073  46.288  48.580  1.00  0.00     0.008 A 
ATOM      8  C   UNL     1       9.677  48.088  48.826  1.00  0.00     0.008 A 
ATOM      9  C   UNL     1       8.811  45.509  49.475  1.00  0.00     0.001 A 
ATOM     10  C   UNL     1      10.411  47.303  49.721  1.00  0.00     0.001 A 
ATOM     11  C   UNL     1       9.979  46.015  50.046  1.00  0.00     0.000 A 
ENDBRANCH   2   6
TORSDOF 2
ENDMDL
MODEL 7
REMARK VINA RESULT:    -4.212      4.755      6.277
REMARK INTER + INTRA:          -4.831
REMARK INTER:                  -4.704
REMARK INTRA:                  -0.128
REMARK UNBOUND:                -0.127
REMARK SMILES O=C([O-])C=Cc1ccccc1
REMARK SMILES IDX 4 1 5 2 2 3 1 4 3 5 6 6 7 7 11 8 8 9 10 10 9 11
REMARK H PARENT
REMARK Flexibility Score: inf
ROOT
ATOM      1  C   UNL     1      15.972  48.501  53.515  1.00  0.00     0.025 C 
ATOM      2  C   UNL     1      16.321  49.365  52.550  1.00  0.00     0.010 C 
ENDROOT
BRANCH   1   3
ATOM      3  C   UNL     1      16.271  47.064  53.414  1.00  0.00     0.064 C 
ATOM      4  O   UNL     1      15.444  46.225  53.859  1.00  0.00    -0.545 OA
ATOM      5  O   UNL     1      17.451  46.614  52.833  1.00  0.00    -0.545 OA
ENDBRANCH   1   3
BRANCH   2   6
ATOM      6  C   UNL     1      16.054  50.829  52.583  1.00  0.00    -0.026 A 
ATOM      7  C   UNL     1      17.035  51.670  53.139  1.00  0.00     0.008 A 
ATOM      8  C   UNL     1      14.868  51.413  52.083  1.00  0.00     0.008 A 
ATOM      9  C   UNL     1      16.841  53.053  53.199  1.00  0.00     0.001 A 
ATOM     10  C   UNL     1      14.681  52.798  52.146  1.00  0.00     0.001 A 
ATOM     11  C   UNL     1      15.666  53.617  52.702  1.00  0.00     0.000 A 
ENDBRANCH   2   6
TORSDOF 2
ENDMDL
MODEL 8
REMARK VINA RESULT:    -4.157      4.630      6.307
REMARK INTER + INTRA:          -4.770
REMARK INTER:                  -4.631
REMARK INTRA:                  -0.139
REMARK UNBOUND:                -0.127
REMARK SMILES O=C([O-])C=Cc1ccccc1
REMARK SMILES IDX 4 1 5 2 2 3 1 4 3 5 6 6 7 7 11 8 8 9 10 10 9 11
REMARK H PARENT
REMARK Flexibility Score: inf
ROOT
ATOM      1  C   UNL     1      16.143  48.455  53.172  1.00  0.00     0.025 C 
ATOM      2  C   UNL     1      16.862  49.509  52.758  1.00  0.00     0.010 C 
ENDROOT
BRANCH   1   3
ATOM      3  C   UNL     1      16.692  47.090  53.163  1.00  0.00     0.064 C 
ATOM      4  O   UNL     1      17.871  46.897  52.767  1.00  0.00    -0.545 OA
ATOM      5  O   UNL     1      15.930  46.006  53.587  1.00  0.00    -0.545 OA
ENDBRANCH   1   3
BRANCH   2   6
ATOM      6  C   UNL     1      16.375  50.915  52.739  1.00  0.00    -0.026 A 
ATOM      7  C   UNL     1      15.144  51.182  52.113  1.00  0.00     0.008 A 
ATOM      8  C   UNL     1      17.085  51.991  53.318  1.00  0.00     0.008 A 
ATOM      9  C   UNL     1      14.635  52.483  52.062  1.00  0.00     0.001 A 
ATOM     10  C   UNL     1      16.570  53.290  53.264  1.00  0.00     0.001 A 
ATOM     11  C   UNL     1      15.347  53.536  52.637  1.00  0.00     0.000 A 
ENDBRANCH   2   6
TORSDOF 2
ENDMDL
MODEL 9
REMARK VINA RESULT:    -4.147      3.837      5.160
REMARK INTER + INTRA:          -4.758
REMARK INTER:                  -4.629
REMARK INTRA:                  -0.130
REMARK UNBOUND:                -0.127
REMARK SMILES O=C([O-])C=Cc1ccccc1
REMARK SMILES IDX 4 1 5 2 2 3 1 4 3 5 6 6 7 7 11 8 8 9 10 10 9 11
REMARK H PARENT
REMARK Flexibility Score: inf
ROOT
ATOM      1  C   UNL     1      16.534  50.850  52.759  1.00  0.00     0.025 C 
ATOM      2  C   UNL     1      17.094  49.906  53.529  1.00  0.00     0.010 C 
ENDROOT
BRANCH   1   3
ATOM      3  C   UNL     1      17.013  52.241  52.764  1.00  0.00     0.064 C 
ATOM      4  O   UNL     1      17.638  52.679  53.765  1.00  0.00    -0.545 OA
ATOM      5  O   UNL     1      16.789  53.082  51.680  1.00  0.00    -0.545 OA
ENDBRANCH   1   3
BRANCH   2   6
ATOM      6  C   UNL     1      16.665  48.482  53.576  1.00  0.00    -0.026 A 
ATOM      7  C   UNL     1      17.426  47.535  52.866  1.00  0.00     0.008 A 
ATOM      8  C   UNL     1      15.534  48.035  54.297  1.00  0.00     0.008 A 
ATOM      9  C   UNL     1      17.072  46.183  52.872  1.00  0.00     0.001 A 
ATOM     10  C   UNL     1      15.186  46.681  54.298  1.00  0.00     0.001 A 
ATOM     11  C   UNL     1      15.953  45.756  53.588  1.00  0.00     0.000 A 
ENDBRANCH   2   6
TORSDOF 2
ENDMDL
