MODEL 1
REMARK VINA RESULT:    -4.420      0.000      0.000
REMARK INTER + INTRA:          -6.580
REMARK INTER:                  -6.100
REMARK INTRA:                  -0.480
REMARK UNBOUND:                -0.480
REMARK SMILES C=C(CC[C@H](C(=O)[O-])[C@@H]1CC[C@@]2(C)C3=C(CC[C@@]12C)[C@]1(C)CC[C@H](O)C(C)(C)[C@H]1CC3)C(C)C
REMARK SMILES IDX 4 1 5 2 6 3 7 4 8 5 9 6 10 7 18 8 11 9 12 10 17 11 19 12
REMARK SMILES IDX 13 13 14 14 16 15 15 16 31 17 20 18 30 19 29 20 22 21 21 22
REMARK SMILES IDX 26 23 23 24 24 25 27 26 28 27 25 28 3 30 2 31 1 32 32 33
REMARK SMILES IDX 33 34 34 35
REMARK H PARENT 25 29
REMARK Flexibility Score: inf
ROOT
ATOM      1  C   UNL     1       7.060 -56.009 567.707  1.00  0.00     0.014 C 
ENDROOT
BRANCH   1   2
ATOM      2  C   UNL     1       7.741 -56.441 569.030  1.00  0.00     0.039 C 
BRANCH   2   3
ATOM      3  C   UNL     1       8.047 -57.925 569.069  1.00  0.00     0.045 C 
ATOM      4  O   UNL     1       9.080 -58.397 568.524  1.00  0.00    -0.550 OA
ATOM      5  O   UNL     1       7.218 -58.778 569.785  1.00  0.00    -0.550 OA
ENDBRANCH   2   3
BRANCH   2   6
ATOM      6  C   UNL     1       7.057 -55.839 570.312  1.00  0.00     0.004 C 
ATOM      7  C   UNL     1       6.544 -54.403 570.094  1.00  0.00     0.006 C 
ATOM      8  C   UNL     1       7.744 -55.850 571.744  1.00  0.00    -0.020 C 
ATOM      9  C   UNL     1       6.622 -53.710 571.442  1.00  0.00     0.012 C 
ATOM     10  C   UNL     1       7.821 -54.337 572.173  1.00  0.00    -0.006 C 
ATOM     11  C   UNL     1       6.783 -56.596 572.707  1.00  0.00     0.012 C 
ATOM     12  C   UNL     1       9.125 -56.560 571.823  1.00  0.00     0.012 C 
ATOM     13  C   UNL     1       9.125 -53.674 571.631  1.00  0.00     0.017 C 
ATOM     14  C   UNL     1       7.702 -54.060 573.702  1.00  0.00    -0.064 C 
ATOM     15  C   UNL     1       7.211 -56.483 574.158  1.00  0.00     0.032 C 
ATOM     16  C   UNL     1       7.359 -55.038 574.611  1.00  0.00    -0.064 C 
ATOM     17  C   UNL     1       7.779 -52.586 574.123  1.00  0.00     0.032 C 
ATOM     18  C   UNL     1       7.397 -54.751 576.137  1.00  0.00    -0.008 C 
ATOM     19  C   UNL     1       7.783 -52.296 575.625  1.00  0.00     0.009 C 
ATOM     20  C   UNL     1       6.879 -53.284 576.372  1.00  0.00     0.007 C 
ATOM     21  C   UNL     1       6.471 -55.729 576.921  1.00  0.00     0.014 C 
ATOM     22  C   UNL     1       8.869 -55.003 576.566  1.00  0.00     0.016 C 
ATOM     23  C   UNL     1       6.523 -52.850 577.854  1.00  0.00    -0.006 C 
ATOM     24  C   UNL     1       6.276 -55.348 578.392  1.00  0.00     0.033 C 
ATOM     25  C   UNL     1       5.651 -53.954 578.534  1.00  0.00     0.120 C 
ATOM     26  C   UNL     1       5.686 -51.538 577.828  1.00  0.00     0.014 C 
ATOM     27  C   UNL     1       7.765 -52.546 578.735  1.00  0.00     0.014 C 
BRANCH  25  28
ATOM     28  O   UNL     1       4.358 -53.966 577.975  1.00  0.00    -0.393 OA
ATOM     29  H   UNL     1       4.435 -54.368 577.069  1.00  0.00     0.210 HD
ENDBRANCH  25  28
ENDBRANCH   2   6
ENDBRANCH   1   2
BRANCH   1  30
ATOM     30  C   UNL     1       6.791 -57.201 566.774  1.00  0.00     0.031 C 
BRANCH  30  31
ATOM     31  C   UNL     1       7.718 -57.170 565.578  1.00  0.00    -0.075 C 
ATOM     32  C   UNL     1       8.223 -55.992 565.161  1.00  0.00     0.008 C 
BRANCH  31  33
ATOM     33  C   UNL     1       8.064 -58.469 564.861  1.00  0.00     0.008 C 
ATOM     34  C   UNL     1       8.450 -58.219 563.397  1.00  0.00     0.012 C 
ATOM     35  C   UNL     1       6.916 -59.482 564.966  1.00  0.00     0.012 C 
ENDBRANCH  31  33
ENDBRANCH  30  31
ENDBRANCH   1  30
TORSDOF 7
ENDMDL
