MODEL 1
REMARK VINA RESULT:    -5.277      0.000      0.000
REMARK INTER + INTRA:         -10.921
REMARK INTER:                  -9.903
REMARK INTRA:                  -1.018
REMARK UNBOUND:                -1.018
REMARK SMILES O=C([O-])CCCCCCCCCCCCCCC(=O)[O-]
REMARK SMILES IDX 10 1 9 2 8 3 7 4 6 5 5 6 4 7 2 8 1 9 3 10 11 11 12 12 13 13
REMARK SMILES IDX 14 14 15 15 16 16 17 17 18 18 19 19 20 20
REMARK H PARENT
REMARK Flexibility Score: inf
ROOT
ATOM      1  C   UNL     1      -0.235   5.574  17.603  1.00  0.00     0.000 C 
ENDROOT
BRANCH   1   2
ATOM      2  C   UNL     1       0.924   6.338  16.939  1.00  0.00     0.000 C 
BRANCH   2   3
ATOM      3  C   UNL     1       0.753   7.863  17.010  1.00  0.00     0.000 C 
BRANCH   3   4
ATOM      4  C   UNL     1       1.527   8.449  18.197  1.00  0.00     0.000 C 
BRANCH   4   5
ATOM      5  C   UNL     1       0.636   8.539  19.444  1.00  0.00     0.000 C 
BRANCH   5   6
ATOM      6  C   UNL     1       1.004   7.496  20.511  1.00  0.00     0.006 C 
BRANCH   6   7
ATOM      7  C   UNL     1      -0.229   6.818  21.125  1.00  0.00     0.053 C 
BRANCH   7   8
ATOM      8  C   UNL     1      -0.050   6.650  22.600  1.00  0.00     0.041 C 
ATOM      9  O   UNL     1      -1.053   6.597  23.359  1.00  0.00    -0.550 OA
ATOM     10  O   UNL     1       1.225   6.504  23.134  1.00  0.00    -0.550 OA
ENDBRANCH   7   8
ENDBRANCH   6   7
ENDBRANCH   5   6
ENDBRANCH   4   5
ENDBRANCH   3   4
ENDBRANCH   2   3
ENDBRANCH   1   2
BRANCH   1  11
ATOM     11  C   UNL     1      -1.225   4.909  16.625  1.00  0.00     0.000 C 
BRANCH  11  12
ATOM     12  C   UNL     1      -1.278   3.373  16.693  1.00  0.00     0.000 C 
BRANCH  12  13
ATOM     13  C   UNL     1      -2.696   2.814  16.512  1.00  0.00     0.000 C 
BRANCH  13  14
ATOM     14  C   UNL     1      -3.691   3.936  16.196  1.00  0.00     0.000 C 
BRANCH  14  15
ATOM     15  C   UNL     1      -5.111   3.381  16.023  1.00  0.00     0.000 C 
BRANCH  15  16
ATOM     16  C   UNL     1      -6.134   4.517  15.900  1.00  0.00     0.006 C 
BRANCH  16  17
ATOM     17  C   UNL     1      -5.783   5.677  16.837  1.00  0.00     0.053 C 
BRANCH  17  18
ATOM     18  C   UNL     1      -6.336   6.962  16.308  1.00  0.00     0.041 C 
ATOM     19  O   UNL     1      -6.979   6.977  15.226  1.00  0.00    -0.550 OA
ATOM     20  O   UNL     1      -6.101   8.151  16.987  1.00  0.00    -0.550 OA
ENDBRANCH  17  18
ENDBRANCH  16  17
ENDBRANCH  15  16
ENDBRANCH  14  15
ENDBRANCH  13  14
ENDBRANCH  12  13
ENDBRANCH  11  12
ENDBRANCH   1  11
TORSDOF 15
ENDMDL
MODEL 2
REMARK VINA RESULT:    -5.124      1.254      2.386
REMARK INTER + INTRA:         -10.635
REMARK INTER:                  -9.409
REMARK INTRA:                  -1.227
REMARK UNBOUND:                -1.018
REMARK SMILES O=C([O-])CCCCCCCCCCCCCCC(=O)[O-]
REMARK SMILES IDX 10 1 9 2 8 3 7 4 6 5 5 6 4 7 2 8 1 9 3 10 11 11 12 12 13 13
REMARK SMILES IDX 14 14 15 15 16 16 17 17 18 18 19 19 20 20
REMARK H PARENT
REMARK Flexibility Score: inf
ROOT
ATOM      1  C   UNL     1      -2.532   4.999  15.746  1.00  0.00     0.000 C 
ENDROOT
BRANCH   1   2
ATOM      2  C   UNL     1      -1.322   4.544  16.580  1.00  0.00     0.000 C 
BRANCH   2   3
ATOM      3  C   UNL     1      -0.286   5.660  16.787  1.00  0.00     0.000 C 
BRANCH   3   4
ATOM      4  C   UNL     1      -0.167   6.030  18.271  1.00  0.00     0.000 C 
BRANCH   4   5
ATOM      5  C   UNL     1       0.533   7.385  18.446  1.00  0.00     0.000 C 
BRANCH   5   6
ATOM      6  C   UNL     1       0.550   7.858  19.907  1.00  0.00     0.006 C 
BRANCH   6   7
ATOM      7  C   UNL     1      -0.113   6.856  20.861  1.00  0.00     0.053 C 
BRANCH   7   8
ATOM      8  C   UNL     1       0.726   6.669  22.086  1.00  0.00     0.041 C 
ATOM      9  O   UNL     1       1.966   6.884  22.043  1.00  0.00    -0.550 OA
ATOM     10  O   UNL     1       0.132   6.305  23.288  1.00  0.00    -0.550 OA
ENDBRANCH   7   8
ENDBRANCH   6   7
ENDBRANCH   5   6
ENDBRANCH   4   5
ENDBRANCH   3   4
ENDBRANCH   2   3
ENDBRANCH   1   2
BRANCH   1  11
ATOM     11  C   UNL     1      -3.789   5.364  16.563  1.00  0.00     0.000 C 
BRANCH  11  12
ATOM     12  C   UNL     1      -4.825   4.235  16.707  1.00  0.00     0.000 C 
BRANCH  12  13
ATOM     13  C   UNL     1      -5.055   3.464  15.399  1.00  0.00     0.000 C 
BRANCH  13  14
ATOM     14  C   UNL     1      -5.899   4.285  14.418  1.00  0.00     0.000 C 
BRANCH  14  15
ATOM     15  C   UNL     1      -7.134   4.873  15.112  1.00  0.00     0.000 C 
BRANCH  15  16
ATOM     16  C   UNL     1      -7.267   6.373  14.821  1.00  0.00     0.006 C 
BRANCH  16  17
ATOM     17  C   UNL     1      -7.915   7.106  16.000  1.00  0.00     0.053 C 
BRANCH  17  18
ATOM     18  C   UNL     1      -6.880   7.485  17.012  1.00  0.00     0.041 C 
ATOM     19  O   UNL     1      -5.920   8.231  16.688  1.00  0.00    -0.550 OA
ATOM     20  O   UNL     1      -6.951   6.975  18.303  1.00  0.00    -0.550 OA
ENDBRANCH  17  18
ENDBRANCH  16  17
ENDBRANCH  15  16
ENDBRANCH  14  15
ENDBRANCH  13  14
ENDBRANCH  12  13
ENDBRANCH  11  12
ENDBRANCH   1  11
TORSDOF 15
ENDMDL
MODEL 3
REMARK VINA RESULT:    -5.102      0.714      7.638
REMARK INTER + INTRA:         -10.594
REMARK INTER:                  -9.692
REMARK INTRA:                  -0.902
REMARK UNBOUND:                -1.018
REMARK SMILES O=C([O-])CCCCCCCCCCCCCCC(=O)[O-]
REMARK SMILES IDX 10 1 9 2 8 3 7 4 6 5 5 6 4 7 2 8 1 9 3 10 11 11 12 12 13 13
REMARK SMILES IDX 14 14 15 15 16 16 17 17 18 18 19 19 20 20
REMARK H PARENT
REMARK Flexibility Score: inf
ROOT
ATOM      1  C   UNL     1      -0.852   4.780  16.339  1.00  0.00     0.000 C 
ENDROOT
BRANCH   1   2
ATOM      2  C   UNL     1      -1.257   3.472  17.039  1.00  0.00     0.000 C 
BRANCH   2   3
ATOM      3  C   UNL     1      -2.382   2.726  16.308  1.00  0.00     0.000 C 
BRANCH   3   4
ATOM      4  C   UNL     1      -3.294   3.705  15.557  1.00  0.00     0.000 C 
BRANCH   4   5
ATOM      5  C   UNL     1      -4.773   3.352  15.769  1.00  0.00     0.000 C 
BRANCH   5   6
ATOM      6  C   UNL     1      -5.712   4.178  14.877  1.00  0.00     0.006 C 
BRANCH   6   7
ATOM      7  C   UNL     1      -6.623   5.114  15.683  1.00  0.00     0.053 C 
BRANCH   7   8
ATOM      8  C   UNL     1      -5.871   6.336  16.106  1.00  0.00     0.041 C 
ATOM      9  O   UNL     1      -5.259   7.031  15.252  1.00  0.00    -0.550 OA
ATOM     10  O   UNL     1      -5.884   6.735  17.437  1.00  0.00    -0.550 OA
ENDBRANCH   7   8
ENDBRANCH   6   7
ENDBRANCH   5   6
ENDBRANCH   4   5
ENDBRANCH   3   4
ENDBRANCH   2   3
ENDBRANCH   1   2
BRANCH   1  11
ATOM     11  C   UNL     1      -0.130   5.806  17.236  1.00  0.00     0.000 C 
BRANCH  11  12
ATOM     12  C   UNL     1       1.009   6.584  16.553  1.00  0.00     0.000 C 
BRANCH  12  13
ATOM     13  C   UNL     1       0.899   8.102  16.751  1.00  0.00     0.000 C 
BRANCH  13  14
ATOM     14  C   UNL     1       1.564   8.534  18.062  1.00  0.00     0.000 C 
BRANCH  14  15
ATOM     15  C   UNL     1       0.549   8.566  19.211  1.00  0.00     0.000 C 
BRANCH  15  16
ATOM     16  C   UNL     1       1.073   7.796  20.430  1.00  0.00     0.006 C 
BRANCH  16  17
ATOM     17  C   UNL     1       0.034   6.790  20.932  1.00  0.00     0.053 C 
BRANCH  17  18
ATOM     18  C   UNL     1       0.108   6.661  22.421  1.00  0.00     0.041 C 
ATOM     19  O   UNL     1      -0.938   6.735  23.117  1.00  0.00    -0.550 OA
ATOM     20  O   UNL     1       1.341   6.506  23.044  1.00  0.00    -0.550 OA
ENDBRANCH  17  18
ENDBRANCH  16  17
ENDBRANCH  15  16
ENDBRANCH  14  15
ENDBRANCH  13  14
ENDBRANCH  12  13
ENDBRANCH  11  12
ENDBRANCH   1  11
TORSDOF 15
ENDMDL
MODEL 4
REMARK VINA RESULT:    -5.057      2.225      7.932
REMARK INTER + INTRA:         -10.509
REMARK INTER:                  -8.838
REMARK INTRA:                  -1.671
REMARK UNBOUND:                -1.018
REMARK SMILES O=C([O-])CCCCCCCCCCCCCCC(=O)[O-]
REMARK SMILES IDX 10 1 9 2 8 3 7 4 6 5 5 6 4 7 2 8 1 9 3 10 11 11 12 12 13 13
REMARK SMILES IDX 14 14 15 15 16 16 17 17 18 18 19 19 20 20
REMARK H PARENT
REMARK Flexibility Score: inf
ROOT
ATOM      1  C   UNL     1      -5.510   4.336  16.868  1.00  0.00     0.000 C 
ENDROOT
BRANCH   1   2
ATOM      2  C   UNL     1      -4.866   5.733  16.847  1.00  0.00     0.000 C 
BRANCH   2   3
ATOM      3  C   UNL     1      -5.757   6.792  16.181  1.00  0.00     0.000 C 
BRANCH   3   4
ATOM      4  C   UNL     1      -7.231   6.370  16.213  1.00  0.00     0.000 C 
BRANCH   4   5
ATOM      5  C   UNL     1      -7.833   6.368  14.801  1.00  0.00     0.000 C 
BRANCH   5   6
ATOM      6  C   UNL     1      -7.864   4.966  14.173  1.00  0.00     0.006 C 
BRANCH   6   7
ATOM      7  C   UNL     1      -7.244   4.934  12.769  1.00  0.00     0.053 C 
BRANCH   7   8
ATOM      8  C   UNL     1      -5.763   4.745  12.859  1.00  0.00     0.041 C 
ATOM      9  O   UNL     1      -5.268   3.587  12.829  1.00  0.00    -0.550 OA
ATOM     10  O   UNL     1      -4.923   5.851  12.927  1.00  0.00    -0.550 OA
ENDBRANCH   7   8
ENDBRANCH   6   7
ENDBRANCH   5   6
ENDBRANCH   4   5
ENDBRANCH   3   4
ENDBRANCH   2   3
ENDBRANCH   1   2
BRANCH   1  11
ATOM     11  C   UNL     1      -4.627   3.200  16.313  1.00  0.00     0.000 C 
BRANCH  11  12
ATOM     12  C   UNL     1      -3.206   3.622  15.896  1.00  0.00     0.000 C 
BRANCH  12  13
ATOM     13  C   UNL     1      -2.111   2.807  16.597  1.00  0.00     0.000 C 
BRANCH  13  14
ATOM     14  C   UNL     1      -0.910   3.690  16.951  1.00  0.00     0.000 C 
BRANCH  14  15
ATOM     15  C   UNL     1      -1.198   5.163  16.637  1.00  0.00     0.000 C 
BRANCH  15  16
ATOM     16  C   UNL     1      -0.189   6.082  17.338  1.00  0.00     0.006 C 
BRANCH  16  17
ATOM     17  C   UNL     1      -0.137   5.796  18.842  1.00  0.00     0.053 C 
BRANCH  17  18
ATOM     18  C   UNL     1       0.243   7.031  19.596  1.00  0.00     0.041 C 
ATOM     19  O   UNL     1       0.145   7.062  20.850  1.00  0.00    -0.550 OA
ATOM     20  O   UNL     1       0.662   8.163  18.909  1.00  0.00    -0.550 OA
ENDBRANCH  17  18
ENDBRANCH  16  17
ENDBRANCH  15  16
ENDBRANCH  14  15
ENDBRANCH  13  14
ENDBRANCH  12  13
ENDBRANCH  11  12
ENDBRANCH   1  11
TORSDOF 15
ENDMDL
MODEL 5
REMARK VINA RESULT:    -4.954      1.937      3.202
REMARK INTER + INTRA:         -10.317
REMARK INTER:                  -9.176
REMARK INTRA:                  -1.141
REMARK UNBOUND:                -1.018
REMARK SMILES O=C([O-])CCCCCCCCCCCCCCC(=O)[O-]
REMARK SMILES IDX 10 1 9 2 8 3 7 4 6 5 5 6 4 7 2 8 1 9 3 10 11 11 12 12 13 13
REMARK SMILES IDX 14 14 15 15 16 16 17 17 18 18 19 19 20 20
REMARK H PARENT
REMARK Flexibility Score: inf
ROOT
ATOM      1  C   UNL     1      -2.363   3.478  15.776  1.00  0.00     0.000 C 
ENDROOT
BRANCH   1   2
ATOM      2  C   UNL     1      -1.203   3.809  16.730  1.00  0.00     0.000 C 
BRANCH   2   3
ATOM      3  C   UNL     1      -1.021   5.319  16.947  1.00  0.00     0.000 C 
BRANCH   3   4
ATOM      4  C   UNL     1      -0.127   5.595  18.163  1.00  0.00     0.000 C 
BRANCH   4   5
ATOM      5  C   UNL     1       0.363   7.050  18.165  1.00  0.00     0.000 C 
BRANCH   5   6
ATOM      6  C   UNL     1       0.566   7.604  19.584  1.00  0.00     0.006 C 
BRANCH   6   7
ATOM      7  C   UNL     1      -0.135   6.758  20.655  1.00  0.00     0.053 C 
BRANCH   7   8
ATOM      8  C   UNL     1       0.657   6.764  21.924  1.00  0.00     0.041 C 
ATOM      9  O   UNL     1       0.086   6.565  23.029  1.00  0.00    -0.550 OA
ATOM     10  O   UNL     1       2.034   6.942  21.883  1.00  0.00    -0.550 OA
ENDBRANCH   7   8
ENDBRANCH   6   7
ENDBRANCH   5   6
ENDBRANCH   4   5
ENDBRANCH   3   4
ENDBRANCH   2   3
ENDBRANCH   1   2
BRANCH   1  11
ATOM     11  C   UNL     1      -3.401   4.604  15.591  1.00  0.00     0.000 C 
BRANCH  11  12
ATOM     12  C   UNL     1      -4.562   4.594  16.602  1.00  0.00     0.000 C 
BRANCH  12  13
ATOM     13  C   UNL     1      -4.971   6.002  17.056  1.00  0.00     0.000 C 
BRANCH  13  14
ATOM     14  C   UNL     1      -6.481   6.214  16.897  1.00  0.00     0.000 C 
BRANCH  14  15
ATOM     15  C   UNL     1      -6.789   7.099  15.684  1.00  0.00     0.000 C 
BRANCH  15  16
ATOM     16  C   UNL     1      -7.381   6.272  14.536  1.00  0.00     0.006 C 
BRANCH  16  17
ATOM     17  C   UNL     1      -6.321   5.974  13.470  1.00  0.00     0.053 C 
BRANCH  17  18
ATOM     18  C   UNL     1      -6.486   4.583  12.943  1.00  0.00     0.041 C 
ATOM     19  O   UNL     1      -7.618   4.178  12.569  1.00  0.00    -0.550 OA
ATOM     20  O   UNL     1      -5.399   3.719  12.910  1.00  0.00    -0.550 OA
ENDBRANCH  17  18
ENDBRANCH  16  17
ENDBRANCH  15  16
ENDBRANCH  14  15
ENDBRANCH  13  14
ENDBRANCH  12  13
ENDBRANCH  11  12
ENDBRANCH   1  11
TORSDOF 15
ENDMDL
MODEL 6
REMARK VINA RESULT:    -4.941      1.312      7.810
REMARK INTER + INTRA:         -10.292
REMARK INTER:                  -9.266
REMARK INTRA:                  -1.026
REMARK UNBOUND:                -1.018
REMARK SMILES O=C([O-])CCCCCCCCCCCCCCC(=O)[O-]
REMARK SMILES IDX 10 1 9 2 8 3 7 4 6 5 5 6 4 7 2 8 1 9 3 10 11 11 12 12 13 13
REMARK SMILES IDX 14 14 15 15 16 16 17 17 18 18 19 19 20 20
REMARK H PARENT
REMARK Flexibility Score: inf
ROOT
ATOM      1  C   UNL     1      -3.008   3.266  16.000  1.00  0.00     0.000 C 
ENDROOT
BRANCH   1   2
ATOM      2  C   UNL     1      -4.424   3.514  15.454  1.00  0.00     0.000 C 
BRANCH   2   3
ATOM      3  C   UNL     1      -5.452   3.788  16.562  1.00  0.00     0.000 C 
BRANCH   3   4
ATOM      4  C   UNL     1      -5.745   5.289  16.681  1.00  0.00     0.000 C 
BRANCH   4   5
ATOM      5  C   UNL     1      -6.956   5.683  15.823  1.00  0.00     0.000 C 
BRANCH   5   6
ATOM      6  C   UNL     1      -6.562   6.503  14.585  1.00  0.00     0.006 C 
BRANCH   6   7
ATOM      7  C   UNL     1      -5.200   7.193  14.741  1.00  0.00     0.053 C 
BRANCH   7   8
ATOM      8  C   UNL     1      -5.384   8.638  15.078  1.00  0.00     0.041 C 
ATOM      9  O   UNL     1      -5.207   9.522  14.198  1.00  0.00    -0.550 OA
ATOM     10  O   UNL     1      -5.798   9.008  16.352  1.00  0.00    -0.550 OA
ENDBRANCH   7   8
ENDBRANCH   6   7
ENDBRANCH   5   6
ENDBRANCH   4   5
ENDBRANCH   3   4
ENDBRANCH   2   3
ENDBRANCH   1   2
BRANCH   1  11
ATOM     11  C   UNL     1      -2.088   4.505  16.018  1.00  0.00     0.000 C 
BRANCH  11  12
ATOM     12  C   UNL     1      -0.774   4.331  16.801  1.00  0.00     0.000 C 
BRANCH  12  13
ATOM     13  C   UNL     1      -0.038   5.657  17.037  1.00  0.00     0.000 C 
BRANCH  13  14
ATOM     14  C   UNL     1      -0.199   6.125  18.487  1.00  0.00     0.000 C 
BRANCH  14  15
ATOM     15  C   UNL     1       0.547   7.442  18.727  1.00  0.00     0.000 C 
BRANCH  15  16
ATOM     16  C   UNL     1       0.593   7.784  20.222  1.00  0.00     0.006 C 
BRANCH  16  17
ATOM     17  C   UNL     1      -0.189   6.756  21.045  1.00  0.00     0.053 C 
BRANCH  17  18
ATOM     18  C   UNL     1       0.312   6.723  22.454  1.00  0.00     0.041 C 
ATOM     19  O   UNL     1      -0.499   6.660  23.414  1.00  0.00    -0.550 OA
ATOM     20  O   UNL     1       1.676   6.811  22.709  1.00  0.00    -0.550 OA
ENDBRANCH  17  18
ENDBRANCH  16  17
ENDBRANCH  15  16
ENDBRANCH  14  15
ENDBRANCH  13  14
ENDBRANCH  12  13
ENDBRANCH  11  12
ENDBRANCH   1  11
TORSDOF 15
ENDMDL
MODEL 7
REMARK VINA RESULT:    -4.854      3.770      6.357
REMARK INTER + INTRA:         -10.129
REMARK INTER:                  -8.039
REMARK INTRA:                  -2.090
REMARK UNBOUND:                -1.018
REMARK SMILES O=C([O-])CCCCCCCCCCCCCCC(=O)[O-]
REMARK SMILES IDX 10 1 9 2 8 3 7 4 6 5 5 6 4 7 2 8 1 9 3 10 11 11 12 12 13 13
REMARK SMILES IDX 14 14 15 15 16 16 17 17 18 18 19 19 20 20
REMARK H PARENT
REMARK Flexibility Score: inf
ROOT
ATOM      1  C   UNL     1      -6.003   7.031  15.728  1.00  0.00     0.000 C 
ENDROOT
BRANCH   1   2
ATOM      2  C   UNL     1      -4.960   5.901  15.730  1.00  0.00     0.000 C 
BRANCH   2   3
ATOM      3  C   UNL     1      -5.226   4.843  16.811  1.00  0.00     0.000 C 
BRANCH   3   4
ATOM      4  C   UNL     1      -5.208   3.430  16.215  1.00  0.00     0.000 C 
BRANCH   4   5
ATOM      5  C   UNL     1      -3.986   2.641  16.707  1.00  0.00     0.000 C 
BRANCH   5   6
ATOM      6  C   UNL     1      -2.703   3.000  15.943  1.00  0.00     0.006 C 
BRANCH   6   7
ATOM      7  C   UNL     1      -1.528   3.320  16.877  1.00  0.00     0.053 C 
BRANCH   7   8
ATOM      8  C   UNL     1      -1.015   4.700  16.614  1.00  0.00     0.041 C 
ATOM      9  O   UNL     1      -1.608   5.451  15.795  1.00  0.00    -0.550 OA
ATOM     10  O   UNL     1       0.090   5.177  17.309  1.00  0.00    -0.550 OA
ENDBRANCH   7   8
ENDBRANCH   6   7
ENDBRANCH   5   6
ENDBRANCH   4   5
ENDBRANCH   3   4
ENDBRANCH   2   3
ENDBRANCH   1   2
BRANCH   1  11
ATOM     11  C   UNL     1      -7.368   6.662  16.343  1.00  0.00     0.000 C 
BRANCH  11  12
ATOM     12  C   UNL     1      -8.383   6.048  15.361  1.00  0.00     0.000 C 
BRANCH  12  13
ATOM     13  C   UNL     1      -8.195   6.545  13.921  1.00  0.00     0.000 C 
BRANCH  13  14
ATOM     14  C   UNL     1      -8.359   5.397  12.919  1.00  0.00     0.000 C 
BRANCH  14  15
ATOM     15  C   UNL     1      -7.478   4.202  13.300  1.00  0.00     0.000 C 
BRANCH  15  16
ATOM     16  C   UNL     1      -6.095   4.306  12.644  1.00  0.00     0.006 C 
BRANCH  16  17
ATOM     17  C   UNL     1      -6.178   5.040  11.302  1.00  0.00     0.053 C 
BRANCH  17  18
ATOM     18  C   UNL     1      -5.129   6.103  11.223  1.00  0.00     0.041 C 
ATOM     19  O   UNL     1      -4.302   6.109  10.273  1.00  0.00    -0.550 OA
ATOM     20  O   UNL     1      -5.034   7.062  12.224  1.00  0.00    -0.550 OA
ENDBRANCH  17  18
ENDBRANCH  16  17
ENDBRANCH  15  16
ENDBRANCH  14  15
ENDBRANCH  13  14
ENDBRANCH  12  13
ENDBRANCH  11  12
ENDBRANCH   1  11
TORSDOF 15
ENDMDL
MODEL 8
REMARK VINA RESULT:    -4.833      4.722      8.579
REMARK INTER + INTRA:         -10.089
REMARK INTER:                  -8.216
REMARK INTRA:                  -1.873
REMARK UNBOUND:                -1.018
REMARK SMILES O=C([O-])CCCCCCCCCCCCCCC(=O)[O-]
REMARK SMILES IDX 10 1 9 2 8 3 7 4 6 5 5 6 4 7 2 8 1 9 3 10 11 11 12 12 13 13
REMARK SMILES IDX 14 14 15 15 16 16 17 17 18 18 19 19 20 20
REMARK H PARENT
REMARK Flexibility Score: inf
ROOT
ATOM      1  C   UNL     1      -8.438   5.544  14.419  1.00  0.00     0.000 C 
ENDROOT
BRANCH   1   2
ATOM      2  C   UNL     1      -8.007   4.505  13.370  1.00  0.00     0.000 C 
BRANCH   2   3
ATOM      3  C   UNL     1      -6.535   4.089  13.511  1.00  0.00     0.000 C 
BRANCH   3   4
ATOM      4  C   UNL     1      -5.831   4.088  12.148  1.00  0.00     0.000 C 
BRANCH   4   5
ATOM      5  C   UNL     1      -6.674   4.816  11.092  1.00  0.00     0.000 C 
BRANCH   5   6
ATOM      6  C   UNL     1      -6.160   6.234  10.800  1.00  0.00     0.006 C 
BRANCH   6   7
ATOM      7  C   UNL     1      -4.641   6.280  10.585  1.00  0.00     0.053 C 
BRANCH   7   8
ATOM      8  C   UNL     1      -4.010   7.241  11.543  1.00  0.00     0.041 C 
ATOM      9  O   UNL     1      -4.336   7.231  12.759  1.00  0.00    -0.550 OA
ATOM     10  O   UNL     1      -3.024   8.116  11.102  1.00  0.00    -0.550 OA
ENDBRANCH   7   8
ENDBRANCH   6   7
ENDBRANCH   5   6
ENDBRANCH   4   5
ENDBRANCH   3   4
ENDBRANCH   2   3
ENDBRANCH   1   2
BRANCH   1  11
ATOM     11  C   UNL     1      -7.324   6.502  14.888  1.00  0.00     0.000 C 
BRANCH  11  12
ATOM     12  C   UNL     1      -7.156   6.612  16.414  1.00  0.00     0.000 C 
BRANCH  12  13
ATOM     13  C   UNL     1      -5.690   6.754  16.847  1.00  0.00     0.000 C 
BRANCH  13  14
ATOM     14  C   UNL     1      -4.853   5.573  16.343  1.00  0.00     0.000 C 
BRANCH  14  15
ATOM     15  C   UNL     1      -5.309   4.259  16.988  1.00  0.00     0.000 C 
BRANCH  15  16
ATOM     16  C   UNL     1      -4.296   3.137  16.726  1.00  0.00     0.006 C 
BRANCH  16  17
ATOM     17  C   UNL     1      -3.253   3.569  15.691  1.00  0.00     0.053 C 
BRANCH  17  18
ATOM     18  C   UNL     1      -1.870   3.325  16.209  1.00  0.00     0.041 C 
ATOM     19  O   UNL     1      -1.644   2.354  16.977  1.00  0.00    -0.550 OA
ATOM     20  O   UNL     1      -0.841   4.198  15.880  1.00  0.00    -0.550 OA
ENDBRANCH  17  18
ENDBRANCH  16  17
ENDBRANCH  15  16
ENDBRANCH  14  15
ENDBRANCH  13  14
ENDBRANCH  12  13
ENDBRANCH  11  12
ENDBRANCH   1  11
TORSDOF 15
ENDMDL
MODEL 9
REMARK VINA RESULT:    -4.824      4.454      6.604
REMARK INTER + INTRA:         -10.072
REMARK INTER:                  -8.057
REMARK INTRA:                  -2.015
REMARK UNBOUND:                -1.018
REMARK SMILES O=C([O-])CCCCCCCCCCCCCCC(=O)[O-]
REMARK SMILES IDX 10 1 9 2 8 3 7 4 6 5 5 6 4 7 2 8 1 9 3 10 11 11 12 12 13 13
REMARK SMILES IDX 14 14 15 15 16 16 17 17 18 18 19 19 20 20
REMARK H PARENT
REMARK Flexibility Score: inf
ROOT
ATOM      1  C   UNL     1      -8.037   6.389  15.824  1.00  0.00     0.000 C 
ENDROOT
BRANCH   1   2
ATOM      2  C   UNL     1      -6.610   6.869  16.143  1.00  0.00     0.000 C 
BRANCH   2   3
ATOM      3  C   UNL     1      -5.829   5.880  17.020  1.00  0.00     0.000 C 
BRANCH   3   4
ATOM      4  C   UNL     1      -5.268   4.725  16.181  1.00  0.00     0.000 C 
BRANCH   4   5
ATOM      5  C   UNL     1      -5.200   3.430  17.004  1.00  0.00     0.000 C 
BRANCH   5   6
ATOM      6  C   UNL     1      -3.932   2.612  16.716  1.00  0.00     0.006 C 
BRANCH   6   7
ATOM      7  C   UNL     1      -2.894   3.397  15.903  1.00  0.00     0.053 C 
BRANCH   7   8
ATOM      8  C   UNL     1      -1.573   3.396  16.606  1.00  0.00     0.041 C 
ATOM      9  O   UNL     1      -1.281   2.468  17.406  1.00  0.00    -0.550 OA
ATOM     10  O   UNL     1      -0.643   4.394  16.341  1.00  0.00    -0.550 OA
ENDBRANCH   7   8
ENDBRANCH   6   7
ENDBRANCH   5   6
ENDBRANCH   4   5
ENDBRANCH   3   4
ENDBRANCH   2   3
ENDBRANCH   1   2
BRANCH   1  11
ATOM     11  C   UNL     1      -8.378   6.303  14.322  1.00  0.00     0.000 C 
BRANCH  11  12
ATOM     12  C   UNL     1      -8.576   4.877  13.778  1.00  0.00     0.000 C 
BRANCH  12  13
ATOM     13  C   UNL     1      -7.277   4.252  13.249  1.00  0.00     0.000 C 
BRANCH  13  14
ATOM     14  C   UNL     1      -7.124   4.497  11.744  1.00  0.00     0.000 C 
BRANCH  14  15
ATOM     15  C   UNL     1      -5.883   5.348  11.447  1.00  0.00     0.000 C 
BRANCH  15  16
ATOM     16  C   UNL     1      -5.076   5.608  12.725  1.00  0.00     0.006 C 
BRANCH  16  17
ATOM     17  C   UNL     1      -4.798   7.104  12.904  1.00  0.00     0.053 C 
BRANCH  17  18
ATOM     18  C   UNL     1      -3.380   7.325  13.329  1.00  0.00     0.041 C 
ATOM     19  O   UNL     1      -2.641   8.112  12.682  1.00  0.00    -0.550 OA
ATOM     20  O   UNL     1      -2.862   6.625  14.412  1.00  0.00    -0.550 OA
ENDBRANCH  17  18
ENDBRANCH  16  17
ENDBRANCH  15  16
ENDBRANCH  14  15
ENDBRANCH  13  14
ENDBRANCH  12  13
ENDBRANCH  11  12
ENDBRANCH   1  11
TORSDOF 15
ENDMDL
