MODEL 1
REMARK VINA RESULT:     0.532      0.000      0.000
REMARK INTER + INTRA:           0.022
REMARK INTER:                   0.968
REMARK INTRA:                  -0.945
REMARK UNBOUND:                -0.945
REMARK SMILES CCCCCCCCCCCCCCCC(=O)[O-]
REMARK SMILES IDX 9 1 10 2 11 3 12 4 13 5 14 6 15 7 16 8 17 9 18 10 8 11 7 12
REMARK SMILES IDX 6 13 5 14 4 15 3 16 2 17 1 18
REMARK H PARENT
REMARK Flexibility Score: inf
ROOT
ATOM      1  C   UNL     1      92.440  17.298 120.618  1.00  0.00     0.000 C 
ENDROOT
BRANCH   1   2
ATOM      2  C   UNL     1      91.244  18.225 120.905  1.00  0.00     0.000 C 
BRANCH   2   3
ATOM      3  C   UNL     1      89.910  17.787 120.269  1.00  0.00     0.000 C 
BRANCH   3   4
ATOM      4  C   UNL     1      88.883  18.914 120.063  1.00  0.00     0.000 C 
BRANCH   4   5
ATOM      5  C   UNL     1      87.771  18.909 121.122  1.00  0.00     0.000 C 
BRANCH   5   6
ATOM      6  C   UNL     1      86.707  17.854 120.795  1.00  0.00     0.006 C 
BRANCH   6   7
ATOM      7  C   UNL     1      85.297  18.410 121.018  1.00  0.00     0.053 C 
BRANCH   7   8
ATOM      8  C   UNL     1      84.269  17.370 120.702  1.00  0.00     0.041 C 
ATOM      9  O   UNL     1      83.045  17.621 120.864  1.00  0.00    -0.550 OA
ATOM     10  O   UNL     1      84.657  16.142 120.184  1.00  0.00    -0.550 OA
ENDBRANCH   7   8
ENDBRANCH   6   7
ENDBRANCH   5   6
ENDBRANCH   4   5
ENDBRANCH   3   4
ENDBRANCH   2   3
ENDBRANCH   1   2
BRANCH   1  11
ATOM     11  C   UNL     1      92.602  16.979 119.124  1.00  0.00     0.000 C 
BRANCH  11  12
ATOM     12  C   UNL     1      93.404  15.688 118.924  1.00  0.00    -0.000 C 
BRANCH  12  13
ATOM     13  C   UNL     1      93.458  14.865 120.219  1.00  0.00    -0.000 C 
BRANCH  13  14
ATOM     14  C   UNL     1      94.891  14.646 120.731  1.00  0.00    -0.000 C 
BRANCH  14  15
ATOM     15  C   UNL     1      95.918  15.632 120.136  1.00  0.00    -0.000 C 
BRANCH  15  16
ATOM     16  C   UNL     1      96.289  16.751 121.123  1.00  0.00    -0.000 C 
BRANCH  16  17
ATOM     17  C   UNL     1      97.525  17.520 120.644  1.00  0.00    -0.003 C 
ATOM     18  C   UNL     1      97.540  17.649 119.124  1.00  0.00     0.004 C 
ENDBRANCH  16  17
ENDBRANCH  15  16
ENDBRANCH  14  15
ENDBRANCH  13  14
ENDBRANCH  12  13
ENDBRANCH  11  12
ENDBRANCH   1  11
TORSDOF 14
ENDMDL
MODEL 2
REMARK VINA RESULT:     0.865      3.947      8.609
REMARK INTER + INTRA:           0.628
REMARK INTER:                   0.919
REMARK INTRA:                  -0.291
REMARK UNBOUND:                -0.945
REMARK SMILES CCCCCCCCCCCCCCCC(=O)[O-]
REMARK SMILES IDX 9 1 10 2 11 3 12 4 13 5 14 6 15 7 16 8 17 9 18 10 8 11 7 12
REMARK SMILES IDX 6 13 5 14 4 15 3 16 2 17 1 18
REMARK H PARENT
REMARK Flexibility Score: inf
ROOT
ATOM      1  C   UNL     1      92.971  16.006 118.847  1.00  0.00     0.000 C 
ENDROOT
BRANCH   1   2
ATOM      2  C   UNL     1      94.470  15.671 118.748  1.00  0.00     0.000 C 
BRANCH   2   3
ATOM      3  C   UNL     1      95.104  15.118 120.040  1.00  0.00     0.000 C 
BRANCH   3   4
ATOM      4  C   UNL     1      94.149  14.321 120.946  1.00  0.00     0.000 C 
BRANCH   4   5
ATOM      5  C   UNL     1      94.536  12.840 121.065  1.00  0.00     0.000 C 
BRANCH   5   6
ATOM      6  C   UNL     1      93.308  11.936 120.898  1.00  0.00     0.006 C 
BRANCH   6   7
ATOM      7  C   UNL     1      93.673  10.466 121.123  1.00  0.00     0.053 C 
BRANCH   7   8
ATOM      8  C   UNL     1      92.638   9.572 120.518  1.00  0.00     0.041 C 
ATOM      9  O   UNL     1      92.984   8.519 119.918  1.00  0.00    -0.550 OA
ATOM     10  O   UNL     1      91.290   9.874 120.657  1.00  0.00    -0.550 OA
ENDBRANCH   7   8
ENDBRANCH   6   7
ENDBRANCH   5   6
ENDBRANCH   4   5
ENDBRANCH   3   4
ENDBRANCH   2   3
ENDBRANCH   1   2
BRANCH   1  11
ATOM     11  C   UNL     1      92.652  16.981 119.990  1.00  0.00     0.000 C 
BRANCH  11  12
ATOM     12  C   UNL     1      91.386  17.791 119.681  1.00  0.00    -0.000 C 
BRANCH  12  13
ATOM     13  C   UNL     1      90.882  18.524 120.931  1.00  0.00    -0.000 C 
BRANCH  13  14
ATOM     14  C   UNL     1      89.426  19.002 120.799  1.00  0.00    -0.000 C 
BRANCH  14  15
ATOM     15  C   UNL     1      88.385  17.902 121.091  1.00  0.00    -0.000 C 
BRANCH  15  16
ATOM     16  C   UNL     1      87.110  18.071 120.250  1.00  0.00    -0.000 C 
BRANCH  16  17
ATOM     17  C   UNL     1      85.855  17.971 121.125  1.00  0.00    -0.003 C 
ATOM     18  C   UNL     1      84.684  17.381 120.345  1.00  0.00     0.004 C 
ENDBRANCH  16  17
ENDBRANCH  15  16
ENDBRANCH  14  15
ENDBRANCH  13  14
ENDBRANCH  12  13
ENDBRANCH  11  12
ENDBRANCH   1  11
TORSDOF 14
ENDMDL
MODEL 3
REMARK VINA RESULT:     1.349      1.718      3.241
REMARK INTER + INTRA:           1.507
REMARK INTER:                   2.068
REMARK INTRA:                  -0.561
REMARK UNBOUND:                -0.945
REMARK SMILES CCCCCCCCCCCCCCCC(=O)[O-]
REMARK SMILES IDX 9 1 10 2 11 3 12 4 13 5 14 6 15 7 16 8 17 9 18 10 8 11 7 12
REMARK SMILES IDX 6 13 5 14 4 15 3 16 2 17 1 18
REMARK H PARENT
REMARK Flexibility Score: inf
ROOT
ATOM      1  C   UNL     1      92.305  17.492 120.582  1.00  0.00     0.000 C 
ENDROOT
BRANCH   1   2
ATOM      2  C   UNL     1      91.171  18.534 120.585  1.00  0.00     0.000 C 
BRANCH   2   3
ATOM      3  C   UNL     1      89.768  17.971 120.887  1.00  0.00     0.000 C 
BRANCH   3   4
ATOM      4  C   UNL     1      88.677  18.357 119.872  1.00  0.00     0.000 C 
BRANCH   4   5
ATOM      5  C   UNL     1      87.443  18.988 120.532  1.00  0.00     0.000 C 
BRANCH   5   6
ATOM      6  C   UNL     1      86.497  17.908 121.072  1.00  0.00     0.006 C 
BRANCH   6   7
ATOM      7  C   UNL     1      85.051  18.413 121.106  1.00  0.00     0.053 C 
BRANCH   7   8
ATOM      8  C   UNL     1      84.127  17.392 120.522  1.00  0.00     0.041 C 
ATOM      9  O   UNL     1      84.572  16.273 120.151  1.00  0.00    -0.550 OA
ATOM     10  O   UNL     1      82.767  17.657 120.430  1.00  0.00    -0.550 OA
ENDBRANCH   7   8
ENDBRANCH   6   7
ENDBRANCH   5   6
ENDBRANCH   4   5
ENDBRANCH   3   4
ENDBRANCH   2   3
ENDBRANCH   1   2
BRANCH   1  11
ATOM     11  C   UNL     1      93.115  17.497 119.277  1.00  0.00     0.000 C 
BRANCH  11  12
ATOM     12  C   UNL     1      93.498  16.071 118.865  1.00  0.00    -0.000 C 
BRANCH  12  13
ATOM     13  C   UNL     1      93.388  15.105 120.052  1.00  0.00    -0.000 C 
BRANCH  13  14
ATOM     14  C   UNL     1      94.757  14.614 120.553  1.00  0.00    -0.000 C 
BRANCH  14  15
ATOM     15  C   UNL     1      94.964  13.093 120.396  1.00  0.00    -0.000 C 
BRANCH  15  16
ATOM     16  C   UNL     1      93.828  12.282 121.039  1.00  0.00    -0.000 C 
BRANCH  16  17
ATOM     17  C   UNL     1      94.119  10.779 120.975  1.00  0.00    -0.003 C 
ATOM     18  C   UNL     1      92.839   9.962 121.124  1.00  0.00     0.004 C 
ENDBRANCH  16  17
ENDBRANCH  15  16
ENDBRANCH  14  15
ENDBRANCH  13  14
ENDBRANCH  12  13
ENDBRANCH  11  12
ENDBRANCH   1  11
TORSDOF 14
ENDMDL
MODEL 4
REMARK VINA RESULT:     2.313      1.123      2.436
REMARK INTER + INTRA:           3.261
REMARK INTER:                   3.462
REMARK INTRA:                  -0.201
REMARK UNBOUND:                -0.945
REMARK SMILES CCCCCCCCCCCCCCCC(=O)[O-]
REMARK SMILES IDX 9 1 10 2 11 3 12 4 13 5 14 6 15 7 16 8 17 9 18 10 8 11 7 12
REMARK SMILES IDX 6 13 5 14 4 15 3 16 2 17 1 18
REMARK H PARENT
REMARK Flexibility Score: inf
ROOT
ATOM      1  C   UNL     1      89.948  18.021 120.206  1.00  0.00     0.000 C 
ENDROOT
BRANCH   1   2
ATOM      2  C   UNL     1      88.679  18.310 121.027  1.00  0.00     0.000 C 
BRANCH   2   3
ATOM      3  C   UNL     1      87.830  19.495 120.524  1.00  0.00     0.000 C 
BRANCH   3   4
ATOM      4  C   UNL     1      86.391  19.545 121.067  1.00  0.00     0.000 C 
BRANCH   4   5
ATOM      5  C   UNL     1      85.726  18.162 121.125  1.00  0.00     0.000 C 
BRANCH   5   6
ATOM      6  C   UNL     1      85.409  17.646 119.716  1.00  0.00     0.006 C 
BRANCH   6   7
ATOM      7  C   UNL     1      84.164  16.755 119.725  1.00  0.00     0.053 C 
BRANCH   7   8
ATOM      8  C   UNL     1      82.928  17.584 119.877  1.00  0.00     0.041 C 
ATOM      9  O   UNL     1      82.057  17.594 118.968  1.00  0.00    -0.550 OA
ATOM     10  O   UNL     1      82.715  18.307 121.043  1.00  0.00    -0.550 OA
ENDBRANCH   7   8
ENDBRANCH   6   7
ENDBRANCH   5   6
ENDBRANCH   4   5
ENDBRANCH   3   4
ENDBRANCH   2   3
ENDBRANCH   1   2
BRANCH   1  11
ATOM     11  C   UNL     1      91.180  18.777 120.725  1.00  0.00     0.000 C 
BRANCH  11  12
ATOM     12  C   UNL     1      92.449  17.931 120.566  1.00  0.00    -0.000 C 
BRANCH  12  13
ATOM     13  C   UNL     1      92.549  17.346 119.150  1.00  0.00    -0.000 C 
BRANCH  13  14
ATOM     14  C   UNL     1      93.198  15.952 119.122  1.00  0.00    -0.000 C 
BRANCH  14  15
ATOM     15  C   UNL     1      93.483  15.374 120.524  1.00  0.00    -0.000 C 
BRANCH  15  16
ATOM     16  C   UNL     1      94.804  15.896 121.110  1.00  0.00    -0.000 C 
BRANCH  16  17
ATOM     17  C   UNL     1      95.797  16.253 119.998  1.00  0.00    -0.003 C 
ATOM     18  C   UNL     1      97.073  16.862 120.571  1.00  0.00     0.004 C 
ENDBRANCH  16  17
ENDBRANCH  15  16
ENDBRANCH  14  15
ENDBRANCH  13  14
ENDBRANCH  12  13
ENDBRANCH  11  12
ENDBRANCH   1  11
TORSDOF 14
ENDMDL
MODEL 5
REMARK VINA RESULT:     2.917      1.664      3.057
REMARK INTER + INTRA:           4.358
REMARK INTER:                   1.985
REMARK INTRA:                   2.373
REMARK UNBOUND:                -0.945
REMARK SMILES CCCCCCCCCCCCCCCC(=O)[O-]
REMARK SMILES IDX 9 1 10 2 11 3 12 4 13 5 14 6 15 7 16 8 17 9 18 10 8 11 7 12
REMARK SMILES IDX 6 13 5 14 4 15 3 16 2 17 1 18
REMARK H PARENT
REMARK Flexibility Score: inf
ROOT
ATOM      1  C   UNL     1      90.155  17.950 119.894  1.00  0.00     0.000 C 
ENDROOT
BRANCH   1   2
ATOM      2  C   UNL     1      88.759  18.218 120.485  1.00  0.00     0.000 C 
BRANCH   2   3
ATOM      3  C   UNL     1      88.528  19.657 120.990  1.00  0.00     0.000 C 
BRANCH   3   4
ATOM      4  C   UNL     1      87.075  20.156 120.899  1.00  0.00     0.000 C 
BRANCH   4   5
ATOM      5  C   UNL     1      86.045  19.039 121.125  1.00  0.00     0.000 C 
BRANCH   5   6
ATOM      6  C   UNL     1      86.547  17.707 120.556  1.00  0.00     0.006 C 
BRANCH   6   7
ATOM      7  C   UNL     1      85.400  16.916 119.919  1.00  0.00     0.053 C 
BRANCH   7   8
ATOM      8  C   UNL     1      84.083  17.380 120.456  1.00  0.00     0.041 C 
ATOM      9  O   UNL     1      83.235  16.542 120.864  1.00  0.00    -0.550 OA
ATOM     10  O   UNL     1      83.809  18.738 120.548  1.00  0.00    -0.550 OA
ENDBRANCH   7   8
ENDBRANCH   6   7
ENDBRANCH   5   6
ENDBRANCH   4   5
ENDBRANCH   3   4
ENDBRANCH   2   3
ENDBRANCH   1   2
BRANCH   1  11
ATOM     11  C   UNL     1      91.293  18.403 120.822  1.00  0.00     0.000 C 
BRANCH  11  12
ATOM     12  C   UNL     1      92.578  17.618 120.535  1.00  0.00    -0.000 C 
BRANCH  12  13
ATOM     13  C   UNL     1      92.575  17.056 119.107  1.00  0.00    -0.000 C 
BRANCH  13  14
ATOM     14  C   UNL     1      93.507  15.845 118.937  1.00  0.00    -0.000 C 
BRANCH  14  15
ATOM     15  C   UNL     1      94.275  15.471 120.222  1.00  0.00    -0.000 C 
BRANCH  15  16
ATOM     16  C   UNL     1      94.604  13.971 120.286  1.00  0.00    -0.000 C 
BRANCH  16  17
ATOM     17  C   UNL     1      93.566  13.215 121.124  1.00  0.00    -0.003 C 
ATOM     18  C   UNL     1      93.674  11.708 120.908  1.00  0.00     0.004 C 
ENDBRANCH  16  17
ENDBRANCH  15  16
ENDBRANCH  14  15
ENDBRANCH  13  14
ENDBRANCH  12  13
ENDBRANCH  11  12
ENDBRANCH   1  11
TORSDOF 14
ENDMDL
