MODEL 1
REMARK VINA RESULT:    -5.527      0.000      0.000
REMARK INTER + INTRA:          -7.142
REMARK INTER:                  -6.819
REMARK INTRA:                  -0.323
REMARK UNBOUND:                -0.323
REMARK SMILES COc1cc(-c2oc3cc(O)cc(O)c3c(=O)c2O)ccc1O
REMARK SMILES IDX 6 1 18 2 16 3 17 4 15 5 13 6 12 7 10 8 9 9 8 10 7 11 5 12
REMARK SMILES IDX 3 13 22 14 4 15 21 16 20 17 2 18 1 19 23 20 19 22 14 24
REMARK SMILES IDX 11 26
REMARK H PARENT 23 21 19 23 14 25 11 27
REMARK Flexibility Score: inf
ROOT
ATOM      1  C   UNL     1       5.917 -17.067  14.356  1.00  0.00     0.180 A 
ATOM      2  C   UNL     1       6.735 -15.920  14.384  1.00  0.00     0.208 A 
ATOM      3  C   UNL     1       6.136 -14.667  14.581  1.00  0.00     0.238 A 
ATOM      4  O   UNL     1       6.856 -13.631  14.597  1.00  0.00    -0.285 OA
ATOM      5  C   UNL     1       4.741 -14.580  14.766  1.00  0.00     0.111 A 
ATOM      6  C   UNL     1       4.062 -13.356  14.974  1.00  0.00     0.134 A 
ATOM      7  C   UNL     1       2.671 -13.355  15.161  1.00  0.00     0.093 A 
ATOM      8  C   UNL     1       1.949 -14.551  15.142  1.00  0.00     0.123 A 
ATOM      9  C   UNL     1       2.615 -15.764  14.936  1.00  0.00     0.094 A 
ATOM     10  C   UNL     1       4.000 -15.785  14.748  1.00  0.00     0.146 A 
ATOM     11  O   UNL     1       4.607 -16.949  14.550  1.00  0.00    -0.452 OA
ENDROOT
BRANCH   1  12
ATOM     12  C   UNL     1       6.473 -18.422  14.135  1.00  0.00     0.025 A 
ATOM     13  C   UNL     1       7.189 -20.605  14.972  1.00  0.00     0.161 A 
ATOM     14  C   UNL     1       7.584 -20.964  13.675  1.00  0.00     0.157 A 
ATOM     15  C   UNL     1       6.640 -19.327  15.198  1.00  0.00     0.062 A 
ATOM     16  C   UNL     1       7.439 -20.055  12.620  1.00  0.00     0.051 A 
ATOM     17  C   UNL     1       6.895 -18.791  12.849  1.00  0.00     0.016 A 
BRANCH  13  18
ATOM     18  O   UNL     1       7.360 -21.539  16.006  1.00  0.00    -0.493 OA
ATOM     19  C   UNL     1       7.991 -21.259  17.250  1.00  0.00     0.278 C 
ENDBRANCH  13  18
BRANCH  14  20
ATOM     20  O   UNL     1       8.125 -22.229  13.445  1.00  0.00    -0.504 OA
ATOM     21  H   UNL     1       8.582 -22.752  14.184  1.00  0.00     0.293 HD
ENDBRANCH  14  20
ENDBRANCH   1  12
BRANCH   2  22
ATOM     22  O   UNL     1       8.121 -16.037  14.248  1.00  0.00    -0.502 OA
ATOM     23  H   UNL     1       8.677 -15.349  13.754  1.00  0.00     0.293 HD
ENDBRANCH   2  22
BRANCH   6  24
ATOM     24  O   UNL     1       4.754 -12.145  14.999  1.00  0.00    -0.507 OA
ATOM     25  H   UNL     1       5.564 -12.006  15.594  1.00  0.00     0.293 HD
ENDBRANCH   6  24
BRANCH   8  26
ATOM     26  O   UNL     1       0.569 -14.523  15.331  1.00  0.00    -0.508 OA
ATOM     27  H   UNL     1       0.016 -15.373  15.330  1.00  0.00     0.293 HD
ENDBRANCH   8  26
TORSDOF 6
ENDMDL
MODEL 2
REMARK VINA RESULT:    -5.286      3.489      5.975
REMARK INTER + INTRA:          -6.845
REMARK INTER:                  -6.590
REMARK INTRA:                  -0.255
REMARK UNBOUND:                -0.323
REMARK SMILES COc1cc(-c2oc3cc(O)cc(O)c3c(=O)c2O)ccc1O
REMARK SMILES IDX 6 1 18 2 16 3 17 4 15 5 13 6 12 7 10 8 9 9 8 10 7 11 5 12
REMARK SMILES IDX 3 13 22 14 4 15 21 16 20 17 2 18 1 19 23 20 19 22 14 24
REMARK SMILES IDX 11 26
REMARK H PARENT 23 21 19 23 14 25 11 27
REMARK Flexibility Score: inf
ROOT
ATOM      1  C   UNL     1       5.224 -12.408  14.494  1.00  0.00     0.180 A 
ATOM      2  C   UNL     1       4.803 -11.470  15.457  1.00  0.00     0.208 A 
ATOM      3  C   UNL     1       5.161 -10.124  15.291  1.00  0.00     0.238 A 
ATOM      4  O   UNL     1       4.800  -9.275  16.152  1.00  0.00    -0.285 OA
ATOM      5  C   UNL     1       5.911  -9.734  14.162  1.00  0.00     0.111 A 
ATOM      6  C   UNL     1       6.308  -8.397  13.920  1.00  0.00     0.134 A 
ATOM      7  C   UNL     1       7.046  -8.089  12.767  1.00  0.00     0.093 A 
ATOM      8  C   UNL     1       7.393  -9.089  11.855  1.00  0.00     0.123 A 
ATOM      9  C   UNL     1       7.004 -10.411  12.090  1.00  0.00     0.094 A 
ATOM     10  C   UNL     1       6.269 -10.739  13.233  1.00  0.00     0.146 A 
ATOM     11  O   UNL     1       5.917 -12.003  13.434  1.00  0.00    -0.452 OA
ENDROOT
BRANCH   1  12
ATOM     12  C   UNL     1       4.902 -13.850  14.609  1.00  0.00     0.025 A 
ATOM     13  C   UNL     1       5.589 -16.182  14.875  1.00  0.00     0.161 A 
ATOM     14  C   UNL     1       4.249 -16.581  14.766  1.00  0.00     0.157 A 
ATOM     15  C   UNL     1       5.912 -14.813  14.788  1.00  0.00     0.062 A 
ATOM     16  C   UNL     1       3.246 -15.625  14.565  1.00  0.00     0.051 A 
ATOM     17  C   UNL     1       3.571 -14.271  14.480  1.00  0.00     0.016 A 
BRANCH  13  18
ATOM     18  O   UNL     1       6.568 -17.170  15.064  1.00  0.00    -0.493 OA
ATOM     19  C   UNL     1       7.530 -17.551  14.086  1.00  0.00     0.278 C 
ENDBRANCH  13  18
BRANCH  14  20
ATOM     20  O   UNL     1       3.924 -17.934  14.854  1.00  0.00    -0.504 OA
ATOM     21  H   UNL     1       4.137 -18.477  15.683  1.00  0.00     0.293 HD
ENDBRANCH  14  20
ENDBRANCH   1  12
BRANCH   2  22
ATOM     22  O   UNL     1       4.019 -11.873  16.540  1.00  0.00    -0.502 OA
ATOM     23  H   UNL     1       3.969 -12.838  16.846  1.00  0.00     0.293 HD
ENDBRANCH   2  22
BRANCH   6  24
ATOM     24  O   UNL     1       5.976  -7.376  14.811  1.00  0.00    -0.507 OA
ATOM     25  H   UNL     1       5.281  -6.674  14.582  1.00  0.00     0.293 HD
ENDBRANCH   6  24
BRANCH   8  26
ATOM     26  O   UNL     1       8.125  -8.756  10.717  1.00  0.00    -0.508 OA
ATOM     27  H   UNL     1       8.952  -9.277  10.447  1.00  0.00     0.293 HD
ENDBRANCH   8  26
TORSDOF 6
ENDMDL
MODEL 3
REMARK VINA RESULT:    -5.076      1.737      7.308
REMARK INTER + INTRA:          -6.585
REMARK INTER:                  -6.244
REMARK INTRA:                  -0.341
REMARK UNBOUND:                -0.323
REMARK SMILES COc1cc(-c2oc3cc(O)cc(O)c3c(=O)c2O)ccc1O
REMARK SMILES IDX 6 1 18 2 16 3 17 4 15 5 13 6 12 7 10 8 9 9 8 10 7 11 5 12
REMARK SMILES IDX 3 13 22 14 4 15 21 16 20 17 2 18 1 19 23 20 19 22 14 24
REMARK SMILES IDX 11 26
REMARK H PARENT 23 21 19 23 14 25 11 27
REMARK Flexibility Score: inf
ROOT
ATOM      1  C   UNL     1       5.015 -17.275  15.554  1.00  0.00     0.180 A 
ATOM      2  C   UNL     1       5.142 -18.158  14.465  1.00  0.00     0.208 A 
ATOM      3  C   UNL     1       5.879 -19.340  14.634  1.00  0.00     0.238 A 
ATOM      4  O   UNL     1       6.010 -20.135  13.663  1.00  0.00    -0.285 OA
ATOM      5  C   UNL     1       6.458 -19.629  15.887  1.00  0.00     0.111 A 
ATOM      6  C   UNL     1       7.212 -20.800  16.141  1.00  0.00     0.134 A 
ATOM      7  C   UNL     1       7.747 -21.019  17.419  1.00  0.00     0.093 A 
ATOM      8  C   UNL     1       7.543 -20.093  18.445  1.00  0.00     0.123 A 
ATOM      9  C   UNL     1       6.799 -18.934  18.200  1.00  0.00     0.094 A 
ATOM     10  C   UNL     1       6.259 -18.697  16.933  1.00  0.00     0.146 A 
ATOM     11  O   UNL     1       5.561 -17.587  16.726  1.00  0.00    -0.452 OA
ENDROOT
BRANCH   1  12
ATOM     12  C   UNL     1       4.269 -15.999  15.448  1.00  0.00     0.025 A 
ATOM     13  C   UNL     1       4.212 -13.560  15.287  1.00  0.00     0.161 A 
ATOM     14  C   UNL     1       2.810 -13.600  15.306  1.00  0.00     0.157 A 
ATOM     15  C   UNL     1       4.938 -14.765  15.367  1.00  0.00     0.062 A 
ATOM     16  C   UNL     1       2.144 -14.826  15.410  1.00  0.00     0.051 A 
ATOM     17  C   UNL     1       2.867 -16.017  15.488  1.00  0.00     0.016 A 
BRANCH  13  18
ATOM     18  O   UNL     1       4.844 -12.310  15.193  1.00  0.00    -0.493 OA
ATOM     19  C   UNL     1       5.331 -11.741  13.983  1.00  0.00     0.278 C 
ENDBRANCH  13  18
BRANCH  14  20
ATOM     20  O   UNL     1       2.087 -12.410  15.224  1.00  0.00    -0.504 OA
ATOM     21  H   UNL     1       2.082 -11.849  14.380  1.00  0.00     0.293 HD
ENDBRANCH  14  20
ENDBRANCH   1  12
BRANCH   2  22
ATOM     22  O   UNL     1       4.518 -17.874  13.248  1.00  0.00    -0.502 OA
ATOM     23  H   UNL     1       4.535 -18.517  12.466  1.00  0.00     0.293 HD
ENDBRANCH   2  22
BRANCH   6  24
ATOM     24  O   UNL     1       7.432 -21.744  15.138  1.00  0.00    -0.507 OA
ATOM     25  H   UNL     1       8.366 -22.049  14.888  1.00  0.00     0.293 HD
ENDBRANCH   6  24
BRANCH   8  26
ATOM     26  O   UNL     1       8.084 -20.336  19.706  1.00  0.00    -0.508 OA
ATOM     27  H   UNL     1       9.076 -20.226  19.888  1.00  0.00     0.293 HD
ENDBRANCH   8  26
TORSDOF 6
ENDMDL
MODEL 4
REMARK VINA RESULT:    -5.045      1.473      7.327
REMARK INTER + INTRA:          -6.547
REMARK INTER:                  -6.180
REMARK INTRA:                  -0.367
REMARK UNBOUND:                -0.323
REMARK SMILES COc1cc(-c2oc3cc(O)cc(O)c3c(=O)c2O)ccc1O
REMARK SMILES IDX 6 1 18 2 16 3 17 4 15 5 13 6 12 7 10 8 9 9 8 10 7 11 5 12
REMARK SMILES IDX 3 13 22 14 4 15 21 16 20 17 2 18 1 19 23 20 19 22 14 24
REMARK SMILES IDX 11 26
REMARK H PARENT 23 21 19 23 14 25 11 27
REMARK Flexibility Score: inf
ROOT
ATOM      1  C   UNL     1       4.862 -17.113  15.286  1.00  0.00     0.180 A 
ATOM      2  C   UNL     1       4.952 -17.895  16.454  1.00  0.00     0.208 A 
ATOM      3  C   UNL     1       5.665 -19.103  16.405  1.00  0.00     0.238 A 
ATOM      4  O   UNL     1       5.745 -19.819  17.441  1.00  0.00    -0.285 OA
ATOM      5  C   UNL     1       6.290 -19.497  15.205  1.00  0.00     0.111 A 
ATOM      6  C   UNL     1       7.031 -20.697  15.074  1.00  0.00     0.134 A 
ATOM      7  C   UNL     1       7.632 -21.013  13.846  1.00  0.00     0.093 A 
ATOM      8  C   UNL     1       7.506 -20.156  12.750  1.00  0.00     0.123 A 
ATOM      9  C   UNL     1       6.775 -18.970  12.873  1.00  0.00     0.094 A 
ATOM     10  C   UNL     1       6.169 -18.637  14.087  1.00  0.00     0.146 A 
ATOM     11  O   UNL     1       5.476 -17.508  14.175  1.00  0.00    -0.452 OA
ENDROOT
BRANCH   1  12
ATOM     12  C   UNL     1       4.111 -15.836  15.253  1.00  0.00     0.025 A 
ATOM     13  C   UNL     1       4.033 -13.395  15.375  1.00  0.00     0.161 A 
ATOM     14  C   UNL     1       2.638 -13.440  15.242  1.00  0.00     0.157 A 
ATOM     15  C   UNL     1       4.765 -14.599  15.388  1.00  0.00     0.062 A 
ATOM     16  C   UNL     1       1.983 -14.673  15.131  1.00  0.00     0.051 A 
ATOM     17  C   UNL     1       2.713 -15.862  15.144  1.00  0.00     0.016 A 
BRANCH  13  18
ATOM     18  O   UNL     1       4.653 -12.141  15.495  1.00  0.00    -0.493 OA
ATOM     19  C   UNL     1       5.241 -11.425  14.415  1.00  0.00     0.278 C 
ENDBRANCH  13  18
BRANCH  14  20
ATOM     20  O   UNL     1       1.908 -12.252  15.225  1.00  0.00    -0.504 OA
ATOM     21  H   UNL     1       1.508 -11.864  16.072  1.00  0.00     0.293 HD
ENDBRANCH  14  20
ENDBRANCH   1  12
BRANCH   2  22
ATOM     22  O   UNL     1       4.366 -17.459  17.644  1.00  0.00    -0.502 OA
ATOM     23  H   UNL     1       3.368 -17.310  17.735  1.00  0.00     0.293 HD
ENDBRANCH   2  22
BRANCH   6  24
ATOM     24  O   UNL     1       7.175 -21.572  16.150  1.00  0.00    -0.507 OA
ATOM     25  H   UNL     1       6.459 -21.665  16.862  1.00  0.00     0.293 HD
ENDBRANCH   6  24
BRANCH   8  26
ATOM     26  O   UNL     1       8.114 -20.493  11.542  1.00  0.00    -0.508 OA
ATOM     27  H   UNL     1       8.023 -19.906  10.721  1.00  0.00     0.293 HD
ENDBRANCH   8  26
TORSDOF 6
ENDMDL
MODEL 5
REMARK VINA RESULT:    -5.027      5.096      8.658
REMARK INTER + INTRA:          -6.525
REMARK INTER:                  -6.292
REMARK INTRA:                  -0.233
REMARK UNBOUND:                -0.323
REMARK SMILES COc1cc(-c2oc3cc(O)cc(O)c3c(=O)c2O)ccc1O
REMARK SMILES IDX 6 1 18 2 16 3 17 4 15 5 13 6 12 7 10 8 9 9 8 10 7 11 5 12
REMARK SMILES IDX 3 13 22 14 4 15 21 16 20 17 2 18 1 19 23 20 19 22 14 24
REMARK SMILES IDX 11 26
REMARK H PARENT 23 21 19 23 14 25 11 27
REMARK Flexibility Score: inf
ROOT
ATOM      1  C   UNL     1       2.720  -9.554  15.165  1.00  0.00     0.180 A 
ATOM      2  C   UNL     1       2.335  -9.861  16.485  1.00  0.00     0.208 A 
ATOM      3  C   UNL     1       1.044  -9.517  16.911  1.00  0.00     0.238 A 
ATOM      4  O   UNL     1       0.691  -9.776  18.094  1.00  0.00    -0.285 OA
ATOM      5  C   UNL     1       0.154  -8.894  16.011  1.00  0.00     0.111 A 
ATOM      6  C   UNL     1      -1.166  -8.519  16.361  1.00  0.00     0.134 A 
ATOM      7  C   UNL     1      -1.992  -7.912  15.404  1.00  0.00     0.093 A 
ATOM      8  C   UNL     1      -1.527  -7.673  14.109  1.00  0.00     0.123 A 
ATOM      9  C   UNL     1      -0.224  -8.040  13.758  1.00  0.00     0.094 A 
ATOM     10  C   UNL     1       0.616  -8.646  14.697  1.00  0.00     0.146 A 
ATOM     11  O   UNL     1       1.850  -8.980  14.339  1.00  0.00    -0.452 OA
ENDROOT
BRANCH   1  12
ATOM     12  C   UNL     1       4.072  -9.869  14.647  1.00  0.00     0.025 A 
ATOM     13  C   UNL     1       5.807 -11.478  14.029  1.00  0.00     0.161 A 
ATOM     14  C   UNL     1       6.667 -10.417  13.715  1.00  0.00     0.157 A 
ATOM     15  C   UNL     1       4.509 -11.197  14.504  1.00  0.00     0.062 A 
ATOM     16  C   UNL     1       6.240  -9.093  13.879  1.00  0.00     0.051 A 
ATOM     17  C   UNL     1       4.955  -8.821  14.349  1.00  0.00     0.016 A 
BRANCH  13  18
ATOM     18  O   UNL     1       6.274 -12.791  13.862  1.00  0.00    -0.493 OA
ATOM     19  C   UNL     1       5.799 -13.916  14.592  1.00  0.00     0.278 C 
ENDBRANCH  13  18
BRANCH  14  20
ATOM     20  O   UNL     1       7.951 -10.688  13.242  1.00  0.00    -0.504 OA
ATOM     21  H   UNL     1       8.273 -11.638  13.098  1.00  0.00     0.293 HD
ENDBRANCH  14  20
ENDBRANCH   1  12
BRANCH   2  22
ATOM     22  O   UNL     1       3.218 -10.523  17.342  1.00  0.00    -0.502 OA
ATOM     23  H   UNL     1       4.194 -10.665  17.112  1.00  0.00     0.293 HD
ENDBRANCH   2  22
BRANCH   6  24
ATOM     24  O   UNL     1      -1.660  -8.746  17.646  1.00  0.00    -0.507 OA
ATOM     25  H   UNL     1      -1.674  -9.673  18.056  1.00  0.00     0.293 HD
ENDBRANCH   6  24
BRANCH   8  26
ATOM     26  O   UNL     1      -2.370  -7.069  13.178  1.00  0.00    -0.508 OA
ATOM     27  H   UNL     1      -2.037  -6.341  12.556  1.00  0.00     0.293 HD
ENDBRANCH   8  26
TORSDOF 6
ENDMDL
MODEL 6
REMARK VINA RESULT:    -5.025      4.069      6.767
REMARK INTER + INTRA:          -6.523
REMARK INTER:                  -6.144
REMARK INTRA:                  -0.378
REMARK UNBOUND:                -0.323
REMARK SMILES COc1cc(-c2oc3cc(O)cc(O)c3c(=O)c2O)ccc1O
REMARK SMILES IDX 6 1 18 2 16 3 17 4 15 5 13 6 12 7 10 8 9 9 8 10 7 11 5 12
REMARK SMILES IDX 3 13 22 14 4 15 21 16 20 17 2 18 1 19 23 20 19 22 14 24
REMARK SMILES IDX 11 26
REMARK H PARENT 23 21 19 23 14 25 11 27
REMARK Flexibility Score: inf
ROOT
ATOM      1  C   UNL     1       5.999 -11.805  14.428  1.00  0.00     0.180 A 
ATOM      2  C   UNL     1       5.807 -10.825  15.421  1.00  0.00     0.208 A 
ATOM      3  C   UNL     1       6.148  -9.495  15.134  1.00  0.00     0.238 A 
ATOM      4  O   UNL     1       5.991  -8.609  16.019  1.00  0.00    -0.285 OA
ATOM      5  C   UNL     1       6.655  -9.163  13.861  1.00  0.00     0.111 A 
ATOM      6  C   UNL     1       7.019  -7.846  13.491  1.00  0.00     0.134 A 
ATOM      7  C   UNL     1       7.507  -7.596  12.200  1.00  0.00     0.093 A 
ATOM      8  C   UNL     1       7.638  -8.634  11.274  1.00  0.00     0.123 A 
ATOM      9  C   UNL     1       7.280  -9.937  11.634  1.00  0.00     0.094 A 
ATOM     10  C   UNL     1       6.792 -10.207  12.916  1.00  0.00     0.146 A 
ATOM     11  O   UNL     1       6.465 -11.454  13.233  1.00  0.00    -0.452 OA
ENDROOT
BRANCH   1  12
ATOM     12  C   UNL     1       5.680 -13.233  14.662  1.00  0.00     0.025 A 
ATOM     13  C   UNL     1       4.086 -15.085  14.740  1.00  0.00     0.161 A 
ATOM     14  C   UNL     1       5.111 -15.939  15.171  1.00  0.00     0.157 A 
ATOM     15  C   UNL     1       4.375 -13.728  14.493  1.00  0.00     0.062 A 
ATOM     16  C   UNL     1       6.406 -15.442  15.362  1.00  0.00     0.051 A 
ATOM     17  C   UNL     1       6.687 -14.098  15.116  1.00  0.00     0.016 A 
BRANCH  13  18
ATOM     18  O   UNL     1       2.798 -15.618  14.572  1.00  0.00    -0.493 OA
ATOM     19  C   UNL     1       1.592 -14.880  14.738  1.00  0.00     0.278 C 
ENDBRANCH  13  18
BRANCH  14  20
ATOM     20  O   UNL     1       4.830 -17.284  15.414  1.00  0.00    -0.504 OA
ATOM     21  H   UNL     1       5.559 -17.938  15.677  1.00  0.00     0.293 HD
ENDBRANCH  14  20
ENDBRANCH   1  12
BRANCH   2  22
ATOM     22  O   UNL     1       5.257 -11.171  16.658  1.00  0.00    -0.502 OA
ATOM     23  H   UNL     1       4.519 -10.631  17.094  1.00  0.00     0.293 HD
ENDBRANCH   2  22
BRANCH   6  24
ATOM     24  O   UNL     1       6.900  -6.788  14.393  1.00  0.00    -0.507 OA
ATOM     25  H   UNL     1       7.291  -5.873  14.197  1.00  0.00     0.293 HD
ENDBRANCH   6  24
BRANCH   8  26
ATOM     26  O   UNL     1       8.123  -8.358   9.998  1.00  0.00    -0.508 OA
ATOM     27  H   UNL     1       7.755  -7.593   9.444  1.00  0.00     0.293 HD
ENDBRANCH   8  26
TORSDOF 6
ENDMDL
MODEL 7
REMARK VINA RESULT:    -4.932      2.983      7.820
REMARK INTER + INTRA:          -6.408
REMARK INTER:                  -6.028
REMARK INTRA:                  -0.380
REMARK UNBOUND:                -0.323
REMARK SMILES COc1cc(-c2oc3cc(O)cc(O)c3c(=O)c2O)ccc1O
REMARK SMILES IDX 6 1 18 2 16 3 17 4 15 5 13 6 12 7 10 8 9 9 8 10 7 11 5 12
REMARK SMILES IDX 3 13 22 14 4 15 21 16 20 17 2 18 1 19 23 20 19 22 14 24
REMARK SMILES IDX 11 26
REMARK H PARENT 23 21 19 23 14 25 11 27
REMARK Flexibility Score: inf
ROOT
ATOM      1  C   UNL     1       4.760 -13.436  15.901  1.00  0.00     0.180 A 
ATOM      2  C   UNL     1       4.489 -13.718  17.254  1.00  0.00     0.208 A 
ATOM      3  C   UNL     1       4.314 -15.054  17.646  1.00  0.00     0.238 A 
ATOM      4  O   UNL     1       4.060 -15.318  18.853  1.00  0.00    -0.285 OA
ATOM      5  C   UNL     1       4.432 -16.083  16.689  1.00  0.00     0.111 A 
ATOM      6  C   UNL     1       4.274 -17.454  17.004  1.00  0.00     0.134 A 
ATOM      7  C   UNL     1       4.417 -18.419  15.995  1.00  0.00     0.093 A 
ATOM      8  C   UNL     1       4.713 -18.042  14.684  1.00  0.00     0.123 A 
ATOM      9  C   UNL     1       4.870 -16.688  14.368  1.00  0.00     0.094 A 
ATOM     10  C   UNL     1       4.731 -15.711  15.357  1.00  0.00     0.146 A 
ATOM     11  O   UNL     1       4.880 -14.433  15.029  1.00  0.00    -0.452 OA
ENDROOT
BRANCH   1  12
ATOM     12  C   UNL     1       4.938 -12.051  15.407  1.00  0.00     0.025 A 
ATOM     13  C   UNL     1       4.023  -9.925  14.618  1.00  0.00     0.161 A 
ATOM     14  C   UNL     1       5.326  -9.447  14.419  1.00  0.00     0.157 A 
ATOM     15  C   UNL     1       3.834 -11.234  15.107  1.00  0.00     0.062 A 
ATOM     16  C   UNL     1       6.425 -10.268  14.696  1.00  0.00     0.051 A 
ATOM     17  C   UNL     1       6.233 -11.563  15.179  1.00  0.00     0.016 A 
BRANCH  13  18
ATOM     18  O   UNL     1       2.946  -9.077  14.318  1.00  0.00    -0.493 OA
ATOM     19  C   UNL     1       1.634  -9.219  14.851  1.00  0.00     0.278 C 
ENDBRANCH  13  18
BRANCH  14  20
ATOM     20  O   UNL     1       5.518  -8.152  13.939  1.00  0.00    -0.504 OA
ATOM     21  H   UNL     1       5.548  -7.954  12.945  1.00  0.00     0.293 HD
ENDBRANCH  14  20
ENDBRANCH   1  12
BRANCH   2  22
ATOM     22  O   UNL     1       4.426 -12.684  18.192  1.00  0.00    -0.502 OA
ATOM     23  H   UNL     1       5.256 -12.237  18.563  1.00  0.00     0.293 HD
ENDBRANCH   2  22
BRANCH   6  24
ATOM     24  O   UNL     1       3.979 -17.864  18.304  1.00  0.00    -0.507 OA
ATOM     25  H   UNL     1       3.562 -17.233  18.980  1.00  0.00     0.293 HD
ENDBRANCH   6  24
BRANCH   8  26
ATOM     26  O   UNL     1       4.851 -19.020  13.702  1.00  0.00    -0.508 OA
ATOM     27  H   UNL     1       5.454 -18.884  12.898  1.00  0.00     0.293 HD
ENDBRANCH   8  26
TORSDOF 6
ENDMDL
MODEL 8
REMARK VINA RESULT:    -4.918      8.352     12.555
REMARK INTER + INTRA:          -6.391
REMARK INTER:                  -6.022
REMARK INTRA:                  -0.368
REMARK UNBOUND:                -0.323
REMARK SMILES COc1cc(-c2oc3cc(O)cc(O)c3c(=O)c2O)ccc1O
REMARK SMILES IDX 6 1 18 2 16 3 17 4 15 5 13 6 12 7 10 8 9 9 8 10 7 11 5 12
REMARK SMILES IDX 3 13 22 14 4 15 21 16 20 17 2 18 1 19 23 20 19 22 14 24
REMARK SMILES IDX 11 26
REMARK H PARENT 23 21 19 23 14 25 11 27
REMARK Flexibility Score: inf
ROOT
ATOM      1  C   UNL     1      -1.791  -7.557  15.268  1.00  0.00     0.180 A 
ATOM      2  C   UNL     1      -2.561  -6.968  14.246  1.00  0.00     0.208 A 
ATOM      3  C   UNL     1      -3.951  -7.161  14.249  1.00  0.00     0.238 A 
ATOM      4  O   UNL     1      -4.650  -6.648  13.332  1.00  0.00    -0.285 OA
ATOM      5  C   UNL     1      -4.548  -7.917  15.278  1.00  0.00     0.111 A 
ATOM      6  C   UNL     1      -5.942  -8.154  15.355  1.00  0.00     0.134 A 
ATOM      7  C   UNL     1      -6.461  -8.910  16.418  1.00  0.00     0.093 A 
ATOM      8  C   UNL     1      -5.616  -9.431  17.401  1.00  0.00     0.123 A 
ATOM      9  C   UNL     1      -4.238  -9.200  17.329  1.00  0.00     0.094 A 
ATOM     10  C   UNL     1      -3.702  -8.451  16.278  1.00  0.00     0.146 A 
ATOM     11  O   UNL     1      -2.390  -8.251  16.231  1.00  0.00    -0.452 OA
ENDROOT
BRANCH   1  12
ATOM     12  C   UNL     1      -0.317  -7.415  15.322  1.00  0.00     0.025 A 
ATOM     13  C   UNL     1       1.933  -8.277  14.905  1.00  0.00     0.161 A 
ATOM     14  C   UNL     1       2.474  -7.127  15.497  1.00  0.00     0.157 A 
ATOM     15  C   UNL     1       0.533  -8.419  14.827  1.00  0.00     0.062 A 
ATOM     16  C   UNL     1       1.628  -6.136  16.011  1.00  0.00     0.051 A 
ATOM     17  C   UNL     1       0.243  -6.283  15.931  1.00  0.00     0.016 A 
BRANCH  13  18
ATOM     18  O   UNL     1       2.813  -9.253  14.412  1.00  0.00    -0.493 OA
ATOM     19  C   UNL     1       3.294 -10.361  15.166  1.00  0.00     0.278 C 
ENDBRANCH  13  18
BRANCH  14  20
ATOM     20  O   UNL     1       3.859  -6.979  15.575  1.00  0.00    -0.504 OA
ATOM     21  H   UNL     1       4.336  -6.206  15.124  1.00  0.00     0.293 HD
ENDBRANCH  14  20
ENDBRANCH   1  12
BRANCH   2  22
ATOM     22  O   UNL     1      -1.951  -6.183  13.265  1.00  0.00    -0.502 OA
ATOM     23  H   UNL     1      -2.077  -5.179  13.218  1.00  0.00     0.293 HD
ENDBRANCH   2  22
BRANCH   6  24
ATOM     24  O   UNL     1      -6.812  -7.647  14.390  1.00  0.00    -0.507 OA
ATOM     25  H   UNL     1      -6.879  -8.056  13.465  1.00  0.00     0.293 HD
ENDBRANCH   6  24
BRANCH   8  26
ATOM     26  O   UNL     1      -6.157 -10.176  18.446  1.00  0.00    -0.508 OA
ATOM     27  H   UNL     1      -5.811 -10.087  19.395  1.00  0.00     0.293 HD
ENDBRANCH   8  26
TORSDOF 6
ENDMDL
MODEL 9
REMARK VINA RESULT:    -4.880      3.674      8.090
REMARK INTER + INTRA:          -6.344
REMARK INTER:                  -5.994
REMARK INTRA:                  -0.349
REMARK UNBOUND:                -0.323
REMARK SMILES COc1cc(-c2oc3cc(O)cc(O)c3c(=O)c2O)ccc1O
REMARK SMILES IDX 6 1 18 2 16 3 17 4 15 5 13 6 12 7 10 8 9 9 8 10 7 11 5 12
REMARK SMILES IDX 3 13 22 14 4 15 21 16 20 17 2 18 1 19 23 20 19 22 14 24
REMARK SMILES IDX 11 26
REMARK H PARENT 23 21 19 23 14 25 11 27
REMARK Flexibility Score: inf
ROOT
ATOM      1  C   UNL     1       5.725 -11.739  14.686  1.00  0.00     0.180 A 
ATOM      2  C   UNL     1       6.686 -12.745  14.905  1.00  0.00     0.208 A 
ATOM      3  C   UNL     1       6.250 -14.055  15.152  1.00  0.00     0.238 A 
ATOM      4  O   UNL     1       7.101 -14.963  15.361  1.00  0.00    -0.285 OA
ATOM      5  C   UNL     1       4.870 -14.343  15.156  1.00  0.00     0.111 A 
ATOM      6  C   UNL     1       4.349 -15.638  15.393  1.00  0.00     0.134 A 
ATOM      7  C   UNL     1       2.962 -15.845  15.371  1.00  0.00     0.093 A 
ATOM      8  C   UNL     1       2.088 -14.785  15.117  1.00  0.00     0.123 A 
ATOM      9  C   UNL     1       2.597 -13.503  14.883  1.00  0.00     0.094 A 
ATOM     10  C   UNL     1       3.976 -13.277  14.902  1.00  0.00     0.146 A 
ATOM     11  O   UNL     1       4.432 -12.050  14.682  1.00  0.00    -0.452 OA
ENDROOT
BRANCH   1  12
ATOM     12  C   UNL     1       6.106 -10.329  14.437  1.00  0.00     0.025 A 
ATOM     13  C   UNL     1       6.940  -8.565  12.963  1.00  0.00     0.161 A 
ATOM     14  C   UNL     1       6.872  -7.655  14.027  1.00  0.00     0.157 A 
ATOM     15  C   UNL     1       6.562  -9.906  13.176  1.00  0.00     0.062 A 
ATOM     16  C   UNL     1       6.439  -8.080  15.289  1.00  0.00     0.051 A 
ATOM     17  C   UNL     1       6.066  -9.409  15.494  1.00  0.00     0.016 A 
BRANCH  13  18
ATOM     18  O   UNL     1       7.390  -8.104  11.716  1.00  0.00    -0.493 OA
ATOM     19  C   UNL     1       7.767  -8.946  10.632  1.00  0.00     0.278 C 
ENDBRANCH  13  18
BRANCH  14  20
ATOM     20  O   UNL     1       7.241  -6.326  13.821  1.00  0.00    -0.504 OA
ATOM     21  H   UNL     1       7.877  -5.849  14.450  1.00  0.00     0.293 HD
ENDBRANCH  14  20
ENDBRANCH   1  12
BRANCH   2  22
ATOM     22  O   UNL     1       8.049 -12.444  14.847  1.00  0.00    -0.502 OA
ATOM     23  H   UNL     1       8.482 -11.764  15.461  1.00  0.00     0.293 HD
ENDBRANCH   2  22
BRANCH   6  24
ATOM     24  O   UNL     1       5.196 -16.717  15.648  1.00  0.00    -0.507 OA
ATOM     25  H   UNL     1       4.979 -17.410  16.356  1.00  0.00     0.293 HD
ENDBRANCH   6  24
BRANCH   8  26
ATOM     26  O   UNL     1       0.714 -15.018  15.100  1.00  0.00    -0.508 OA
ATOM     27  H   UNL     1       0.091 -14.470  14.517  1.00  0.00     0.293 HD
ENDBRANCH   8  26
TORSDOF 6
ENDMDL
