MODEL 1
REMARK VINA RESULT:    -7.652      0.000      0.000
REMARK INTER + INTRA:          -9.205
REMARK INTER:                  -9.218
REMARK INTRA:                   0.012
REMARK UNBOUND:                 0.012
REMARK SMILES O=c1c(O)c(-c2ccc(O)c(O)c2)oc2cc(O)cc(O)c12
REMARK SMILES IDX 5 1 3 2 2 3 1 4 22 5 20 6 19 7 17 8 16 9 15 10 14 11 6 12
REMARK SMILES IDX 7 13 8 14 9 15 13 16 11 17 10 18 12 20 4 22 21 24 18 26
REMARK H PARENT 10 19 12 21 4 23 21 25 18 27
REMARK Flexibility Score: inf
ROOT
ATOM      1  C   UNL     1       9.697  -1.716  19.368  1.00  0.00     0.180 A 
ATOM      2  C   UNL     1      11.050  -2.094  19.306  1.00  0.00     0.208 A 
ATOM      3  C   UNL     1      11.383  -3.453  19.425  1.00  0.00     0.238 A 
ATOM      4  O   UNL     1      12.591  -3.791  19.314  1.00  0.00    -0.285 OA
ATOM      5  C   UNL     1      10.362  -4.414  19.619  1.00  0.00     0.111 A 
ATOM      6  C   UNL     1      10.590  -5.813  19.791  1.00  0.00     0.134 A 
ATOM      7  C   UNL     1       9.498  -6.688  19.845  1.00  0.00     0.093 A 
ATOM      8  C   UNL     1       8.189  -6.210  19.799  1.00  0.00     0.123 A 
ATOM      9  C   UNL     1       7.955  -4.839  19.691  1.00  0.00     0.094 A 
ATOM     10  C   UNL     1       9.024  -3.944  19.598  1.00  0.00     0.146 A 
ATOM     11  O   UNL     1       8.758  -2.648  19.485  1.00  0.00    -0.452 OA
ENDROOT
BRANCH   1  12
ATOM     12  C   UNL     1       9.268  -0.301  19.277  1.00  0.00     0.025 A 
ATOM     13  C   UNL     1       9.881   0.660  20.095  1.00  0.00     0.016 A 
ATOM     14  C   UNL     1       9.506   2.003  20.010  1.00  0.00     0.051 A 
ATOM     15  C   UNL     1       8.526   2.408  19.099  1.00  0.00     0.157 A 
ATOM     16  C   UNL     1       8.298   0.110  18.346  1.00  0.00     0.062 A 
ATOM     17  C   UNL     1       7.922   1.459  18.259  1.00  0.00     0.158 A 
BRANCH  15  18
ATOM     18  O   UNL     1       8.171   3.756  19.039  1.00  0.00    -0.504 OA
ATOM     19  H   UNL     1       7.909   4.204  18.169  1.00  0.00     0.293 HD
ENDBRANCH  15  18
BRANCH  17  20
ATOM     20  O   UNL     1       6.955   1.858  17.337  1.00  0.00    -0.504 OA
ATOM     21  H   UNL     1       7.162   2.527  16.605  1.00  0.00     0.293 HD
ENDBRANCH  17  20
ENDBRANCH   1  12
BRANCH   2  22
ATOM     22  O   UNL     1      12.039  -1.130  19.092  1.00  0.00    -0.502 OA
ATOM     23  H   UNL     1      12.934  -1.353  18.674  1.00  0.00     0.293 HD
ENDBRANCH   2  22
BRANCH   6  24
ATOM     24  O   UNL     1      11.856  -6.386  19.941  1.00  0.00    -0.507 OA
ATOM     25  H   UNL     1      12.563  -6.412  19.221  1.00  0.00     0.293 HD
ENDBRANCH   6  24
BRANCH   8  26
ATOM     26  O   UNL     1       7.126  -7.108  19.871  1.00  0.00    -0.508 OA
ATOM     27  H   UNL     1       6.784  -7.592  19.049  1.00  0.00     0.293 HD
ENDBRANCH   8  26
TORSDOF 6
ENDMDL
MODEL 2
REMARK VINA RESULT:    -7.270      1.338      3.011
REMARK INTER + INTRA:          -8.746
REMARK INTER:                  -8.748
REMARK INTRA:                   0.003
REMARK UNBOUND:                 0.012
REMARK SMILES O=c1c(O)c(-c2ccc(O)c(O)c2)oc2cc(O)cc(O)c12
REMARK SMILES IDX 5 1 3 2 2 3 1 4 22 5 20 6 19 7 17 8 16 9 15 10 14 11 6 12
REMARK SMILES IDX 7 13 8 14 9 15 13 16 11 17 10 18 12 20 4 22 21 24 18 26
REMARK H PARENT 10 19 12 21 4 23 21 25 18 27
REMARK Flexibility Score: inf
ROOT
ATOM      1  C   UNL     1       8.297  -2.246  19.516  1.00  0.00     0.180 A 
ATOM      2  C   UNL     1       7.053  -2.888  19.641  1.00  0.00     0.208 A 
ATOM      3  C   UNL     1       7.019  -4.286  19.766  1.00  0.00     0.238 A 
ATOM      4  O   UNL     1       5.906  -4.851  19.933  1.00  0.00    -0.285 OA
ATOM      5  C   UNL     1       8.226  -5.025  19.750  1.00  0.00     0.111 A 
ATOM      6  C   UNL     1       8.306  -6.449  19.829  1.00  0.00     0.134 A 
ATOM      7  C   UNL     1       9.559  -7.065  19.936  1.00  0.00     0.093 A 
ATOM      8  C   UNL     1      10.735  -6.316  19.899  1.00  0.00     0.123 A 
ATOM      9  C   UNL     1      10.670  -4.929  19.761  1.00  0.00     0.094 A 
ATOM     10  C   UNL     1       9.433  -4.282  19.690  1.00  0.00     0.146 A 
ATOM     11  O   UNL     1       9.415  -2.960  19.570  1.00  0.00    -0.452 OA
ENDROOT
BRANCH   1  12
ATOM     12  C   UNL     1       8.414  -0.778  19.355  1.00  0.00     0.025 A 
ATOM     13  C   UNL     1       9.357  -0.072  20.117  1.00  0.00     0.016 A 
ATOM     14  C   UNL     1       9.497   1.309  19.966  1.00  0.00     0.051 A 
ATOM     15  C   UNL     1       8.710   2.003  19.041  1.00  0.00     0.157 A 
ATOM     16  C   UNL     1       7.638  -0.082  18.411  1.00  0.00     0.062 A 
ATOM     17  C   UNL     1       7.779   1.305  18.256  1.00  0.00     0.158 A 
BRANCH  15  18
ATOM     18  O   UNL     1       8.872   3.383  18.914  1.00  0.00    -0.504 OA
ATOM     19  H   UNL     1       9.760   3.839  19.085  1.00  0.00     0.293 HD
ENDBRANCH  15  18
BRANCH  17  20
ATOM     20  O   UNL     1       7.002   1.988  17.321  1.00  0.00    -0.504 OA
ATOM     21  H   UNL     1       7.237   1.991  16.336  1.00  0.00     0.293 HD
ENDBRANCH  17  20
ENDBRANCH   1  12
BRANCH   2  22
ATOM     22  O   UNL     1       5.875  -2.137  19.678  1.00  0.00    -0.502 OA
ATOM     23  H   UNL     1       5.532  -1.624  18.874  1.00  0.00     0.293 HD
ENDBRANCH   2  22
BRANCH   6  24
ATOM     24  O   UNL     1       7.196  -7.297  19.781  1.00  0.00    -0.507 OA
ATOM     25  H   UNL     1       6.899  -7.897  20.536  1.00  0.00     0.293 HD
ENDBRANCH   6  24
BRANCH   8  26
ATOM     26  O   UNL     1      11.965  -6.964  19.991  1.00  0.00    -0.508 OA
ATOM     27  H   UNL     1      12.061  -7.853  20.466  1.00  0.00     0.293 HD
ENDBRANCH   8  26
TORSDOF 6
ENDMDL
MODEL 3
REMARK VINA RESULT:    -7.129      1.319      6.627
REMARK INTER + INTRA:          -8.576
REMARK INTER:                  -9.127
REMARK INTRA:                   0.551
REMARK UNBOUND:                 0.012
REMARK SMILES O=c1c(O)c(-c2ccc(O)c(O)c2)oc2cc(O)cc(O)c12
REMARK SMILES IDX 5 1 3 2 2 3 1 4 22 5 20 6 19 7 17 8 16 9 15 10 14 11 6 12
REMARK SMILES IDX 7 13 8 14 9 15 13 16 11 17 10 18 12 20 4 22 21 24 18 26
REMARK H PARENT 10 19 12 21 4 23 21 25 18 27
REMARK Flexibility Score: inf
ROOT
ATOM      1  C   UNL     1      10.412  -2.635  19.461  1.00  0.00     0.180 A 
ATOM      2  C   UNL     1      11.721  -2.136  19.346  1.00  0.00     0.208 A 
ATOM      3  C   UNL     1      11.912  -0.752  19.205  1.00  0.00     0.238 A 
ATOM      4  O   UNL     1      13.088  -0.305  19.157  1.00  0.00    -0.285 OA
ATOM      5  C   UNL     1      10.792   0.113  19.166  1.00  0.00     0.111 A 
ATOM      6  C   UNL     1      10.866   1.528  18.986  1.00  0.00     0.134 A 
ATOM      7  C   UNL     1       9.703   2.299  19.095  1.00  0.00     0.093 A 
ATOM      8  C   UNL     1       8.461   1.704  19.309  1.00  0.00     0.123 A 
ATOM      9  C   UNL     1       8.369   0.316  19.426  1.00  0.00     0.094 A 
ATOM     10  C   UNL     1       9.516  -0.478  19.360  1.00  0.00     0.146 A 
ATOM     11  O   UNL     1       9.386  -1.793  19.486  1.00  0.00    -0.452 OA
ENDROOT
BRANCH   1  12
ATOM     12  C   UNL     1      10.129  -4.084  19.587  1.00  0.00     0.025 A 
ATOM     13  C   UNL     1      11.195  -4.996  19.613  1.00  0.00     0.016 A 
ATOM     14  C   UNL     1      10.951  -6.364  19.751  1.00  0.00     0.051 A 
ATOM     15  C   UNL     1       9.643  -6.840  19.881  1.00  0.00     0.157 A 
ATOM     16  C   UNL     1       8.815  -4.562  19.738  1.00  0.00     0.062 A 
ATOM     17  C   UNL     1       8.569  -5.936  19.879  1.00  0.00     0.158 A 
BRANCH  15  18
ATOM     18  O   UNL     1       9.430  -8.213  20.015  1.00  0.00    -0.504 OA
ATOM     19  H   UNL     1       9.065  -8.619  20.868  1.00  0.00     0.293 HD
ENDBRANCH  15  18
BRANCH  17  20
ATOM     20  O   UNL     1       7.263  -6.401  20.023  1.00  0.00    -0.504 OA
ATOM     21  H   UNL     1       6.594  -6.350  19.264  1.00  0.00     0.293 HD
ENDBRANCH  17  20
ENDBRANCH   1  12
BRANCH   2  22
ATOM     22  O   UNL     1      12.813  -3.006  19.409  1.00  0.00    -0.502 OA
ATOM     23  H   UNL     1      13.333  -3.288  18.586  1.00  0.00     0.293 HD
ENDBRANCH   2  22
BRANCH   6  24
ATOM     24  O   UNL     1      12.044   2.214  18.676  1.00  0.00    -0.507 OA
ATOM     25  H   UNL     1      12.258   2.609  17.773  1.00  0.00     0.293 HD
ENDBRANCH   6  24
BRANCH   8  26
ATOM     26  O   UNL     1       7.322   2.501  19.395  1.00  0.00    -0.508 OA
ATOM     27  H   UNL     1       6.802   2.591  20.259  1.00  0.00     0.293 HD
ENDBRANCH   8  26
TORSDOF 6
ENDMDL
