MODEL 1
REMARK VINA RESULT:    -5.201      0.000      0.000
REMARK INTER + INTRA:          -5.201
REMARK INTER:                  -5.201
REMARK INTRA:                   0.000
REMARK UNBOUND:                 0.000
REMARK SMILES CC(C)=C1CC[C@@H](C)CC1=O
REMARK SMILES IDX 8 1 7 2 6 3 5 4 4 5 2 6 1 7 3 8 10 9 11 10 9 11
REMARK H PARENT
REMARK Flexibility Score: inf
ROOT
ATOM      1  C   UNL     1       4.905  20.799   1.425  1.00  0.00     0.008 C 
ATOM      2  C   UNL     1       5.049  21.300   2.866  1.00  0.00    -0.006 C 
ATOM      3  C   UNL     1       6.127  20.500   3.613  1.00  0.00     0.008 C 
ATOM      4  C   UNL     1       6.358  21.055   5.024  1.00  0.00     0.039 C 
ATOM      5  C   UNL     1       5.065  21.178   5.821  1.00  0.00    -0.006 C 
ATOM      6  C   UNL     1       5.049  21.020   7.177  1.00  0.00    -0.070 C 
ATOM      7  C   UNL     1       6.318  20.732   7.947  1.00  0.00     0.039 C 
ATOM      8  C   UNL     1       3.764  21.085   7.971  1.00  0.00     0.039 C 
ATOM      9  C   UNL     1       3.857  21.596   5.048  1.00  0.00     0.159 C 
ATOM     10  O   UNL     1       2.947  22.288   5.578  1.00  0.00    -0.295 OA
ATOM     11  C   UNL     1       3.709  21.195   3.609  1.00  0.00     0.084 C 
ENDROOT
TORSDOF 0
ENDMDL
MODEL 2
REMARK VINA RESULT:    -5.188      1.945      3.695
REMARK INTER + INTRA:          -5.188
REMARK INTER:                  -5.188
REMARK INTRA:                   0.000
REMARK UNBOUND:                 0.000
REMARK SMILES CC(C)=C1CC[C@@H](C)CC1=O
REMARK SMILES IDX 8 1 7 2 6 3 5 4 4 5 2 6 1 7 3 8 10 9 11 10 9 11
REMARK H PARENT
REMARK Flexibility Score: inf
ROOT
ATOM      1  C   UNL     1       6.507  18.567   7.188  1.00  0.00     0.008 C 
ATOM      2  C   UNL     1       6.163  19.958   6.646  1.00  0.00    -0.006 C 
ATOM      3  C   UNL     1       5.647  20.867   7.773  1.00  0.00     0.008 C 
ATOM      4  C   UNL     1       5.395  22.294   7.269  1.00  0.00     0.039 C 
ATOM      5  C   UNL     1       4.501  22.328   6.036  1.00  0.00    -0.006 C 
ATOM      6  C   UNL     1       3.654  23.373   5.802  1.00  0.00    -0.070 C 
ATOM      7  C   UNL     1       3.580  24.549   6.750  1.00  0.00     0.039 C 
ATOM      8  C   UNL     1       2.722  23.391   4.613  1.00  0.00     0.039 C 
ATOM      9  C   UNL     1       4.696  21.219   5.055  1.00  0.00     0.159 C 
ATOM     10  O   UNL     1       4.524  21.400   3.820  1.00  0.00    -0.295 OA
ATOM     11  C   UNL     1       5.111  19.857   5.532  1.00  0.00     0.084 C 
ENDROOT
TORSDOF 0
ENDMDL
MODEL 3
REMARK VINA RESULT:    -5.165      2.789      3.726
REMARK INTER + INTRA:          -5.165
REMARK INTER:                  -5.165
REMARK INTRA:                   0.000
REMARK UNBOUND:                 0.000
REMARK SMILES CC(C)=C1CC[C@@H](C)CC1=O
REMARK SMILES IDX 8 1 7 2 6 3 5 4 4 5 2 6 1 7 3 8 10 9 11 10 9 11
REMARK H PARENT
REMARK Flexibility Score: inf
ROOT
ATOM      1  C   UNL     1       6.465  18.618   7.370  1.00  0.00     0.008 C 
ATOM      2  C   UNL     1       5.544  19.719   6.833  1.00  0.00    -0.006 C 
ATOM      3  C   UNL     1       6.082  21.108   7.211  1.00  0.00     0.008 C 
ATOM      4  C   UNL     1       5.230  22.224   6.594  1.00  0.00     0.039 C 
ATOM      5  C   UNL     1       3.747  22.067   6.908  1.00  0.00    -0.006 C 
ATOM      6  C   UNL     1       2.932  23.153   7.047  1.00  0.00    -0.070 C 
ATOM      7  C   UNL     1       3.464  24.559   6.878  1.00  0.00     0.039 C 
ATOM      8  C   UNL     1       1.472  23.011   7.413  1.00  0.00     0.039 C 
ATOM      9  C   UNL     1       3.228  20.667   6.934  1.00  0.00     0.159 C 
ATOM     10  O   UNL     1       2.048  20.399   6.585  1.00  0.00    -0.295 OA
ATOM     11  C   UNL     1       4.119  19.543   7.378  1.00  0.00     0.084 C 
ENDROOT
TORSDOF 0
ENDMDL
MODEL 4
REMARK VINA RESULT:    -5.035      0.996      4.023
REMARK INTER + INTRA:          -5.035
REMARK INTER:                  -5.035
REMARK INTRA:                   0.000
REMARK UNBOUND:                 0.000
REMARK SMILES CC(C)=C1CC[C@@H](C)CC1=O
REMARK SMILES IDX 8 1 7 2 6 3 5 4 4 5 2 6 1 7 3 8 10 9 11 10 9 11
REMARK H PARENT
REMARK Flexibility Score: inf
ROOT
ATOM      1  C   UNL     1       6.586  21.714   7.702  1.00  0.00     0.008 C 
ATOM      2  C   UNL     1       5.795  21.187   6.499  1.00  0.00    -0.006 C 
ATOM      3  C   UNL     1       6.680  21.148   5.243  1.00  0.00     0.008 C 
ATOM      4  C   UNL     1       5.936  20.527   4.054  1.00  0.00     0.039 C 
ATOM      5  C   UNL     1       4.588  21.190   3.799  1.00  0.00    -0.006 C 
ATOM      6  C   UNL     1       4.072  21.287   2.539  1.00  0.00    -0.070 C 
ATOM      7  C   UNL     1       4.810  20.725   1.344  1.00  0.00     0.039 C 
ATOM      8  C   UNL     1       2.763  21.991   2.267  1.00  0.00     0.039 C 
ATOM      9  C   UNL     1       3.826  21.612   5.012  1.00  0.00     0.159 C 
ATOM     10  O   UNL     1       2.566  21.597   5.032  1.00  0.00    -0.295 OA
ATOM     11  C   UNL     1       4.559  22.061   6.242  1.00  0.00     0.084 C 
ENDROOT
TORSDOF 0
ENDMDL
MODEL 5
REMARK VINA RESULT:    -4.970      3.248      4.204
REMARK INTER + INTRA:          -4.970
REMARK INTER:                  -4.970
REMARK INTRA:                   0.000
REMARK UNBOUND:                 0.000
REMARK SMILES CC(C)=C1CC[C@@H](C)CC1=O
REMARK SMILES IDX 8 1 7 2 6 3 5 4 4 5 2 6 1 7 3 8 10 9 11 10 9 11
REMARK H PARENT
REMARK Flexibility Score: inf
ROOT
ATOM      1  C   UNL     1       1.890  17.101   6.193  1.00  0.00     0.008 C 
ATOM      2  C   UNL     1       2.700  18.215   6.866  1.00  0.00    -0.006 C 
ATOM      3  C   UNL     1       2.228  19.595   6.382  1.00  0.00     0.008 C 
ATOM      4  C   UNL     1       2.956  20.725   7.122  1.00  0.00     0.039 C 
ATOM      5  C   UNL     1       4.471  20.575   7.070  1.00  0.00    -0.006 C 
ATOM      6  C   UNL     1       5.292  21.666   7.059  1.00  0.00    -0.070 C 
ATOM      7  C   UNL     1       4.732  23.070   7.115  1.00  0.00     0.039 C 
ATOM      8  C   UNL     1       6.794  21.530   6.951  1.00  0.00     0.039 C 
ATOM      9  C   UNL     1       4.994  19.178   7.151  1.00  0.00     0.159 C 
ATOM     10  O   UNL     1       6.098  18.924   7.702  1.00  0.00    -0.295 OA
ATOM     11  C   UNL     1       4.198  18.043   6.576  1.00  0.00     0.084 C 
ENDROOT
TORSDOF 0
ENDMDL
MODEL 6
REMARK VINA RESULT:    -4.968      2.818      3.877
REMARK INTER + INTRA:          -4.968
REMARK INTER:                  -4.968
REMARK INTRA:                   0.000
REMARK UNBOUND:                 0.000
REMARK SMILES CC(C)=C1CC[C@@H](C)CC1=O
REMARK SMILES IDX 8 1 7 2 6 3 5 4 4 5 2 6 1 7 3 8 10 9 11 10 9 11
REMARK H PARENT
REMARK Flexibility Score: inf
ROOT
ATOM      1  C   UNL     1       6.885  18.276   6.375  1.00  0.00     0.008 C 
ATOM      2  C   UNL     1       5.911  19.257   7.036  1.00  0.00    -0.006 C 
ATOM      3  C   UNL     1       4.457  18.852   6.751  1.00  0.00     0.008 C 
ATOM      4  C   UNL     1       3.468  19.762   7.490  1.00  0.00     0.039 C 
ATOM      5  C   UNL     1       3.725  21.240   7.225  1.00  0.00    -0.006 C 
ATOM      6  C   UNL     1       2.704  22.146   7.208  1.00  0.00    -0.070 C 
ATOM      7  C   UNL     1       1.276  21.723   7.468  1.00  0.00     0.039 C 
ATOM      8  C   UNL     1       2.940  23.605   6.890  1.00  0.00     0.039 C 
ATOM      9  C   UNL     1       5.158  21.644   7.105  1.00  0.00     0.159 C 
ATOM     10  O   UNL     1       5.551  22.782   7.479  1.00  0.00    -0.295 OA
ATOM     11  C   UNL     1       6.164  20.687   6.536  1.00  0.00     0.084 C 
ENDROOT
TORSDOF 0
ENDMDL
MODEL 7
REMARK VINA RESULT:    -4.851      2.519      4.052
REMARK INTER + INTRA:          -4.851
REMARK INTER:                  -4.851
REMARK INTRA:                   0.000
REMARK UNBOUND:                 0.000
REMARK SMILES CC(C)=C1CC[C@@H](C)CC1=O
REMARK SMILES IDX 8 1 7 2 6 3 5 4 4 5 2 6 1 7 3 8 10 9 11 10 9 11
REMARK H PARENT
REMARK Flexibility Score: inf
ROOT
ATOM      1  C   UNL     1       1.284  23.199   7.833  1.00  0.00     0.008 C 
ATOM      2  C   UNL     1       2.298  22.224   7.224  1.00  0.00    -0.006 C 
ATOM      3  C   UNL     1       2.649  21.111   8.224  1.00  0.00     0.008 C 
ATOM      4  C   UNL     1       3.582  20.069   7.596  1.00  0.00     0.039 C 
ATOM      5  C   UNL     1       4.818  20.698   6.965  1.00  0.00    -0.006 C 
ATOM      6  C   UNL     1       6.013  20.039   6.935  1.00  0.00    -0.070 C 
ATOM      7  C   UNL     1       6.156  18.648   7.513  1.00  0.00     0.039 C 
ATOM      8  C   UNL     1       7.259  20.675   6.362  1.00  0.00     0.039 C 
ATOM      9  C   UNL     1       4.610  22.012   6.286  1.00  0.00     0.159 C 
ATOM     10  O   UNL     1       5.289  22.342   5.277  1.00  0.00    -0.295 OA
ATOM     11  C   UNL     1       3.573  22.967   6.799  1.00  0.00     0.084 C 
ENDROOT
TORSDOF 0
ENDMDL
MODEL 8
REMARK VINA RESULT:    -4.806      1.533      2.429
REMARK INTER + INTRA:          -4.806
REMARK INTER:                  -4.806
REMARK INTRA:                   0.000
REMARK UNBOUND:                 0.000
REMARK SMILES CC(C)=C1CC[C@@H](C)CC1=O
REMARK SMILES IDX 8 1 7 2 6 3 5 4 4 5 2 6 1 7 3 8 10 9 11 10 9 11
REMARK H PARENT
REMARK Flexibility Score: inf
ROOT
ATOM      1  C   UNL     1       5.031  21.559   1.609  1.00  0.00     0.008 C 
ATOM      2  C   UNL     1       4.824  20.906   2.981  1.00  0.00    -0.006 C 
ATOM      3  C   UNL     1       3.743  21.652   3.779  1.00  0.00     0.008 C 
ATOM      4  C   UNL     1       3.450  20.952   5.112  1.00  0.00     0.039 C 
ATOM      5  C   UNL     1       4.711  20.702   5.929  1.00  0.00    -0.006 C 
ATOM      6  C   UNL     1       4.685  20.709   7.294  1.00  0.00    -0.070 C 
ATOM      7  C   UNL     1       3.399  20.949   8.053  1.00  0.00     0.039 C 
ATOM      8  C   UNL     1       5.940  20.518   8.115  1.00  0.00     0.039 C 
ATOM      9  C   UNL     1       5.933  20.335   5.152  1.00  0.00     0.159 C 
ATOM     10  O   UNL     1       6.805  19.561   5.630  1.00  0.00    -0.295 OA
ATOM     11  C   UNL     1       6.140  20.888   3.772  1.00  0.00     0.084 C 
ENDROOT
TORSDOF 0
ENDMDL
MODEL 9
REMARK VINA RESULT:    -4.763      1.874      4.459
REMARK INTER + INTRA:          -4.763
REMARK INTER:                  -4.763
REMARK INTRA:                   0.000
REMARK UNBOUND:                 0.000
REMARK SMILES CC(C)=C1CC[C@@H](C)CC1=O
REMARK SMILES IDX 8 1 7 2 6 3 5 4 4 5 2 6 1 7 3 8 10 9 11 10 9 11
REMARK H PARENT
REMARK Flexibility Score: inf
ROOT
ATOM      1  C   UNL     1       6.159  18.594   7.670  1.00  0.00     0.008 C 
ATOM      2  C   UNL     1       5.762  19.730   6.721  1.00  0.00    -0.006 C 
ATOM      3  C   UNL     1       4.241  19.744   6.500  1.00  0.00     0.008 C 
ATOM      4  C   UNL     1       3.814  20.937   5.635  1.00  0.00     0.039 C 
ATOM      5  C   UNL     1       4.594  21.020   4.330  1.00  0.00    -0.006 C 
ATOM      6  C   UNL     1       4.026  21.521   3.193  1.00  0.00    -0.070 C 
ATOM      7  C   UNL     1       2.601  22.029   3.188  1.00  0.00     0.039 C 
ATOM      8  C   UNL     1       4.772  21.556   1.879  1.00  0.00     0.039 C 
ATOM      9  C   UNL     1       6.036  20.637   4.403  1.00  0.00     0.159 C 
ATOM     10  O   UNL     1       6.897  21.183   3.663  1.00  0.00    -0.295 OA
ATOM     11  C   UNL     1       6.485  19.584   5.374  1.00  0.00     0.084 C 
ENDROOT
TORSDOF 0
ENDMDL
