MODEL 1
REMARK VINA RESULT:    -3.416      0.000      0.000
REMARK INTER + INTRA:         -10.899
REMARK INTER:                  -7.409
REMARK INTRA:                  -3.489
REMARK UNBOUND:                -3.489
REMARK SMILES CCCCCCCCCCCCCCCCCCCCCC(=O)[O-]
REMARK SMILES IDX 12 1 11 2 10 3 9 4 8 5 7 6 6 7 5 8 4 9 3 10 2 11 1 12 13 13
REMARK SMILES IDX 14 14 15 15 16 16 17 17 18 18 19 19 20 20 21 21 22 22 23 23
REMARK SMILES IDX 24 24
REMARK H PARENT
REMARK Flexibility Score: inf
ROOT
ATOM      1  C   UNL     1      28.989  38.290   1.651  1.00  0.00     0.000 C 
ENDROOT
BRANCH   1   2
ATOM      2  C   UNL     1      28.798  38.661   0.168  1.00  0.00     0.000 C 
BRANCH   2   3
ATOM      3  C   UNL     1      27.414  38.327  -0.418  1.00  0.00     0.000 C 
BRANCH   3   4
ATOM      4  C   UNL     1      26.641  39.574  -0.881  1.00  0.00    -0.000 C 
BRANCH   4   5
ATOM      5  C   UNL     1      25.395  39.849  -0.025  1.00  0.00    -0.000 C 
BRANCH   5   6
ATOM      6  C   UNL     1      25.112  38.730   0.989  1.00  0.00    -0.000 C 
BRANCH   6   7
ATOM      7  C   UNL     1      24.443  39.290   2.251  1.00  0.00    -0.000 C 
BRANCH   7   8
ATOM      8  C   UNL     1      24.411  40.823   2.225  1.00  0.00    -0.000 C 
BRANCH   8   9
ATOM      9  C   UNL     1      24.038  41.389   3.604  1.00  0.00    -0.000 C 
BRANCH   9  10
ATOM     10  C   UNL     1      24.083  40.326   4.713  1.00  0.00    -0.000 C 
BRANCH  10  11
ATOM     11  C   UNL     1      24.066  40.938   6.121  1.00  0.00    -0.003 C 
ATOM     12  C   UNL     1      25.190  40.367   6.983  1.00  0.00     0.004 C 
ENDBRANCH  10  11
ENDBRANCH   9  10
ENDBRANCH   8   9
ENDBRANCH   7   8
ENDBRANCH   6   7
ENDBRANCH   5   6
ENDBRANCH   4   5
ENDBRANCH   3   4
ENDBRANCH   2   3
ENDBRANCH   1   2
BRANCH   1  13
ATOM     13  C   UNL     1      29.300  39.505   2.538  1.00  0.00     0.000 C 
BRANCH  13  14
ATOM     14  C   UNL     1      28.056  40.383   2.725  1.00  0.00     0.000 C 
BRANCH  14  15
ATOM     15  C   UNL     1      27.711  40.535   4.214  1.00  0.00     0.000 C 
BRANCH  15  16
ATOM     16  C   UNL     1      28.080  41.920   4.776  1.00  0.00     0.000 C 
BRANCH  16  17
ATOM     17  C   UNL     1      27.806  43.102   3.828  1.00  0.00     0.000 C 
BRANCH  17  18
ATOM     18  C   UNL     1      26.436  43.755   4.065  1.00  0.00     0.000 C 
BRANCH  18  19
ATOM     19  C   UNL     1      26.110  43.824   5.561  1.00  0.00     0.000 C 
BRANCH  19  20
ATOM     20  C   UNL     1      25.380  45.128   5.906  1.00  0.00     0.006 C 
BRANCH  20  21
ATOM     21  C   UNL     1      26.330  46.327   5.826  1.00  0.00     0.053 C 
BRANCH  21  22
ATOM     22  C   UNL     1      27.441  46.183   6.817  1.00  0.00     0.041 C 
ATOM     23  O   UNL     1      28.640  46.255   6.441  1.00  0.00    -0.550 OA
ATOM     24  O   UNL     1      27.150  46.018   8.167  1.00  0.00    -0.550 OA
ENDBRANCH  21  22
ENDBRANCH  20  21
ENDBRANCH  19  20
ENDBRANCH  18  19
ENDBRANCH  17  18
ENDBRANCH  16  17
ENDBRANCH  15  16
ENDBRANCH  14  15
ENDBRANCH  13  14
ENDBRANCH   1  13
TORSDOF 20
ENDMDL
MODEL 2
REMARK VINA RESULT:    -3.322      1.277      3.657
REMARK INTER + INTRA:         -10.695
REMARK INTER:                  -7.446
REMARK INTRA:                  -3.249
REMARK UNBOUND:                -3.489
REMARK SMILES CCCCCCCCCCCCCCCCCCCCCC(=O)[O-]
REMARK SMILES IDX 12 1 11 2 10 3 9 4 8 5 7 6 6 7 5 8 4 9 3 10 2 11 1 12 13 13
REMARK SMILES IDX 14 14 15 15 16 16 17 17 18 18 19 19 20 20 21 21 22 22 23 23
REMARK SMILES IDX 24 24
REMARK H PARENT
REMARK Flexibility Score: inf
ROOT
ATOM      1  C   UNL     1      25.581  39.925   0.407  1.00  0.00     0.000 C 
ENDROOT
BRANCH   1   2
ATOM      2  C   UNL     1      25.573  39.676  -1.113  1.00  0.00     0.000 C 
BRANCH   2   3
ATOM      3  C   UNL     1      26.963  39.538  -1.761  1.00  0.00     0.000 C 
BRANCH   3   4
ATOM      4  C   UNL     1      27.723  38.286  -1.287  1.00  0.00    -0.000 C 
BRANCH   4   5
ATOM      5  C   UNL     1      29.109  38.620  -0.712  1.00  0.00    -0.000 C 
BRANCH   5   6
ATOM      6  C   UNL     1      29.378  37.926   0.632  1.00  0.00    -0.000 C 
BRANCH   6   7
ATOM      7  C   UNL     1      29.227  38.912   1.798  1.00  0.00    -0.000 C 
BRANCH   7   8
ATOM      8  C   UNL     1      28.214  38.399   2.828  1.00  0.00    -0.000 C 
BRANCH   8   9
ATOM      9  C   UNL     1      27.734  39.536   3.742  1.00  0.00    -0.000 C 
BRANCH   9  10
ATOM     10  C   UNL     1      27.937  40.925   3.117  1.00  0.00    -0.000 C 
BRANCH  10  11
ATOM     11  C   UNL     1      27.695  42.066   4.116  1.00  0.00    -0.003 C 
ATOM     12  C   UNL     1      27.862  41.581   5.554  1.00  0.00     0.004 C 
ENDBRANCH  10  11
ENDBRANCH   9  10
ENDBRANCH   8   9
ENDBRANCH   7   8
ENDBRANCH   6   7
ENDBRANCH   5   6
ENDBRANCH   4   5
ENDBRANCH   3   4
ENDBRANCH   2   3
ENDBRANCH   1   2
BRANCH   1  13
ATOM     13  C   UNL     1      24.210  39.692   1.060  1.00  0.00     0.000 C 
BRANCH  13  14
ATOM     14  C   UNL     1      24.339  38.818   2.314  1.00  0.00     0.000 C 
BRANCH  14  15
ATOM     15  C   UNL     1      24.239  39.668   3.588  1.00  0.00     0.000 C 
BRANCH  15  16
ATOM     16  C   UNL     1      24.199  41.179   3.300  1.00  0.00     0.000 C 
BRANCH  16  17
ATOM     17  C   UNL     1      23.958  42.071   4.532  1.00  0.00     0.000 C 
BRANCH  17  18
ATOM     18  C   UNL     1      24.178  41.331   5.860  1.00  0.00     0.000 C 
BRANCH  18  19
ATOM     19  C   UNL     1      23.941  42.262   7.054  1.00  0.00     0.000 C 
BRANCH  19  20
ATOM     20  C   UNL     1      24.177  43.727   6.666  1.00  0.00     0.006 C 
BRANCH  20  21
ATOM     21  C   UNL     1      25.552  44.206   7.139  1.00  0.00     0.053 C 
BRANCH  21  22
ATOM     22  C   UNL     1      26.134  45.176   6.160  1.00  0.00     0.041 C 
ATOM     23  O   UNL     1      25.999  44.987   4.923  1.00  0.00    -0.550 OA
ATOM     24  O   UNL     1      26.784  46.317   6.616  1.00  0.00    -0.550 OA
ENDBRANCH  21  22
ENDBRANCH  20  21
ENDBRANCH  19  20
ENDBRANCH  18  19
ENDBRANCH  17  18
ENDBRANCH  16  17
ENDBRANCH  15  16
ENDBRANCH  14  15
ENDBRANCH  13  14
ENDBRANCH   1  13
TORSDOF 20
ENDMDL
MODEL 3
REMARK VINA RESULT:    -3.260      3.503      6.714
REMARK INTER + INTRA:         -10.561
REMARK INTER:                  -6.982
REMARK INTRA:                  -3.580
REMARK UNBOUND:                -3.489
REMARK SMILES CCCCCCCCCCCCCCCCCCCCCC(=O)[O-]
REMARK SMILES IDX 12 1 11 2 10 3 9 4 8 5 7 6 6 7 5 8 4 9 3 10 2 11 1 12 13 13
REMARK SMILES IDX 14 14 15 15 16 16 17 17 18 18 19 19 20 20 21 21 22 22 23 23
REMARK SMILES IDX 24 24
REMARK H PARENT
REMARK Flexibility Score: inf
ROOT
ATOM      1  C   UNL     1      27.046  44.171   6.369  1.00  0.00     0.000 C 
ENDROOT
BRANCH   1   2
ATOM      2  C   UNL     1      28.047  43.916   5.226  1.00  0.00     0.000 C 
BRANCH   2   3
ATOM      3  C   UNL     1      27.443  43.294   3.953  1.00  0.00     0.000 C 
BRANCH   3   4
ATOM      4  C   UNL     1      27.739  41.790   3.822  1.00  0.00    -0.000 C 
BRANCH   4   5
ATOM      5  C   UNL     1      29.052  41.384   4.511  1.00  0.00    -0.000 C 
BRANCH   5   6
ATOM      6  C   UNL     1      28.859  40.272   5.552  1.00  0.00    -0.000 C 
BRANCH   6   7
ATOM      7  C   UNL     1      27.374  39.918   5.708  1.00  0.00    -0.000 C 
BRANCH   7   8
ATOM      8  C   UNL     1      26.892  40.179   7.140  1.00  0.00    -0.000 C 
BRANCH   8   9
ATOM      9  C   UNL     1      28.061  40.591   8.048  1.00  0.00    -0.000 C 
BRANCH   9  10
ATOM     10  C   UNL     1      27.781  41.890   8.822  1.00  0.00    -0.000 C 
BRANCH  10  11
ATOM     11  C   UNL     1      26.808  41.684   9.992  1.00  0.00    -0.003 C 
ATOM     12  C   UNL     1      26.008  42.954  10.270  1.00  0.00     0.004 C 
ENDBRANCH  10  11
ENDBRANCH   9  10
ENDBRANCH   8   9
ENDBRANCH   7   8
ENDBRANCH   6   7
ENDBRANCH   5   6
ENDBRANCH   4   5
ENDBRANCH   3   4
ENDBRANCH   2   3
ENDBRANCH   1   2
BRANCH   1  13
ATOM     13  C   UNL     1      25.931  45.153   5.981  1.00  0.00     0.000 C 
BRANCH  13  14
ATOM     14  C   UNL     1      24.552  44.489   6.086  1.00  0.00     0.000 C 
BRANCH  14  15
ATOM     15  C   UNL     1      24.645  43.141   6.815  1.00  0.00     0.000 C 
BRANCH  15  16
ATOM     16  C   UNL     1      23.886  42.014   6.093  1.00  0.00     0.000 C 
BRANCH  16  17
ATOM     17  C   UNL     1      23.927  42.083   4.555  1.00  0.00     0.000 C 
BRANCH  17  18
ATOM     18  C   UNL     1      24.327  40.750   3.905  1.00  0.00     0.000 C 
BRANCH  18  19
ATOM     19  C   UNL     1      24.157  40.807   2.383  1.00  0.00     0.000 C 
BRANCH  19  20
ATOM     20  C   UNL     1      24.763  39.567   1.714  1.00  0.00     0.006 C 
BRANCH  20  21
ATOM     21  C   UNL     1      24.491  39.567   0.207  1.00  0.00     0.053 C 
BRANCH  21  22
ATOM     22  C   UNL     1      25.775  39.493  -0.557  1.00  0.00     0.041 C 
ATOM     23  O   UNL     1      26.706  38.745  -0.162  1.00  0.00    -0.550 OA
ATOM     24  O   UNL     1      25.924  40.215  -1.736  1.00  0.00    -0.550 OA
ENDBRANCH  21  22
ENDBRANCH  20  21
ENDBRANCH  19  20
ENDBRANCH  18  19
ENDBRANCH  17  18
ENDBRANCH  16  17
ENDBRANCH  15  16
ENDBRANCH  14  15
ENDBRANCH  13  14
ENDBRANCH   1  13
TORSDOF 20
ENDMDL
MODEL 4
REMARK VINA RESULT:    -3.256      1.417      4.200
REMARK INTER + INTRA:         -10.551
REMARK INTER:                  -7.460
REMARK INTRA:                  -3.091
REMARK UNBOUND:                -3.489
REMARK SMILES CCCCCCCCCCCCCCCCCCCCCC(=O)[O-]
REMARK SMILES IDX 12 1 11 2 10 3 9 4 8 5 7 6 6 7 5 8 4 9 3 10 2 11 1 12 13 13
REMARK SMILES IDX 14 14 15 15 16 16 17 17 18 18 19 19 20 20 21 21 22 22 23 23
REMARK SMILES IDX 24 24
REMARK H PARENT
REMARK Flexibility Score: inf
ROOT
ATOM      1  C   UNL     1      24.115  39.666   2.056  1.00  0.00     0.000 C 
ENDROOT
BRANCH   1   2
ATOM      2  C   UNL     1      24.005  39.527   0.526  1.00  0.00     0.000 C 
BRANCH   2   3
ATOM      3  C   UNL     1      25.277  39.022  -0.179  1.00  0.00     0.000 C 
BRANCH   3   4
ATOM      4  C   UNL     1      25.790  39.992  -1.258  1.00  0.00    -0.000 C 
BRANCH   4   5
ATOM      5  C   UNL     1      27.196  39.626  -1.761  1.00  0.00    -0.000 C 
BRANCH   5   6
ATOM      6  C   UNL     1      27.739  38.338  -1.124  1.00  0.00    -0.000 C 
BRANCH   6   7
ATOM      7  C   UNL     1      29.172  38.539  -0.616  1.00  0.00    -0.000 C 
BRANCH   7   8
ATOM      8  C   UNL     1      29.341  37.972   0.799  1.00  0.00    -0.000 C 
BRANCH   8   9
ATOM      9  C   UNL     1      27.977  37.674   1.439  1.00  0.00    -0.000 C 
BRANCH   9  10
ATOM     10  C   UNL     1      27.705  38.535   2.683  1.00  0.00    -0.000 C 
BRANCH  10  11
ATOM     11  C   UNL     1      27.828  40.039   2.400  1.00  0.00    -0.003 C 
ATOM     12  C   UNL     1      27.824  40.845   3.697  1.00  0.00     0.004 C 
ENDBRANCH  10  11
ENDBRANCH   9  10
ENDBRANCH   8   9
ENDBRANCH   7   8
ENDBRANCH   6   7
ENDBRANCH   5   6
ENDBRANCH   4   5
ENDBRANCH   3   4
ENDBRANCH   2   3
ENDBRANCH   1   2
BRANCH   1  13
ATOM     13  C   UNL     1      24.269  41.123   2.516  1.00  0.00     0.000 C 
BRANCH  13  14
ATOM     14  C   UNL     1      24.138  41.236   4.041  1.00  0.00     0.000 C 
BRANCH  14  15
ATOM     15  C   UNL     1      24.300  39.863   4.708  1.00  0.00     0.000 C 
BRANCH  15  16
ATOM     16  C   UNL     1      23.875  39.861   6.188  1.00  0.00     0.000 C 
BRANCH  16  17
ATOM     17  C   UNL     1      25.037  39.871   7.199  1.00  0.00     0.000 C 
BRANCH  17  18
ATOM     18  C   UNL     1      25.673  41.259   7.367  1.00  0.00     0.000 C 
BRANCH  18  19
ATOM     19  C   UNL     1      24.615  42.310   7.721  1.00  0.00     0.000 C 
BRANCH  19  20
ATOM     20  C   UNL     1      25.141  43.728   7.469  1.00  0.00     0.006 C 
BRANCH  20  21
ATOM     21  C   UNL     1      24.636  44.271   6.129  1.00  0.00     0.053 C 
BRANCH  21  22
ATOM     22  C   UNL     1      25.773  44.808   5.319  1.00  0.00     0.041 C 
ATOM     23  O   UNL     1      26.274  45.929   5.594  1.00  0.00    -0.550 OA
ATOM     24  O   UNL     1      26.314  44.046   4.289  1.00  0.00    -0.550 OA
ENDBRANCH  21  22
ENDBRANCH  20  21
ENDBRANCH  19  20
ENDBRANCH  18  19
ENDBRANCH  17  18
ENDBRANCH  16  17
ENDBRANCH  15  16
ENDBRANCH  14  15
ENDBRANCH  13  14
ENDBRANCH   1  13
TORSDOF 20
ENDMDL
MODEL 5
REMARK VINA RESULT:    -3.145      2.036      5.068
REMARK INTER + INTRA:         -10.312
REMARK INTER:                  -7.131
REMARK INTRA:                  -3.180
REMARK UNBOUND:                -3.489
REMARK SMILES CCCCCCCCCCCCCCCCCCCCCC(=O)[O-]
REMARK SMILES IDX 12 1 11 2 10 3 9 4 8 5 7 6 6 7 5 8 4 9 3 10 2 11 1 12 13 13
REMARK SMILES IDX 14 14 15 15 16 16 17 17 18 18 19 19 20 20 21 21 22 22 23 23
REMARK SMILES IDX 24 24
REMARK H PARENT
REMARK Flexibility Score: inf
ROOT
ATOM      1  C   UNL     1      26.083  42.540   3.916  1.00  0.00     0.000 C 
ENDROOT
BRANCH   1   2
ATOM      2  C   UNL     1      24.673  42.071   4.324  1.00  0.00     0.000 C 
BRANCH   2   3
ATOM      3  C   UNL     1      24.250  40.702   3.762  1.00  0.00     0.000 C 
BRANCH   3   4
ATOM      4  C   UNL     1      24.307  40.640   2.226  1.00  0.00    -0.000 C 
BRANCH   4   5
ATOM      5  C   UNL     1      24.024  39.232   1.680  1.00  0.00    -0.000 C 
BRANCH   5   6
ATOM      6  C   UNL     1      24.268  39.120   0.168  1.00  0.00    -0.000 C 
BRANCH   6   7
ATOM      7  C   UNL     1      25.454  39.991  -0.263  1.00  0.00    -0.000 C 
BRANCH   7   8
ATOM      8  C   UNL     1      26.260  39.314  -1.378  1.00  0.00    -0.000 C 
BRANCH   8   9
ATOM      9  C   UNL     1      27.726  39.124  -0.960  1.00  0.00    -0.000 C 
BRANCH   9  10
ATOM     10  C   UNL     1      27.874  38.288   0.321  1.00  0.00    -0.000 C 
BRANCH  10  11
ATOM     11  C   UNL     1      28.727  38.987   1.390  1.00  0.00    -0.003 C 
ATOM     12  C   UNL     1      27.849  39.642   2.453  1.00  0.00     0.004 C 
ENDBRANCH  10  11
ENDBRANCH   9  10
ENDBRANCH   8   9
ENDBRANCH   7   8
ENDBRANCH   6   7
ENDBRANCH   5   6
ENDBRANCH   4   5
ENDBRANCH   3   4
ENDBRANCH   2   3
ENDBRANCH   1   2
BRANCH   1  13
ATOM     13  C   UNL     1      26.392  43.975   4.369  1.00  0.00     0.000 C 
BRANCH  13  14
ATOM     14  C   UNL     1      25.545  44.361   5.589  1.00  0.00     0.000 C 
BRANCH  14  15
ATOM     15  C   UNL     1      26.421  44.965   6.696  1.00  0.00     0.000 C 
BRANCH  15  16
ATOM     16  C   UNL     1      26.630  44.008   7.884  1.00  0.00     0.000 C 
BRANCH  16  17
ATOM     17  C   UNL     1      25.876  42.670   7.783  1.00  0.00     0.000 C 
BRANCH  17  18
ATOM     18  C   UNL     1      26.808  41.471   7.553  1.00  0.00     0.000 C 
BRANCH  18  19
ATOM     19  C   UNL     1      28.272  41.920   7.476  1.00  0.00     0.000 C 
BRANCH  19  20
ATOM     20  C   UNL     1      28.848  41.683   6.074  1.00  0.00     0.006 C 
BRANCH  20  21
ATOM     21  C   UNL     1      29.973  42.675   5.768  1.00  0.00     0.053 C 
BRANCH  21  22
ATOM     22  C   UNL     1      30.348  42.611   4.321  1.00  0.00     0.041 C 
ATOM     23  O   UNL     1      30.583  41.503   3.774  1.00  0.00    -0.550 OA
ATOM     24  O   UNL     1      30.389  43.776   3.563  1.00  0.00    -0.550 OA
ENDBRANCH  21  22
ENDBRANCH  20  21
ENDBRANCH  19  20
ENDBRANCH  18  19
ENDBRANCH  17  18
ENDBRANCH  16  17
ENDBRANCH  15  16
ENDBRANCH  14  15
ENDBRANCH  13  14
ENDBRANCH   1  13
TORSDOF 20
ENDMDL
MODEL 6
REMARK VINA RESULT:    -3.128     17.197     19.353
REMARK INTER + INTRA:         -10.274
REMARK INTER:                  -6.703
REMARK INTRA:                  -3.571
REMARK UNBOUND:                -3.489
REMARK SMILES CCCCCCCCCCCCCCCCCCCCCC(=O)[O-]
REMARK SMILES IDX 12 1 11 2 10 3 9 4 8 5 7 6 6 7 5 8 4 9 3 10 2 11 1 12 13 13
REMARK SMILES IDX 14 14 15 15 16 16 17 17 18 18 19 19 20 20 21 21 22 22 23 23
REMARK SMILES IDX 24 24
REMARK H PARENT
REMARK Flexibility Score: inf
ROOT
ATOM      1  C   UNL     1      39.622  30.341   6.890  1.00  0.00     0.000 C 
ENDROOT
BRANCH   1   2
ATOM      2  C   UNL     1      38.926  29.924   5.581  1.00  0.00     0.000 C 
BRANCH   2   3
ATOM      3  C   UNL     1      39.778  30.080   4.308  1.00  0.00     0.000 C 
BRANCH   3   4
ATOM      4  C   UNL     1      39.904  31.542   3.846  1.00  0.00    -0.000 C 
BRANCH   4   5
ATOM      5  C   UNL     1      41.346  32.066   3.933  1.00  0.00    -0.000 C 
BRANCH   5   6
ATOM      6  C   UNL     1      42.380  31.052   3.420  1.00  0.00    -0.000 C 
BRANCH   6   7
ATOM      7  C   UNL     1      43.790  31.656   3.424  1.00  0.00    -0.000 C 
BRANCH   7   8
ATOM      8  C   UNL     1      43.797  33.045   2.774  1.00  0.00    -0.000 C 
BRANCH   8   9
ATOM      9  C   UNL     1      43.986  32.940   1.253  1.00  0.00    -0.000 C 
BRANCH   9  10
ATOM     10  C   UNL     1      42.847  33.608   0.467  1.00  0.00    -0.000 C 
BRANCH  10  11
ATOM     11  C   UNL     1      41.843  32.593  -0.099  1.00  0.00    -0.003 C 
ATOM     12  C   UNL     1      41.980  32.470  -1.614  1.00  0.00     0.004 C 
ENDBRANCH  10  11
ENDBRANCH   9  10
ENDBRANCH   8   9
ENDBRANCH   7   8
ENDBRANCH   6   7
ENDBRANCH   5   6
ENDBRANCH   4   5
ENDBRANCH   3   4
ENDBRANCH   2   3
ENDBRANCH   1   2
BRANCH   1  13
ATOM     13  C   UNL     1      39.752  29.185   7.894  1.00  0.00     0.000 C 
BRANCH  13  14
ATOM     14  C   UNL     1      40.079  27.868   7.177  1.00  0.00     0.000 C 
BRANCH  14  15
ATOM     15  C   UNL     1      41.581  27.560   7.252  1.00  0.00     0.000 C 
BRANCH  15  16
ATOM     16  C   UNL     1      42.378  28.174   6.086  1.00  0.00     0.000 C 
BRANCH  16  17
ATOM     17  C   UNL     1      43.311  29.334   6.476  1.00  0.00     0.000 C 
BRANCH  17  18
ATOM     18  C   UNL     1      43.432  29.523   7.995  1.00  0.00     0.000 C 
BRANCH  18  19
ATOM     19  C   UNL     1      43.228  30.991   8.386  1.00  0.00     0.000 C 
BRANCH  19  20
ATOM     20  C   UNL     1      43.029  31.869   7.145  1.00  0.00     0.006 C 
BRANCH  20  21
ATOM     21  C   UNL     1      42.097  33.046   7.449  1.00  0.00     0.053 C 
BRANCH  21  22
ATOM     22  C   UNL     1      42.819  34.097   8.231  1.00  0.00     0.041 C 
ATOM     23  O   UNL     1      43.679  34.826   7.672  1.00  0.00    -0.550 OA
ATOM     24  O   UNL     1      42.506  34.304   9.570  1.00  0.00    -0.550 OA
ENDBRANCH  21  22
ENDBRANCH  20  21
ENDBRANCH  19  20
ENDBRANCH  18  19
ENDBRANCH  17  18
ENDBRANCH  16  17
ENDBRANCH  15  16
ENDBRANCH  14  15
ENDBRANCH  13  14
ENDBRANCH   1  13
TORSDOF 20
ENDMDL
MODEL 7
REMARK VINA RESULT:    -3.121     17.357     19.776
REMARK INTER + INTRA:         -10.260
REMARK INTER:                  -7.423
REMARK INTRA:                  -2.837
REMARK UNBOUND:                -3.489
REMARK SMILES CCCCCCCCCCCCCCCCCCCCCC(=O)[O-]
REMARK SMILES IDX 12 1 11 2 10 3 9 4 8 5 7 6 6 7 5 8 4 9 3 10 2 11 1 12 13 13
REMARK SMILES IDX 14 14 15 15 16 16 17 17 18 18 19 19 20 20 21 21 22 22 23 23
REMARK SMILES IDX 24 24
REMARK H PARENT
REMARK Flexibility Score: inf
ROOT
ATOM      1  C   UNL     1      40.265  31.574   5.351  1.00  0.00     0.000 C 
ENDROOT
BRANCH   1   2
ATOM      2  C   UNL     1      40.481  30.633   4.150  1.00  0.00     0.000 C 
BRANCH   2   3
ATOM      3  C   UNL     1      41.948  30.257   3.869  1.00  0.00     0.000 C 
BRANCH   3   4
ATOM      4  C   UNL     1      42.944  31.021   4.758  1.00  0.00    -0.000 C 
BRANCH   4   5
ATOM      5  C   UNL     1      43.855  31.960   3.952  1.00  0.00    -0.000 C 
BRANCH   5   6
ATOM      6  C   UNL     1      43.716  31.767   2.435  1.00  0.00    -0.000 C 
BRANCH   6   7
ATOM      7  C   UNL     1      43.492  33.110   1.729  1.00  0.00    -0.000 C 
BRANCH   7   8
ATOM      8  C   UNL     1      42.105  33.679   2.052  1.00  0.00    -0.000 C 
BRANCH   8   9
ATOM      9  C   UNL     1      41.016  32.979   1.225  1.00  0.00    -0.000 C 
BRANCH   9  10
ATOM     10  C   UNL     1      40.661  33.747  -0.058  1.00  0.00    -0.000 C 
BRANCH  10  11
ATOM     11  C   UNL     1      40.752  32.872  -1.317  1.00  0.00    -0.003 C 
ATOM     12  C   UNL     1      42.202  32.521  -1.639  1.00  0.00     0.004 C 
ENDBRANCH  10  11
ENDBRANCH   9  10
ENDBRANCH   8   9
ENDBRANCH   7   8
ENDBRANCH   6   7
ENDBRANCH   5   6
ENDBRANCH   4   5
ENDBRANCH   3   4
ENDBRANCH   2   3
ENDBRANCH   1   2
BRANCH   1  13
ATOM     13  C   UNL     1      39.354  30.969   6.430  1.00  0.00     0.000 C 
BRANCH  13  14
ATOM     14  C   UNL     1      39.163  29.463   6.208  1.00  0.00     0.000 C 
BRANCH  14  15
ATOM     15  C   UNL     1      39.937  28.651   7.256  1.00  0.00     0.000 C 
BRANCH  15  16
ATOM     16  C   UNL     1      41.261  28.082   6.717  1.00  0.00     0.000 C 
BRANCH  16  17
ATOM     17  C   UNL     1      42.531  28.654   7.374  1.00  0.00     0.000 C 
BRANCH  17  18
ATOM     18  C   UNL     1      42.232  29.776   8.380  1.00  0.00     0.000 C 
BRANCH  18  19
ATOM     19  C   UNL     1      42.976  29.544   9.700  1.00  0.00     0.000 C 
BRANCH  19  20
ATOM     20  C   UNL     1      42.610  30.615  10.735  1.00  0.00     0.006 C 
BRANCH  20  21
ATOM     21  C   UNL     1      41.550  30.096  11.711  1.00  0.00     0.053 C 
BRANCH  21  22
ATOM     22  C   UNL     1      42.195  29.361  12.843  1.00  0.00     0.041 C 
ATOM     23  O   UNL     1      41.890  28.163  13.077  1.00  0.00    -0.550 OA
ATOM     24  O   UNL     1      43.172  29.986  13.610  1.00  0.00    -0.550 OA
ENDBRANCH  21  22
ENDBRANCH  20  21
ENDBRANCH  19  20
ENDBRANCH  18  19
ENDBRANCH  17  18
ENDBRANCH  16  17
ENDBRANCH  15  16
ENDBRANCH  14  15
ENDBRANCH  13  14
ENDBRANCH   1  13
TORSDOF 20
ENDMDL
MODEL 8
REMARK VINA RESULT:    -3.068      1.963      5.931
REMARK INTER + INTRA:         -10.145
REMARK INTER:                  -6.765
REMARK INTRA:                  -3.380
REMARK UNBOUND:                -3.489
REMARK SMILES CCCCCCCCCCCCCCCCCCCCCC(=O)[O-]
REMARK SMILES IDX 12 1 11 2 10 3 9 4 8 5 7 6 6 7 5 8 4 9 3 10 2 11 1 12 13 13
REMARK SMILES IDX 14 14 15 15 16 16 17 17 18 18 19 19 20 20 21 21 22 22 23 23
REMARK SMILES IDX 24 24
REMARK H PARENT
REMARK Flexibility Score: inf
ROOT
ATOM      1  C   UNL     1      25.816  43.443   8.157  1.00  0.00     0.000 C 
ENDROOT
BRANCH   1   2
ATOM      2  C   UNL     1      25.844  42.028   8.765  1.00  0.00     0.000 C 
BRANCH   2   3
ATOM      3  C   UNL     1      24.803  41.049   8.192  1.00  0.00     0.000 C 
BRANCH   3   4
ATOM      4  C   UNL     1      25.410  40.038   7.204  1.00  0.00    -0.000 C 
BRANCH   4   5
ATOM      5  C   UNL     1      24.443  39.668   6.069  1.00  0.00    -0.000 C 
BRANCH   5   6
ATOM      6  C   UNL     1      23.882  40.899   5.340  1.00  0.00    -0.000 C 
BRANCH   6   7
ATOM      7  C   UNL     1      24.211  40.848   3.843  1.00  0.00    -0.000 C 
BRANCH   7   8
ATOM      8  C   UNL     1      24.841  39.503   3.462  1.00  0.00    -0.000 C 
BRANCH   8   9
ATOM      9  C   UNL     1      26.024  39.701   2.502  1.00  0.00    -0.000 C 
BRANCH   9  10
ATOM     10  C   UNL     1      25.580  40.146   1.099  1.00  0.00    -0.000 C 
BRANCH  10  11
ATOM     11  C   UNL     1      25.916  39.112   0.015  1.00  0.00    -0.003 C 
ATOM     12  C   UNL     1      25.709  39.693  -1.382  1.00  0.00     0.004 C 
ENDBRANCH  10  11
ENDBRANCH   9  10
ENDBRANCH   8   9
ENDBRANCH   7   8
ENDBRANCH   6   7
ENDBRANCH   5   6
ENDBRANCH   4   5
ENDBRANCH   3   4
ENDBRANCH   2   3
ENDBRANCH   1   2
BRANCH   1  13
ATOM     13  C   UNL     1      24.460  43.800   7.530  1.00  0.00     0.000 C 
BRANCH  13  14
ATOM     14  C   UNL     1      24.642  44.411   6.135  1.00  0.00     0.000 C 
BRANCH  14  15
ATOM     15  C   UNL     1      26.097  44.276   5.662  1.00  0.00     0.000 C 
BRANCH  15  16
ATOM     16  C   UNL     1      26.213  43.749   4.220  1.00  0.00     0.000 C 
BRANCH  16  17
ATOM     17  C   UNL     1      27.409  42.814   3.964  1.00  0.00     0.000 C 
BRANCH  17  18
ATOM     18  C   UNL     1      27.680  41.852   5.130  1.00  0.00     0.000 C 
BRANCH  18  19
ATOM     19  C   UNL     1      29.179  41.561   5.267  1.00  0.00     0.000 C 
BRANCH  19  20
ATOM     20  C   UNL     1      29.884  41.647   3.908  1.00  0.00     0.006 C 
BRANCH  20  21
ATOM     21  C   UNL     1      31.216  42.392   4.026  1.00  0.00     0.053 C 
BRANCH  21  22
ATOM     22  C   UNL     1      31.007  43.866   3.875  1.00  0.00     0.041 C 
ATOM     23  O   UNL     1      31.377  44.455   2.826  1.00  0.00    -0.550 OA
ATOM     24  O   UNL     1      30.358  44.581   4.874  1.00  0.00    -0.550 OA
ENDBRANCH  21  22
ENDBRANCH  20  21
ENDBRANCH  19  20
ENDBRANCH  18  19
ENDBRANCH  17  18
ENDBRANCH  16  17
ENDBRANCH  15  16
ENDBRANCH  14  15
ENDBRANCH  13  14
ENDBRANCH   1  13
TORSDOF 20
ENDMDL
MODEL 9
REMARK VINA RESULT:    -3.044     16.985     19.816
REMARK INTER + INTRA:         -10.091
REMARK INTER:                  -7.688
REMARK INTRA:                  -2.403
REMARK UNBOUND:                -3.489
REMARK SMILES CCCCCCCCCCCCCCCCCCCCCC(=O)[O-]
REMARK SMILES IDX 12 1 11 2 10 3 9 4 8 5 7 6 6 7 5 8 4 9 3 10 2 11 1 12 13 13
REMARK SMILES IDX 14 14 15 15 16 16 17 17 18 18 19 19 20 20 21 21 22 22 23 23
REMARK SMILES IDX 24 24
REMARK H PARENT
REMARK Flexibility Score: inf
ROOT
ATOM      1  C   UNL     1      41.234  29.565   5.833  1.00  0.00     0.000 C 
ENDROOT
BRANCH   1   2
ATOM      2  C   UNL     1      41.683  29.546   4.360  1.00  0.00     0.000 C 
BRANCH   2   3
ATOM      3  C   UNL     1      41.942  30.930   3.736  1.00  0.00     0.000 C 
BRANCH   3   4
ATOM      4  C   UNL     1      43.440  31.254   3.598  1.00  0.00    -0.000 C 
BRANCH   4   5
ATOM      5  C   UNL     1      43.719  32.766   3.605  1.00  0.00    -0.000 C 
BRANCH   5   6
ATOM      6  C   UNL     1      42.775  33.550   2.681  1.00  0.00    -0.000 C 
BRANCH   6   7
ATOM      7  C   UNL     1      43.553  34.214   1.537  1.00  0.00    -0.000 C 
BRANCH   7   8
ATOM      8  C   UNL     1      43.849  33.211   0.416  1.00  0.00    -0.000 C 
BRANCH   8   9
ATOM      9  C   UNL     1      42.576  32.457   0.002  1.00  0.00    -0.000 C 
BRANCH   9  10
ATOM     10  C   UNL     1      42.123  32.798  -1.427  1.00  0.00    -0.000 C 
BRANCH  10  11
ATOM     11  C   UNL     1      40.632  33.157  -1.505  1.00  0.00    -0.003 C 
ATOM     12  C   UNL     1      40.092  33.564  -0.137  1.00  0.00     0.004 C 
ENDBRANCH  10  11
ENDBRANCH   9  10
ENDBRANCH   8   9
ENDBRANCH   7   8
ENDBRANCH   6   7
ENDBRANCH   5   6
ENDBRANCH   4   5
ENDBRANCH   3   4
ENDBRANCH   2   3
ENDBRANCH   1   2
BRANCH   1  13
ATOM     13  C   UNL     1      42.098  28.669   6.735  1.00  0.00     0.000 C 
BRANCH  13  14
ATOM     14  C   UNL     1      43.590  28.959   6.530  1.00  0.00     0.000 C 
BRANCH  14  15
ATOM     15  C   UNL     1      44.123  29.896   7.624  1.00  0.00     0.000 C 
BRANCH  15  16
ATOM     16  C   UNL     1      44.124  31.375   7.198  1.00  0.00     0.000 C 
BRANCH  16  17
ATOM     17  C   UNL     1      43.106  32.265   7.934  1.00  0.00     0.000 C 
BRANCH  17  18
ATOM     18  C   UNL     1      43.056  31.995   9.446  1.00  0.00     0.000 C 
BRANCH  18  19
ATOM     19  C   UNL     1      41.691  31.434   9.860  1.00  0.00     0.000 C 
BRANCH  19  20
ATOM     20  C   UNL     1      41.373  31.780  11.320  1.00  0.00     0.006 C 
BRANCH  20  21
ATOM     21  C   UNL     1      40.647  30.624  12.013  1.00  0.00     0.053 C 
BRANCH  21  22
ATOM     22  C   UNL     1      41.441  30.132  13.182  1.00  0.00     0.041 C 
ATOM     23  O   UNL     1      42.355  29.283  13.015  1.00  0.00    -0.550 OA
ATOM     24  O   UNL     1      41.205  30.650  14.450  1.00  0.00    -0.550 OA
ENDBRANCH  21  22
ENDBRANCH  20  21
ENDBRANCH  19  20
ENDBRANCH  18  19
ENDBRANCH  17  18
ENDBRANCH  16  17
ENDBRANCH  15  16
ENDBRANCH  14  15
ENDBRANCH  13  14
ENDBRANCH   1  13
TORSDOF 20
ENDMDL
