MODEL 1
REMARK VINA RESULT:    -2.773      0.000      0.000
REMARK INTER + INTRA:          -3.378
REMARK INTER:                  -3.260
REMARK INTRA:                  -0.119
REMARK UNBOUND:                -0.119
REMARK SMILES O=C([O-])CCC(=O)[O-]
REMARK SMILES IDX 4 1 2 2 1 3 3 4 5 5 6 6 7 7 8 8
REMARK H PARENT
REMARK Flexibility Score: inf
ROOT
ATOM      1  C   UNL     1      34.464  20.026  16.109  1.00  0.00     0.059 C 
ENDROOT
BRANCH   1   2
ATOM      2  C   UNL     1      33.812  18.864  15.428  1.00  0.00     0.042 C 
ATOM      3  O   UNL     1      33.703  18.845  14.174  1.00  0.00    -0.550 OA
ATOM      4  O   UNL     1      33.282  17.825  16.181  1.00  0.00    -0.550 OA
ENDBRANCH   1   2
BRANCH   1   5
ATOM      5  C   UNL     1      35.928  20.143  15.686  1.00  0.00     0.059 C 
BRANCH   5   6
ATOM      6  C   UNL     1      36.141  21.380  14.872  1.00  0.00     0.042 C 
ATOM      7  O   UNL     1      36.647  22.406  15.399  1.00  0.00    -0.550 OA
ATOM      8  O   UNL     1      35.736  21.417  13.544  1.00  0.00    -0.550 OA
ENDBRANCH   5   6
ENDBRANCH   1   5
TORSDOF 3
ENDMDL
MODEL 2
REMARK VINA RESULT:    -2.769      0.043      3.978
REMARK INTER + INTRA:          -3.373
REMARK INTER:                  -3.252
REMARK INTRA:                  -0.121
REMARK UNBOUND:                -0.119
REMARK SMILES O=C([O-])CCC(=O)[O-]
REMARK SMILES IDX 4 1 2 2 1 3 3 4 5 5 6 6 7 7 8 8
REMARK H PARENT
REMARK Flexibility Score: inf
ROOT
ATOM      1  C   UNL     1      35.910  20.154  15.689  1.00  0.00     0.059 C 
ENDROOT
BRANCH   1   2
ATOM      2  C   UNL     1      36.109  21.391  14.871  1.00  0.00     0.042 C 
ATOM      3  O   UNL     1      36.577  22.432  15.401  1.00  0.00    -0.550 OA
ATOM      4  O   UNL     1      35.731  21.408  13.535  1.00  0.00    -0.550 OA
ENDBRANCH   1   2
BRANCH   1   5
ATOM      5  C   UNL     1      34.446  20.017  16.107  1.00  0.00     0.059 C 
BRANCH   5   6
ATOM      6  C   UNL     1      33.820  18.833  15.442  1.00  0.00     0.042 C 
ATOM      7  O   UNL     1      33.705  18.797  14.189  1.00  0.00    -0.550 OA
ATOM      8  O   UNL     1      33.317  17.790  16.210  1.00  0.00    -0.550 OA
ENDBRANCH   5   6
ENDBRANCH   1   5
TORSDOF 3
ENDMDL
MODEL 3
REMARK VINA RESULT:    -2.764      0.127      1.621
REMARK INTER + INTRA:          -3.368
REMARK INTER:                  -3.250
REMARK INTRA:                  -0.118
REMARK UNBOUND:                -0.119
REMARK SMILES O=C([O-])CCC(=O)[O-]
REMARK SMILES IDX 4 1 2 2 1 3 3 4 5 5 6 6 7 7 8 8
REMARK H PARENT
REMARK Flexibility Score: inf
ROOT
ATOM      1  C   UNL     1      34.362  20.026  16.150  1.00  0.00     0.059 C 
ENDROOT
BRANCH   1   2
ATOM      2  C   UNL     1      33.739  18.820  15.519  1.00  0.00     0.042 C 
ATOM      3  O   UNL     1      33.372  17.850  16.233  1.00  0.00    -0.550 OA
ATOM      4  O   UNL     1      33.610  18.748  14.138  1.00  0.00    -0.550 OA
ENDBRANCH   1   2
BRANCH   1   5
ATOM      5  C   UNL     1      35.840  20.126  15.771  1.00  0.00     0.059 C 
BRANCH   5   6
ATOM      6  C   UNL     1      36.074  21.305  14.881  1.00  0.00     0.042 C 
ATOM      7  O   UNL     1      35.736  21.262  13.669  1.00  0.00    -0.550 OA
ATOM      8  O   UNL     1      36.710  22.436  15.379  1.00  0.00    -0.550 OA
ENDBRANCH   5   6
ENDBRANCH   1   5
TORSDOF 3
ENDMDL
MODEL 4
REMARK VINA RESULT:    -2.541      1.781      2.246
REMARK INTER + INTRA:          -3.106
REMARK INTER:                  -3.073
REMARK INTRA:                  -0.033
REMARK UNBOUND:                -0.119
REMARK SMILES O=C([O-])CCC(=O)[O-]
REMARK SMILES IDX 4 1 2 2 1 3 3 4 5 5 6 6 7 7 8 8
REMARK H PARENT
REMARK Flexibility Score: inf
ROOT
ATOM      1  C   UNL     1      35.806  20.516  14.592  1.00  0.00     0.059 C 
ENDROOT
BRANCH   1   2
ATOM      2  C   UNL     1      34.841  19.886  15.546  1.00  0.00     0.042 C 
ATOM      3  O   UNL     1      34.136  18.909  15.181  1.00  0.00    -0.550 OA
ATOM      4  O   UNL     1      34.685  20.410  16.823  1.00  0.00    -0.550 OA
ENDBRANCH   1   2
BRANCH   1   5
ATOM      5  C   UNL     1      36.554  21.666  15.267  1.00  0.00     0.059 C 
BRANCH   5   6
ATOM      6  C   UNL     1      37.640  22.179  14.375  1.00  0.00     0.042 C 
ATOM      7  O   UNL     1      37.359  22.659  13.246  1.00  0.00    -0.550 OA
ATOM      8  O   UNL     1      38.968  22.084  14.773  1.00  0.00    -0.550 OA
ENDBRANCH   5   6
ENDBRANCH   1   5
TORSDOF 3
ENDMDL
MODEL 5
REMARK VINA RESULT:    -2.472      1.625      4.247
REMARK INTER + INTRA:          -3.024
REMARK INTER:                  -2.938
REMARK INTRA:                  -0.086
REMARK UNBOUND:                -0.119
REMARK SMILES O=C([O-])CCC(=O)[O-]
REMARK SMILES IDX 4 1 2 2 1 3 3 4 5 5 6 6 7 7 8 8
REMARK H PARENT
REMARK Flexibility Score: inf
ROOT
ATOM      1  C   UNL     1      36.462  22.084  15.197  1.00  0.00     0.059 C 
ENDROOT
BRANCH   1   2
ATOM      2  C   UNL     1      37.692  22.376  14.396  1.00  0.00     0.042 C 
ATOM      3  O   UNL     1      37.596  22.923  13.265  1.00  0.00    -0.550 OA
ATOM      4  O   UNL     1      38.940  22.000  14.876  1.00  0.00    -0.550 OA
ENDBRANCH   1   2
BRANCH   1   5
ATOM      5  C   UNL     1      36.254  20.575  15.328  1.00  0.00     0.059 C 
BRANCH   5   6
ATOM      6  C   UNL     1      35.125  20.125  14.457  1.00  0.00     0.042 C 
ATOM      7  O   UNL     1      35.068  20.490  13.253  1.00  0.00    -0.550 OA
ATOM      8  O   UNL     1      34.108  19.341  14.988  1.00  0.00    -0.550 OA
ENDBRANCH   5   6
ENDBRANCH   1   5
TORSDOF 3
ENDMDL
MODEL 6
REMARK VINA RESULT:    -2.412     13.408     15.165
REMARK INTER + INTRA:          -2.954
REMARK INTER:                  -2.911
REMARK INTRA:                  -0.043
REMARK UNBOUND:                -0.119
REMARK SMILES O=C([O-])CCC(=O)[O-]
REMARK SMILES IDX 4 1 2 2 1 3 3 4 5 5 6 6 7 7 8 8
REMARK H PARENT
REMARK Flexibility Score: inf
ROOT
ATOM      1  C   UNL     1      49.944  21.280  15.106  1.00  0.00     0.059 C 
ENDROOT
BRANCH   1   2
ATOM      2  C   UNL     1      51.422  21.361  15.325  1.00  0.00     0.042 C 
ATOM      3  O   UNL     1      52.215  20.891  14.468  1.00  0.00    -0.550 OA
ATOM      4  O   UNL     1      51.922  21.912  16.498  1.00  0.00    -0.550 OA
ENDBRANCH   1   2
BRANCH   1   5
ATOM      5  C   UNL     1      49.198  22.054  16.194  1.00  0.00     0.059 C 
BRANCH   5   6
ATOM      6  C   UNL     1      47.756  21.660  16.221  1.00  0.00     0.042 C 
ATOM      7  O   UNL     1      47.376  20.605  15.649  1.00  0.00    -0.550 OA
ATOM      8  O   UNL     1      46.822  22.484  16.839  1.00  0.00    -0.550 OA
ENDBRANCH   5   6
ENDBRANCH   1   5
TORSDOF 3
ENDMDL
MODEL 7
REMARK VINA RESULT:    -2.382     13.220     14.701
REMARK INTER + INTRA:          -2.918
REMARK INTER:                  -2.878
REMARK INTRA:                  -0.040
REMARK UNBOUND:                -0.119
REMARK SMILES O=C([O-])CCC(=O)[O-]
REMARK SMILES IDX 4 1 2 2 1 3 3 4 5 5 6 6 7 7 8 8
REMARK H PARENT
REMARK Flexibility Score: inf
ROOT
ATOM      1  C   UNL     1      49.040  22.048  16.282  1.00  0.00     0.059 C 
ENDROOT
BRANCH   1   2
ATOM      2  C   UNL     1      47.569  21.771  16.273  1.00  0.00     0.042 C 
ATOM      3  O   UNL     1      47.126  20.724  15.731  1.00  0.00    -0.550 OA
ATOM      4  O   UNL     1      46.685  22.692  16.819  1.00  0.00    -0.550 OA
ENDBRANCH   1   2
BRANCH   1   5
ATOM      5  C   UNL     1      49.737  21.275  15.162  1.00  0.00     0.059 C 
BRANCH   5   6
ATOM      6  C   UNL     1      51.223  21.364  15.311  1.00  0.00     0.042 C 
ATOM      7  O   UNL     1      51.979  20.860  14.439  1.00  0.00    -0.550 OA
ATOM      8  O   UNL     1      51.774  21.962  16.438  1.00  0.00    -0.550 OA
ENDBRANCH   5   6
ENDBRANCH   1   5
TORSDOF 3
ENDMDL
MODEL 8
REMARK VINA RESULT:    -2.354      3.905      4.652
REMARK INTER + INTRA:          -2.886
REMARK INTER:                  -2.843
REMARK INTRA:                  -0.043
REMARK UNBOUND:                -0.119
REMARK SMILES O=C([O-])CCC(=O)[O-]
REMARK SMILES IDX 4 1 2 2 1 3 3 4 5 5 6 6 7 7 8 8
REMARK H PARENT
REMARK Flexibility Score: inf
ROOT
ATOM      1  C   UNL     1      34.191  20.919  11.236  1.00  0.00     0.059 C 
ENDROOT
BRANCH   1   2
ATOM      2  C   UNL     1      34.239  20.085  12.478  1.00  0.00     0.042 C 
ATOM      3  O   UNL     1      35.138  20.281  13.337  1.00  0.00    -0.550 OA
ATOM      4  O   UNL     1      33.320  19.061  12.663  1.00  0.00    -0.550 OA
ENDBRANCH   1   2
BRANCH   1   5
ATOM      5  C   UNL     1      35.549  21.572  10.977  1.00  0.00     0.059 C 
BRANCH   5   6
ATOM      6  C   UNL     1      35.939  21.417   9.541  1.00  0.00     0.042 C 
ATOM      7  O   UNL     1      36.944  20.725   9.229  1.00  0.00    -0.550 OA
ATOM      8  O   UNL     1      35.222  22.076   8.551  1.00  0.00    -0.550 OA
ENDBRANCH   5   6
ENDBRANCH   1   5
TORSDOF 3
ENDMDL
MODEL 9
REMARK VINA RESULT:    -2.318      3.404      5.295
REMARK INTER + INTRA:          -2.843
REMARK INTER:                  -2.788
REMARK INTRA:                  -0.054
REMARK UNBOUND:                -0.119
REMARK SMILES O=C([O-])CCC(=O)[O-]
REMARK SMILES IDX 4 1 2 2 1 3 3 4 5 5 6 6 7 7 8 8
REMARK H PARENT
REMARK Flexibility Score: inf
ROOT
ATOM      1  C   UNL     1      35.003  21.212  10.740  1.00  0.00     0.059 C 
ENDROOT
BRANCH   1   2
ATOM      2  C   UNL     1      36.325  21.494  10.098  1.00  0.00     0.042 C 
ATOM      3  O   UNL     1      36.782  20.715   9.221  1.00  0.00    -0.550 OA
ATOM      4  O   UNL     1      37.075  22.590  10.504  1.00  0.00    -0.550 OA
ENDBRANCH   1   2
BRANCH   1   5
ATOM      5  C   UNL     1      35.040  21.576  12.225  1.00  0.00     0.059 C 
BRANCH   5   6
ATOM      6  C   UNL     1      34.851  20.355  13.068  1.00  0.00     0.042 C 
ATOM      7  O   UNL     1      33.992  19.492  12.749  1.00  0.00    -0.550 OA
ATOM      8  O   UNL     1      35.590  20.195  14.234  1.00  0.00    -0.550 OA
ENDBRANCH   5   6
ENDBRANCH   1   5
TORSDOF 3
ENDMDL
