MODEL 1
REMARK VINA RESULT:    -5.164      0.000      0.000
REMARK INTER + INTRA:          -8.677
REMARK INTER:                  -7.881
REMARK INTRA:                  -0.796
REMARK UNBOUND:                -0.796
REMARK SMILES CCCCCCCCCCC(=O)[O-]
REMARK SMILES IDX 7 1 8 2 9 3 10 4 11 5 12 6 13 7 6 8 5 9 4 10 3 11 2 12 1 13
REMARK H PARENT
REMARK Flexibility Score: inf
ROOT
ATOM      1  C   UNL     1      11.484 -13.656  36.371  1.00  0.00     0.000 C 
ENDROOT
BRANCH   1   2
ATOM      2  C   UNL     1      12.851 -13.166  36.872  1.00  0.00     0.000 C 
BRANCH   2   3
ATOM      3  C   UNL     1      12.777 -11.701  37.326  1.00  0.00     0.006 C 
BRANCH   3   4
ATOM      4  C   UNL     1      13.647 -10.779  36.459  1.00  0.00     0.053 C 
BRANCH   4   5
ATOM      5  C   UNL     1      13.311 -10.907  35.005  1.00  0.00     0.041 C 
ATOM      6  O   UNL     1      14.185 -11.292  34.184  1.00  0.00    -0.550 OA
ATOM      7  O   UNL     1      12.023 -10.633  34.562  1.00  0.00    -0.550 OA
ENDBRANCH   4   5
ENDBRANCH   3   4
ENDBRANCH   2   3
ENDBRANCH   1   2
BRANCH   1   8
ATOM      8  C   UNL     1      11.083 -15.012  36.972  1.00  0.00     0.000 C 
BRANCH   8   9
ATOM      9  C   UNL     1      10.100 -14.873  38.145  1.00  0.00    -0.000 C 
BRANCH   9  10
ATOM     10  C   UNL     1       9.296 -13.569  38.035  1.00  0.00    -0.000 C 
BRANCH  10  11
ATOM     11  C   UNL     1       7.799 -13.808  37.768  1.00  0.00    -0.000 C 
BRANCH  11  12
ATOM     12  C   UNL     1       7.246 -13.113  36.511  1.00  0.00    -0.003 C 
ATOM     13  C   UNL     1       7.937 -13.564  35.225  1.00  0.00     0.004 C 
ENDBRANCH  11  12
ENDBRANCH  10  11
ENDBRANCH   9  10
ENDBRANCH   8   9
ENDBRANCH   1   8
TORSDOF 9
ENDMDL
MODEL 2
REMARK VINA RESULT:    -5.146      1.480      2.264
REMARK INTER + INTRA:          -8.649
REMARK INTER:                  -7.522
REMARK INTRA:                  -1.128
REMARK UNBOUND:                -0.796
REMARK SMILES CCCCCCCCCCC(=O)[O-]
REMARK SMILES IDX 7 1 8 2 9 3 10 4 11 5 12 6 13 7 6 8 5 9 4 10 3 11 2 12 1 13
REMARK H PARENT
REMARK Flexibility Score: inf
ROOT
ATOM      1  C   UNL     1      10.430 -14.387  37.798  1.00  0.00     0.000 C 
ENDROOT
BRANCH   1   2
ATOM      2  C   UNL     1      11.436 -14.438  36.638  1.00  0.00     0.000 C 
BRANCH   2   3
ATOM      3  C   UNL     1      11.524 -13.078  35.929  1.00  0.00     0.006 C 
BRANCH   3   4
ATOM      4  C   UNL     1      12.969 -12.572  35.821  1.00  0.00     0.053 C 
BRANCH   4   5
ATOM      5  C   UNL     1      13.211 -11.394  36.715  1.00  0.00     0.041 C 
ATOM      6  O   UNL     1      13.374 -10.247  36.222  1.00  0.00    -0.550 OA
ATOM      7  O   UNL     1      13.224 -11.560  38.094  1.00  0.00    -0.550 OA
ENDBRANCH   4   5
ENDBRANCH   3   4
ENDBRANCH   2   3
ENDBRANCH   1   2
BRANCH   1   8
ATOM      8  C   UNL     1       9.951 -12.960  38.106  1.00  0.00     0.000 C 
BRANCH   8   9
ATOM      9  C   UNL     1       8.457 -12.899  38.456  1.00  0.00    -0.000 C 
BRANCH   9  10
ATOM     10  C   UNL     1       7.637 -13.805  37.525  1.00  0.00    -0.000 C 
BRANCH  10  11
ATOM     11  C   UNL     1       7.246 -13.112  36.206  1.00  0.00    -0.000 C 
BRANCH  11  12
ATOM     12  C   UNL     1       8.028 -13.586  34.968  1.00  0.00    -0.003 C 
ATOM     13  C   UNL     1       8.323 -12.460  33.979  1.00  0.00     0.004 C 
ENDBRANCH  11  12
ENDBRANCH  10  11
ENDBRANCH   9  10
ENDBRANCH   8   9
ENDBRANCH   1   8
TORSDOF 9
ENDMDL
MODEL 3
REMARK VINA RESULT:    -5.138      2.448      5.148
REMARK INTER + INTRA:          -8.637
REMARK INTER:                  -7.812
REMARK INTRA:                  -0.824
REMARK UNBOUND:                -0.796
REMARK SMILES CCCCCCCCCCC(=O)[O-]
REMARK SMILES IDX 7 1 8 2 9 3 10 4 11 5 12 6 13 7 6 8 5 9 4 10 3 11 2 12 1 13
REMARK H PARENT
REMARK Flexibility Score: inf
ROOT
ATOM      1  C   UNL     1      10.624 -15.213  36.996  1.00  0.00     0.000 C 
ENDROOT
BRANCH   1   2
ATOM      2  C   UNL     1       9.892 -14.748  38.264  1.00  0.00     0.000 C 
BRANCH   2   3
ATOM      3  C   UNL     1       9.105 -13.455  38.001  1.00  0.00     0.006 C 
BRANCH   3   4
ATOM      4  C   UNL     1       7.703 -13.731  37.442  1.00  0.00     0.053 C 
BRANCH   4   5
ATOM      5  C   UNL     1       7.454 -12.975  36.173  1.00  0.00     0.041 C 
ATOM      6  O   UNL     1       7.764 -13.481  35.062  1.00  0.00    -0.550 OA
ATOM      7  O   UNL     1       6.849 -11.725  36.215  1.00  0.00    -0.550 OA
ENDBRANCH   4   5
ENDBRANCH   3   4
ENDBRANCH   2   3
ENDBRANCH   1   2
BRANCH   1   8
ATOM      8  C   UNL     1      11.445 -14.091  36.341  1.00  0.00     0.000 C 
BRANCH   8   9
ATOM      9  C   UNL     1      12.754 -13.801  37.088  1.00  0.00    -0.000 C 
BRANCH   9  10
ATOM     10  C   UNL     1      12.808 -12.337  37.552  1.00  0.00    -0.000 C 
BRANCH  10  11
ATOM     11  C   UNL     1      12.475 -11.339  36.427  1.00  0.00    -0.000 C 
BRANCH  11  12
ATOM     12  C   UNL     1      13.689 -10.597  35.840  1.00  0.00    -0.003 C 
ATOM     13  C   UNL     1      14.234 -11.250  34.571  1.00  0.00     0.004 C 
ENDBRANCH  11  12
ENDBRANCH  10  11
ENDBRANCH   9  10
ENDBRANCH   8   9
ENDBRANCH   1   8
TORSDOF 9
ENDMDL
MODEL 4
REMARK VINA RESULT:    -5.112      2.962      5.454
REMARK INTER + INTRA:          -8.598
REMARK INTER:                  -7.388
REMARK INTRA:                  -1.210
REMARK UNBOUND:                -0.796
REMARK SMILES CCCCCCCCCCC(=O)[O-]
REMARK SMILES IDX 7 1 8 2 9 3 10 4 11 5 12 6 13 7 6 8 5 9 4 10 3 11 2 12 1 13
REMARK H PARENT
REMARK Flexibility Score: inf
ROOT
ATOM      1  C   UNL     1      12.876 -13.481  36.596  1.00  0.00     0.000 C 
ENDROOT
BRANCH   1   2
ATOM      2  C   UNL     1      11.651 -13.963  37.388  1.00  0.00     0.000 C 
BRANCH   2   3
ATOM      3  C   UNL     1      10.375 -13.251  36.913  1.00  0.00     0.006 C 
BRANCH   3   4
ATOM      4  C   UNL     1       9.480 -12.821  38.083  1.00  0.00     0.053 C 
BRANCH   4   5
ATOM      5  C   UNL     1       8.122 -13.449  38.002  1.00  0.00     0.041 C 
ATOM      6  O   UNL     1       7.668 -14.103  38.977  1.00  0.00    -0.550 OA
ATOM      7  O   UNL     1       7.347 -13.284  36.861  1.00  0.00    -0.550 OA
ENDBRANCH   4   5
ENDBRANCH   3   4
ENDBRANCH   2   3
ENDBRANCH   1   2
BRANCH   1   8
ATOM      8  C   UNL     1      12.515 -12.449  35.516  1.00  0.00     0.000 C 
BRANCH   8   9
ATOM      9  C   UNL     1      13.613 -11.395  35.313  1.00  0.00    -0.000 C 
BRANCH   9  10
ATOM     10  C   UNL     1      13.727 -10.477  36.539  1.00  0.00    -0.000 C 
BRANCH  10  11
ATOM     11  C   UNL     1      12.395  -9.793  36.901  1.00  0.00    -0.000 C 
BRANCH  11  12
ATOM     12  C   UNL     1      11.932 -10.007  38.354  1.00  0.00    -0.003 C 
ATOM     13  C   UNL     1      13.059 -10.457  39.281  1.00  0.00     0.004 C 
ENDBRANCH  11  12
ENDBRANCH  10  11
ENDBRANCH   9  10
ENDBRANCH   8   9
ENDBRANCH   1   8
TORSDOF 9
ENDMDL
MODEL 5
REMARK VINA RESULT:    -5.074      1.142      2.397
REMARK INTER + INTRA:          -8.540
REMARK INTER:                  -7.550
REMARK INTRA:                  -0.989
REMARK UNBOUND:                -0.796
REMARK SMILES CCCCCCCCCCC(=O)[O-]
REMARK SMILES IDX 7 1 8 2 9 3 10 4 11 5 12 6 13 7 6 8 5 9 4 10 3 11 2 12 1 13
REMARK H PARENT
REMARK Flexibility Score: inf
ROOT
ATOM      1  C   UNL     1      10.046 -14.655  38.023  1.00  0.00     0.000 C 
ENDROOT
BRANCH   1   2
ATOM      2  C   UNL     1      10.920 -14.669  36.759  1.00  0.00     0.000 C 
BRANCH   2   3
ATOM      3  C   UNL     1      12.039 -13.621  36.854  1.00  0.00     0.006 C 
BRANCH   3   4
ATOM      4  C   UNL     1      11.915 -12.538  35.773  1.00  0.00     0.053 C 
BRANCH   4   5
ATOM      5  C   UNL     1      13.242 -12.217  35.156  1.00  0.00     0.041 C 
ATOM      6  O   UNL     1      13.580 -11.019  34.967  1.00  0.00    -0.550 OA
ATOM      7  O   UNL     1      14.119 -13.241  34.820  1.00  0.00    -0.550 OA
ENDBRANCH   4   5
ENDBRANCH   3   4
ENDBRANCH   2   3
ENDBRANCH   1   2
BRANCH   1   8
ATOM      8  C   UNL     1       9.103 -13.443  38.078  1.00  0.00     0.000 C 
BRANCH   8   9
ATOM      9  C   UNL     1       7.640 -13.818  37.796  1.00  0.00    -0.000 C 
BRANCH   9  10
ATOM     10  C   UNL     1       7.260 -13.489  36.344  1.00  0.00    -0.000 C 
BRANCH  10  11
ATOM     11  C   UNL     1       8.030 -12.281  35.781  1.00  0.00    -0.000 C 
BRANCH  11  12
ATOM     12  C   UNL     1       8.478 -12.424  34.315  1.00  0.00    -0.003 C 
ATOM     13  C   UNL     1       7.756 -13.549  33.577  1.00  0.00     0.004 C 
ENDBRANCH  11  12
ENDBRANCH  10  11
ENDBRANCH   9  10
ENDBRANCH   8   9
ENDBRANCH   1   8
TORSDOF 9
ENDMDL
MODEL 6
REMARK VINA RESULT:    -5.062      1.673      1.913
REMARK INTER + INTRA:          -8.522
REMARK INTER:                  -7.234
REMARK INTRA:                  -1.288
REMARK UNBOUND:                -0.796
REMARK SMILES CCCCCCCCCCC(=O)[O-]
REMARK SMILES IDX 7 1 8 2 9 3 10 4 11 5 12 6 13 7 6 8 5 9 4 10 3 11 2 12 1 13
REMARK H PARENT
REMARK Flexibility Score: inf
ROOT
ATOM      1  C   UNL     1      11.539 -13.027  37.014  1.00  0.00     0.000 C 
ENDROOT
BRANCH   1   2
ATOM      2  C   UNL     1      11.748 -12.753  35.517  1.00  0.00     0.000 C 
BRANCH   2   3
ATOM      3  C   UNL     1      11.113 -11.415  35.110  1.00  0.00     0.006 C 
BRANCH   3   4
ATOM      4  C   UNL     1      10.830 -10.514  36.319  1.00  0.00     0.053 C 
BRANCH   4   5
ATOM      5  C   UNL     1      11.755  -9.336  36.361  1.00  0.00     0.041 C 
ATOM      6  O   UNL     1      12.989  -9.506  36.545  1.00  0.00    -0.550 OA
ATOM      7  O   UNL     1      11.258  -8.054  36.163  1.00  0.00    -0.550 OA
ENDBRANCH   4   5
ENDBRANCH   3   4
ENDBRANCH   2   3
ENDBRANCH   1   2
BRANCH   1   8
ATOM      8  C   UNL     1      11.184 -14.493  37.305  1.00  0.00     0.000 C 
BRANCH   8   9
ATOM      9  C   UNL     1       9.897 -14.639  38.130  1.00  0.00    -0.000 C 
BRANCH   9  10
ATOM     10  C   UNL     1       9.054 -13.357  38.063  1.00  0.00    -0.000 C 
BRANCH  10  11
ATOM     11  C   UNL     1       7.648 -13.594  37.481  1.00  0.00    -0.000 C 
BRANCH  11  12
ATOM     12  C   UNL     1       7.378 -12.896  36.136  1.00  0.00    -0.003 C 
ATOM     13  C   UNL     1       8.113 -13.547  34.966  1.00  0.00     0.004 C 
ENDBRANCH  11  12
ENDBRANCH  10  11
ENDBRANCH   9  10
ENDBRANCH   8   9
ENDBRANCH   1   8
TORSDOF 9
ENDMDL
MODEL 7
REMARK VINA RESULT:    -5.058      2.892      5.190
REMARK INTER + INTRA:          -8.515
REMARK INTER:                  -7.262
REMARK INTRA:                  -1.254
REMARK UNBOUND:                -0.796
REMARK SMILES CCCCCCCCCCC(=O)[O-]
REMARK SMILES IDX 7 1 8 2 9 3 10 4 11 5 12 6 13 7 6 8 5 9 4 10 3 11 2 12 1 13
REMARK H PARENT
REMARK Flexibility Score: inf
ROOT
ATOM      1  C   UNL     1      10.996 -13.841  36.590  1.00  0.00     0.000 C 
ENDROOT
BRANCH   1   2
ATOM      2  C   UNL     1      10.270 -13.452  37.887  1.00  0.00     0.000 C 
BRANCH   2   3
ATOM      3  C   UNL     1       9.697 -12.030  37.790  1.00  0.00     0.006 C 
BRANCH   3   4
ATOM      4  C   UNL     1       9.096 -11.738  36.408  1.00  0.00     0.053 C 
BRANCH   4   5
ATOM      5  C   UNL     1       7.604 -11.869  36.414  1.00  0.00     0.041 C 
ATOM      6  O   UNL     1       6.878 -10.847  36.293  1.00  0.00    -0.550 OA
ATOM      7  O   UNL     1       7.015 -13.122  36.522  1.00  0.00    -0.550 OA
ENDBRANCH   4   5
ENDBRANCH   3   4
ENDBRANCH   2   3
ENDBRANCH   1   2
BRANCH   1   8
ATOM      8  C   UNL     1      12.525 -13.765  36.721  1.00  0.00     0.000 C 
BRANCH   8   9
ATOM      9  C   UNL     1      13.196 -13.146  35.486  1.00  0.00    -0.000 C 
BRANCH   9  10
ATOM     10  C   UNL     1      12.730 -11.697  35.278  1.00  0.00    -0.000 C 
BRANCH  10  11
ATOM     11  C   UNL     1      13.625 -10.670  35.994  1.00  0.00    -0.000 C 
BRANCH  11  12
ATOM     12  C   UNL     1      12.921  -9.850  37.091  1.00  0.00    -0.003 C 
ATOM     13  C   UNL     1      13.005 -10.501  38.471  1.00  0.00     0.004 C 
ENDBRANCH  11  12
ENDBRANCH  10  11
ENDBRANCH   9  10
ENDBRANCH   8   9
ENDBRANCH   1   8
TORSDOF 9
ENDMDL
MODEL 8
REMARK VINA RESULT:    -5.039      1.051      1.374
REMARK INTER + INTRA:          -8.486
REMARK INTER:                  -7.684
REMARK INTRA:                  -0.802
REMARK UNBOUND:                -0.796
REMARK SMILES CCCCCCCCCCC(=O)[O-]
REMARK SMILES IDX 7 1 8 2 9 3 10 4 11 5 12 6 13 7 6 8 5 9 4 10 3 11 2 12 1 13
REMARK H PARENT
REMARK Flexibility Score: inf
ROOT
ATOM      1  C   UNL     1      10.550 -11.698  37.909  1.00  0.00     0.000 C 
ENDROOT
BRANCH   1   2
ATOM      2  C   UNL     1      11.779 -10.890  38.350  1.00  0.00     0.000 C 
BRANCH   2   3
ATOM      3  C   UNL     1      13.055 -11.421  37.679  1.00  0.00     0.006 C 
BRANCH   3   4
ATOM      4  C   UNL     1      13.611 -10.445  36.633  1.00  0.00     0.053 C 
BRANCH   4   5
ATOM      5  C   UNL     1      13.432 -10.967  35.239  1.00  0.00     0.041 C 
ATOM      6  O   UNL     1      14.431 -11.124  34.489  1.00  0.00    -0.550 OA
ATOM      7  O   UNL     1      12.166 -11.310  34.782  1.00  0.00    -0.550 OA
ENDBRANCH   4   5
ENDBRANCH   3   4
ENDBRANCH   2   3
ENDBRANCH   1   2
BRANCH   1   8
ATOM      8  C   UNL     1      10.852 -13.196  37.747  1.00  0.00     0.000 C 
BRANCH   8   9
ATOM      9  C   UNL     1       9.620 -14.079  37.996  1.00  0.00    -0.000 C 
BRANCH   9  10
ATOM     10  C   UNL     1       8.348 -13.226  38.114  1.00  0.00    -0.000 C 
BRANCH  10  11
ATOM     11  C   UNL     1       7.283 -13.589  37.063  1.00  0.00    -0.000 C 
BRANCH  11  12
ATOM     12  C   UNL     1       7.277 -12.692  35.812  1.00  0.00    -0.003 C 
ATOM     13  C   UNL     1       7.993 -13.325  34.619  1.00  0.00     0.004 C 
ENDBRANCH  11  12
ENDBRANCH  10  11
ENDBRANCH   9  10
ENDBRANCH   8   9
ENDBRANCH   1   8
TORSDOF 9
ENDMDL
MODEL 9
REMARK VINA RESULT:    -5.031      1.917      5.073
REMARK INTER + INTRA:          -8.474
REMARK INTER:                  -7.615
REMARK INTRA:                  -0.859
REMARK UNBOUND:                -0.796
REMARK SMILES CCCCCCCCCCC(=O)[O-]
REMARK SMILES IDX 7 1 8 2 9 3 10 4 11 5 12 6 13 7 6 8 5 9 4 10 3 11 2 12 1 13
REMARK H PARENT
REMARK Flexibility Score: inf
ROOT
ATOM      1  C   UNL     1       9.895 -12.762  38.054  1.00  0.00     0.000 C 
ENDROOT
BRANCH   1   2
ATOM      2  C   UNL     1       8.369 -12.872  38.199  1.00  0.00     0.000 C 
BRANCH   2   3
ATOM      3  C   UNL     1       7.760 -13.646  37.019  1.00  0.00     0.006 C 
BRANCH   3   4
ATOM      4  C   UNL     1       7.249 -12.712  35.914  1.00  0.00     0.053 C 
BRANCH   4   5
ATOM      5  C   UNL     1       8.067 -12.834  34.664  1.00  0.00     0.041 C 
ATOM      6  O   UNL     1       7.610 -13.452  33.666  1.00  0.00    -0.550 OA
ATOM      7  O   UNL     1       9.319 -12.239  34.591  1.00  0.00    -0.550 OA
ENDBRANCH   4   5
ENDBRANCH   3   4
ENDBRANCH   2   3
ENDBRANCH   1   2
BRANCH   1   8
ATOM      8  C   UNL     1      10.561 -14.112  37.747  1.00  0.00     0.000 C 
BRANCH   8   9
ATOM      9  C   UNL     1      11.605 -14.017  36.625  1.00  0.00    -0.000 C 
BRANCH   9  10
ATOM     10  C   UNL     1      12.825 -13.202  37.079  1.00  0.00    -0.000 C 
BRANCH  10  11
ATOM     11  C   UNL     1      13.029 -11.918  36.255  1.00  0.00    -0.000 C 
BRANCH  11  12
ATOM     12  C   UNL     1      13.456 -10.685  37.072  1.00  0.00    -0.003 C 
ATOM     13  C   UNL     1      13.006 -10.748  38.530  1.00  0.00     0.004 C 
ENDBRANCH  11  12
ENDBRANCH  10  11
ENDBRANCH   9  10
ENDBRANCH   8   9
ENDBRANCH   1   8
TORSDOF 9
ENDMDL
