MODEL 1
REMARK VINA RESULT:    -7.136      0.000      0.000
REMARK INTER + INTRA:          -8.703
REMARK INTER:                  -8.388
REMARK INTRA:                  -0.315
REMARK UNBOUND:                -0.315
REMARK SMILES O=c1cc(-c2ccc(O)c(O)c2)oc2cc(O)cc(O)c12
REMARK SMILES IDX 4 1 3 2 2 3 1 4 21 5 19 6 18 7 16 8 15 9 14 10 13 11 5 12
REMARK SMILES IDX 6 13 7 14 8 15 12 16 10 17 9 18 11 20 20 22 17 24
REMARK H PARENT 9 19 11 21 20 23 17 25
REMARK Flexibility Score: inf
ROOT
ATOM      1  C   UNL     1     -36.327 -12.283  -8.088  1.00  0.00     0.138 A 
ATOM      2  C   UNL     1     -35.457 -11.991  -9.151  1.00  0.00     0.100 A 
ATOM      3  C   UNL     1     -34.889 -10.720  -9.245  1.00  0.00     0.197 A 
ATOM      4  O   UNL     1     -34.107 -10.468 -10.202  1.00  0.00    -0.289 OA
ATOM      5  C   UNL     1     -35.195  -9.747  -8.271  1.00  0.00     0.107 A 
ATOM      6  C   UNL     1     -34.664  -8.437  -8.293  1.00  0.00     0.134 A 
ATOM      7  C   UNL     1     -35.013  -7.529  -7.282  1.00  0.00     0.093 A 
ATOM      8  C   UNL     1     -35.881  -7.909  -6.252  1.00  0.00     0.123 A 
ATOM      9  C   UNL     1     -36.407  -9.202  -6.227  1.00  0.00     0.094 A 
ATOM     10  C   UNL     1     -36.072 -10.120  -7.226  1.00  0.00     0.146 A 
ATOM     11  O   UNL     1     -36.587 -11.345  -7.180  1.00  0.00    -0.456 OA
ENDROOT
BRANCH   1  12
ATOM     12  C   UNL     1     -36.959 -13.618  -7.937  1.00  0.00     0.021 A 
ATOM     13  C   UNL     1     -36.435 -14.714  -8.643  1.00  0.00     0.016 A 
ATOM     14  C   UNL     1     -37.006 -15.982  -8.512  1.00  0.00     0.051 A 
ATOM     15  C   UNL     1     -38.102 -16.180  -7.668  1.00  0.00     0.157 A 
ATOM     16  C   UNL     1     -38.055 -13.825  -7.077  1.00  0.00     0.062 A 
ATOM     17  C   UNL     1     -38.629 -15.099  -6.945  1.00  0.00     0.158 A 
BRANCH  15  18
ATOM     18  O   UNL     1     -38.652 -17.458  -7.560  1.00  0.00    -0.504 OA
ATOM     19  H   UNL     1     -39.650 -17.621  -7.619  1.00  0.00     0.293 HD
ENDBRANCH  15  18
BRANCH  17  20
ATOM     20  O   UNL     1     -39.715 -15.293  -6.093  1.00  0.00    -0.504 OA
ATOM     21  H   UNL     1     -39.987 -16.217  -5.780  1.00  0.00     0.293 HD
ENDBRANCH  17  20
ENDBRANCH   1  12
BRANCH   6  22
ATOM     22  O   UNL     1     -33.796  -8.030  -9.307  1.00  0.00    -0.507 OA
ATOM     23  H   UNL     1     -33.995  -7.225  -9.889  1.00  0.00     0.293 HD
ENDBRANCH   6  22
BRANCH   8  24
ATOM     24  O   UNL     1     -36.228  -7.008  -5.247  1.00  0.00    -0.508 OA
ATOM     25  H   UNL     1     -35.821  -7.065  -4.320  1.00  0.00     0.293 HD
ENDBRANCH   8  24
TORSDOF 5
ENDMDL
MODEL 2
REMARK VINA RESULT:    -6.874      4.018      7.160
REMARK INTER + INTRA:          -8.395
REMARK INTER:                  -8.129
REMARK INTRA:                  -0.265
REMARK UNBOUND:                -0.315
REMARK SMILES O=c1cc(-c2ccc(O)c(O)c2)oc2cc(O)cc(O)c12
REMARK SMILES IDX 4 1 3 2 2 3 1 4 21 5 19 6 18 7 16 8 15 9 14 10 13 11 5 12
REMARK SMILES IDX 6 13 7 14 8 15 12 16 10 17 9 18 11 20 20 22 17 24
REMARK H PARENT 9 19 11 21 20 23 17 25
REMARK Flexibility Score: inf
ROOT
ATOM      1  C   UNL     1     -36.394 -13.560 -10.329  1.00  0.00     0.138 A 
ATOM      2  C   UNL     1     -35.869 -14.851 -10.149  1.00  0.00     0.100 A 
ATOM      3  C   UNL     1     -35.848 -15.739 -11.225  1.00  0.00     0.197 A 
ATOM      4  O   UNL     1     -35.374 -16.895 -11.055  1.00  0.00    -0.289 OA
ATOM      5  C   UNL     1     -36.349 -15.328 -12.477  1.00  0.00     0.107 A 
ATOM      6  C   UNL     1     -36.366 -16.165 -13.617  1.00  0.00     0.134 A 
ATOM      7  C   UNL     1     -36.877 -15.678 -14.829  1.00  0.00     0.093 A 
ATOM      8  C   UNL     1     -37.370 -14.371 -14.921  1.00  0.00     0.123 A 
ATOM      9  C   UNL     1     -37.356 -13.542 -13.798  1.00  0.00     0.094 A 
ATOM     10  C   UNL     1     -36.851 -14.009 -12.581  1.00  0.00     0.146 A 
ATOM     11  O   UNL     1     -36.850 -13.200 -11.526  1.00  0.00    -0.456 OA
ENDROOT
BRANCH   1  12
ATOM     12  C   UNL     1     -36.441 -12.573  -9.220  1.00  0.00     0.021 A 
ATOM     13  C   UNL     1     -35.599 -11.449  -9.261  1.00  0.00     0.016 A 
ATOM     14  C   UNL     1     -35.628 -10.502  -8.234  1.00  0.00     0.051 A 
ATOM     15  C   UNL     1     -36.505 -10.654  -7.157  1.00  0.00     0.157 A 
ATOM     16  C   UNL     1     -37.332 -12.716  -8.140  1.00  0.00     0.062 A 
ATOM     17  C   UNL     1     -37.363 -11.764  -7.109  1.00  0.00     0.158 A 
BRANCH  15  18
ATOM     18  O   UNL     1     -36.511  -9.693  -6.146  1.00  0.00    -0.504 OA
ATOM     19  H   UNL     1     -36.547  -8.700  -6.348  1.00  0.00     0.293 HD
ENDBRANCH  15  18
BRANCH  17  20
ATOM     20  O   UNL     1     -38.249 -11.916  -6.042  1.00  0.00    -0.504 OA
ATOM     21  H   UNL     1     -37.926 -12.165  -5.115  1.00  0.00     0.293 HD
ENDBRANCH  17  20
ENDBRANCH   1  12
BRANCH   6  22
ATOM     22  O   UNL     1     -35.880 -17.471 -13.556  1.00  0.00    -0.507 OA
ATOM     23  H   UNL     1     -35.057 -17.710 -13.014  1.00  0.00     0.293 HD
ENDBRANCH   6  22
BRANCH   8  24
ATOM     24  O   UNL     1     -37.877 -13.886 -16.125  1.00  0.00    -0.508 OA
ATOM     25  H   UNL     1     -38.866 -13.935 -16.341  1.00  0.00     0.293 HD
ENDBRANCH   8  24
TORSDOF 5
ENDMDL
MODEL 3
REMARK VINA RESULT:    -6.843      4.526      7.503
REMARK INTER + INTRA:          -8.357
REMARK INTER:                  -8.091
REMARK INTRA:                  -0.267
REMARK UNBOUND:                -0.315
REMARK SMILES O=c1cc(-c2ccc(O)c(O)c2)oc2cc(O)cc(O)c12
REMARK SMILES IDX 4 1 3 2 2 3 1 4 21 5 19 6 18 7 16 8 15 9 14 10 13 11 5 12
REMARK SMILES IDX 6 13 7 14 8 15 12 16 10 17 9 18 11 20 20 22 17 24
REMARK H PARENT 9 19 11 21 20 23 17 25
REMARK Flexibility Score: inf
ROOT
ATOM      1  C   UNL     1     -36.137 -14.619 -10.658  1.00  0.00     0.138 A 
ATOM      2  C   UNL     1     -34.830 -15.124 -10.746  1.00  0.00     0.100 A 
ATOM      3  C   UNL     1     -34.437 -15.815 -11.893  1.00  0.00     0.197 A 
ATOM      4  O   UNL     1     -33.260 -16.264 -11.964  1.00  0.00    -0.289 OA
ATOM      5  C   UNL     1     -35.356 -15.993 -12.948  1.00  0.00     0.107 A 
ATOM      6  C   UNL     1     -35.039 -16.681 -14.142  1.00  0.00     0.134 A 
ATOM      7  C   UNL     1     -36.010 -16.810 -15.147  1.00  0.00     0.093 A 
ATOM      8  C   UNL     1     -37.287 -16.263 -14.979  1.00  0.00     0.123 A 
ATOM      9  C   UNL     1     -37.603 -15.584 -13.801  1.00  0.00     0.094 A 
ATOM     10  C   UNL     1     -36.650 -15.446 -12.787  1.00  0.00     0.146 A 
ATOM     11  O   UNL     1     -36.977 -14.795 -11.675  1.00  0.00    -0.456 OA
ENDROOT
BRANCH   1  12
ATOM     12  C   UNL     1     -36.609 -13.875  -9.463  1.00  0.00     0.021 A 
ATOM     13  C   UNL     1     -37.052 -14.588  -8.336  1.00  0.00     0.016 A 
ATOM     14  C   UNL     1     -37.495 -13.911  -7.196  1.00  0.00     0.051 A 
ATOM     15  C   UNL     1     -37.493 -12.515  -7.158  1.00  0.00     0.157 A 
ATOM     16  C   UNL     1     -36.596 -12.467  -9.414  1.00  0.00     0.062 A 
ATOM     17  C   UNL     1     -37.040 -11.788  -8.269  1.00  0.00     0.158 A 
BRANCH  15  18
ATOM     18  O   UNL     1     -37.943 -11.868  -6.006  1.00  0.00    -0.504 OA
ATOM     19  H   UNL     1     -38.453 -10.994  -6.044  1.00  0.00     0.293 HD
ENDBRANCH  15  18
BRANCH  17  20
ATOM     20  O   UNL     1     -37.025 -10.394  -8.232  1.00  0.00    -0.504 OA
ATOM     21  H   UNL     1     -36.973  -9.886  -7.357  1.00  0.00     0.293 HD
ENDBRANCH  17  20
ENDBRANCH   1  12
BRANCH   6  22
ATOM     22  O   UNL     1     -33.774 -17.235 -14.338  1.00  0.00    -0.507 OA
ATOM     23  H   UNL     1     -33.224 -17.031 -15.165  1.00  0.00     0.293 HD
ENDBRANCH   6  22
BRANCH   8  24
ATOM     24  O   UNL     1     -38.251 -16.391 -15.977  1.00  0.00    -0.508 OA
ATOM     25  H   UNL     1     -38.946 -15.671 -16.137  1.00  0.00     0.293 HD
ENDBRANCH   8  24
TORSDOF 5
ENDMDL
MODEL 4
REMARK VINA RESULT:    -6.770      1.317      1.808
REMARK INTER + INTRA:          -8.272
REMARK INTER:                  -7.955
REMARK INTRA:                  -0.318
REMARK UNBOUND:                -0.315
REMARK SMILES O=c1cc(-c2ccc(O)c(O)c2)oc2cc(O)cc(O)c12
REMARK SMILES IDX 4 1 3 2 2 3 1 4 21 5 19 6 18 7 16 8 15 9 14 10 13 11 5 12
REMARK SMILES IDX 6 13 7 14 8 15 12 16 10 17 9 18 11 20 20 22 17 24
REMARK H PARENT 9 19 11 21 20 23 17 25
REMARK Flexibility Score: inf
ROOT
ATOM      1  C   UNL     1     -36.408 -13.356  -8.518  1.00  0.00     0.138 A 
ATOM      2  C   UNL     1     -35.715 -13.538  -9.726  1.00  0.00     0.100 A 
ATOM      3  C   UNL     1     -34.954 -12.491 -10.246  1.00  0.00     0.197 A 
ATOM      4  O   UNL     1     -34.335 -12.664 -11.331  1.00  0.00    -0.289 OA
ATOM      5  C   UNL     1     -34.887 -11.266  -9.550  1.00  0.00     0.107 A 
ATOM      6  C   UNL     1     -34.140 -10.156 -10.008  1.00  0.00     0.134 A 
ATOM      7  C   UNL     1     -34.121  -8.973  -9.253  1.00  0.00     0.093 A 
ATOM      8  C   UNL     1     -34.833  -8.883  -8.051  1.00  0.00     0.123 A 
ATOM      9  C   UNL     1     -35.571  -9.977  -7.596  1.00  0.00     0.094 A 
ATOM     10  C   UNL     1     -35.604 -11.164  -8.335  1.00  0.00     0.146 A 
ATOM     11  O   UNL     1     -36.316 -12.190  -7.880  1.00  0.00    -0.456 OA
ENDROOT
BRANCH   1  12
ATOM     12  C   UNL     1     -37.232 -14.435  -7.917  1.00  0.00     0.021 A 
ATOM     13  C   UNL     1     -37.191 -15.725  -8.472  1.00  0.00     0.016 A 
ATOM     14  C   UNL     1     -37.951 -16.760  -7.921  1.00  0.00     0.051 A 
ATOM     15  C   UNL     1     -38.756 -16.528  -6.802  1.00  0.00     0.157 A 
ATOM     16  C   UNL     1     -38.034 -14.208  -6.782  1.00  0.00     0.062 A 
ATOM     17  C   UNL     1     -38.797 -15.248  -6.228  1.00  0.00     0.158 A 
BRANCH  15  18
ATOM     18  O   UNL     1     -39.505 -17.580  -6.276  1.00  0.00    -0.504 OA
ATOM     19  H   UNL     1     -40.511 -17.631  -6.384  1.00  0.00     0.293 HD
ENDBRANCH  15  18
BRANCH  17  20
ATOM     20  O   UNL     1     -39.589 -15.013  -5.104  1.00  0.00    -0.504 OA
ATOM     21  H   UNL     1     -39.401 -14.244  -4.472  1.00  0.00     0.293 HD
ENDBRANCH  17  20
ENDBRANCH   1  12
BRANCH   6  22
ATOM     22  O   UNL     1     -33.420 -10.217 -11.201  1.00  0.00    -0.507 OA
ATOM     23  H   UNL     1     -33.418  -9.449 -11.863  1.00  0.00     0.293 HD
ENDBRANCH   6  22
BRANCH   8  24
ATOM     24  O   UNL     1     -34.813  -7.710  -7.300  1.00  0.00    -0.508 OA
ATOM     25  H   UNL     1     -34.643  -6.808  -7.731  1.00  0.00     0.293 HD
ENDBRANCH   8  24
TORSDOF 5
ENDMDL
MODEL 5
REMARK VINA RESULT:    -6.745      4.342      6.938
REMARK INTER + INTRA:          -8.242
REMARK INTER:                  -7.940
REMARK INTRA:                  -0.302
REMARK UNBOUND:                -0.315
REMARK SMILES O=c1cc(-c2ccc(O)c(O)c2)oc2cc(O)cc(O)c12
REMARK SMILES IDX 4 1 3 2 2 3 1 4 21 5 19 6 18 7 16 8 15 9 14 10 13 11 5 12
REMARK SMILES IDX 6 13 7 14 8 15 12 16 10 17 9 18 11 20 20 22 17 24
REMARK H PARENT 9 19 11 21 20 23 17 25
REMARK Flexibility Score: inf
ROOT
ATOM      1  C   UNL     1     -36.188 -13.327 -11.036  1.00  0.00     0.138 A 
ATOM      2  C   UNL     1     -34.950 -12.928 -11.563  1.00  0.00     0.100 A 
ATOM      3  C   UNL     1     -34.590 -13.329 -12.851  1.00  0.00     0.197 A 
ATOM      4  O   UNL     1     -33.476 -12.965 -13.316  1.00  0.00    -0.289 OA
ATOM      5  C   UNL     1     -35.476 -14.126 -13.605  1.00  0.00     0.107 A 
ATOM      6  C   UNL     1     -35.189 -14.576 -14.914  1.00  0.00     0.134 A 
ATOM      7  C   UNL     1     -36.127 -15.361 -15.600  1.00  0.00     0.093 A 
ATOM      8  C   UNL     1     -37.346 -15.702 -15.001  1.00  0.00     0.123 A 
ATOM      9  C   UNL     1     -37.633 -15.260 -13.708  1.00  0.00     0.094 A 
ATOM     10  C   UNL     1     -36.710 -14.478 -13.008  1.00  0.00     0.146 A 
ATOM     11  O   UNL     1     -37.006 -14.071 -11.778  1.00  0.00    -0.456 OA
ENDROOT
BRANCH   1  12
ATOM     12  C   UNL     1     -36.624 -12.929  -9.673  1.00  0.00     0.021 A 
ATOM     13  C   UNL     1     -36.270 -11.663  -9.177  1.00  0.00     0.016 A 
ATOM     14  C   UNL     1     -36.673 -11.262  -7.901  1.00  0.00     0.051 A 
ATOM     15  C   UNL     1     -37.445 -12.111  -7.104  1.00  0.00     0.157 A 
ATOM     16  C   UNL     1     -37.413 -13.777  -8.871  1.00  0.00     0.062 A 
ATOM     17  C   UNL     1     -37.819 -13.373  -7.590  1.00  0.00     0.158 A 
BRANCH  15  18
ATOM     18  O   UNL     1     -37.831 -11.682  -5.834  1.00  0.00    -0.504 OA
ATOM     19  H   UNL     1     -37.739 -12.273  -5.016  1.00  0.00     0.293 HD
ENDBRANCH  15  18
BRANCH  17  20
ATOM     20  O   UNL     1     -38.598 -14.221  -6.803  1.00  0.00    -0.504 OA
ATOM     21  H   UNL     1     -38.352 -15.194  -6.666  1.00  0.00     0.293 HD
ENDBRANCH  17  20
ENDBRANCH   1  12
BRANCH   6  22
ATOM     22  O   UNL     1     -33.984 -14.250 -15.537  1.00  0.00    -0.507 OA
ATOM     23  H   UNL     1     -33.090 -14.527 -15.148  1.00  0.00     0.293 HD
ENDBRANCH   6  22
BRANCH   8  24
ATOM     24  O   UNL     1     -38.278 -16.481 -15.682  1.00  0.00    -0.508 OA
ATOM     25  H   UNL     1     -38.070 -16.888 -16.587  1.00  0.00     0.293 HD
ENDBRANCH   8  24
TORSDOF 5
ENDMDL
MODEL 6
REMARK VINA RESULT:    -6.635     13.120     13.278
REMARK INTER + INTRA:          -8.113
REMARK INTER:                  -7.820
REMARK INTRA:                  -0.293
REMARK UNBOUND:                -0.315
REMARK SMILES O=c1cc(-c2ccc(O)c(O)c2)oc2cc(O)cc(O)c12
REMARK SMILES IDX 4 1 3 2 2 3 1 4 21 5 19 6 18 7 16 8 15 9 14 10 13 11 5 12
REMARK SMILES IDX 6 13 7 14 8 15 12 16 10 17 9 18 11 20 20 22 17 24
REMARK H PARENT 9 19 11 21 20 23 17 25
REMARK Flexibility Score: inf
ROOT
ATOM      1  C   UNL     1     -26.744 -16.142   0.227  1.00  0.00     0.138 A 
ATOM      2  C   UNL     1     -26.431 -15.727  -1.077  1.00  0.00     0.100 A 
ATOM      3  C   UNL     1     -26.373 -14.363  -1.369  1.00  0.00     0.197 A 
ATOM      4  O   UNL     1     -26.090 -14.000  -2.543  1.00  0.00    -0.289 OA
ATOM      5  C   UNL     1     -26.626 -13.422  -0.350  1.00  0.00     0.107 A 
ATOM      6  C   UNL     1     -26.589 -12.024  -0.561  1.00  0.00     0.134 A 
ATOM      7  C   UNL     1     -26.847 -11.154   0.508  1.00  0.00     0.093 A 
ATOM      8  C   UNL     1     -27.140 -11.655   1.782  1.00  0.00     0.123 A 
ATOM      9  C   UNL     1     -27.178 -13.035   1.994  1.00  0.00     0.094 A 
ATOM     10  C   UNL     1     -26.924 -13.919   0.941  1.00  0.00     0.146 A 
ATOM     11  O   UNL     1     -26.968 -15.228   1.169  1.00  0.00    -0.456 OA
ENDROOT
BRANCH   1  12
ATOM     12  C   UNL     1     -26.818 -17.579   0.595  1.00  0.00     0.021 A 
ATOM     13  C   UNL     1     -26.709 -17.952   1.945  1.00  0.00     0.016 A 
ATOM     14  C   UNL     1     -26.783 -19.296   2.318  1.00  0.00     0.051 A 
ATOM     15  C   UNL     1     -26.977 -20.289   1.354  1.00  0.00     0.157 A 
ATOM     16  C   UNL     1     -27.026 -18.580  -0.373  1.00  0.00     0.062 A 
ATOM     17  C   UNL     1     -27.101 -19.930   0.002  1.00  0.00     0.158 A 
BRANCH  15  18
ATOM     18  O   UNL     1     -27.045 -21.622   1.757  1.00  0.00    -0.504 OA
ATOM     19  H   UNL     1     -27.860 -22.002   2.223  1.00  0.00     0.293 HD
ENDBRANCH  15  18
BRANCH  17  20
ATOM     20  O   UNL     1     -27.306 -20.915  -0.964  1.00  0.00    -0.504 OA
ATOM     21  H   UNL     1     -26.773 -21.777  -0.966  1.00  0.00     0.293 HD
ENDBRANCH  17  20
ENDBRANCH   1  12
BRANCH   6  22
ATOM     22  O   UNL     1     -26.299 -11.495  -1.819  1.00  0.00    -0.507 OA
ATOM     23  H   UNL     1     -26.886 -10.790  -2.250  1.00  0.00     0.293 HD
ENDBRANCH   6  22
BRANCH   8  24
ATOM     24  O   UNL     1     -27.396 -10.791   2.844  1.00  0.00    -0.508 OA
ATOM     25  H   UNL     1     -27.092  -9.824   2.826  1.00  0.00     0.293 HD
ENDBRANCH   8  24
TORSDOF 5
ENDMDL
MODEL 7
REMARK VINA RESULT:    -6.592      1.550      2.586
REMARK INTER + INTRA:          -8.063
REMARK INTER:                  -7.775
REMARK INTRA:                  -0.289
REMARK UNBOUND:                -0.315
REMARK SMILES O=c1cc(-c2ccc(O)c(O)c2)oc2cc(O)cc(O)c12
REMARK SMILES IDX 4 1 3 2 2 3 1 4 21 5 19 6 18 7 16 8 15 9 14 10 13 11 5 12
REMARK SMILES IDX 6 13 7 14 8 15 12 16 10 17 9 18 11 20 20 22 17 24
REMARK H PARENT 9 19 11 21 20 23 17 25
REMARK Flexibility Score: inf
ROOT
ATOM      1  C   UNL     1     -36.236 -12.342  -7.841  1.00  0.00     0.138 A 
ATOM      2  C   UNL     1     -36.990 -11.171  -7.663  1.00  0.00     0.100 A 
ATOM      3  C   UNL     1     -36.347  -9.932  -7.671  1.00  0.00     0.197 A 
ATOM      4  O   UNL     1     -37.032  -8.886  -7.511  1.00  0.00    -0.289 OA
ATOM      5  C   UNL     1     -34.951  -9.874  -7.862  1.00  0.00     0.107 A 
ATOM      6  C   UNL     1     -34.223  -8.662  -7.882  1.00  0.00     0.134 A 
ATOM      7  C   UNL     1     -32.835  -8.690  -8.084  1.00  0.00     0.093 A 
ATOM      8  C   UNL     1     -32.164  -9.905  -8.265  1.00  0.00     0.123 A 
ATOM      9  C   UNL     1     -32.880 -11.104  -8.245  1.00  0.00     0.094 A 
ATOM     10  C   UNL     1     -34.264 -11.097  -8.045  1.00  0.00     0.146 A 
ATOM     11  O   UNL     1     -34.921 -12.252  -8.028  1.00  0.00    -0.456 OA
ENDROOT
BRANCH   1  12
ATOM     12  C   UNL     1     -36.867 -13.687  -7.843  1.00  0.00     0.021 A 
ATOM     13  C   UNL     1     -36.281 -14.723  -8.588  1.00  0.00     0.016 A 
ATOM     14  C   UNL     1     -36.851 -15.999  -8.601  1.00  0.00     0.051 A 
ATOM     15  C   UNL     1     -38.007 -16.265  -7.862  1.00  0.00     0.157 A 
ATOM     16  C   UNL     1     -38.025 -13.962  -7.089  1.00  0.00     0.062 A 
ATOM     17  C   UNL     1     -38.596 -15.243  -7.101  1.00  0.00     0.158 A 
BRANCH  15  18
ATOM     18  O   UNL     1     -38.553 -17.548  -7.896  1.00  0.00    -0.504 OA
ATOM     19  H   UNL     1     -38.540 -18.159  -7.088  1.00  0.00     0.293 HD
ENDBRANCH  15  18
BRANCH  17  20
ATOM     20  O   UNL     1     -39.743 -15.505  -6.352  1.00  0.00    -0.504 OA
ATOM     21  H   UNL     1     -39.702 -16.013  -5.476  1.00  0.00     0.293 HD
ENDBRANCH  17  20
ENDBRANCH   1  12
BRANCH   6  22
ATOM     22  O   UNL     1     -34.864  -7.436  -7.706  1.00  0.00    -0.507 OA
ATOM     23  H   UNL     1     -34.360  -6.558  -7.759  1.00  0.00     0.293 HD
ENDBRANCH   6  22
BRANCH   8  24
ATOM     24  O   UNL     1     -30.786  -9.933  -8.466  1.00  0.00    -0.508 OA
ATOM     25  H   UNL     1     -30.212  -9.110  -8.320  1.00  0.00     0.293 HD
ENDBRANCH   8  24
TORSDOF 5
ENDMDL
MODEL 8
REMARK VINA RESULT:    -6.487      3.752      7.058
REMARK INTER + INTRA:          -7.940
REMARK INTER:                  -7.674
REMARK INTRA:                  -0.266
REMARK UNBOUND:                -0.315
REMARK SMILES O=c1cc(-c2ccc(O)c(O)c2)oc2cc(O)cc(O)c12
REMARK SMILES IDX 4 1 3 2 2 3 1 4 21 5 19 6 18 7 16 8 15 9 14 10 13 11 5 12
REMARK SMILES IDX 6 13 7 14 8 15 12 16 10 17 9 18 11 20 20 22 17 24
REMARK H PARENT 9 19 11 21 20 23 17 25
REMARK Flexibility Score: inf
ROOT
ATOM      1  C   UNL     1     -36.314 -13.305 -10.264  1.00  0.00     0.138 A 
ATOM      2  C   UNL     1     -36.916 -12.995 -11.494  1.00  0.00     0.100 A 
ATOM      3  C   UNL     1     -36.775 -13.874 -12.569  1.00  0.00     0.197 A 
ATOM      4  O   UNL     1     -37.321 -13.588 -13.669  1.00  0.00    -0.289 OA
ATOM      5  C   UNL     1     -36.034 -15.062 -12.404  1.00  0.00     0.107 A 
ATOM      6  C   UNL     1     -35.842 -16.004 -13.441  1.00  0.00     0.134 A 
ATOM      7  C   UNL     1     -35.095 -17.166 -13.194  1.00  0.00     0.093 A 
ATOM      8  C   UNL     1     -34.539 -17.401 -11.931  1.00  0.00     0.123 A 
ATOM      9  C   UNL     1     -34.725 -16.472 -10.905  1.00  0.00     0.094 A 
ATOM     10  C   UNL     1     -35.466 -15.309 -11.132  1.00  0.00     0.146 A 
ATOM     11  O   UNL     1     -35.628 -14.440 -10.139  1.00  0.00    -0.456 OA
ENDROOT
BRANCH   1  12
ATOM     12  C   UNL     1     -36.431 -12.409  -9.087  1.00  0.00     0.021 A 
ATOM     13  C   UNL     1     -35.676 -11.225  -9.042  1.00  0.00     0.016 A 
ATOM     14  C   UNL     1     -35.774 -10.360  -7.949  1.00  0.00     0.051 A 
ATOM     15  C   UNL     1     -36.633 -10.657  -6.888  1.00  0.00     0.157 A 
ATOM     16  C   UNL     1     -37.307 -12.697  -8.021  1.00  0.00     0.062 A 
ATOM     17  C   UNL     1     -37.405 -11.828  -6.924  1.00  0.00     0.158 A 
BRANCH  15  18
ATOM     18  O   UNL     1     -36.708  -9.775  -5.810  1.00  0.00    -0.504 OA
ATOM     19  H   UNL     1     -36.507  -8.787  -5.908  1.00  0.00     0.293 HD
ENDBRANCH  15  18
BRANCH  17  20
ATOM     20  O   UNL     1     -38.274 -12.123  -5.873  1.00  0.00    -0.504 OA
ATOM     21  H   UNL     1     -38.337 -13.055  -5.482  1.00  0.00     0.293 HD
ENDBRANCH  17  20
ENDBRANCH   1  12
BRANCH   6  22
ATOM     22  O   UNL     1     -36.385 -15.798 -14.709  1.00  0.00    -0.507 OA
ATOM     23  H   UNL     1     -36.014 -15.099 -15.342  1.00  0.00     0.293 HD
ENDBRANCH   6  22
BRANCH   8  24
ATOM     24  O   UNL     1     -33.797 -18.554 -11.685  1.00  0.00    -0.508 OA
ATOM     25  H   UNL     1     -34.032 -19.439 -12.121  1.00  0.00     0.293 HD
ENDBRANCH   8  24
TORSDOF 5
ENDMDL
MODEL 9
REMARK VINA RESULT:    -6.446     13.342     13.670
REMARK INTER + INTRA:          -7.892
REMARK INTER:                  -7.574
REMARK INTRA:                  -0.318
REMARK UNBOUND:                -0.315
REMARK SMILES O=c1cc(-c2ccc(O)c(O)c2)oc2cc(O)cc(O)c12
REMARK SMILES IDX 4 1 3 2 2 3 1 4 21 5 19 6 18 7 16 8 15 9 14 10 13 11 5 12
REMARK SMILES IDX 6 13 7 14 8 15 12 16 10 17 9 18 11 20 20 22 17 24
REMARK H PARENT 9 19 11 21 20 23 17 25
REMARK Flexibility Score: inf
ROOT
ATOM      1  C   UNL     1     -26.629 -16.521   0.811  1.00  0.00     0.138 A 
ATOM      2  C   UNL     1     -26.300 -15.688   1.892  1.00  0.00     0.100 A 
ATOM      3  C   UNL     1     -26.193 -14.311   1.691  1.00  0.00     0.197 A 
ATOM      4  O   UNL     1     -25.898 -13.570   2.668  1.00  0.00    -0.289 OA
ATOM      5  C   UNL     1     -26.420 -13.776   0.406  1.00  0.00     0.107 A 
ATOM      6  C   UNL     1     -26.331 -12.394   0.116  1.00  0.00     0.134 A 
ATOM      7  C   UNL     1     -26.578 -11.941  -1.188  1.00  0.00     0.093 A 
ATOM      8  C   UNL     1     -26.912 -12.843  -2.205  1.00  0.00     0.123 A 
ATOM      9  C   UNL     1     -27.001 -14.207  -1.923  1.00  0.00     0.094 A 
ATOM     10  C   UNL     1     -26.758 -14.679  -0.630  1.00  0.00     0.146 A 
ATOM     11  O   UNL     1     -26.847 -15.983  -0.388  1.00  0.00    -0.456 OA
ENDROOT
BRANCH   1  12
ATOM     12  C   UNL     1     -26.758 -17.992   0.966  1.00  0.00     0.021 A 
ATOM     13  C   UNL     1     -26.713 -18.557   2.252  1.00  0.00     0.016 A 
ATOM     14  C   UNL     1     -26.838 -19.937   2.426  1.00  0.00     0.051 A 
ATOM     15  C   UNL     1     -27.022 -20.775   1.324  1.00  0.00     0.157 A 
ATOM     16  C   UNL     1     -26.957 -18.839  -0.141  1.00  0.00     0.062 A 
ATOM     17  C   UNL     1     -27.085 -20.225   0.034  1.00  0.00     0.158 A 
BRANCH  15  18
ATOM     18  O   UNL     1     -27.144 -22.150   1.530  1.00  0.00    -0.504 OA
ATOM     19  H   UNL     1     -27.834 -22.540   2.160  1.00  0.00     0.293 HD
ENDBRANCH  15  18
BRANCH  17  20
ATOM     20  O   UNL     1     -27.280 -21.055  -1.070  1.00  0.00    -0.504 OA
ATOM     21  H   UNL     1     -26.526 -21.609  -1.458  1.00  0.00     0.293 HD
ENDBRANCH  17  20
ENDBRANCH   1  12
BRANCH   6  22
ATOM     22  O   UNL     1     -26.001 -11.472   1.110  1.00  0.00    -0.507 OA
ATOM     23  H   UNL     1     -25.548 -10.591   0.892  1.00  0.00     0.293 HD
ENDBRANCH   6  22
BRANCH   8  24
ATOM     24  O   UNL     1     -27.158 -12.393  -3.501  1.00  0.00    -0.508 OA
ATOM     25  H   UNL     1     -27.231 -11.405  -3.714  1.00  0.00     0.293 HD
ENDBRANCH   8  24
TORSDOF 5
ENDMDL
