MODEL 1
REMARK VINA RESULT:    -7.276      0.000      0.000
REMARK INTER + INTRA:          -7.755
REMARK INTER:                  -7.914
REMARK INTRA:                   0.159
REMARK UNBOUND:                 0.159
REMARK SMILES CC(=O)[C@H]1CC[C@@H]2[C@@H]3CC=C4C[C@H](O)CC[C@]4(C)[C@@H]3CC[C@]12C
REMARK SMILES IDX 4 1 5 2 6 3 7 4 22 5 21 6 20 7 19 8 8 9 9 10 10 11 11 12
REMARK SMILES IDX 17 13 16 14 15 15 13 16 12 17 18 18 23 19 2 20 1 21 3 22
REMARK SMILES IDX 14 23
REMARK H PARENT 14 24
REMARK Flexibility Score: inf
ROOT
ATOM      1  C   UNL     1     111.364 117.580 125.941  1.00  0.00     0.062 C 
ATOM      2  C   UNL     1     111.653 117.618 124.441  1.00  0.00     0.012 C 
ATOM      3  C   UNL     1     110.882 118.811 123.907  1.00  0.00     0.005 C 
ATOM      4  C   UNL     1     110.824 119.838 125.054  1.00  0.00    -0.001 C 
ATOM      5  C   UNL     1     111.211 119.079 126.368  1.00  0.00    -0.020 C 
ATOM      6  C   UNL     1     112.570 119.578 126.929  1.00  0.00     0.008 C 
ATOM      7  C   UNL     1     112.662 121.106 127.107  1.00  0.00     0.005 C 
ATOM      8  C   UNL     1     111.826 121.950 126.094  1.00  0.00     0.003 C 
ATOM      9  C   UNL     1     111.611 121.167 124.777  1.00  0.00     0.000 C 
ATOM     10  C   UNL     1     112.943 121.025 123.989  1.00  0.00     0.031 C 
ATOM     11  C   UNL     1     113.883 122.202 124.119  1.00  0.00    -0.027 C 
ATOM     12  C   UNL     1     113.719 123.229 124.984  1.00  0.00    -0.065 C 
ATOM     13  C   UNL     1     112.441 123.373 125.812  1.00  0.00    -0.008 C 
ATOM     14  C   UNL     1     112.731 124.117 127.160  1.00  0.00     0.014 C 
ATOM     15  C   UNL     1     113.648 125.342 127.012  1.00  0.00     0.033 C 
ATOM     16  C   UNL     1     114.965 124.970 126.316  1.00  0.00     0.118 C 
ATOM     17  C   UNL     1     114.695 124.388 124.927  1.00  0.00     0.063 C 
ATOM     18  C   UNL     1     111.436 124.235 124.998  1.00  0.00     0.016 C 
ATOM     19  C   UNL     1     110.135 119.270 127.473  1.00  0.00     0.012 C 
ENDROOT
BRANCH   1  20
ATOM     20  C   UNL     1     110.148 116.704 126.219  1.00  0.00     0.133 C 
ATOM     21  C   UNL     1     109.974 116.015 127.542  1.00  0.00     0.088 C 
ATOM     22  O   UNL     1     109.291 116.548 125.362  1.00  0.00    -0.300 OA
ENDBRANCH   1  20
BRANCH  16  23
ATOM     23  O   UNL     1     115.685 124.040 127.084  1.00  0.00    -0.393 OA
ATOM     24  H   UNL     1     115.175 123.188 127.056  1.00  0.00     0.210 HD
ENDBRANCH  16  23
TORSDOF 2
ENDMDL
MODEL 2
REMARK VINA RESULT:    -6.895      1.273      6.645
REMARK INTER + INTRA:          -7.341
REMARK INTER:                  -7.406
REMARK INTRA:                   0.065
REMARK UNBOUND:                 0.159
REMARK SMILES CC(=O)[C@H]1CC[C@@H]2[C@@H]3CC=C4C[C@H](O)CC[C@]4(C)[C@@H]3CC[C@]12C
REMARK SMILES IDX 4 1 5 2 6 3 7 4 22 5 21 6 20 7 19 8 8 9 9 10 10 11 11 12
REMARK SMILES IDX 17 13 16 14 15 15 13 16 12 17 18 18 23 19 2 20 1 21 3 22
REMARK SMILES IDX 14 23
REMARK H PARENT 14 24
REMARK Flexibility Score: inf
ROOT
ATOM      1  C   UNL     1     113.283 124.041 125.872  1.00  0.00     0.062 C 
ATOM      2  C   UNL     1     113.006 123.912 124.375  1.00  0.00     0.012 C 
ATOM      3  C   UNL     1     113.773 122.683 123.923  1.00  0.00     0.005 C 
ATOM      4  C   UNL     1     113.814 121.728 125.131  1.00  0.00    -0.001 C 
ATOM      5  C   UNL     1     113.421 122.570 126.392  1.00  0.00    -0.020 C 
ATOM      6  C   UNL     1     112.054 122.115 126.971  1.00  0.00     0.008 C 
ATOM      7  C   UNL     1     111.950 120.602 127.243  1.00  0.00     0.005 C 
ATOM      8  C   UNL     1     112.788 119.691 126.291  1.00  0.00     0.003 C 
ATOM      9  C   UNL     1     113.019 120.390 124.930  1.00  0.00     0.000 C 
ATOM     10  C   UNL     1     111.695 120.492 124.124  1.00  0.00     0.031 C 
ATOM     11  C   UNL     1     110.745 119.332 124.317  1.00  0.00    -0.027 C 
ATOM     12  C   UNL     1     110.895 118.359 125.245  1.00  0.00    -0.065 C 
ATOM     13  C   UNL     1     112.164 118.258 126.092  1.00  0.00    -0.008 C 
ATOM     14  C   UNL     1     111.858 117.600 127.481  1.00  0.00     0.014 C 
ATOM     15  C   UNL     1     110.933 116.375 127.401  1.00  0.00     0.033 C 
ATOM     16  C   UNL     1     109.625 116.712 126.672  1.00  0.00     0.118 C 
ATOM     17  C   UNL     1     109.911 117.206 125.252  1.00  0.00     0.063 C 
ATOM     18  C   UNL     1     113.170 117.340 125.342  1.00  0.00     0.016 C 
ATOM     19  C   UNL     1     114.487 122.439 127.517  1.00  0.00     0.012 C 
ENDROOT
BRANCH   1  20
ATOM     20  C   UNL     1     114.503 124.924 126.107  1.00  0.00     0.133 C 
ATOM     21  C   UNL     1     114.500 125.987 127.167  1.00  0.00     0.088 C 
ATOM     22  O   UNL     1     115.509 124.778 125.428  1.00  0.00    -0.300 OA
ENDBRANCH   1  20
BRANCH  16  23
ATOM     23  O   UNL     1     108.905 117.693 127.375  1.00  0.00    -0.393 OA
ATOM     24  H   UNL     1     108.658 118.394 126.717  1.00  0.00     0.210 HD
ENDBRANCH  16  23
TORSDOF 2
ENDMDL
MODEL 3
REMARK VINA RESULT:    -6.882      1.746      2.452
REMARK INTER + INTRA:          -7.326
REMARK INTER:                  -7.857
REMARK INTRA:                   0.531
REMARK UNBOUND:                 0.159
REMARK SMILES CC(=O)[C@H]1CC[C@@H]2[C@@H]3CC=C4C[C@H](O)CC[C@]4(C)[C@@H]3CC[C@]12C
REMARK SMILES IDX 4 1 5 2 6 3 7 4 22 5 21 6 20 7 19 8 8 9 9 10 10 11 11 12
REMARK SMILES IDX 17 13 16 14 15 15 13 16 12 17 18 18 23 19 2 20 1 21 3 22
REMARK SMILES IDX 14 23
REMARK H PARENT 14 24
REMARK Flexibility Score: inf
ROOT
ATOM      1  C   UNL     1     110.896 116.820 127.641  1.00  0.00     0.062 C 
ATOM      2  C   UNL     1     109.784 117.228 126.676  1.00  0.00     0.012 C 
ATOM      3  C   UNL     1     109.350 118.614 127.117  1.00  0.00     0.005 C 
ATOM      4  C   UNL     1     110.595 119.286 127.724  1.00  0.00    -0.001 C 
ATOM      5  C   UNL     1     111.640 118.151 127.997  1.00  0.00    -0.020 C 
ATOM      6  C   UNL     1     112.880 118.292 127.073  1.00  0.00     0.008 C 
ATOM      7  C   UNL     1     113.536 119.685 127.096  1.00  0.00     0.005 C 
ATOM      8  C   UNL     1     112.564 120.879 127.363  1.00  0.00     0.003 C 
ATOM      9  C   UNL     1     111.126 120.522 126.917  1.00  0.00     0.000 C 
ATOM     10  C   UNL     1     111.030 120.424 125.370  1.00  0.00     0.031 C 
ATOM     11  C   UNL     1     111.925 121.384 124.618  1.00  0.00    -0.027 C 
ATOM     12  C   UNL     1     112.887 122.148 125.186  1.00  0.00    -0.065 C 
ATOM     13  C   UNL     1     113.042 122.229 126.705  1.00  0.00    -0.008 C 
ATOM     14  C   UNL     1     114.528 122.530 127.099  1.00  0.00     0.014 C 
ATOM     15  C   UNL     1     115.195 123.614 126.237  1.00  0.00     0.033 C 
ATOM     16  C   UNL     1     115.099 123.275 124.743  1.00  0.00     0.118 C 
ATOM     17  C   UNL     1     113.636 123.136 124.315  1.00  0.00     0.063 C 
ATOM     18  C   UNL     1     112.166 123.407 127.215  1.00  0.00     0.016 C 
ATOM     19  C   UNL     1     112.133 118.175 129.472  1.00  0.00     0.012 C 
ENDROOT
BRANCH   1  20
ATOM     20  C   UNL     1     110.309 116.072 128.833  1.00  0.00     0.133 C 
ATOM     21  C   UNL     1     111.194 115.490 129.897  1.00  0.00     0.088 C 
ATOM     22  O   UNL     1     109.099 115.933 128.938  1.00  0.00    -0.300 OA
ENDBRANCH   1  20
BRANCH  16  23
ATOM     23  O   UNL     1     115.786 122.082 124.462  1.00  0.00    -0.393 OA
ATOM     24  H   UNL     1     116.428 121.939 125.205  1.00  0.00     0.210 HD
ENDBRANCH  16  23
TORSDOF 2
ENDMDL
MODEL 4
REMARK VINA RESULT:    -6.733      1.549      2.931
REMARK INTER + INTRA:          -7.164
REMARK INTER:                  -7.393
REMARK INTRA:                   0.229
REMARK UNBOUND:                 0.159
REMARK SMILES CC(=O)[C@H]1CC[C@@H]2[C@@H]3CC=C4C[C@H](O)CC[C@]4(C)[C@@H]3CC[C@]12C
REMARK SMILES IDX 4 1 5 2 6 3 7 4 22 5 21 6 20 7 19 8 8 9 9 10 10 11 11 12
REMARK SMILES IDX 17 13 16 14 15 15 13 16 12 17 18 18 23 19 2 20 1 21 3 22
REMARK SMILES IDX 14 23
REMARK H PARENT 14 24
REMARK Flexibility Score: inf
ROOT
ATOM      1  C   UNL     1     109.853 118.146 125.060  1.00  0.00     0.062 C 
ATOM      2  C   UNL     1     109.241 118.484 126.418  1.00  0.00     0.012 C 
ATOM      3  C   UNL     1     110.364 118.319 127.425  1.00  0.00     0.005 C 
ATOM      4  C   UNL     1     111.668 118.660 126.679  1.00  0.00    -0.001 C 
ATOM      5  C   UNL     1     111.339 118.632 125.148  1.00  0.00    -0.020 C 
ATOM      6  C   UNL     1     111.438 120.051 124.524  1.00  0.00     0.008 C 
ATOM      7  C   UNL     1     112.765 120.780 124.807  1.00  0.00     0.005 C 
ATOM      8  C   UNL     1     113.447 120.427 126.167  1.00  0.00     0.003 C 
ATOM      9  C   UNL     1     112.395 119.950 127.197  1.00  0.00     0.000 C 
ATOM     10  C   UNL     1     111.479 121.124 127.641  1.00  0.00     0.031 C 
ATOM     11  C   UNL     1     112.162 122.472 127.705  1.00  0.00    -0.027 C 
ATOM     12  C   UNL     1     113.407 122.728 127.242  1.00  0.00    -0.065 C 
ATOM     13  C   UNL     1     114.318 121.602 126.751  1.00  0.00    -0.008 C 
ATOM     14  C   UNL     1     115.319 122.128 125.666  1.00  0.00     0.014 C 
ATOM     15  C   UNL     1     115.954 123.486 126.007  1.00  0.00     0.033 C 
ATOM     16  C   UNL     1     114.880 124.544 126.298  1.00  0.00     0.118 C 
ATOM     17  C   UNL     1     113.995 124.107 127.467  1.00  0.00     0.063 C 
ATOM     18  C   UNL     1     115.152 121.096 127.962  1.00  0.00     0.016 C 
ATOM     19  C   UNL     1     112.313 117.698 124.375  1.00  0.00     0.012 C 
ENDROOT
BRANCH   1  20
ATOM     20  C   UNL     1     109.678 116.662 124.759  1.00  0.00     0.133 C 
ATOM     21  C   UNL     1     110.002 115.618 125.787  1.00  0.00     0.088 C 
ATOM     22  O   UNL     1     109.271 116.300 123.665  1.00  0.00    -0.300 OA
ENDBRANCH   1  20
BRANCH  16  23
ATOM     23  O   UNL     1     114.083 124.766 125.162  1.00  0.00    -0.393 OA
ATOM     24  H   UNL     1     113.437 124.013 125.114  1.00  0.00     0.210 HD
ENDBRANCH  16  23
TORSDOF 2
ENDMDL
MODEL 5
REMARK VINA RESULT:    -6.487      1.463      2.041
REMARK INTER + INTRA:          -6.896
REMARK INTER:                  -6.966
REMARK INTRA:                   0.070
REMARK UNBOUND:                 0.159
REMARK SMILES CC(=O)[C@H]1CC[C@@H]2[C@@H]3CC=C4C[C@H](O)CC[C@]4(C)[C@@H]3CC[C@]12C
REMARK SMILES IDX 4 1 5 2 6 3 7 4 22 5 21 6 20 7 19 8 8 9 9 10 10 11 11 12
REMARK SMILES IDX 17 13 16 14 15 15 13 16 12 17 18 18 23 19 2 20 1 21 3 22
REMARK SMILES IDX 14 23
REMARK H PARENT 14 24
REMARK Flexibility Score: inf
ROOT
ATOM      1  C   UNL     1     111.453 117.080 127.559  1.00  0.00     0.062 C 
ATOM      2  C   UNL     1     112.680 116.374 126.985  1.00  0.00     0.012 C 
ATOM      3  C   UNL     1     112.775 116.830 125.541  1.00  0.00     0.005 C 
ATOM      4  C   UNL     1     112.192 118.255 125.497  1.00  0.00    -0.001 C 
ATOM      5  C   UNL     1     111.399 118.466 126.831  1.00  0.00    -0.020 C 
ATOM      6  C   UNL     1     112.082 119.530 127.732  1.00  0.00     0.008 C 
ATOM      7  C   UNL     1     112.374 120.868 127.026  1.00  0.00     0.005 C 
ATOM      8  C   UNL     1     112.669 120.769 125.496  1.00  0.00     0.003 C 
ATOM      9  C   UNL     1     113.233 119.373 125.138  1.00  0.00     0.000 C 
ATOM     10  C   UNL     1     114.665 119.187 125.710  1.00  0.00     0.031 C 
ATOM     11  C   UNL     1     115.503 120.445 125.740  1.00  0.00    -0.027 C 
ATOM     12  C   UNL     1     115.036 121.689 125.486  1.00  0.00    -0.065 C 
ATOM     13  C   UNL     1     113.615 121.913 124.968  1.00  0.00    -0.008 C 
ATOM     14  C   UNL     1     113.073 123.315 125.413  1.00  0.00     0.014 C 
ATOM     15  C   UNL     1     114.093 124.454 125.263  1.00  0.00     0.033 C 
ATOM     16  C   UNL     1     115.401 124.131 125.999  1.00  0.00     0.118 C 
ATOM     17  C   UNL     1     116.021 122.841 125.457  1.00  0.00     0.063 C 
ATOM     18  C   UNL     1     113.660 121.891 123.414  1.00  0.00     0.016 C 
ATOM     19  C   UNL     1     109.941 118.932 126.558  1.00  0.00     0.012 C 
ENDROOT
BRANCH   1  20
ATOM     20  C   UNL     1     110.214 116.210 127.380  1.00  0.00     0.133 C 
ATOM     21  C   UNL     1     109.252 115.987 128.511  1.00  0.00     0.088 C 
ATOM     22  O   UNL     1     109.986 115.676 126.305  1.00  0.00    -0.300 OA
ENDBRANCH   1  20
BRANCH  16  23
ATOM     23  O   UNL     1     115.172 123.998 127.379  1.00  0.00    -0.393 OA
ATOM     24  H   UNL     1     115.565 123.128 127.653  1.00  0.00     0.210 HD
ENDBRANCH  16  23
TORSDOF 2
ENDMDL
MODEL 6
REMARK VINA RESULT:    -6.454      1.547      6.793
REMARK INTER + INTRA:          -6.860
REMARK INTER:                  -6.928
REMARK INTRA:                   0.067
REMARK UNBOUND:                 0.159
REMARK SMILES CC(=O)[C@H]1CC[C@@H]2[C@@H]3CC=C4C[C@H](O)CC[C@]4(C)[C@@H]3CC[C@]12C
REMARK SMILES IDX 4 1 5 2 6 3 7 4 22 5 21 6 20 7 19 8 8 9 9 10 10 11 11 12
REMARK SMILES IDX 17 13 16 14 15 15 13 16 12 17 18 18 23 19 2 20 1 21 3 22
REMARK SMILES IDX 14 23
REMARK H PARENT 14 24
REMARK Flexibility Score: inf
ROOT
ATOM      1  C   UNL     1     114.791 125.150 125.733  1.00  0.00     0.062 C 
ATOM      2  C   UNL     1     115.620 124.373 124.712  1.00  0.00     0.012 C 
ATOM      3  C   UNL     1     116.019 123.085 125.407  1.00  0.00     0.005 C 
ATOM      4  C   UNL     1     114.887 122.757 126.399  1.00  0.00    -0.001 C 
ATOM      5  C   UNL     1     114.032 124.060 126.562  1.00  0.00    -0.020 C 
ATOM      6  C   UNL     1     112.609 123.880 125.966  1.00  0.00     0.008 C 
ATOM      7  C   UNL     1     111.857 122.637 126.479  1.00  0.00     0.005 C 
ATOM      8  C   UNL     1     112.756 121.417 126.855  1.00  0.00     0.003 C 
ATOM      9  C   UNL     1     114.084 121.453 126.062  1.00  0.00     0.000 C 
ATOM     10  C   UNL     1     113.840 121.166 124.554  1.00  0.00     0.031 C 
ATOM     11  C   UNL     1     112.721 120.190 124.268  1.00  0.00    -0.027 C 
ATOM     12  C   UNL     1     111.847 119.726 125.191  1.00  0.00    -0.065 C 
ATOM     13  C   UNL     1     112.029 120.030 126.679  1.00  0.00    -0.008 C 
ATOM     14  C   UNL     1     110.647 120.043 127.418  1.00  0.00     0.014 C 
ATOM     15  C   UNL     1     109.713 118.890 127.016  1.00  0.00     0.033 C 
ATOM     16  C   UNL     1     109.503 118.849 125.496  1.00  0.00     0.118 C 
ATOM     17  C   UNL     1     110.840 118.675 124.771  1.00  0.00     0.063 C 
ATOM     18  C   UNL     1     112.890 118.895 127.299  1.00  0.00     0.016 C 
ATOM     19  C   UNL     1     113.879 124.455 128.058  1.00  0.00     0.012 C 
ENDROOT
BRANCH   1  20
ATOM     20  C   UNL     1     115.691 126.069 126.551  1.00  0.00     0.133 C 
ATOM     21  C   UNL     1     115.258 127.460 126.913  1.00  0.00     0.088 C 
ATOM     22  O   UNL     1     116.789 125.683 126.925  1.00  0.00    -0.300 OA
ENDBRANCH   1  20
BRANCH  16  23
ATOM     23  O   UNL     1     108.876 120.025 125.051  1.00  0.00    -0.393 OA
ATOM     24  H   UNL     1     108.819 119.962 124.061  1.00  0.00     0.210 HD
ENDBRANCH  16  23
TORSDOF 2
ENDMDL
MODEL 7
REMARK VINA RESULT:    -6.428      2.059      6.705
REMARK INTER + INTRA:          -6.832
REMARK INTER:                  -7.022
REMARK INTRA:                   0.190
REMARK UNBOUND:                 0.159
REMARK SMILES CC(=O)[C@H]1CC[C@@H]2[C@@H]3CC=C4C[C@H](O)CC[C@]4(C)[C@@H]3CC[C@]12C
REMARK SMILES IDX 4 1 5 2 6 3 7 4 22 5 21 6 20 7 19 8 8 9 9 10 10 11 11 12
REMARK SMILES IDX 17 13 16 14 15 15 13 16 12 17 18 18 23 19 2 20 1 21 3 22
REMARK SMILES IDX 14 23
REMARK H PARENT 14 24
REMARK Flexibility Score: inf
ROOT
ATOM      1  C   UNL     1     113.622 122.274 125.355  1.00  0.00     0.062 C 
ATOM      2  C   UNL     1     112.378 122.242 124.468  1.00  0.00     0.012 C 
ATOM      3  C   UNL     1     112.327 120.840 123.889  1.00  0.00     0.005 C 
ATOM      4  C   UNL     1     112.967 119.913 124.939  1.00  0.00    -0.001 C 
ATOM      5  C   UNL     1     113.743 120.829 125.945  1.00  0.00    -0.020 C 
ATOM      6  C   UNL     1     113.086 120.807 127.352  1.00  0.00     0.008 C 
ATOM      7  C   UNL     1     112.860 119.396 127.927  1.00  0.00     0.005 C 
ATOM      8  C   UNL     1     112.589 118.278 126.871  1.00  0.00     0.003 C 
ATOM      9  C   UNL     1     111.977 118.880 125.583  1.00  0.00     0.000 C 
ATOM     10  C   UNL     1     110.529 119.381 125.836  1.00  0.00     0.031 C 
ATOM     11  C   UNL     1     109.740 118.562 126.834  1.00  0.00    -0.027 C 
ATOM     12  C   UNL     1     110.260 117.586 127.612  1.00  0.00    -0.065 C 
ATOM     13  C   UNL     1     111.698 117.102 127.424  1.00  0.00    -0.008 C 
ATOM     14  C   UNL     1     112.286 116.562 128.772  1.00  0.00     0.014 C 
ATOM     15  C   UNL     1     111.314 115.674 129.567  1.00  0.00     0.033 C 
ATOM     16  C   UNL     1     109.982 116.395 129.818  1.00  0.00     0.118 C 
ATOM     17  C   UNL     1     109.322 116.785 128.493  1.00  0.00     0.063 C 
ATOM     18  C   UNL     1     111.680 115.925 126.408  1.00  0.00     0.016 C 
ATOM     19  C   UNL     1     115.223 120.377 126.099  1.00  0.00     0.012 C 
ENDROOT
BRANCH   1  20
ATOM     20  C   UNL     1     114.828 122.745 124.552  1.00  0.00     0.133 C 
ATOM     21  C   UNL     1     115.013 122.339 123.118  1.00  0.00     0.088 C 
ATOM     22  O   UNL     1     115.670 123.465 125.068  1.00  0.00    -0.300 OA
ENDBRANCH   1  20
BRANCH  16  23
ATOM     23  O   UNL     1     110.181 117.545 130.600  1.00  0.00    -0.393 OA
ATOM     24  H   UNL     1     110.875 118.087 130.142  1.00  0.00     0.210 HD
ENDBRANCH  16  23
TORSDOF 2
ENDMDL
MODEL 8
REMARK VINA RESULT:    -6.361      3.737      6.646
REMARK INTER + INTRA:          -6.760
REMARK INTER:                  -6.909
REMARK INTRA:                   0.149
REMARK UNBOUND:                 0.159
REMARK SMILES CC(=O)[C@H]1CC[C@@H]2[C@@H]3CC=C4C[C@H](O)CC[C@]4(C)[C@@H]3CC[C@]12C
REMARK SMILES IDX 4 1 5 2 6 3 7 4 22 5 21 6 20 7 19 8 8 9 9 10 10 11 11 12
REMARK SMILES IDX 17 13 16 14 15 15 13 16 12 17 18 18 23 19 2 20 1 21 3 22
REMARK SMILES IDX 14 23
REMARK H PARENT 14 24
REMARK Flexibility Score: inf
ROOT
ATOM      1  C   UNL     1     114.943 117.381 129.015  1.00  0.00     0.062 C 
ATOM      2  C   UNL     1     113.965 116.471 129.757  1.00  0.00     0.012 C 
ATOM      3  C   UNL     1     112.668 117.254 129.846  1.00  0.00     0.005 C 
ATOM      4  C   UNL     1     112.618 118.154 128.597  1.00  0.00    -0.001 C 
ATOM      5  C   UNL     1     114.065 118.185 127.997  1.00  0.00    -0.020 C 
ATOM      6  C   UNL     1     114.119 117.472 126.619  1.00  0.00     0.008 C 
ATOM      7  C   UNL     1     113.073 117.970 125.604  1.00  0.00     0.005 C 
ATOM      8  C   UNL     1     111.730 118.475 126.219  1.00  0.00     0.003 C 
ATOM      9  C   UNL     1     111.469 117.802 127.588  1.00  0.00     0.000 C 
ATOM     10  C   UNL     1     111.145 116.293 127.414  1.00  0.00     0.031 C 
ATOM     11  C   UNL     1     110.381 115.950 126.154  1.00  0.00    -0.027 C 
ATOM     12  C   UNL     1     110.144 116.811 125.138  1.00  0.00    -0.065 C 
ATOM     13  C   UNL     1     110.496 118.295 125.256  1.00  0.00    -0.008 C 
ATOM     14  C   UNL     1     110.810 118.907 123.848  1.00  0.00     0.014 C 
ATOM     15  C   UNL     1     109.831 118.473 122.746  1.00  0.00     0.033 C 
ATOM     16  C   UNL     1     109.741 116.943 122.652  1.00  0.00     0.118 C 
ATOM     17  C   UNL     1     109.277 116.348 123.984  1.00  0.00     0.063 C 
ATOM     18  C   UNL     1     109.258 119.037 125.832  1.00  0.00     0.016 C 
ATOM     19  C   UNL     1     114.569 119.643 127.806  1.00  0.00     0.012 C 
ENDROOT
BRANCH   1  20
ATOM     20  C   UNL     1     115.723 118.235 130.007  1.00  0.00     0.133 C 
ATOM     21  C   UNL     1     117.102 118.735 129.685  1.00  0.00     0.088 C 
ATOM     22  O   UNL     1     115.233 118.526 131.088  1.00  0.00    -0.300 OA
ENDBRANCH   1  20
BRANCH  16  23
ATOM     23  O   UNL     1     110.986 116.395 122.300  1.00  0.00    -0.393 OA
ATOM     24  H   UNL     1     110.827 115.802 121.519  1.00  0.00     0.210 HD
ENDBRANCH  16  23
TORSDOF 2
ENDMDL
MODEL 9
REMARK VINA RESULT:    -5.800      1.513      6.814
REMARK INTER + INTRA:          -6.150
REMARK INTER:                  -6.430
REMARK INTRA:                   0.281
REMARK UNBOUND:                 0.159
REMARK SMILES CC(=O)[C@H]1CC[C@@H]2[C@@H]3CC=C4C[C@H](O)CC[C@]4(C)[C@@H]3CC[C@]12C
REMARK SMILES IDX 4 1 5 2 6 3 7 4 22 5 21 6 20 7 19 8 8 9 9 10 10 11 11 12
REMARK SMILES IDX 17 13 16 14 15 15 13 16 12 17 18 18 23 19 2 20 1 21 3 22
REMARK SMILES IDX 14 23
REMARK H PARENT 14 24
REMARK Flexibility Score: inf
ROOT
ATOM      1  C   UNL     1     114.718 122.513 126.103  1.00  0.00     0.062 C 
ATOM      2  C   UNL     1     114.248 122.602 127.554  1.00  0.00     0.012 C 
ATOM      3  C   UNL     1     112.739 122.744 127.487  1.00  0.00     0.005 C 
ATOM      4  C   UNL     1     112.289 121.996 126.217  1.00  0.00    -0.001 C 
ATOM      5  C   UNL     1     113.570 121.766 125.345  1.00  0.00    -0.020 C 
ATOM      6  C   UNL     1     113.929 120.258 125.256  1.00  0.00     0.008 C 
ATOM      7  C   UNL     1     112.766 119.352 124.809  1.00  0.00     0.005 C 
ATOM      8  C   UNL     1     111.341 119.838 125.222  1.00  0.00     0.003 C 
ATOM      9  C   UNL     1     111.412 120.724 126.488  1.00  0.00     0.000 C 
ATOM     10  C   UNL     1     111.790 119.881 127.737  1.00  0.00     0.031 C 
ATOM     11  C   UNL     1     111.253 118.467 127.734  1.00  0.00    -0.027 C 
ATOM     12  C   UNL     1     110.654 117.873 126.677  1.00  0.00    -0.065 C 
ATOM     13  C   UNL     1     110.312 118.660 125.411  1.00  0.00    -0.008 C 
ATOM     14  C   UNL     1     110.316 117.726 124.154  1.00  0.00     0.014 C 
ATOM     15  C   UNL     1     109.627 116.371 124.380  1.00  0.00     0.033 C 
ATOM     16  C   UNL     1     110.224 115.638 125.590  1.00  0.00     0.118 C 
ATOM     17  C   UNL     1     110.078 116.482 126.858  1.00  0.00     0.063 C 
ATOM     18  C   UNL     1     108.875 119.231 125.575  1.00  0.00     0.016 C 
ATOM     19  C   UNL     1     113.374 122.299 123.897  1.00  0.00     0.012 C 
ENDROOT
BRANCH   1  20
ATOM     20  C   UNL     1     115.042 123.904 125.570  1.00  0.00     0.133 C 
ATOM     21  C   UNL     1     114.510 125.137 126.243  1.00  0.00     0.088 C 
ATOM     22  O   UNL     1     115.744 124.036 124.579  1.00  0.00    -0.300 OA
ENDBRANCH   1  20
BRANCH  16  23
ATOM     23  O   UNL     1     111.581 115.348 125.372  1.00  0.00    -0.393 OA
ATOM     24  H   UNL     1     112.101 116.103 125.753  1.00  0.00     0.210 HD
ENDBRANCH  16  23
TORSDOF 2
ENDMDL
