MODEL 1
REMARK VINA RESULT:    -4.622      0.000      0.000
REMARK INTER + INTRA:          -4.893
REMARK INTER:                  -4.893
REMARK INTRA:                   0.000
REMARK UNBOUND:                 0.000
REMARK SMILES O=c1ccc2cc(O)c(O)cc2o1
REMARK SMILES IDX 4 1 3 2 2 3 1 4 13 5 12 6 11 7 9 8 7 9 6 10 5 11 8 12 10 14
REMARK H PARENT 8 13 10 15
REMARK Flexibility Score: inf
ROOT
ATOM      1  C   UNL     1       1.094   7.657 -10.758  1.00  0.00     0.019 A 
ATOM      2  C   UNL     1       1.848   7.798  -9.593  1.00  0.00     0.094 A 
ATOM      3  C   UNL     1       2.774   6.804  -9.261  1.00  0.00     0.336 A 
ATOM      4  O   UNL     1       3.464   6.912  -8.214  1.00  0.00    -0.246 OA
ATOM      5  O   UNL     1       2.931   5.741 -10.046  1.00  0.00    -0.423 OA
ATOM      6  C   UNL     1       2.232   5.568 -11.166  1.00  0.00     0.142 A 
ATOM      7  C   UNL     1       2.442   4.430 -11.951  1.00  0.00     0.098 A 
ATOM      8  C   UNL     1       1.710   4.241 -13.131  1.00  0.00     0.161 A 
ATOM      9  C   UNL     1       0.761   5.199 -13.530  1.00  0.00     0.158 A 
ATOM     10  C   UNL     1       0.548   6.342 -12.744  1.00  0.00     0.062 A 
ATOM     11  C   UNL     1       1.280   6.530 -11.564  1.00  0.00     0.022 A 
ENDROOT
BRANCH   9  12
ATOM     12  O   UNL     1       0.032   5.012 -14.703  1.00  0.00    -0.504 OA
ATOM     13  H   UNL     1      -0.935   4.710 -14.685  1.00  0.00     0.293 HD
ENDBRANCH   9  12
BRANCH   8  14
ATOM     14  O   UNL     1       1.941   3.095 -13.892  1.00  0.00    -0.504 OA
ATOM     15  H   UNL     1       1.365   2.853 -14.688  1.00  0.00     0.293 HD
ENDBRANCH   8  14
TORSDOF 2
ENDMDL
MODEL 2
REMARK VINA RESULT:    -4.586      1.271      2.370
REMARK INTER + INTRA:          -4.854
REMARK INTER:                  -4.854
REMARK INTRA:                   0.000
REMARK UNBOUND:                 0.000
REMARK SMILES O=c1ccc2cc(O)c(O)cc2o1
REMARK SMILES IDX 4 1 3 2 2 3 1 4 13 5 12 6 11 7 9 8 7 9 6 10 5 11 8 12 10 14
REMARK H PARENT 8 13 10 15
REMARK Flexibility Score: inf
ROOT
ATOM      1  C   UNL     1       3.252   5.997  -9.404  1.00  0.00     0.019 A 
ATOM      2  C   UNL     1       3.049   7.099  -8.571  1.00  0.00     0.094 A 
ATOM      3  C   UNL     1       2.125   8.076  -8.954  1.00  0.00     0.336 A 
ATOM      4  O   UNL     1       1.927   9.077  -8.216  1.00  0.00    -0.246 OA
ATOM      5  O   UNL     1       1.450   7.955 -10.094  1.00  0.00    -0.423 OA
ATOM      6  C   UNL     1       1.613   6.921 -10.917  1.00  0.00     0.142 A 
ATOM      7  C   UNL     1       0.875   6.848 -12.102  1.00  0.00     0.098 A 
ATOM      8  C   UNL     1       1.041   5.764 -12.973  1.00  0.00     0.161 A 
ATOM      9  C   UNL     1       1.953   4.741 -12.655  1.00  0.00     0.158 A 
ATOM     10  C   UNL     1       2.696   4.811 -11.466  1.00  0.00     0.062 A 
ATOM     11  C   UNL     1       2.529   5.897 -10.596  1.00  0.00     0.022 A 
ENDROOT
BRANCH   9  12
ATOM     12  O   UNL     1       2.119   3.662 -13.520  1.00  0.00    -0.504 OA
ATOM     13  H   UNL     1       2.667   3.740 -14.369  1.00  0.00     0.293 HD
ENDBRANCH   9  12
BRANCH   8  14
ATOM     14  O   UNL     1       0.291   5.720 -14.147  1.00  0.00    -0.504 OA
ATOM     15  H   UNL     1       0.374   4.960 -14.811  1.00  0.00     0.293 HD
ENDBRANCH   8  14
TORSDOF 2
ENDMDL
MODEL 3
REMARK VINA RESULT:    -4.368      7.658      9.006
REMARK INTER + INTRA:          -4.623
REMARK INTER:                  -4.623
REMARK INTRA:                   0.000
REMARK UNBOUND:                 0.000
REMARK SMILES O=c1ccc2cc(O)c(O)cc2o1
REMARK SMILES IDX 4 1 3 2 2 3 1 4 13 5 12 6 11 7 9 8 7 9 6 10 5 11 8 12 10 14
REMARK H PARENT 8 13 10 15
REMARK Flexibility Score: inf
ROOT
ATOM      1  C   UNL     1       0.410  10.318 -19.346  1.00  0.00     0.019 A 
ATOM      2  C   UNL     1       0.761  10.461 -18.003  1.00  0.00     0.094 A 
ATOM      3  C   UNL     1       1.763   9.641 -17.474  1.00  0.00     0.336 A 
ATOM      4  O   UNL     1       2.095   9.754 -16.265  1.00  0.00    -0.246 OA
ATOM      5  O   UNL     1       2.370   8.739 -18.241  1.00  0.00    -0.423 OA
ATOM      6  C   UNL     1       2.066   8.571 -19.526  1.00  0.00     0.142 A 
ATOM      7  C   UNL     1       2.739   7.607 -20.283  1.00  0.00     0.098 A 
ATOM      8  C   UNL     1       2.425   7.424 -21.636  1.00  0.00     0.161 A 
ATOM      9  C   UNL     1       1.427   8.213 -22.238  1.00  0.00     0.158 A 
ATOM     10  C   UNL     1       0.749   9.181 -21.482  1.00  0.00     0.062 A 
ATOM     11  C   UNL     1       1.065   9.362 -20.128  1.00  0.00     0.022 A 
ENDROOT
BRANCH   9  12
ATOM     12  O   UNL     1       1.113   8.031 -23.583  1.00  0.00    -0.504 OA
ATOM     13  H   UNL     1       0.249   8.383 -23.980  1.00  0.00     0.293 HD
ENDBRANCH   9  12
BRANCH   8  14
ATOM     14  O   UNL     1       3.113   6.454 -22.364  1.00  0.00    -0.504 OA
ATOM     15  H   UNL     1       3.037   6.383 -23.371  1.00  0.00     0.293 HD
ENDBRANCH   8  14
TORSDOF 2
ENDMDL
MODEL 4
REMARK VINA RESULT:    -4.286      2.217      4.130
REMARK INTER + INTRA:          -4.537
REMARK INTER:                  -4.537
REMARK INTRA:                   0.000
REMARK UNBOUND:                 0.000
REMARK SMILES O=c1ccc2cc(O)c(O)cc2o1
REMARK SMILES IDX 4 1 3 2 2 3 1 4 13 5 12 6 11 7 9 8 7 9 6 10 5 11 8 12 10 14
REMARK H PARENT 8 13 10 15
REMARK Flexibility Score: inf
ROOT
ATOM      1  C   UNL     1       0.926   6.457 -13.744  1.00  0.00     0.019 A 
ATOM      2  C   UNL     1       0.305   7.688 -13.952  1.00  0.00     0.094 A 
ATOM      3  C   UNL     1       0.428   8.683 -12.976  1.00  0.00     0.336 A 
ATOM      4  O   UNL     1      -0.125   9.801 -13.145  1.00  0.00    -0.246 OA
ATOM      5  O   UNL     1       1.127   8.455 -11.867  1.00  0.00    -0.423 OA
ATOM      6  C   UNL     1       1.735   7.294 -11.629  1.00  0.00     0.142 A 
ATOM      7  C   UNL     1       2.457   7.113 -10.446  1.00  0.00     0.098 A 
ATOM      8  C   UNL     1       3.100   5.896 -10.189  1.00  0.00     0.161 A 
ATOM      9  C   UNL     1       3.020   4.848 -11.125  1.00  0.00     0.158 A 
ATOM     10  C   UNL     1       2.297   5.026 -12.314  1.00  0.00     0.062 A 
ATOM     11  C   UNL     1       1.654   6.245 -12.569  1.00  0.00     0.022 A 
ENDROOT
BRANCH   9  12
ATOM     12  O   UNL     1       3.659   3.636 -10.870  1.00  0.00    -0.504 OA
ATOM     13  H   UNL     1       3.507   3.127 -10.007  1.00  0.00     0.293 HD
ENDBRANCH   9  12
BRANCH   8  14
ATOM     14  O   UNL     1       3.811   5.746  -8.999  1.00  0.00    -0.504 OA
ATOM     15  H   UNL     1       4.195   4.854  -8.710  1.00  0.00     0.293 HD
ENDBRANCH   8  14
TORSDOF 2
ENDMDL
MODEL 5
REMARK VINA RESULT:    -4.180      1.133      4.533
REMARK INTER + INTRA:          -4.425
REMARK INTER:                  -4.425
REMARK INTRA:                   0.000
REMARK UNBOUND:                 0.000
REMARK SMILES O=c1ccc2cc(O)c(O)cc2o1
REMARK SMILES IDX 4 1 3 2 2 3 1 4 13 5 12 6 11 7 9 8 7 9 6 10 5 11 8 12 10 14
REMARK H PARENT 8 13 10 15
REMARK Flexibility Score: inf
ROOT
ATOM      1  C   UNL     1       0.239   6.242 -12.619  1.00  0.00     0.019 A 
ATOM      2  C   UNL     1       0.523   5.118 -13.396  1.00  0.00     0.094 A 
ATOM      3  C   UNL     1       1.602   4.303 -13.041  1.00  0.00     0.336 A 
ATOM      4  O   UNL     1       1.875   3.285 -13.729  1.00  0.00    -0.246 OA
ATOM      5  O   UNL     1       2.346   4.597 -11.977  1.00  0.00    -0.423 OA
ATOM      6  C   UNL     1       2.110   5.659 -11.209  1.00  0.00     0.142 A 
ATOM      7  C   UNL     1       2.925   5.917 -10.103  1.00  0.00     0.098 A 
ATOM      8  C   UNL     1       2.683   7.031  -9.290  1.00  0.00     0.161 A 
ATOM      9  C   UNL     1       1.614   7.897  -9.586  1.00  0.00     0.158 A 
ATOM     10  C   UNL     1       0.793   7.642 -10.695  1.00  0.00     0.062 A 
ATOM     11  C   UNL     1       1.037   6.526 -11.507  1.00  0.00     0.022 A 
ENDROOT
BRANCH   9  12
ATOM     12  O   UNL     1       1.373   9.006  -8.778  1.00  0.00    -0.504 OA
ATOM     13  H   UNL     1       0.860   8.928  -7.907  1.00  0.00     0.293 HD
ENDBRANCH   9  12
BRANCH   8  14
ATOM     14  O   UNL     1       3.515   7.262  -8.195  1.00  0.00    -0.504 OA
ATOM     15  H   UNL     1       3.159   7.303  -7.248  1.00  0.00     0.293 HD
ENDBRANCH   8  14
TORSDOF 2
ENDMDL
MODEL 6
REMARK VINA RESULT:    -4.105      1.162      5.053
REMARK INTER + INTRA:          -4.345
REMARK INTER:                  -4.345
REMARK INTRA:                   0.000
REMARK UNBOUND:                 0.000
REMARK SMILES O=c1ccc2cc(O)c(O)cc2o1
REMARK SMILES IDX 4 1 3 2 2 3 1 4 13 5 12 6 11 7 9 8 7 9 6 10 5 11 8 12 10 14
REMARK H PARENT 8 13 10 15
REMARK Flexibility Score: inf
ROOT
ATOM      1  C   UNL     1       2.486   4.448 -12.023  1.00  0.00     0.019 A 
ATOM      2  C   UNL     1       1.702   4.172 -13.143  1.00  0.00     0.094 A 
ATOM      3  C   UNL     1       0.638   5.026 -13.453  1.00  0.00     0.336 A 
ATOM      4  O   UNL     1      -0.081   4.794 -14.460  1.00  0.00    -0.246 OA
ATOM      5  O   UNL     1       0.381   6.084 -12.690  1.00  0.00    -0.423 OA
ATOM      6  C   UNL     1       1.104   6.384 -11.613  1.00  0.00     0.142 A 
ATOM      7  C   UNL     1       0.785   7.511 -10.849  1.00  0.00     0.098 A 
ATOM      8  C   UNL     1       1.541   7.833  -9.715  1.00  0.00     0.161 A 
ATOM      9  C   UNL     1       2.627   7.021  -9.340  1.00  0.00     0.158 A 
ATOM     10  C   UNL     1       2.949   5.889 -10.104  1.00  0.00     0.062 A 
ATOM     11  C   UNL     1       2.192   5.568 -11.239  1.00  0.00     0.022 A 
ENDROOT
BRANCH   9  12
ATOM     12  O   UNL     1       3.379   7.340  -8.212  1.00  0.00    -0.504 OA
ATOM     13  H   UNL     1       3.144   8.129  -7.622  1.00  0.00     0.293 HD
ENDBRANCH   9  12
BRANCH   8  14
ATOM     14  O   UNL     1       1.198   8.963  -8.973  1.00  0.00    -0.504 OA
ATOM     15  H   UNL     1       0.489   9.616  -9.284  1.00  0.00     0.293 HD
ENDBRANCH   8  14
TORSDOF 2
ENDMDL
MODEL 7
REMARK VINA RESULT:    -3.966      8.879     11.195
REMARK INTER + INTRA:          -4.198
REMARK INTER:                  -4.198
REMARK INTRA:                   0.000
REMARK UNBOUND:                 0.000
REMARK SMILES O=c1ccc2cc(O)c(O)cc2o1
REMARK SMILES IDX 4 1 3 2 2 3 1 4 13 5 12 6 11 7 9 8 7 9 6 10 5 11 8 12 10 14
REMARK H PARENT 8 13 10 15
REMARK Flexibility Score: inf
ROOT
ATOM      1  C   UNL     1       0.510  10.099 -21.890  1.00  0.00     0.019 A 
ATOM      2  C   UNL     1      -0.056   9.783 -23.125  1.00  0.00     0.094 A 
ATOM      3  C   UNL     1       0.375   8.632 -23.793  1.00  0.00     0.336 A 
ATOM      4  O   UNL     1      -0.123   8.329 -24.909  1.00  0.00    -0.246 OA
ATOM      5  O   UNL     1       1.310   7.852 -23.256  1.00  0.00    -0.423 OA
ATOM      6  C   UNL     1       1.876   8.118 -22.080  1.00  0.00     0.142 A 
ATOM      7  C   UNL     1       2.853   7.261 -21.566  1.00  0.00     0.098 A 
ATOM      8  C   UNL     1       3.453   7.533 -20.330  1.00  0.00     0.161 A 
ATOM      9  C   UNL     1       3.070   8.673 -19.600  1.00  0.00     0.158 A 
ATOM     10  C   UNL     1       2.089   9.536 -20.112  1.00  0.00     0.062 A 
ATOM     11  C   UNL     1       1.491   9.262 -21.350  1.00  0.00     0.022 A 
ENDROOT
BRANCH   9  12
ATOM     12  O   UNL     1       3.666   8.946 -18.370  1.00  0.00    -0.504 OA
ATOM     13  H   UNL     1       4.321   8.301 -17.942  1.00  0.00     0.293 HD
ENDBRANCH   9  12
BRANCH   8  14
ATOM     14  O   UNL     1       4.425   6.660 -19.844  1.00  0.00    -0.504 OA
ATOM     15  H   UNL     1       4.272   5.661 -19.788  1.00  0.00     0.293 HD
ENDBRANCH   8  14
TORSDOF 2
ENDMDL
MODEL 8
REMARK VINA RESULT:    -3.797      1.938      4.948
REMARK INTER + INTRA:          -4.019
REMARK INTER:                  -4.019
REMARK INTRA:                   0.000
REMARK UNBOUND:                 0.000
REMARK SMILES O=c1ccc2cc(O)c(O)cc2o1
REMARK SMILES IDX 4 1 3 2 2 3 1 4 13 5 12 6 11 7 9 8 7 9 6 10 5 11 8 12 10 14
REMARK H PARENT 8 13 10 15
REMARK Flexibility Score: inf
ROOT
ATOM      1  C   UNL     1       0.171   4.717 -13.299  1.00  0.00     0.019 A 
ATOM      2  C   UNL     1       0.080   5.201 -14.604  1.00  0.00     0.094 A 
ATOM      3  C   UNL     1       0.490   6.511 -14.872  1.00  0.00     0.336 A 
ATOM      4  O   UNL     1       0.415   6.966 -16.043  1.00  0.00    -0.246 OA
ATOM      5  O   UNL     1       0.959   7.282 -13.894  1.00  0.00    -0.423 OA
ATOM      6  C   UNL     1       1.063   6.860 -12.636  1.00  0.00     0.142 A 
ATOM      7  C   UNL     1       1.565   7.717 -11.651  1.00  0.00     0.098 A 
ATOM      8  C   UNL     1       1.677   7.280 -10.325  1.00  0.00     0.161 A 
ATOM      9  C   UNL     1       1.285   5.974  -9.980  1.00  0.00     0.158 A 
ATOM     10  C   UNL     1       0.781   5.112 -10.965  1.00  0.00     0.062 A 
ATOM     11  C   UNL     1       0.668   5.550 -12.292  1.00  0.00     0.022 A 
ENDROOT
BRANCH   9  12
ATOM     12  O   UNL     1       1.396   5.539  -8.661  1.00  0.00    -0.504 OA
ATOM     13  H   UNL     1       0.582   5.271  -8.119  1.00  0.00     0.293 HD
ENDBRANCH   9  12
BRANCH   8  14
ATOM     14  O   UNL     1       2.180   8.158  -9.365  1.00  0.00    -0.504 OA
ATOM     15  H   UNL     1       2.577   9.056  -9.613  1.00  0.00     0.293 HD
ENDBRANCH   8  14
TORSDOF 2
ENDMDL
