MODEL 1
REMARK VINA RESULT:    -4.863      0.000      0.000
REMARK INTER + INTRA:          -5.249
REMARK INTER:                  -5.147
REMARK INTRA:                  -0.102
REMARK UNBOUND:                -0.102
REMARK SMILES C=C(C)[C@@H]1CC=C(C)C(=O)C1
REMARK SMILES IDX 8 1 7 2 6 3 5 4 4 5 11 6 9 7 10 8 2 9 1 10 3 11
REMARK H PARENT
REMARK Flexibility Score: inf
ROOT
ATOM      1  C   UNL     1       6.761 -18.185  18.886  1.00  0.00     0.048 C 
ATOM      2  C   UNL     1       8.221 -18.015  19.205  1.00  0.00    -0.012 C 
ATOM      3  C   UNL     1       9.134 -18.087  18.221  1.00  0.00    -0.019 C 
ATOM      4  C   UNL     1      10.606 -17.908  18.481  1.00  0.00     0.036 C 
ATOM      5  C   UNL     1      10.989 -18.431  19.878  1.00  0.00     0.025 C 
ATOM      6  C   UNL     1      10.120 -17.761  20.958  1.00  0.00     0.089 C 
ATOM      7  C   UNL     1       8.661 -17.893  20.618  1.00  0.00     0.158 C 
ATOM      8  O   UNL     1       7.808 -17.860  21.546  1.00  0.00    -0.295 OA
ENDROOT
BRANCH   5   9
ATOM      9  C   UNL     1      12.473 -18.253  20.160  1.00  0.00    -0.077 C 
ATOM     10  C   UNL     1      12.971 -18.375  21.404  1.00  0.00     0.008 C 
ATOM     11  C   UNL     1      13.391 -17.931  19.010  1.00  0.00     0.039 C 
ENDBRANCH   5   9
TORSDOF 1
ENDMDL
MODEL 2
REMARK VINA RESULT:    -4.734      1.793      4.571
REMARK INTER + INTRA:          -5.113
REMARK INTER:                  -5.015
REMARK INTRA:                  -0.097
REMARK UNBOUND:                -0.102
REMARK SMILES C=C(C)[C@@H]1CC=C(C)C(=O)C1
REMARK SMILES IDX 8 1 7 2 6 3 5 4 4 5 11 6 9 7 10 8 2 9 1 10 3 11
REMARK H PARENT
REMARK Flexibility Score: inf
ROOT
ATOM      1  C   UNL     1      14.893 -18.299  21.672  1.00  0.00     0.048 C 
ATOM      2  C   UNL     1      13.567 -18.416  20.970  1.00  0.00    -0.012 C 
ATOM      3  C   UNL     1      13.493 -18.211  19.644  1.00  0.00    -0.019 C 
ATOM      4  C   UNL     1      12.196 -18.332  18.888  1.00  0.00     0.036 C 
ATOM      5  C   UNL     1      11.002 -17.911  19.765  1.00  0.00     0.025 C 
ATOM      6  C   UNL     1      10.990 -18.717  21.077  1.00  0.00     0.089 C 
ATOM      7  C   UNL     1      12.329 -18.635  21.759  1.00  0.00     0.158 C 
ATOM      8  O   UNL     1      12.394 -18.793  23.008  1.00  0.00    -0.295 OA
ENDROOT
BRANCH   5   9
ATOM      9  C   UNL     1       9.682 -18.033  19.019  1.00  0.00    -0.077 C 
ATOM     10  C   UNL     1       9.627 -18.524  17.767  1.00  0.00     0.008 C 
ATOM     11  C   UNL     1       8.420 -17.587  19.708  1.00  0.00     0.039 C 
ENDBRANCH   5   9
TORSDOF 1
ENDMDL
MODEL 3
REMARK VINA RESULT:    -4.733     12.455     13.916
REMARK INTER + INTRA:          -5.112
REMARK INTER:                  -5.013
REMARK INTRA:                  -0.098
REMARK UNBOUND:                -0.102
REMARK SMILES C=C(C)[C@@H]1CC=C(C)C(=O)C1
REMARK SMILES IDX 8 1 7 2 6 3 5 4 4 5 11 6 9 7 10 8 2 9 1 10 3 11
REMARK H PARENT
REMARK Flexibility Score: inf
ROOT
ATOM      1  C   UNL     1      23.125 -11.611  25.282  1.00  0.00     0.048 C 
ATOM      2  C   UNL     1      21.671 -11.240  25.179  1.00  0.00    -0.012 C 
ATOM      3  C   UNL     1      21.323  -9.996  24.807  1.00  0.00    -0.019 C 
ATOM      4  C   UNL     1      19.883  -9.576  24.671  1.00  0.00     0.036 C 
ATOM      5  C   UNL     1      18.992 -10.316  25.686  1.00  0.00     0.025 C 
ATOM      6  C   UNL     1      19.171 -11.839  25.546  1.00  0.00     0.089 C 
ATOM      7  C   UNL     1      20.628 -12.207  25.607  1.00  0.00     0.158 C 
ATOM      8  O   UNL     1      20.955 -13.362  25.989  1.00  0.00    -0.295 OA
ENDROOT
BRANCH   5   9
ATOM      9  C   UNL     1      17.532  -9.907  25.558  1.00  0.00    -0.077 C 
ATOM     10  C   UNL     1      16.627 -10.237  26.497  1.00  0.00     0.008 C 
ATOM     11  C   UNL     1      17.108  -9.119  24.348  1.00  0.00     0.039 C 
ENDBRANCH   5   9
TORSDOF 1
ENDMDL
MODEL 4
REMARK VINA RESULT:    -4.709      2.226      4.615
REMARK INTER + INTRA:          -5.086
REMARK INTER:                  -4.989
REMARK INTRA:                  -0.097
REMARK UNBOUND:                -0.102
REMARK SMILES C=C(C)[C@@H]1CC=C(C)C(=O)C1
REMARK SMILES IDX 8 1 7 2 6 3 5 4 4 5 11 6 9 7 10 8 2 9 1 10 3 11
REMARK H PARENT
REMARK Flexibility Score: inf
ROOT
ATOM      1  C   UNL     1      13.402 -18.236  22.895  1.00  0.00     0.048 C 
ATOM      2  C   UNL     1      12.468 -18.133  21.720  1.00  0.00    -0.012 C 
ATOM      3  C   UNL     1      11.149 -17.978  21.926  1.00  0.00    -0.019 C 
ATOM      4  C   UNL     1      10.172 -17.853  20.788  1.00  0.00     0.036 C 
ATOM      5  C   UNL     1      10.634 -18.672  19.568  1.00  0.00     0.025 C 
ATOM      6  C   UNL     1      12.061 -18.266  19.159  1.00  0.00     0.089 C 
ATOM      7  C   UNL     1      12.987 -18.327  20.343  1.00  0.00     0.158 C 
ATOM      8  O   UNL     1      14.220 -18.507  20.151  1.00  0.00    -0.295 OA
ENDROOT
BRANCH   5   9
ATOM      9  C   UNL     1       9.660 -18.553  18.406  1.00  0.00    -0.077 C 
ATOM     10  C   UNL     1       8.515 -17.855  18.519  1.00  0.00     0.008 C 
ATOM     11  C   UNL     1       9.998 -19.238  17.108  1.00  0.00     0.039 C 
ENDBRANCH   5   9
TORSDOF 1
ENDMDL
MODEL 5
REMARK VINA RESULT:    -4.682      6.951      7.507
REMARK INTER + INTRA:          -5.058
REMARK INTER:                  -4.961
REMARK INTRA:                  -0.096
REMARK UNBOUND:                -0.102
REMARK SMILES C=C(C)[C@@H]1CC=C(C)C(=O)C1
REMARK SMILES IDX 8 1 7 2 6 3 5 4 4 5 11 6 9 7 10 8 2 9 1 10 3 11
REMARK H PARENT
REMARK Flexibility Score: inf
ROOT
ATOM      1  C   UNL     1       5.556 -26.125  24.432  1.00  0.00     0.048 C 
ATOM      2  C   UNL     1       6.561 -25.073  24.052  1.00  0.00    -0.012 C 
ATOM      3  C   UNL     1       7.436 -25.312  23.059  1.00  0.00    -0.019 C 
ATOM      4  C   UNL     1       8.452 -24.289  22.625  1.00  0.00     0.036 C 
ATOM      5  C   UNL     1       8.908 -23.423  23.814  1.00  0.00     0.025 C 
ATOM      6  C   UNL     1       7.693 -22.781  24.507  1.00  0.00     0.089 C 
ATOM      7  C   UNL     1       6.668 -23.827  24.851  1.00  0.00     0.158 C 
ATOM      8  O   UNL     1       5.871 -23.616  25.804  1.00  0.00    -0.295 OA
ENDROOT
BRANCH   5   9
ATOM      9  C   UNL     1       9.932 -22.379  23.392  1.00  0.00    -0.077 C 
ATOM     10  C   UNL     1      10.106 -22.050  22.099  1.00  0.00     0.008 C 
ATOM     11  C   UNL     1      10.762 -21.712  24.457  1.00  0.00     0.039 C 
ENDBRANCH   5   9
TORSDOF 1
ENDMDL
MODEL 6
REMARK VINA RESULT:    -4.675      1.007      1.741
REMARK INTER + INTRA:          -5.050
REMARK INTER:                  -4.952
REMARK INTRA:                  -0.098
REMARK UNBOUND:                -0.102
REMARK SMILES C=C(C)[C@@H]1CC=C(C)C(=O)C1
REMARK SMILES IDX 8 1 7 2 6 3 5 4 4 5 11 6 9 7 10 8 2 9 1 10 3 11
REMARK H PARENT
REMARK Flexibility Score: inf
ROOT
ATOM      1  C   UNL     1       8.165 -17.935  18.778  1.00  0.00     0.048 C 
ATOM      2  C   UNL     1       9.507 -17.852  19.451  1.00  0.00    -0.012 C 
ATOM      3  C   UNL     1      10.630 -17.952  18.718  1.00  0.00    -0.019 C 
ATOM      4  C   UNL     1      12.000 -17.859  19.337  1.00  0.00     0.036 C 
ATOM      5  C   UNL     1      12.002 -18.431  20.767  1.00  0.00     0.025 C 
ATOM      6  C   UNL     1      10.926 -17.738  21.623  1.00  0.00     0.089 C 
ATOM      7  C   UNL     1       9.591 -17.784  20.932  1.00  0.00     0.158 C 
ATOM      8  O   UNL     1       8.538 -17.724  21.623  1.00  0.00    -0.295 OA
ENDROOT
BRANCH   5   9
ATOM      9  C   UNL     1      13.377 -18.339  21.410  1.00  0.00    -0.077 C 
ATOM     10  C   UNL     1      14.493 -18.651  20.726  1.00  0.00     0.008 C 
ATOM     11  C   UNL     1      13.474 -17.891  22.844  1.00  0.00     0.039 C 
ENDBRANCH   5   9
TORSDOF 1
ENDMDL
MODEL 7
REMARK VINA RESULT:    -4.540      1.689      2.329
REMARK INTER + INTRA:          -4.907
REMARK INTER:                  -4.809
REMARK INTRA:                  -0.098
REMARK UNBOUND:                -0.102
REMARK SMILES C=C(C)[C@@H]1CC=C(C)C(=O)C1
REMARK SMILES IDX 8 1 7 2 6 3 5 4 4 5 11 6 9 7 10 8 2 9 1 10 3 11
REMARK H PARENT
REMARK Flexibility Score: inf
ROOT
ATOM      1  C   UNL     1       7.701 -17.499  18.875  1.00  0.00     0.048 C 
ATOM      2  C   UNL     1       9.011 -17.856  19.522  1.00  0.00    -0.012 C 
ATOM      3  C   UNL     1       9.182 -17.653  20.840  1.00  0.00    -0.019 C 
ATOM      4  C   UNL     1      10.466 -18.007  21.543  1.00  0.00     0.036 C 
ATOM      5  C   UNL     1      11.677 -17.829  20.608  1.00  0.00     0.025 C 
ATOM      6  C   UNL     1      11.478 -18.638  19.313  1.00  0.00     0.089 C 
ATOM      7  C   UNL     1      10.149 -18.313  18.687  1.00  0.00     0.158 C 
ATOM      8  O   UNL     1      10.000 -18.471  17.445  1.00  0.00    -0.295 OA
ENDROOT
BRANCH   5   9
ATOM      9  C   UNL     1      12.983 -18.188  21.301  1.00  0.00    -0.077 C 
ATOM     10  C   UNL     1      13.103 -18.140  22.640  1.00  0.00     0.008 C 
ATOM     11  C   UNL     1      14.158 -18.602  20.455  1.00  0.00     0.039 C 
ENDBRANCH   5   9
TORSDOF 1
ENDMDL
MODEL 8
REMARK VINA RESULT:    -4.532      1.679      4.239
REMARK INTER + INTRA:          -4.898
REMARK INTER:                  -4.797
REMARK INTRA:                  -0.101
REMARK UNBOUND:                -0.102
REMARK SMILES C=C(C)[C@@H]1CC=C(C)C(=O)C1
REMARK SMILES IDX 8 1 7 2 6 3 5 4 4 5 11 6 9 7 10 8 2 9 1 10 3 11
REMARK H PARENT
REMARK Flexibility Score: inf
ROOT
ATOM      1  C   UNL     1      13.577 -17.877  18.984  1.00  0.00     0.048 C 
ATOM      2  C   UNL     1      12.116 -18.102  19.263  1.00  0.00    -0.012 C 
ATOM      3  C   UNL     1      11.206 -17.842  18.309  1.00  0.00    -0.019 C 
ATOM      4  C   UNL     1       9.733 -18.064  18.528  1.00  0.00     0.036 C 
ATOM      5  C   UNL     1       9.348 -17.816  19.999  1.00  0.00     0.025 C 
ATOM      6  C   UNL     1      10.214 -18.681  20.933  1.00  0.00     0.089 C 
ATOM      7  C   UNL     1      11.674 -18.489  20.626  1.00  0.00     0.158 C 
ATOM      8  O   UNL     1      12.525 -18.699  21.532  1.00  0.00    -0.295 OA
ENDROOT
BRANCH   5   9
ATOM      9  C   UNL     1       7.863 -18.042  20.239  1.00  0.00    -0.077 C 
ATOM     10  C   UNL     1       7.360 -18.140  21.483  1.00  0.00     0.008 C 
ATOM     11  C   UNL     1       6.950 -18.159  19.047  1.00  0.00     0.039 C 
ENDBRANCH   5   9
TORSDOF 1
ENDMDL
MODEL 9
REMARK VINA RESULT:    -4.482      1.647      2.830
REMARK INTER + INTRA:          -4.845
REMARK INTER:                  -4.744
REMARK INTRA:                  -0.101
REMARK UNBOUND:                -0.102
REMARK SMILES C=C(C)[C@@H]1CC=C(C)C(=O)C1
REMARK SMILES IDX 8 1 7 2 6 3 5 4 4 5 11 6 9 7 10 8 2 9 1 10 3 11
REMARK H PARENT
REMARK Flexibility Score: inf
ROOT
ATOM      1  C   UNL     1      10.003 -19.395  16.932  1.00  0.00     0.048 C 
ATOM      2  C   UNL     1      10.171 -18.679  18.244  1.00  0.00    -0.012 C 
ATOM      3  C   UNL     1      11.402 -18.494  18.751  1.00  0.00    -0.019 C 
ATOM      4  C   UNL     1      11.630 -17.769  20.052  1.00  0.00     0.036 C 
ATOM      5  C   UNL     1      10.460 -17.999  21.027  1.00  0.00     0.025 C 
ATOM      6  C   UNL     1       9.126 -17.607  20.366  1.00  0.00     0.089 C 
ATOM      7  C   UNL     1       8.976 -18.290  19.033  1.00  0.00     0.158 C 
ATOM      8  O   UNL     1       7.820 -18.494  18.574  1.00  0.00    -0.295 OA
ENDROOT
BRANCH   5   9
ATOM      9  C   UNL     1      10.671 -17.269  22.344  1.00  0.00    -0.077 C 
ATOM     10  C   UNL     1       9.644 -16.709  23.008  1.00  0.00     0.008 C 
ATOM     11  C   UNL     1      12.067 -17.179  22.902  1.00  0.00     0.039 C 
ENDBRANCH   5   9
TORSDOF 1
ENDMDL
