MODEL 1
REMARK VINA RESULT:    -3.962      0.000      0.000
REMARK INTER + INTRA:          -9.614
REMARK INTER:                  -7.204
REMARK INTRA:                  -2.410
REMARK UNBOUND:                -2.410
REMARK SMILES CCCCCCCCCCCCCC[C@@H](C)C(=O)[O-]
REMARK SMILES IDX 9 1 10 2 11 3 12 4 13 5 14 6 15 7 16 8 17 9 18 10 19 11 8 12
REMARK SMILES IDX 7 13 6 14 5 15 4 16 3 17 2 18 1 19
REMARK H PARENT
REMARK Flexibility Score: inf
ROOT
ATOM      1  C   UNL     1     -46.209 -54.031  38.637  1.00  0.00     0.000 C 
ENDROOT
BRANCH   1   2
ATOM      2  C   UNL     1     -45.948 -52.683  37.946  1.00  0.00     0.000 C 
BRANCH   2   3
ATOM      3  C   UNL     1     -47.244 -51.913  37.643  1.00  0.00     0.000 C 
BRANCH   3   4
ATOM      4  C   UNL     1     -46.984 -50.505  37.079  1.00  0.00     0.000 C 
BRANCH   4   5
ATOM      5  C   UNL     1     -46.155 -49.574  37.989  1.00  0.00     0.001 C 
BRANCH   5   6
ATOM      6  C   UNL     1     -45.410 -48.437  37.262  1.00  0.00     0.009 C 
BRANCH   6   7
ATOM      7  C   UNL     1     -43.911 -48.717  37.011  1.00  0.00     0.032 C 
ATOM      8  C   UNL     1     -43.413 -49.832  37.936  1.00  0.00     0.014 C 
BRANCH   7   9
ATOM      9  C   UNL     1     -43.656 -49.096  35.577  1.00  0.00     0.044 C 
ATOM     10  O   UNL     1     -43.015 -48.319  34.822  1.00  0.00    -0.550 OA
ATOM     11  O   UNL     1     -44.125 -50.305  35.076  1.00  0.00    -0.550 OA
ENDBRANCH   7   9
ENDBRANCH   6   7
ENDBRANCH   5   6
ENDBRANCH   4   5
ENDBRANCH   3   4
ENDBRANCH   2   3
ENDBRANCH   1   2
BRANCH   1  12
ATOM     12  C   UNL     1     -47.703 -54.282  38.910  1.00  0.00     0.000 C 
BRANCH  12  13
ATOM     13  C   UNL     1     -47.995 -54.474  40.413  1.00  0.00    -0.000 C 
BRANCH  13  14
ATOM     14  C   UNL     1     -49.046 -53.495  40.964  1.00  0.00    -0.000 C 
BRANCH  14  15
ATOM     15  C   UNL     1     -48.488 -52.578  42.064  1.00  0.00    -0.000 C 
BRANCH  15  16
ATOM     16  C   UNL     1     -48.386 -51.107  41.624  1.00  0.00    -0.000 C 
BRANCH  16  17
ATOM     17  C   UNL     1     -46.983 -50.663  41.169  1.00  0.00    -0.000 C 
BRANCH  17  18
ATOM     18  C   UNL     1     -45.883 -51.657  41.568  1.00  0.00    -0.003 C 
ATOM     19  C   UNL     1     -44.496 -51.069  41.323  1.00  0.00     0.004 C 
ENDBRANCH  17  18
ENDBRANCH  16  17
ENDBRANCH  15  16
ENDBRANCH  14  15
ENDBRANCH  13  14
ENDBRANCH  12  13
ENDBRANCH   1  12
TORSDOF 14
ENDMDL
MODEL 2
REMARK VINA RESULT:    -3.947      3.449      5.895
REMARK INTER + INTRA:          -9.587
REMARK INTER:                  -6.853
REMARK INTRA:                  -2.734
REMARK UNBOUND:                -2.410
REMARK SMILES CCCCCCCCCCCCCC[C@@H](C)C(=O)[O-]
REMARK SMILES IDX 9 1 10 2 11 3 12 4 13 5 14 6 15 7 16 8 17 9 18 10 19 11 8 12
REMARK SMILES IDX 7 13 6 14 5 15 4 16 3 17 2 18 1 19
REMARK H PARENT
REMARK Flexibility Score: inf
ROOT
ATOM      1  C   UNL     1     -44.787 -53.950  39.300  1.00  0.00     0.000 C 
ENDROOT
BRANCH   1   2
ATOM      2  C   UNL     1     -44.912 -53.207  40.640  1.00  0.00     0.000 C 
BRANCH   2   3
ATOM      3  C   UNL     1     -44.513 -51.726  40.536  1.00  0.00     0.000 C 
BRANCH   3   4
ATOM      4  C   UNL     1     -45.578 -50.778  41.116  1.00  0.00     0.000 C 
BRANCH   4   5
ATOM      5  C   UNL     1     -47.018 -51.022  40.619  1.00  0.00     0.001 C 
BRANCH   5   6
ATOM      6  C   UNL     1     -48.107 -50.979  41.710  1.00  0.00     0.009 C 
BRANCH   6   7
ATOM      7  C   UNL     1     -48.779 -52.342  41.992  1.00  0.00     0.032 C 
ATOM      8  C   UNL     1     -48.962 -53.128  40.690  1.00  0.00     0.014 C 
BRANCH   7   9
ATOM      9  C   UNL     1     -47.977 -53.158  42.969  1.00  0.00     0.044 C 
ATOM     10  O   UNL     1     -47.670 -52.678  44.092  1.00  0.00    -0.550 OA
ATOM     11  O   UNL     1     -47.569 -54.446  42.640  1.00  0.00    -0.550 OA
ENDBRANCH   7   9
ENDBRANCH   6   7
ENDBRANCH   5   6
ENDBRANCH   4   5
ENDBRANCH   3   4
ENDBRANCH   2   3
ENDBRANCH   1   2
BRANCH   1  12
ATOM     12  C   UNL     1     -46.122 -54.037  38.540  1.00  0.00     0.000 C 
BRANCH  12  13
ATOM     13  C   UNL     1     -46.129 -53.153  37.274  1.00  0.00    -0.000 C 
BRANCH  13  14
ATOM     14  C   UNL     1     -47.335 -52.201  37.197  1.00  0.00    -0.000 C 
BRANCH  14  15
ATOM     15  C   UNL     1     -46.925 -50.720  37.173  1.00  0.00    -0.000 C 
BRANCH  15  16
ATOM     16  C   UNL     1     -45.499 -50.502  36.635  1.00  0.00    -0.000 C 
BRANCH  16  17
ATOM     17  C   UNL     1     -44.602 -49.616  37.519  1.00  0.00    -0.000 C 
BRANCH  17  18
ATOM     18  C   UNL     1     -45.343 -48.401  38.096  1.00  0.00    -0.003 C 
ATOM     19  C   UNL     1     -44.556 -47.768  39.240  1.00  0.00     0.004 C 
ENDBRANCH  17  18
ENDBRANCH  16  17
ENDBRANCH  15  16
ENDBRANCH  14  15
ENDBRANCH  13  14
ENDBRANCH  12  13
ENDBRANCH   1  12
TORSDOF 14
ENDMDL
MODEL 3
REMARK VINA RESULT:    -3.864      1.740      2.073
REMARK INTER + INTRA:          -9.437
REMARK INTER:                  -7.122
REMARK INTRA:                  -2.315
REMARK UNBOUND:                -2.410
REMARK SMILES CCCCCCCCCCCCCC[C@@H](C)C(=O)[O-]
REMARK SMILES IDX 9 1 10 2 11 3 12 4 13 5 14 6 15 7 16 8 17 9 18 10 19 11 8 12
REMARK SMILES IDX 7 13 6 14 5 15 4 16 3 17 2 18 1 19
REMARK H PARENT
REMARK Flexibility Score: inf
ROOT
ATOM      1  C   UNL     1     -45.934 -54.994  38.334  1.00  0.00     0.000 C 
ENDROOT
BRANCH   1   2
ATOM      2  C   UNL     1     -45.513 -53.516  38.293  1.00  0.00     0.000 C 
BRANCH   2   3
ATOM      3  C   UNL     1     -46.672 -52.581  37.908  1.00  0.00     0.000 C 
BRANCH   3   4
ATOM      4  C   UNL     1     -46.204 -51.334  37.136  1.00  0.00     0.000 C 
BRANCH   4   5
ATOM      5  C   UNL     1     -46.953 -50.029  37.478  1.00  0.00     0.001 C 
BRANCH   5   6
ATOM      6  C   UNL     1     -46.089 -48.751  37.459  1.00  0.00     0.009 C 
BRANCH   6   7
ATOM      7  C   UNL     1     -44.572 -49.007  37.598  1.00  0.00     0.032 C 
ATOM      8  C   UNL     1     -43.861 -48.740  36.267  1.00  0.00     0.014 C 
BRANCH   7   9
ATOM      9  C   UNL     1     -43.967 -48.149  38.676  1.00  0.00     0.044 C 
ATOM     10  O   UNL     1     -44.710 -47.527  39.480  1.00  0.00    -0.550 OA
ATOM     11  O   UNL     1     -42.586 -48.037  38.794  1.00  0.00    -0.550 OA
ENDBRANCH   7   9
ENDBRANCH   6   7
ENDBRANCH   5   6
ENDBRANCH   4   5
ENDBRANCH   3   4
ENDBRANCH   2   3
ENDBRANCH   1   2
BRANCH   1  12
ATOM     12  C   UNL     1     -47.341 -55.196  38.923  1.00  0.00     0.000 C 
BRANCH  12  13
ATOM     13  C   UNL     1     -47.295 -55.590  40.415  1.00  0.00    -0.000 C 
BRANCH  13  14
ATOM     14  C   UNL     1     -47.534 -54.408  41.369  1.00  0.00    -0.000 C 
BRANCH  14  15
ATOM     15  C   UNL     1     -48.824 -53.635  41.051  1.00  0.00    -0.000 C 
BRANCH  15  16
ATOM     16  C   UNL     1     -48.687 -52.120  41.283  1.00  0.00    -0.000 C 
BRANCH  16  17
ATOM     17  C   UNL     1     -47.358 -51.681  41.925  1.00  0.00    -0.000 C 
BRANCH  17  18
ATOM     18  C   UNL     1     -46.595 -50.652  41.077  1.00  0.00    -0.003 C 
ATOM     19  C   UNL     1     -45.123 -51.032  40.944  1.00  0.00     0.004 C 
ENDBRANCH  17  18
ENDBRANCH  16  17
ENDBRANCH  15  16
ENDBRANCH  14  15
ENDBRANCH  13  14
ENDBRANCH  12  13
ENDBRANCH   1  12
TORSDOF 14
ENDMDL
MODEL 4
REMARK VINA RESULT:    -3.863      3.193      6.089
REMARK INTER + INTRA:          -9.434
REMARK INTER:                  -7.037
REMARK INTRA:                  -2.396
REMARK UNBOUND:                -2.410
REMARK SMILES CCCCCCCCCCCCCC[C@@H](C)C(=O)[O-]
REMARK SMILES IDX 9 1 10 2 11 3 12 4 13 5 14 6 15 7 16 8 17 9 18 10 19 11 8 12
REMARK SMILES IDX 7 13 6 14 5 15 4 16 3 17 2 18 1 19
REMARK H PARENT
REMARK Flexibility Score: inf
ROOT
ATOM      1  C   UNL     1     -45.912 -51.649  41.615  1.00  0.00     0.000 C 
ENDROOT
BRANCH   1   2
ATOM      2  C   UNL     1     -47.092 -52.233  42.409  1.00  0.00     0.000 C 
BRANCH   2   3
ATOM      3  C   UNL     1     -48.456 -51.798  41.847  1.00  0.00     0.000 C 
BRANCH   3   4
ATOM      4  C   UNL     1     -49.172 -52.924  41.080  1.00  0.00     0.000 C 
BRANCH   4   5
ATOM      5  C   UNL     1     -48.329 -54.192  40.833  1.00  0.00     0.001 C 
BRANCH   5   6
ATOM      6  C   UNL     1     -48.074 -54.534  39.351  1.00  0.00     0.009 C 
BRANCH   6   7
ATOM      7  C   UNL     1     -46.720 -55.227  39.081  1.00  0.00     0.032 C 
ATOM      8  C   UNL     1     -45.837 -55.182  40.332  1.00  0.00     0.014 C 
BRANCH   7   9
ATOM      9  C   UNL     1     -46.911 -56.656  38.647  1.00  0.00     0.044 C 
ATOM     10  O   UNL     1     -48.063 -57.085  38.374  1.00  0.00    -0.550 OA
ATOM     11  O   UNL     1     -45.820 -57.511  38.543  1.00  0.00    -0.550 OA
ENDBRANCH   7   9
ENDBRANCH   6   7
ENDBRANCH   5   6
ENDBRANCH   4   5
ENDBRANCH   3   4
ENDBRANCH   2   3
ENDBRANCH   1   2
BRANCH   1  12
ATOM     12  C   UNL     1     -46.363 -50.847  40.381  1.00  0.00     0.000 C 
BRANCH  12  13
ATOM     13  C   UNL     1     -45.952 -51.532  39.061  1.00  0.00    -0.000 C 
BRANCH  13  14
ATOM     14  C   UNL     1     -47.017 -51.425  37.957  1.00  0.00    -0.000 C 
BRANCH  14  15
ATOM     15  C   UNL     1     -46.691 -50.342  36.917  1.00  0.00    -0.000 C 
BRANCH  15  16
ATOM     16  C   UNL     1     -45.180 -50.180  36.673  1.00  0.00    -0.000 C 
BRANCH  16  17
ATOM     17  C   UNL     1     -44.638 -48.756  36.893  1.00  0.00    -0.000 C 
BRANCH  17  18
ATOM     18  C   UNL     1     -45.324 -48.028  38.058  1.00  0.00    -0.003 C 
ATOM     19  C   UNL     1     -44.376 -47.871  39.244  1.00  0.00     0.004 C 
ENDBRANCH  17  18
ENDBRANCH  16  17
ENDBRANCH  15  16
ENDBRANCH  14  15
ENDBRANCH  13  14
ENDBRANCH  12  13
ENDBRANCH   1  12
TORSDOF 14
ENDMDL
MODEL 5
REMARK VINA RESULT:    -3.852      3.011      6.923
REMARK INTER + INTRA:          -9.414
REMARK INTER:                  -7.301
REMARK INTRA:                  -2.114
REMARK UNBOUND:                -2.410
REMARK SMILES CCCCCCCCCCCCCC[C@@H](C)C(=O)[O-]
REMARK SMILES IDX 9 1 10 2 11 3 12 4 13 5 14 6 15 7 16 8 17 9 18 10 19 11 8 12
REMARK SMILES IDX 7 13 6 14 5 15 4 16 3 17 2 18 1 19
REMARK H PARENT
REMARK Flexibility Score: inf
ROOT
ATOM      1  C   UNL     1     -44.155 -48.892  37.546  1.00  0.00     0.000 C 
ENDROOT
BRANCH   1   2
ATOM      2  C   UNL     1     -45.667 -48.647  37.688  1.00  0.00     0.000 C 
BRANCH   2   3
ATOM      3  C   UNL     1     -46.422 -49.888  38.193  1.00  0.00     0.000 C 
BRANCH   3   4
ATOM      4  C   UNL     1     -47.160 -50.636  37.069  1.00  0.00     0.000 C 
BRANCH   4   5
ATOM      5  C   UNL     1     -47.222 -52.170  37.230  1.00  0.00     0.001 C 
BRANCH   5   6
ATOM      6  C   UNL     1     -46.785 -52.704  38.609  1.00  0.00     0.009 C 
BRANCH   6   7
ATOM      7  C   UNL     1     -47.863 -53.536  39.340  1.00  0.00     0.032 C 
ATOM      8  C   UNL     1     -47.299 -54.900  39.750  1.00  0.00     0.014 C 
BRANCH   7   9
ATOM      9  C   UNL     1     -48.382 -52.815  40.555  1.00  0.00     0.044 C 
ATOM     10  O   UNL     1     -49.562 -53.010  40.949  1.00  0.00    -0.550 OA
ATOM     11  O   UNL     1     -47.564 -51.931  41.250  1.00  0.00    -0.550 OA
ENDBRANCH   7   9
ENDBRANCH   6   7
ENDBRANCH   5   6
ENDBRANCH   4   5
ENDBRANCH   3   4
ENDBRANCH   2   3
ENDBRANCH   1   2
BRANCH   1  12
ATOM     12  C   UNL     1     -43.723 -50.271  38.075  1.00  0.00     0.000 C 
BRANCH  12  13
ATOM     13  C   UNL     1     -43.073 -51.137  36.976  1.00  0.00    -0.000 C 
BRANCH  13  14
ATOM     14  C   UNL     1     -43.838 -51.112  35.641  1.00  0.00    -0.000 C 
BRANCH  14  15
ATOM     15  C   UNL     1     -42.942 -50.745  34.447  1.00  0.00    -0.000 C 
BRANCH  15  16
ATOM     16  C   UNL     1     -43.282 -49.371  33.843  1.00  0.00    -0.000 C 
BRANCH  16  17
ATOM     17  C   UNL     1     -42.490 -48.190  34.434  1.00  0.00    -0.000 C 
BRANCH  17  18
ATOM     18  C   UNL     1     -41.024 -48.539  34.728  1.00  0.00    -0.003 C 
ATOM     19  C   UNL     1     -40.698 -48.348  36.206  1.00  0.00     0.004 C 
ENDBRANCH  17  18
ENDBRANCH  16  17
ENDBRANCH  15  16
ENDBRANCH  14  15
ENDBRANCH  13  14
ENDBRANCH  12  13
ENDBRANCH   1  12
TORSDOF 14
ENDMDL
MODEL 6
REMARK VINA RESULT:    -3.831      2.254      5.206
REMARK INTER + INTRA:          -9.376
REMARK INTER:                  -7.318
REMARK INTRA:                  -2.058
REMARK UNBOUND:                -2.410
REMARK SMILES CCCCCCCCCCCCCC[C@@H](C)C(=O)[O-]
REMARK SMILES IDX 9 1 10 2 11 3 12 4 13 5 14 6 15 7 16 8 17 9 18 10 19 11 8 12
REMARK SMILES IDX 7 13 6 14 5 15 4 16 3 17 2 18 1 19
REMARK H PARENT
REMARK Flexibility Score: inf
ROOT
ATOM      1  C   UNL     1     -48.138 -53.692  38.891  1.00  0.00     0.000 C 
ENDROOT
BRANCH   1   2
ATOM      2  C   UNL     1     -48.229 -54.074  40.378  1.00  0.00     0.000 C 
BRANCH   2   3
ATOM      3  C   UNL     1     -49.025 -53.049  41.204  1.00  0.00     0.000 C 
BRANCH   3   4
ATOM      4  C   UNL     1     -48.132 -52.204  42.129  1.00  0.00     0.000 C 
BRANCH   4   5
ATOM      5  C   UNL     1     -47.733 -50.820  41.573  1.00  0.00     0.001 C 
BRANCH   5   6
ATOM      6  C   UNL     1     -46.461 -50.804  40.702  1.00  0.00     0.009 C 
BRANCH   6   7
ATOM      7  C   UNL     1     -45.180 -51.258  41.437  1.00  0.00     0.032 C 
ATOM      8  C   UNL     1     -44.695 -52.602  40.885  1.00  0.00     0.014 C 
BRANCH   7   9
ATOM      9  C   UNL     1     -44.084 -50.234  41.315  1.00  0.00     0.044 C 
ATOM     10  O   UNL     1     -43.970 -49.553  40.262  1.00  0.00    -0.550 OA
ATOM     11  O   UNL     1     -43.192 -50.031  42.362  1.00  0.00    -0.550 OA
ENDBRANCH   7   9
ENDBRANCH   6   7
ENDBRANCH   5   6
ENDBRANCH   4   5
ENDBRANCH   3   4
ENDBRANCH   2   3
ENDBRANCH   1   2
BRANCH   1  12
ATOM     12  C   UNL     1     -46.762 -54.011  38.278  1.00  0.00     0.000 C 
BRANCH  12  13
ATOM     13  C   UNL     1     -46.211 -52.835  37.444  1.00  0.00    -0.000 C 
BRANCH  13  14
ATOM     14  C   UNL     1     -47.192 -51.657  37.322  1.00  0.00    -0.000 C 
BRANCH  14  15
ATOM     15  C   UNL     1     -46.492 -50.332  36.978  1.00  0.00    -0.000 C 
BRANCH  15  16
ATOM     16  C   UNL     1     -44.960 -50.463  36.913  1.00  0.00    -0.000 C 
BRANCH  16  17
ATOM     17  C   UNL     1     -44.232 -49.252  36.299  1.00  0.00    -0.000 C 
BRANCH  17  18
ATOM     18  C   UNL     1     -43.554 -49.577  34.960  1.00  0.00    -0.003 C 
ATOM     19  C   UNL     1     -42.756 -48.383  34.444  1.00  0.00     0.004 C 
ENDBRANCH  17  18
ENDBRANCH  16  17
ENDBRANCH  15  16
ENDBRANCH  14  15
ENDBRANCH  13  14
ENDBRANCH  12  13
ENDBRANCH   1  12
TORSDOF 14
ENDMDL
MODEL 7
REMARK VINA RESULT:    -3.815      2.463      3.676
REMARK INTER + INTRA:          -9.347
REMARK INTER:                  -7.108
REMARK INTRA:                  -2.239
REMARK UNBOUND:                -2.410
REMARK SMILES CCCCCCCCCCCCCC[C@@H](C)C(=O)[O-]
REMARK SMILES IDX 9 1 10 2 11 3 12 4 13 5 14 6 15 7 16 8 17 9 18 10 19 11 8 12
REMARK SMILES IDX 7 13 6 14 5 15 4 16 3 17 2 18 1 19
REMARK H PARENT
REMARK Flexibility Score: inf
ROOT
ATOM      1  C   UNL     1     -45.277 -51.758  39.047  1.00  0.00     0.000 C 
ENDROOT
BRANCH   1   2
ATOM      2  C   UNL     1     -45.280 -51.939  37.520  1.00  0.00     0.000 C 
BRANCH   2   3
ATOM      3  C   UNL     1     -45.903 -50.741  36.784  1.00  0.00     0.000 C 
BRANCH   3   4
ATOM      4  C   UNL     1     -44.867 -49.670  36.400  1.00  0.00     0.000 C 
BRANCH   4   5
ATOM      5  C   UNL     1     -44.819 -48.438  37.329  1.00  0.00     0.001 C 
BRANCH   5   6
ATOM      6  C   UNL     1     -43.621 -48.391  38.298  1.00  0.00     0.009 C 
BRANCH   6   7
ATOM      7  C   UNL     1     -44.002 -48.113  39.770  1.00  0.00     0.032 C 
ATOM      8  C   UNL     1     -43.274 -49.085  40.704  1.00  0.00     0.014 C 
BRANCH   7   9
ATOM      9  C   UNL     1     -43.681 -46.696  40.161  1.00  0.00     0.044 C 
ATOM     10  O   UNL     1     -44.588 -45.824  40.177  1.00  0.00    -0.550 OA
ATOM     11  O   UNL     1     -42.383 -46.341  40.509  1.00  0.00    -0.550 OA
ENDBRANCH   7   9
ENDBRANCH   6   7
ENDBRANCH   5   6
ENDBRANCH   4   5
ENDBRANCH   3   4
ENDBRANCH   2   3
ENDBRANCH   1   2
BRANCH   1  12
ATOM     12  C   UNL     1     -46.483 -50.946  39.553  1.00  0.00     0.000 C 
BRANCH  12  13
ATOM     13  C   UNL     1     -46.565 -50.925  41.094  1.00  0.00    -0.000 C 
BRANCH  13  14
ATOM     14  C   UNL     1     -48.005 -50.880  41.631  1.00  0.00    -0.000 C 
BRANCH  14  15
ATOM     15  C   UNL     1     -48.522 -52.260  42.068  1.00  0.00    -0.000 C 
BRANCH  15  16
ATOM     16  C   UNL     1     -49.024 -53.112  40.888  1.00  0.00    -0.000 C 
BRANCH  16  17
ATOM     17  C   UNL     1     -48.111 -54.293  40.510  1.00  0.00    -0.000 C 
BRANCH  17  18
ATOM     18  C   UNL     1     -47.898 -54.424  38.995  1.00  0.00    -0.003 C 
ATOM     19  C   UNL     1     -46.625 -55.206  38.683  1.00  0.00     0.004 C 
ENDBRANCH  17  18
ENDBRANCH  16  17
ENDBRANCH  15  16
ENDBRANCH  14  15
ENDBRANCH  13  14
ENDBRANCH  12  13
ENDBRANCH   1  12
TORSDOF 14
ENDMDL
MODEL 8
REMARK VINA RESULT:    -3.795      3.196      6.561
REMARK INTER + INTRA:          -9.311
REMARK INTER:                  -7.587
REMARK INTRA:                  -1.724
REMARK UNBOUND:                -2.410
REMARK SMILES CCCCCCCCCCCCCC[C@@H](C)C(=O)[O-]
REMARK SMILES IDX 9 1 10 2 11 3 12 4 13 5 14 6 15 7 16 8 17 9 18 10 19 11 8 12
REMARK SMILES IDX 7 13 6 14 5 15 4 16 3 17 2 18 1 19
REMARK H PARENT
REMARK Flexibility Score: inf
ROOT
ATOM      1  C   UNL     1     -46.143 -51.049  41.134  1.00  0.00     0.000 C 
ENDROOT
BRANCH   1   2
ATOM      2  C   UNL     1     -47.616 -50.790  41.492  1.00  0.00     0.000 C 
BRANCH   2   3
ATOM      3  C   UNL     1     -48.285 -52.004  42.157  1.00  0.00     0.000 C 
BRANCH   3   4
ATOM      4  C   UNL     1     -49.132 -52.833  41.175  1.00  0.00     0.000 C 
BRANCH   4   5
ATOM      5  C   UNL     1     -48.404 -54.031  40.529  1.00  0.00     0.001 C 
BRANCH   5   6
ATOM      6  C   UNL     1     -48.087 -53.876  39.027  1.00  0.00     0.009 C 
BRANCH   6   7
ATOM      7  C   UNL     1     -46.898 -54.731  38.536  1.00  0.00     0.032 C 
ATOM      8  C   UNL     1     -45.580 -54.183  39.091  1.00  0.00     0.014 C 
BRANCH   7   9
ATOM      9  C   UNL     1     -47.057 -56.173  38.937  1.00  0.00     0.044 C 
ATOM     10  O   UNL     1     -46.216 -56.712  39.703  1.00  0.00    -0.550 OA
ATOM     11  O   UNL     1     -48.132 -56.918  38.466  1.00  0.00    -0.550 OA
ENDBRANCH   7   9
ENDBRANCH   6   7
ENDBRANCH   5   6
ENDBRANCH   4   5
ENDBRANCH   3   4
ENDBRANCH   2   3
ENDBRANCH   1   2
BRANCH   1  12
ATOM     12  C   UNL     1     -45.754 -50.474  39.760  1.00  0.00     0.000 C 
BRANCH  12  13
ATOM     13  C   UNL     1     -46.893 -50.613  38.728  1.00  0.00    -0.000 C 
BRANCH  13  14
ATOM     14  C   UNL     1     -46.400 -50.650  37.272  1.00  0.00    -0.000 C 
BRANCH  14  15
ATOM     15  C   UNL     1     -45.438 -49.498  36.938  1.00  0.00    -0.000 C 
BRANCH  15  16
ATOM     16  C   UNL     1     -44.236 -49.947  36.089  1.00  0.00    -0.000 C 
BRANCH  16  17
ATOM     17  C   UNL     1     -43.285 -48.814  35.663  1.00  0.00    -0.000 C 
BRANCH  17  18
ATOM     18  C   UNL     1     -43.039 -48.776  34.148  1.00  0.00    -0.003 C 
ATOM     19  C   UNL     1     -43.042 -50.182  33.555  1.00  0.00     0.004 C 
ENDBRANCH  17  18
ENDBRANCH  16  17
ENDBRANCH  15  16
ENDBRANCH  14  15
ENDBRANCH  13  14
ENDBRANCH  12  13
ENDBRANCH   1  12
TORSDOF 14
ENDMDL
MODEL 9
REMARK VINA RESULT:    -3.737      1.674      2.586
REMARK INTER + INTRA:          -9.205
REMARK INTER:                  -6.629
REMARK INTRA:                  -2.576
REMARK UNBOUND:                -2.410
REMARK SMILES CCCCCCCCCCCCCC[C@@H](C)C(=O)[O-]
REMARK SMILES IDX 9 1 10 2 11 3 12 4 13 5 14 6 15 7 16 8 17 9 18 10 19 11 8 12
REMARK SMILES IDX 7 13 6 14 5 15 4 16 3 17 2 18 1 19
REMARK H PARENT
REMARK Flexibility Score: inf
ROOT
ATOM      1  C   UNL     1     -48.038 -54.401  40.471  1.00  0.00     0.000 C 
ENDROOT
BRANCH   1   2
ATOM      2  C   UNL     1     -47.604 -54.566  39.006  1.00  0.00     0.000 C 
BRANCH   2   3
ATOM      3  C   UNL     1     -48.008 -53.369  38.130  1.00  0.00     0.000 C 
BRANCH   3   4
ATOM      4  C   UNL     1     -46.808 -52.710  37.426  1.00  0.00     0.000 C 
BRANCH   4   5
ATOM      5  C   UNL     1     -46.947 -51.195  37.169  1.00  0.00     0.001 C 
BRANCH   5   6
ATOM      6  C   UNL     1     -45.664 -50.490  36.683  1.00  0.00     0.009 C 
BRANCH   6   7
ATOM      7  C   UNL     1     -44.662 -50.147  37.808  1.00  0.00     0.032 C 
ATOM      8  C   UNL     1     -43.261 -50.650  37.447  1.00  0.00     0.014 C 
BRANCH   7   9
ATOM      9  C   UNL     1     -44.618 -48.665  38.069  1.00  0.00     0.044 C 
ATOM     10  O   UNL     1     -43.572 -48.135  38.526  1.00  0.00    -0.550 OA
ATOM     11  O   UNL     1     -45.730 -47.872  37.807  1.00  0.00    -0.550 OA
ENDBRANCH   7   9
ENDBRANCH   6   7
ENDBRANCH   5   6
ENDBRANCH   4   5
ENDBRANCH   3   4
ENDBRANCH   2   3
ENDBRANCH   1   2
BRANCH   1  12
ATOM     12  C   UNL     1     -48.939 -53.172  40.691  1.00  0.00     0.000 C 
BRANCH  12  13
ATOM     13  C   UNL     1     -48.575 -52.407  41.981  1.00  0.00    -0.000 C 
BRANCH  13  14
ATOM     14  C   UNL     1     -48.086 -50.971  41.725  1.00  0.00    -0.000 C 
BRANCH  14  15
ATOM     15  C   UNL     1     -46.980 -50.898  40.660  1.00  0.00    -0.000 C 
BRANCH  15  16
ATOM     16  C   UNL     1     -45.568 -50.820  41.267  1.00  0.00    -0.000 C 
BRANCH  16  17
ATOM     17  C   UNL     1     -44.952 -52.180  41.648  1.00  0.00    -0.000 C 
BRANCH  17  18
ATOM     18  C   UNL     1     -44.548 -53.017  40.426  1.00  0.00    -0.003 C 
ATOM     19  C   UNL     1     -43.034 -53.010  40.231  1.00  0.00     0.004 C 
ENDBRANCH  17  18
ENDBRANCH  16  17
ENDBRANCH  15  16
ENDBRANCH  14  15
ENDBRANCH  13  14
ENDBRANCH  12  13
ENDBRANCH   1  12
TORSDOF 14
ENDMDL
