MODEL 1
REMARK VINA RESULT:    -2.930      0.000      0.000
REMARK INTER + INTRA:          -3.767
REMARK INTER:                  -3.700
REMARK INTRA:                  -0.067
REMARK UNBOUND:                -0.067
REMARK SMILES CCCCCCO
REMARK SMILES IDX 4 1 3 2 2 3 1 4 5 5 6 6 7 7
REMARK H PARENT 7 8
REMARK Flexibility Score: inf
ROOT
ATOM      1  C   UNL     1     107.411 107.377 102.184  1.00  0.00     0.002 C 
ENDROOT
BRANCH   1   2
ATOM      2  C   UNL     1     106.080 107.278 102.943  1.00  0.00    -0.000 C 
BRANCH   2   3
ATOM      3  C   UNL     1     104.911 107.736 102.063  1.00  0.00    -0.003 C 
ATOM      4  C   UNL     1     104.409 109.113 102.485  1.00  0.00     0.004 C 
ENDBRANCH   2   3
ENDBRANCH   1   2
BRANCH   1   5
ATOM      5  C   UNL     1     108.625 107.528 103.117  1.00  0.00     0.028 C 
BRANCH   5   6
ATOM      6  C   UNL     1     108.383 106.984 104.529  1.00  0.00     0.156 C 
BRANCH   6   7
ATOM      7  O   UNL     1     109.461 107.300 105.364  1.00  0.00    -0.396 OA
ATOM      8  H   UNL     1     109.190 108.108 105.872  1.00  0.00     0.210 HD
ENDBRANCH   6   7
ENDBRANCH   5   6
ENDBRANCH   1   5
TORSDOF 5
ENDMDL
MODEL 2
REMARK VINA RESULT:    -2.912      2.493      3.389
REMARK INTER + INTRA:          -3.745
REMARK INTER:                  -3.672
REMARK INTRA:                  -0.073
REMARK UNBOUND:                -0.067
REMARK SMILES CCCCCCO
REMARK SMILES IDX 4 1 3 2 2 3 1 4 5 5 6 6 7 7
REMARK H PARENT 7 8
REMARK Flexibility Score: inf
ROOT
ATOM      1  C   UNL     1     107.757 106.198 102.320  1.00  0.00     0.002 C 
ENDROOT
BRANCH   1   2
ATOM      2  C   UNL     1     107.190 105.010 103.110  1.00  0.00    -0.000 C 
BRANCH   2   3
ATOM      3  C   UNL     1     106.868 103.835 102.180  1.00  0.00    -0.003 C 
ATOM      4  C   UNL     1     107.794 102.651 102.444  1.00  0.00     0.004 C 
ENDBRANCH   2   3
ENDBRANCH   1   2
BRANCH   1   5
ATOM      5  C   UNL     1     108.479 107.223 103.212  1.00  0.00     0.028 C 
BRANCH   5   6
ATOM      6  C   UNL     1     108.270 106.984 104.711  1.00  0.00     0.156 C 
BRANCH   6   7
ATOM      7  O   UNL     1     109.434 107.300 105.421  1.00  0.00    -0.396 OA
ATOM      8  H   UNL     1     109.411 108.281 105.568  1.00  0.00     0.210 HD
ENDBRANCH   6   7
ENDBRANCH   5   6
ENDBRANCH   1   5
TORSDOF 5
ENDMDL
MODEL 3
REMARK VINA RESULT:    -2.898      4.247      5.382
REMARK INTER + INTRA:          -3.728
REMARK INTER:                  -3.647
REMARK INTRA:                  -0.080
REMARK UNBOUND:                -0.067
REMARK SMILES CCCCCCO
REMARK SMILES IDX 4 1 3 2 2 3 1 4 5 5 6 6 7 7
REMARK H PARENT 7 8
REMARK Flexibility Score: inf
ROOT
ATOM      1  C   UNL     1     104.960 104.497 102.399  1.00  0.00     0.002 C 
ENDROOT
BRANCH   1   2
ATOM      2  C   UNL     1     106.174 104.525 103.339  1.00  0.00    -0.000 C 
BRANCH   2   3
ATOM      3  C   UNL     1     107.468 104.225 102.574  1.00  0.00    -0.003 C 
ATOM      4  C   UNL     1     107.537 102.758 102.160  1.00  0.00     0.004 C 
ENDBRANCH   2   3
ENDBRANCH   1   2
BRANCH   1   5
ATOM      5  C   UNL     1     103.618 104.557 103.149  1.00  0.00     0.028 C 
BRANCH   5   6
ATOM      6  C   UNL     1     103.720 105.203 104.535  1.00  0.00     0.156 C 
BRANCH   6   7
ATOM      7  O   UNL     1     102.682 104.753 105.359  1.00  0.00    -0.396 OA
ATOM      8  H   UNL     1     103.011 104.842 106.291  1.00  0.00     0.210 HD
ENDBRANCH   6   7
ENDBRANCH   5   6
ENDBRANCH   1   5
TORSDOF 5
ENDMDL
MODEL 4
REMARK VINA RESULT:    -2.887      2.960      3.806
REMARK INTER + INTRA:          -3.713
REMARK INTER:                  -3.637
REMARK INTRA:                  -0.076
REMARK UNBOUND:                -0.067
REMARK SMILES CCCCCCO
REMARK SMILES IDX 4 1 3 2 2 3 1 4 5 5 6 6 7 7
REMARK H PARENT 7 8
REMARK Flexibility Score: inf
ROOT
ATOM      1  C   UNL     1     105.174 107.383 102.391  1.00  0.00     0.002 C 
ENDROOT
BRANCH   1   2
ATOM      2  C   UNL     1     104.101 106.353 102.013  1.00  0.00    -0.000 C 
BRANCH   2   3
ATOM      3  C   UNL     1     104.077 105.191 103.014  1.00  0.00    -0.003 C 
ATOM      4  C   UNL     1     102.931 104.230 102.717  1.00  0.00     0.004 C 
ENDBRANCH   2   3
ENDBRANCH   1   2
BRANCH   1   5
ATOM      5  C   UNL     1     104.643 108.492 103.315  1.00  0.00     0.028 C 
BRANCH   5   6
ATOM      6  C   UNL     1     105.137 108.372 104.761  1.00  0.00     0.156 C 
BRANCH   6   7
ATOM      7  O   UNL     1     104.726 109.482 105.510  1.00  0.00    -0.396 OA
ATOM      8  H   UNL     1     104.929 110.279 104.955  1.00  0.00     0.210 HD
ENDBRANCH   6   7
ENDBRANCH   5   6
ENDBRANCH   1   5
TORSDOF 5
ENDMDL
MODEL 5
REMARK VINA RESULT:    -2.878      3.264      4.198
REMARK INTER + INTRA:          -3.702
REMARK INTER:                  -3.563
REMARK INTRA:                  -0.139
REMARK UNBOUND:                -0.067
REMARK SMILES CCCCCCO
REMARK SMILES IDX 4 1 3 2 2 3 1 4 5 5 6 6 7 7
REMARK H PARENT 7 8
REMARK Flexibility Score: inf
ROOT
ATOM      1  C   UNL     1     105.020 107.398 103.593  1.00  0.00     0.002 C 
ENDROOT
BRANCH   1   2
ATOM      2  C   UNL     1     104.433 105.979 103.577  1.00  0.00    -0.000 C 
BRANCH   2   3
ATOM      3  C   UNL     1     103.805 105.659 102.216  1.00  0.00    -0.003 C 
ATOM      4  C   UNL     1     102.839 104.483 102.316  1.00  0.00     0.004 C 
ENDBRANCH   2   3
ENDBRANCH   1   2
BRANCH   1   5
ATOM      5  C   UNL     1     105.289 107.952 102.183  1.00  0.00     0.028 C 
BRANCH   5   6
ATOM      6  C   UNL     1     104.651 109.323 101.933  1.00  0.00     0.156 C 
BRANCH   6   7
ATOM      7  O   UNL     1     103.823 109.679 103.005  1.00  0.00    -0.396 OA
ATOM      8  H   UNL     1     103.608 110.639 102.881  1.00  0.00     0.210 HD
ENDBRANCH   6   7
ENDBRANCH   5   6
ENDBRANCH   1   5
TORSDOF 5
ENDMDL
MODEL 6
REMARK VINA RESULT:    -2.876      3.879      4.743
REMARK INTER + INTRA:          -3.700
REMARK INTER:                  -3.583
REMARK INTRA:                  -0.117
REMARK UNBOUND:                -0.067
REMARK SMILES CCCCCCO
REMARK SMILES IDX 4 1 3 2 2 3 1 4 5 5 6 6 7 7
REMARK H PARENT 7 8
REMARK Flexibility Score: inf
ROOT
ATOM      1  C   UNL     1     104.107 105.701 104.231  1.00  0.00     0.002 C 
ENDROOT
BRANCH   1   2
ATOM      2  C   UNL     1     104.718 107.107 104.311  1.00  0.00    -0.000 C 
BRANCH   2   3
ATOM      3  C   UNL     1     104.953 107.684 102.910  1.00  0.00    -0.003 C 
ATOM      4  C   UNL     1     104.264 109.036 102.747  1.00  0.00     0.004 C 
ENDBRANCH   2   3
ENDBRANCH   1   2
BRANCH   1   5
ATOM      5  C   UNL     1     104.279 105.049 102.848  1.00  0.00     0.028 C 
BRANCH   5   6
ATOM      6  C   UNL     1     102.960 104.577 102.225  1.00  0.00     0.156 C 
BRANCH   6   7
ATOM      7  O   UNL     1     102.249 103.783 103.133  1.00  0.00    -0.396 OA
ATOM      8  H   UNL     1     101.792 103.088 102.592  1.00  0.00     0.210 HD
ENDBRANCH   6   7
ENDBRANCH   5   6
ENDBRANCH   1   5
TORSDOF 5
ENDMDL
MODEL 7
REMARK VINA RESULT:    -2.855      3.034      3.909
REMARK INTER + INTRA:          -3.673
REMARK INTER:                  -3.577
REMARK INTRA:                  -0.096
REMARK UNBOUND:                -0.067
REMARK SMILES CCCCCCO
REMARK SMILES IDX 4 1 3 2 2 3 1 4 5 5 6 6 7 7
REMARK H PARENT 7 8
REMARK Flexibility Score: inf
ROOT
ATOM      1  C   UNL     1     107.539 104.979 102.911  1.00  0.00     0.002 C 
ENDROOT
BRANCH   1   2
ATOM      2  C   UNL     1     107.176 106.165 103.815  1.00  0.00    -0.000 C 
BRANCH   2   3
ATOM      3  C   UNL     1     108.391 107.072 104.045  1.00  0.00    -0.003 C 
ATOM      4  C   UNL     1     108.888 107.673 102.734  1.00  0.00     0.004 C 
ENDBRANCH   2   3
ENDBRANCH   1   2
BRANCH   1   5
ATOM      5  C   UNL     1     107.147 103.620 103.517  1.00  0.00     0.028 C 
BRANCH   5   6
ATOM      6  C   UNL     1     106.863 103.680 105.022  1.00  0.00     0.156 C 
BRANCH   6   7
ATOM      7  O   UNL     1     107.305 102.508 105.648  1.00  0.00    -0.396 OA
ATOM      8  H   UNL     1     108.278 102.447 105.465  1.00  0.00     0.210 HD
ENDBRANCH   6   7
ENDBRANCH   5   6
ENDBRANCH   1   5
TORSDOF 5
ENDMDL
MODEL 8
REMARK VINA RESULT:    -2.845      3.903      4.240
REMARK INTER + INTRA:          -3.660
REMARK INTER:                  -3.543
REMARK INTRA:                  -0.117
REMARK UNBOUND:                -0.067
REMARK SMILES CCCCCCO
REMARK SMILES IDX 4 1 3 2 2 3 1 4 5 5 6 6 7 7
REMARK H PARENT 7 8
REMARK Flexibility Score: inf
ROOT
ATOM      1  C   UNL     1     106.757 104.585 103.668  1.00  0.00     0.002 C 
ENDROOT
BRANCH   1   2
ATOM      2  C   UNL     1     105.243 104.485 103.901  1.00  0.00    -0.000 C 
BRANCH   2   3
ATOM      3  C   UNL     1     104.467 104.814 102.620  1.00  0.00    -0.003 C 
ATOM      4  C   UNL     1     103.033 104.300 102.696  1.00  0.00     0.004 C 
ENDBRANCH   2   3
ENDBRANCH   1   2
BRANCH   1   5
ATOM      5  C   UNL     1     107.170 104.217 102.232  1.00  0.00     0.028 C 
BRANCH   5   6
ATOM      6  C   UNL     1     107.426 102.719 102.034  1.00  0.00     0.156 C 
BRANCH   6   7
ATOM      7  O   UNL     1     108.191 102.212 103.091  1.00  0.00    -0.396 OA
ATOM      8  H   UNL     1     107.955 101.251 103.167  1.00  0.00     0.210 HD
ENDBRANCH   6   7
ENDBRANCH   5   6
ENDBRANCH   1   5
TORSDOF 5
ENDMDL
MODEL 9
REMARK VINA RESULT:    -2.802      1.691      1.992
REMARK INTER + INTRA:          -3.606
REMARK INTER:                  -3.430
REMARK INTRA:                  -0.176
REMARK UNBOUND:                -0.067
REMARK SMILES CCCCCCO
REMARK SMILES IDX 4 1 3 2 2 3 1 4 5 5 6 6 7 7
REMARK H PARENT 7 8
REMARK Flexibility Score: inf
ROOT
ATOM      1  C   UNL     1     106.340 106.898 104.386  1.00  0.00     0.002 C 
ENDROOT
BRANCH   1   2
ATOM      2  C   UNL     1     105.452 108.123 104.122  1.00  0.00    -0.000 C 
BRANCH   2   3
ATOM      3  C   UNL     1     104.630 107.940 102.840  1.00  0.00    -0.003 C 
ATOM      4  C   UNL     1     104.826 109.115 101.887  1.00  0.00     0.004 C 
ENDBRANCH   2   3
ENDBRANCH   1   2
BRANCH   1   5
ATOM      5  C   UNL     1     107.830 107.167 104.114  1.00  0.00     0.028 C 
BRANCH   5   6
ATOM      6  C   UNL     1     108.268 106.805 102.691  1.00  0.00     0.156 C 
BRANCH   6   7
ATOM      7  O   UNL     1     108.612 107.960 101.978  1.00  0.00    -0.396 OA
ATOM      8  H   UNL     1     109.187 107.659 101.227  1.00  0.00     0.210 HD
ENDBRANCH   6   7
ENDBRANCH   5   6
ENDBRANCH   1   5
TORSDOF 5
ENDMDL
