MODEL 1
REMARK VINA RESULT:    -4.922      0.000      0.000
REMARK INTER + INTRA:          -5.389
REMARK INTER:                  -5.354
REMARK INTRA:                  -0.035
REMARK UNBOUND:                -0.035
REMARK SMILES O=C([O-])c1ccc(O)cc1
REMARK SMILES IDX 4 1 5 2 10 3 6 4 9 5 7 6 2 7 1 8 3 9 8 10
REMARK H PARENT 8 11
REMARK Flexibility Score: inf
ROOT
ATOM      1  C   UNL     1     -37.757  -7.866 -13.991  1.00  0.00    -0.003 A 
ATOM      2  C   UNL     1     -38.444  -9.090 -14.097  1.00  0.00     0.014 A 
ATOM      3  C   UNL     1     -38.497  -6.676 -13.877  1.00  0.00     0.014 A 
ATOM      4  C   UNL     1     -39.842  -9.119 -14.089  1.00  0.00     0.047 A 
ATOM      5  C   UNL     1     -39.895  -6.709 -13.870  1.00  0.00     0.047 A 
ATOM      6  C   UNL     1     -40.571  -7.931 -13.976  1.00  0.00     0.115 A 
ENDROOT
BRANCH   1   7
ATOM      7  C   UNL     1     -36.278  -7.828 -13.999  1.00  0.00     0.071 C 
ATOM      8  O   UNL     1     -35.615  -8.780 -14.491  1.00  0.00    -0.545 OA
ATOM      9  O   UNL     1     -35.598  -6.741 -13.461  1.00  0.00    -0.545 OA
ENDBRANCH   1   7
BRANCH   6  10
ATOM     10  O   UNL     1     -41.963  -7.976 -13.969  1.00  0.00    -0.508 OA
ATOM     11  H   UNL     1     -42.472  -8.532 -13.292  1.00  0.00     0.293 HD
ENDBRANCH   6  10
TORSDOF 2
ENDMDL
MODEL 2
REMARK VINA RESULT:    -4.904      0.104      1.533
REMARK INTER + INTRA:          -5.369
REMARK INTER:                  -5.335
REMARK INTRA:                  -0.034
REMARK UNBOUND:                -0.035
REMARK SMILES O=C([O-])c1ccc(O)cc1
REMARK SMILES IDX 4 1 5 2 10 3 6 4 9 5 7 6 2 7 1 8 3 9 8 10
REMARK H PARENT 8 11
REMARK Flexibility Score: inf
ROOT
ATOM      1  C   UNL     1     -37.791  -7.847 -14.070  1.00  0.00    -0.003 A 
ATOM      2  C   UNL     1     -38.544  -6.658 -14.042  1.00  0.00     0.014 A 
ATOM      3  C   UNL     1     -38.465  -9.081 -14.073  1.00  0.00     0.014 A 
ATOM      4  C   UNL     1     -39.942  -6.706 -14.017  1.00  0.00     0.047 A 
ATOM      5  C   UNL     1     -39.863  -9.125 -14.046  1.00  0.00     0.047 A 
ATOM      6  C   UNL     1     -40.604  -7.937 -14.019  1.00  0.00     0.115 A 
ENDROOT
BRANCH   1   7
ATOM      7  C   UNL     1     -36.313  -7.803 -14.097  1.00  0.00     0.071 C 
ATOM      8  O   UNL     1     -35.654  -8.743 -14.620  1.00  0.00    -0.545 OA
ATOM      9  O   UNL     1     -35.629  -6.726 -13.547  1.00  0.00    -0.545 OA
ENDBRANCH   1   7
BRANCH   6  10
ATOM     10  O   UNL     1     -41.996  -7.969 -13.993  1.00  0.00    -0.508 OA
ATOM     11  H   UNL     1     -42.539  -8.113 -14.836  1.00  0.00     0.293 HD
ENDBRANCH   6  10
TORSDOF 2
ENDMDL
MODEL 3
REMARK VINA RESULT:    -4.675      7.963      9.849
REMARK INTER + INTRA:          -5.119
REMARK INTER:                  -5.085
REMARK INTRA:                  -0.034
REMARK UNBOUND:                -0.035
REMARK SMILES O=C([O-])c1ccc(O)cc1
REMARK SMILES IDX 4 1 5 2 10 3 6 4 9 5 7 6 2 7 1 8 3 9 8 10
REMARK H PARENT 8 11
REMARK Flexibility Score: inf
ROOT
ATOM      1  C   UNL     1     -33.322  -3.550 -18.846  1.00  0.00    -0.003 A 
ATOM      2  C   UNL     1     -33.527  -3.323 -20.221  1.00  0.00     0.014 A 
ATOM      3  C   UNL     1     -32.091  -3.185 -18.272  1.00  0.00     0.014 A 
ATOM      4  C   UNL     1     -32.521  -2.744 -21.001  1.00  0.00     0.047 A 
ATOM      5  C   UNL     1     -31.087  -2.607 -19.056  1.00  0.00     0.047 A 
ATOM      6  C   UNL     1     -31.300  -2.385 -20.422  1.00  0.00     0.115 A 
ENDROOT
BRANCH   1   7
ATOM      7  C   UNL     1     -34.381  -4.161 -18.015  1.00  0.00     0.071 C 
ATOM      8  O   UNL     1     -34.452  -3.911 -16.782  1.00  0.00    -0.545 OA
ATOM      9  O   UNL     1     -35.315  -5.020 -18.583  1.00  0.00    -0.545 OA
ENDBRANCH   1   7
BRANCH   6  10
ATOM     10  O   UNL     1     -30.308  -1.810 -21.212  1.00  0.00    -0.508 OA
ATOM     11  H   UNL     1     -30.194  -0.805 -21.272  1.00  0.00     0.293 HD
ENDBRANCH   6  10
TORSDOF 2
ENDMDL
MODEL 4
REMARK VINA RESULT:    -4.674      3.060      4.601
REMARK INTER + INTRA:          -5.119
REMARK INTER:                  -5.092
REMARK INTRA:                  -0.027
REMARK UNBOUND:                -0.035
REMARK SMILES O=C([O-])c1ccc(O)cc1
REMARK SMILES IDX 4 1 5 2 10 3 6 4 9 5 7 6 2 7 1 8 3 9 8 10
REMARK H PARENT 8 11
REMARK Flexibility Score: inf
ROOT
ATOM      1  C   UNL     1     -36.899  -6.677 -15.777  1.00  0.00    -0.003 A 
ATOM      2  C   UNL     1     -36.426  -5.979 -14.649  1.00  0.00     0.014 A 
ATOM      3  C   UNL     1     -36.685  -8.065 -15.858  1.00  0.00     0.014 A 
ATOM      4  C   UNL     1     -35.753  -6.657 -13.628  1.00  0.00     0.047 A 
ATOM      5  C   UNL     1     -36.010  -8.739 -14.835  1.00  0.00     0.047 A 
ATOM      6  C   UNL     1     -35.543  -8.037 -13.718  1.00  0.00     0.115 A 
ENDROOT
BRANCH   1   7
ATOM      7  C   UNL     1     -37.612  -5.967 -16.860  1.00  0.00     0.071 C 
ATOM      8  O   UNL     1     -38.843  -5.714 -16.759  1.00  0.00    -0.545 OA
ATOM      9  O   UNL     1     -36.935  -5.568 -18.007  1.00  0.00    -0.545 OA
ENDBRANCH   1   7
BRANCH   6  10
ATOM     10  O   UNL     1     -34.871  -8.698 -12.692  1.00  0.00    -0.508 OA
ATOM     11  H   UNL     1     -33.976  -8.371 -12.349  1.00  0.00     0.293 HD
ENDBRANCH   6  10
TORSDOF 2
ENDMDL
MODEL 5
REMARK VINA RESULT:    -4.645      3.063      4.386
REMARK INTER + INTRA:          -5.086
REMARK INTER:                  -5.059
REMARK INTRA:                  -0.027
REMARK UNBOUND:                -0.035
REMARK SMILES O=C([O-])c1ccc(O)cc1
REMARK SMILES IDX 4 1 5 2 10 3 6 4 9 5 7 6 2 7 1 8 3 9 8 10
REMARK H PARENT 8 11
REMARK Flexibility Score: inf
ROOT
ATOM      1  C   UNL     1     -36.897  -6.639 -15.757  1.00  0.00    -0.003 A 
ATOM      2  C   UNL     1     -36.649  -8.024 -15.808  1.00  0.00     0.014 A 
ATOM      3  C   UNL     1     -36.438  -5.905 -14.648  1.00  0.00     0.014 A 
ATOM      4  C   UNL     1     -35.957  -8.658 -14.770  1.00  0.00     0.047 A 
ATOM      5  C   UNL     1     -35.748  -6.543 -13.613  1.00  0.00     0.047 A 
ATOM      6  C   UNL     1     -35.506  -7.921 -13.672  1.00  0.00     0.115 A 
ENDROOT
BRANCH   1   7
ATOM      7  C   UNL     1     -37.627  -5.962 -16.850  1.00  0.00     0.071 C 
ATOM      8  O   UNL     1     -38.856  -5.706 -16.738  1.00  0.00    -0.545 OA
ATOM      9  O   UNL     1     -36.968  -5.600 -18.020  1.00  0.00    -0.545 OA
ENDBRANCH   1   7
BRANCH   6  10
ATOM     10  O   UNL     1     -34.819  -8.566 -12.646  1.00  0.00    -0.508 OA
ATOM     11  H   UNL     1     -33.893  -8.951 -12.789  1.00  0.00     0.293 HD
ENDBRANCH   6  10
TORSDOF 2
ENDMDL
MODEL 6
REMARK VINA RESULT:    -4.578      9.194     10.437
REMARK INTER + INTRA:          -5.014
REMARK INTER:                  -4.980
REMARK INTRA:                  -0.034
REMARK UNBOUND:                -0.035
REMARK SMILES O=C([O-])c1ccc(O)cc1
REMARK SMILES IDX 4 1 5 2 10 3 6 4 9 5 7 6 2 7 1 8 3 9 8 10
REMARK H PARENT 8 11
REMARK Flexibility Score: inf
ROOT
ATOM      1  C   UNL     1     -30.948  -3.268 -18.638  1.00  0.00    -0.003 A 
ATOM      2  C   UNL     1     -30.218  -2.706 -19.702  1.00  0.00     0.014 A 
ATOM      3  C   UNL     1     -32.344  -3.391 -18.760  1.00  0.00     0.014 A 
ATOM      4  C   UNL     1     -30.872  -2.276 -20.861  1.00  0.00     0.047 A 
ATOM      5  C   UNL     1     -32.995  -2.959 -19.920  1.00  0.00     0.047 A 
ATOM      6  C   UNL     1     -32.260  -2.401 -20.973  1.00  0.00     0.115 A 
ENDROOT
BRANCH   1   7
ATOM      7  C   UNL     1     -30.262  -3.725 -17.410  1.00  0.00     0.071 C 
ATOM      8  O   UNL     1     -30.866  -3.731 -16.303  1.00  0.00    -0.545 OA
ATOM      9  O   UNL     1     -28.941  -4.155 -17.458  1.00  0.00    -0.545 OA
ENDBRANCH   1   7
BRANCH   6  10
ATOM     10  O   UNL     1     -32.898  -1.968 -22.133  1.00  0.00    -0.508 OA
ATOM     11  H   UNL     1     -32.484  -2.105 -23.048  1.00  0.00     0.293 HD
ENDBRANCH   6  10
TORSDOF 2
ENDMDL
MODEL 7
REMARK VINA RESULT:    -4.452      2.279      4.311
REMARK INTER + INTRA:          -4.877
REMARK INTER:                  -4.845
REMARK INTRA:                  -0.032
REMARK UNBOUND:                -0.035
REMARK SMILES O=C([O-])c1ccc(O)cc1
REMARK SMILES IDX 4 1 5 2 10 3 6 4 9 5 7 6 2 7 1 8 3 9 8 10
REMARK H PARENT 8 11
REMARK Flexibility Score: inf
ROOT
ATOM      1  C   UNL     1     -38.482  -7.453 -14.723  1.00  0.00    -0.003 A 
ATOM      2  C   UNL     1     -38.644  -6.248 -15.433  1.00  0.00     0.014 A 
ATOM      3  C   UNL     1     -37.320  -8.216 -14.931  1.00  0.00     0.014 A 
ATOM      4  C   UNL     1     -37.662  -5.820 -16.332  1.00  0.00     0.047 A 
ATOM      5  C   UNL     1     -36.341  -7.784 -15.832  1.00  0.00     0.047 A 
ATOM      6  C   UNL     1     -36.510  -6.585 -16.534  1.00  0.00     0.115 A 
ENDROOT
BRANCH   1   7
ATOM      7  C   UNL     1     -39.516  -7.912 -13.770  1.00  0.00     0.071 C 
ATOM      8  O   UNL     1     -39.857  -9.125 -13.731  1.00  0.00    -0.545 OA
ATOM      9  O   UNL     1     -40.127  -7.012 -12.905  1.00  0.00    -0.545 OA
ENDBRANCH   1   7
BRANCH   6  10
ATOM     10  O   UNL     1     -35.541  -6.145 -17.433  1.00  0.00    -0.508 OA
ATOM     11  H   UNL     1     -35.130  -6.769 -18.117  1.00  0.00     0.293 HD
ENDBRANCH   6  10
TORSDOF 2
ENDMDL
MODEL 8
REMARK VINA RESULT:    -4.438      1.860      4.279
REMARK INTER + INTRA:          -4.861
REMARK INTER:                  -4.833
REMARK INTRA:                  -0.028
REMARK UNBOUND:                -0.035
REMARK SMILES O=C([O-])c1ccc(O)cc1
REMARK SMILES IDX 4 1 5 2 10 3 6 4 9 5 7 6 2 7 1 8 3 9 8 10
REMARK H PARENT 8 11
REMARK Flexibility Score: inf
ROOT
ATOM      1  C   UNL     1     -37.877  -7.518 -14.160  1.00  0.00    -0.003 A 
ATOM      2  C   UNL     1     -38.290  -6.198 -13.897  1.00  0.00     0.014 A 
ATOM      3  C   UNL     1     -36.515  -7.844 -14.034  1.00  0.00     0.014 A 
ATOM      4  C   UNL     1     -37.357  -5.228 -13.516  1.00  0.00     0.047 A 
ATOM      5  C   UNL     1     -35.585  -6.871 -13.654  1.00  0.00     0.047 A 
ATOM      6  C   UNL     1     -36.005  -5.560 -13.394  1.00  0.00     0.115 A 
ENDROOT
BRANCH   1   7
ATOM      7  C   UNL     1     -38.857  -8.550 -14.562  1.00  0.00     0.071 C 
ATOM      8  O   UNL     1     -38.835  -9.037 -15.724  1.00  0.00    -0.545 OA
ATOM      9  O   UNL     1     -39.819  -8.997 -13.664  1.00  0.00    -0.545 OA
ENDBRANCH   1   7
BRANCH   6  10
ATOM     10  O   UNL     1     -35.088  -4.582 -13.015  1.00  0.00    -0.508 OA
ATOM     11  H   UNL     1     -35.204  -3.614 -13.288  1.00  0.00     0.293 HD
ENDBRANCH   6  10
TORSDOF 2
ENDMDL
MODEL 9
REMARK VINA RESULT:    -4.313      2.205      4.096
REMARK INTER + INTRA:          -4.726
REMARK INTER:                  -4.695
REMARK INTRA:                  -0.030
REMARK UNBOUND:                -0.035
REMARK SMILES O=C([O-])c1ccc(O)cc1
REMARK SMILES IDX 4 1 5 2 10 3 6 4 9 5 7 6 2 7 1 8 3 9 8 10
REMARK H PARENT 8 11
REMARK Flexibility Score: inf
ROOT
ATOM      1  C   UNL     1     -38.298  -6.208 -13.696  1.00  0.00    -0.003 A 
ATOM      2  C   UNL     1     -36.947  -5.968 -14.009  1.00  0.00     0.014 A 
ATOM      3  C   UNL     1     -38.872  -7.440 -14.054  1.00  0.00     0.014 A 
ATOM      4  C   UNL     1     -36.189  -6.942 -14.667  1.00  0.00     0.047 A 
ATOM      5  C   UNL     1     -38.112  -8.412 -14.713  1.00  0.00     0.047 A 
ATOM      6  C   UNL     1     -36.768  -8.165 -15.020  1.00  0.00     0.115 A 
ENDROOT
BRANCH   1   7
ATOM      7  C   UNL     1     -39.105  -5.182 -13.001  1.00  0.00     0.071 C 
ATOM      8  O   UNL     1     -39.755  -5.475 -11.961  1.00  0.00    -0.545 OA
ATOM      9  O   UNL     1     -39.160  -3.880 -13.484  1.00  0.00    -0.545 OA
ENDBRANCH   1   7
BRANCH   6  10
ATOM     10  O   UNL     1     -36.000  -9.125 -15.675  1.00  0.00    -0.508 OA
ATOM     11  H   UNL     1     -36.421  -9.949 -16.087  1.00  0.00     0.293 HD
ENDBRANCH   6  10
TORSDOF 2
ENDMDL
