MODEL 1
REMARK VINA RESULT:    -4.923      0.000      0.000
REMARK INTER + INTRA:          -5.314
REMARK INTER:                  -5.211
REMARK INTRA:                  -0.103
REMARK UNBOUND:                -0.103
REMARK SMILES CC1=CC[C@H]2[C@H]3[C@@H]1[C@]2(C)CC[C@H]3C(C)C
REMARK SMILES IDX 1 1 2 2 3 3 4 4 5 5 6 6 7 7 8 8 10 9 11 10 12 11 9 12 13 13
REMARK SMILES IDX 14 14 15 15
REMARK H PARENT
REMARK Flexibility Score: inf
ROOT
ATOM      1  C   UNL     1      19.129  62.807  13.972  1.00  0.00     0.039 C 
ATOM      2  C   UNL     1      20.437  63.128  14.632  1.00  0.00    -0.073 C 
ATOM      3  C   UNL     1      20.511  63.383  15.964  1.00  0.00    -0.027 C 
ATOM      4  C   UNL     1      21.872  63.728  16.578  1.00  0.00     0.031 C 
ATOM      5  C   UNL     1      22.990  63.685  15.485  1.00  0.00     0.003 C 
ATOM      6  C   UNL     1      22.792  62.382  14.671  1.00  0.00     0.004 C 
ATOM      7  C   UNL     1      21.750  63.166  13.841  1.00  0.00     0.024 C 
ATOM      8  C   UNL     1      22.552  64.436  14.199  1.00  0.00    -0.022 C 
ATOM      9  C   UNL     1      23.739  64.571  13.202  1.00  0.00     0.008 C 
ATOM     10  C   UNL     1      24.708  63.362  13.270  1.00  0.00     0.005 C 
ATOM     11  C   UNL     1      24.037  62.046  13.788  1.00  0.00    -0.005 C 
ATOM     12  C   UNL     1      21.793  65.777  14.332  1.00  0.00     0.012 C 
ENDROOT
BRANCH  11  13
ATOM     13  C   UNL     1      25.070  61.134  14.526  1.00  0.00    -0.014 C 
ATOM     14  C   UNL     1      24.755  60.985  16.026  1.00  0.00     0.007 C 
ATOM     15  C   UNL     1      25.124  59.729  13.894  1.00  0.00     0.007 C 
ENDBRANCH  11  13
TORSDOF 1
ENDMDL
MODEL 2
REMARK VINA RESULT:    -4.740      1.317      4.554
REMARK INTER + INTRA:          -5.120
REMARK INTER:                  -4.850
REMARK INTRA:                  -0.270
REMARK UNBOUND:                -0.103
REMARK SMILES CC1=CC[C@H]2[C@H]3[C@@H]1[C@]2(C)CC[C@H]3C(C)C
REMARK SMILES IDX 1 1 2 2 3 3 4 4 5 5 6 6 7 7 8 8 10 9 11 10 12 11 9 12 13 13
REMARK SMILES IDX 14 14 15 15
REMARK H PARENT
REMARK Flexibility Score: inf
ROOT
ATOM      1  C   UNL     1      24.465  60.980  16.933  1.00  0.00     0.039 C 
ATOM      2  C   UNL     1      24.026  61.942  15.870  1.00  0.00    -0.073 C 
ATOM      3  C   UNL     1      24.457  61.819  14.587  1.00  0.00    -0.027 C 
ATOM      4  C   UNL     1      23.993  62.847  13.549  1.00  0.00     0.031 C 
ATOM      5  C   UNL     1      23.025  63.885  14.203  1.00  0.00     0.003 C 
ATOM      6  C   UNL     1      21.999  63.092  15.051  1.00  0.00     0.004 C 
ATOM      7  C   UNL     1      23.062  63.094  16.174  1.00  0.00     0.024 C 
ATOM      8  C   UNL     1      23.586  64.407  15.554  1.00  0.00    -0.022 C 
ATOM      9  C   UNL     1      22.728  65.587  16.093  1.00  0.00     0.008 C 
ATOM     10  C   UNL     1      21.230  65.449  15.718  1.00  0.00     0.005 C 
ATOM     11  C   UNL     1      20.777  63.972  15.470  1.00  0.00    -0.005 C 
ATOM     12  C   UNL     1      25.094  64.729  15.669  1.00  0.00     0.012 C 
ENDROOT
BRANCH  11  13
ATOM     13  C   UNL     1      19.604  63.902  14.438  1.00  0.00    -0.014 C 
ATOM     14  C   UNL     1      19.355  62.471  13.928  1.00  0.00     0.007 C 
ATOM     15  C   UNL     1      18.295  64.442  15.046  1.00  0.00     0.007 C 
ENDBRANCH  11  13
TORSDOF 1
ENDMDL
MODEL 3
REMARK VINA RESULT:    -4.739      2.336      5.167
REMARK INTER + INTRA:          -5.119
REMARK INTER:                  -4.873
REMARK INTRA:                  -0.246
REMARK UNBOUND:                -0.103
REMARK SMILES CC1=CC[C@H]2[C@H]3[C@@H]1[C@]2(C)CC[C@H]3C(C)C
REMARK SMILES IDX 1 1 2 2 3 3 4 4 5 5 6 6 7 7 8 8 10 9 11 10 12 11 9 12 13 13
REMARK SMILES IDX 14 14 15 15
REMARK H PARENT
REMARK Flexibility Score: inf
ROOT
ATOM      1  C   UNL     1      25.092  61.238  17.216  1.00  0.00     0.039 C 
ATOM      2  C   UNL     1      24.301  62.506  17.093  1.00  0.00    -0.073 C 
ATOM      3  C   UNL     1      24.892  63.673  16.728  1.00  0.00    -0.027 C 
ATOM      4  C   UNL     1      24.036  64.942  16.643  1.00  0.00     0.031 C 
ATOM      5  C   UNL     1      22.545  64.618  16.985  1.00  0.00     0.003 C 
ATOM      6  C   UNL     1      22.156  63.342  16.197  1.00  0.00     0.004 C 
ATOM      7  C   UNL     1      22.791  62.542  17.358  1.00  0.00     0.024 C 
ATOM      8  C   UNL     1      22.435  63.741  18.262  1.00  0.00    -0.022 C 
ATOM      9  C   UNL     1      20.953  63.600  18.714  1.00  0.00     0.008 C 
ATOM     10  C   UNL     1      19.968  63.598  17.517  1.00  0.00     0.005 C 
ATOM     11  C   UNL     1      20.609  63.114  16.174  1.00  0.00    -0.005 C 
ATOM     12  C   UNL     1      23.350  64.053  19.470  1.00  0.00     0.012 C 
ENDROOT
BRANCH  11  13
ATOM     13  C   UNL     1      19.921  63.785  14.940  1.00  0.00    -0.014 C 
ATOM     14  C   UNL     1      19.476  62.755  13.885  1.00  0.00     0.007 C 
ATOM     15  C   UNL     1      18.694  64.611  15.369  1.00  0.00     0.007 C 
ENDBRANCH  11  13
TORSDOF 1
ENDMDL
MODEL 4
REMARK VINA RESULT:    -4.722      2.590      4.336
REMARK INTER + INTRA:          -5.101
REMARK INTER:                  -4.843
REMARK INTRA:                  -0.258
REMARK UNBOUND:                -0.103
REMARK SMILES CC1=CC[C@H]2[C@H]3[C@@H]1[C@]2(C)CC[C@H]3C(C)C
REMARK SMILES IDX 1 1 2 2 3 3 4 4 5 5 6 6 7 7 8 8 10 9 11 10 12 11 9 12 13 13
REMARK SMILES IDX 14 14 15 15
REMARK H PARENT
REMARK Flexibility Score: inf
ROOT
ATOM      1  C   UNL     1      21.119  66.054  12.889  1.00  0.00     0.039 C 
ATOM      2  C   UNL     1      20.639  64.911  13.733  1.00  0.00    -0.073 C 
ATOM      3  C   UNL     1      20.328  63.709  13.182  1.00  0.00    -0.027 C 
ATOM      4  C   UNL     1      19.819  62.586  14.093  1.00  0.00     0.031 C 
ATOM      5  C   UNL     1      19.786  63.064  15.582  1.00  0.00     0.003 C 
ATOM      6  C   UNL     1      21.133  63.774  15.871  1.00  0.00     0.004 C 
ATOM      7  C   UNL     1      20.493  65.039  15.254  1.00  0.00     0.024 C 
ATOM      8  C   UNL     1      19.134  64.467  15.711  1.00  0.00    -0.022 C 
ATOM      9  C   UNL     1      18.914  64.843  17.204  1.00  0.00     0.008 C 
ATOM     10  C   UNL     1      20.012  64.257  18.129  1.00  0.00     0.005 C 
ATOM     11  C   UNL     1      21.370  63.986  17.401  1.00  0.00    -0.005 C 
ATOM     12  C   UNL     1      17.876  64.792  14.872  1.00  0.00     0.012 C 
ENDROOT
BRANCH  11  13
ATOM     13  C   UNL     1      22.141  62.796  18.060  1.00  0.00    -0.014 C 
ATOM     14  C   UNL     1      23.375  62.372  17.243  1.00  0.00     0.007 C 
ATOM     15  C   UNL     1      22.595  63.151  19.489  1.00  0.00     0.007 C 
ENDBRANCH  11  13
TORSDOF 1
ENDMDL
MODEL 5
REMARK VINA RESULT:    -4.719      1.786      4.620
REMARK INTER + INTRA:          -5.097
REMARK INTER:                  -4.685
REMARK INTRA:                  -0.412
REMARK UNBOUND:                -0.103
REMARK SMILES CC1=CC[C@H]2[C@H]3[C@@H]1[C@]2(C)CC[C@H]3C(C)C
REMARK SMILES IDX 1 1 2 2 3 3 4 4 5 5 6 6 7 7 8 8 10 9 11 10 12 11 9 12 13 13
REMARK SMILES IDX 14 14 15 15
REMARK H PARENT
REMARK Flexibility Score: inf
ROOT
ATOM      1  C   UNL     1      23.876  66.106  18.614  1.00  0.00     0.039 C 
ATOM      2  C   UNL     1      23.047  64.939  18.168  1.00  0.00    -0.073 C 
ATOM      3  C   UNL     1      22.288  64.235  19.048  1.00  0.00    -0.027 C 
ATOM      4  C   UNL     1      21.481  63.037  18.537  1.00  0.00     0.031 C 
ATOM      5  C   UNL     1      21.675  62.866  16.994  1.00  0.00     0.003 C 
ATOM      6  C   UNL     1      21.516  64.265  16.349  1.00  0.00     0.004 C 
ATOM      7  C   UNL     1      23.004  64.496  16.700  1.00  0.00     0.024 C 
ATOM      8  C   UNL     1      23.173  62.965  16.599  1.00  0.00    -0.022 C 
ATOM      9  C   UNL     1      23.380  62.586  15.104  1.00  0.00     0.008 C 
ATOM     10  C   UNL     1      22.172  62.991  14.220  1.00  0.00     0.005 C 
ATOM     11  C   UNL     1      21.339  64.182  14.799  1.00  0.00    -0.005 C 
ATOM     12  C   UNL     1      24.234  62.278  17.491  1.00  0.00     0.012 C 
ENDROOT
BRANCH  11  13
ATOM     13  C   UNL     1      19.838  64.087  14.369  1.00  0.00    -0.014 C 
ATOM     14  C   UNL     1      19.434  62.659  13.959  1.00  0.00     0.007 C 
ATOM     15  C   UNL     1      18.905  64.557  15.501  1.00  0.00     0.007 C 
ENDBRANCH  11  13
TORSDOF 1
ENDMDL
MODEL 6
REMARK VINA RESULT:    -4.716      2.000      4.665
REMARK INTER + INTRA:          -5.094
REMARK INTER:                  -4.678
REMARK INTRA:                  -0.416
REMARK UNBOUND:                -0.103
REMARK SMILES CC1=CC[C@H]2[C@H]3[C@@H]1[C@]2(C)CC[C@H]3C(C)C
REMARK SMILES IDX 1 1 2 2 3 3 4 4 5 5 6 6 7 7 8 8 10 9 11 10 12 11 9 12 13 13
REMARK SMILES IDX 14 14 15 15
REMARK H PARENT
REMARK Flexibility Score: inf
ROOT
ATOM      1  C   UNL     1      19.131  62.740  13.887  1.00  0.00     0.039 C 
ATOM      2  C   UNL     1      20.120  63.555  14.665  1.00  0.00    -0.073 C 
ATOM      3  C   UNL     1      20.496  64.793  14.250  1.00  0.00    -0.027 C 
ATOM      4  C   UNL     1      21.529  65.569  15.074  1.00  0.00     0.031 C 
ATOM      5  C   UNL     1      21.954  64.744  16.333  1.00  0.00     0.003 C 
ATOM      6  C   UNL     1      20.660  64.200  16.988  1.00  0.00     0.004 C 
ATOM      7  C   UNL     1      20.741  63.040  15.969  1.00  0.00     0.024 C 
ATOM      8  C   UNL     1      22.267  63.270  15.962  1.00  0.00    -0.022 C 
ATOM      9  C   UNL     1      22.888  62.512  17.171  1.00  0.00     0.008 C 
ATOM     10  C   UNL     1      22.338  63.016  18.530  1.00  0.00     0.005 C 
ATOM     11  C   UNL     1      20.915  63.661  18.433  1.00  0.00    -0.005 C 
ATOM     12  C   UNL     1      23.054  62.970  14.665  1.00  0.00     0.012 C 
ENDROOT
BRANCH  11  13
ATOM     13  C   UNL     1      20.712  64.758  19.529  1.00  0.00    -0.014 C 
ATOM     14  C   UNL     1      22.047  65.319  20.052  1.00  0.00     0.007 C 
ATOM     15  C   UNL     1      19.863  65.927  18.994  1.00  0.00     0.007 C 
ENDBRANCH  11  13
TORSDOF 1
ENDMDL
MODEL 7
REMARK VINA RESULT:    -4.482      1.368      1.677
REMARK INTER + INTRA:          -4.847
REMARK INTER:                  -4.568
REMARK INTRA:                  -0.278
REMARK UNBOUND:                -0.103
REMARK SMILES CC1=CC[C@H]2[C@H]3[C@@H]1[C@]2(C)CC[C@H]3C(C)C
REMARK SMILES IDX 1 1 2 2 3 3 4 4 5 5 6 6 7 7 8 8 10 9 11 10 12 11 9 12 13 13
REMARK SMILES IDX 14 14 15 15
REMARK H PARENT
REMARK Flexibility Score: inf
ROOT
ATOM      1  C   UNL     1      18.943  62.665  13.770  1.00  0.00     0.039 C 
ATOM      2  C   UNL     1      20.089  63.454  14.331  1.00  0.00    -0.073 C 
ATOM      3  C   UNL     1      19.878  64.546  15.111  1.00  0.00    -0.027 C 
ATOM      4  C   UNL     1      21.088  65.327  15.635  1.00  0.00     0.031 C 
ATOM      5  C   UNL     1      22.418  64.651  15.167  1.00  0.00     0.003 C 
ATOM      6  C   UNL     1      22.280  63.129  15.424  1.00  0.00     0.004 C 
ATOM      7  C   UNL     1      21.546  63.058  14.066  1.00  0.00     0.024 C 
ATOM      8  C   UNL     1      22.370  64.297  13.656  1.00  0.00    -0.022 C 
ATOM      9  C   UNL     1      23.763  63.822  13.152  1.00  0.00     0.008 C 
ATOM     10  C   UNL     1      24.559  63.062  14.244  1.00  0.00     0.005 C 
ATOM     11  C   UNL     1      23.654  62.390  15.329  1.00  0.00    -0.005 C 
ATOM     12  C   UNL     1      21.744  65.307  12.666  1.00  0.00     0.012 C 
ENDROOT
BRANCH  11  13
ATOM     13  C   UNL     1      24.388  62.305  16.708  1.00  0.00    -0.014 C 
ATOM     14  C   UNL     1      23.439  62.556  17.894  1.00  0.00     0.007 C 
ATOM     15  C   UNL     1      25.060  60.931  16.897  1.00  0.00     0.007 C 
ENDBRANCH  11  13
TORSDOF 1
ENDMDL
MODEL 8
REMARK VINA RESULT:    -4.336      1.747      4.957
REMARK INTER + INTRA:          -4.692
REMARK INTER:                  -4.267
REMARK INTRA:                  -0.425
REMARK UNBOUND:                -0.103
REMARK SMILES CC1=CC[C@H]2[C@H]3[C@@H]1[C@]2(C)CC[C@H]3C(C)C
REMARK SMILES IDX 1 1 2 2 3 3 4 4 5 5 6 6 7 7 8 8 10 9 11 10 12 11 9 12 13 13
REMARK SMILES IDX 14 14 15 15
REMARK H PARENT
REMARK Flexibility Score: inf
ROOT
ATOM      1  C   UNL     1      23.998  61.991  13.602  1.00  0.00     0.039 C 
ATOM      2  C   UNL     1      23.566  63.049  14.573  1.00  0.00    -0.073 C 
ATOM      3  C   UNL     1      24.054  64.315  14.499  1.00  0.00    -0.027 C 
ATOM      4  C   UNL     1      23.594  65.348  15.534  1.00  0.00     0.031 C 
ATOM      5  C   UNL     1      22.560  64.710  16.519  1.00  0.00     0.003 C 
ATOM      6  C   UNL     1      21.531  63.925  15.667  1.00  0.00     0.004 C 
ATOM      7  C   UNL     1      22.547  62.759  15.680  1.00  0.00     0.024 C 
ATOM      8  C   UNL     1      23.044  63.325  17.027  1.00  0.00    -0.022 C 
ATOM      9  C   UNL     1      22.120  62.794  18.161  1.00  0.00     0.008 C 
ATOM     10  C   UNL     1      20.645  63.236  17.975  1.00  0.00     0.005 C 
ATOM     11  C   UNL     1      20.260  63.537  16.489  1.00  0.00    -0.005 C 
ATOM     12  C   UNL     1      24.533  63.140  17.402  1.00  0.00     0.012 C 
ENDROOT
BRANCH  11  13
ATOM     13  C   UNL     1      19.134  64.619  16.402  1.00  0.00    -0.014 C 
ATOM     14  C   UNL     1      19.153  65.584  17.602  1.00  0.00     0.007 C 
ATOM     15  C   UNL     1      19.255  65.444  15.106  1.00  0.00     0.007 C 
ENDBRANCH  11  13
TORSDOF 1
ENDMDL
MODEL 9
REMARK VINA RESULT:    -4.334      1.495      2.090
REMARK INTER + INTRA:          -4.690
REMARK INTER:                  -4.399
REMARK INTRA:                  -0.291
REMARK UNBOUND:                -0.103
REMARK SMILES CC1=CC[C@H]2[C@H]3[C@@H]1[C@]2(C)CC[C@H]3C(C)C
REMARK SMILES IDX 1 1 2 2 3 3 4 4 5 5 6 6 7 7 8 8 10 9 11 10 12 11 9 12 13 13
REMARK SMILES IDX 14 14 15 15
REMARK H PARENT
REMARK Flexibility Score: inf
ROOT
ATOM      1  C   UNL     1      20.250  63.127  17.998  1.00  0.00     0.039 C 
ATOM      2  C   UNL     1      21.639  63.421  17.517  1.00  0.00    -0.073 C 
ATOM      3  C   UNL     1      22.651  63.668  18.389  1.00  0.00    -0.027 C 
ATOM      4  C   UNL     1      24.045  63.986  17.838  1.00  0.00     0.031 C 
ATOM      5  C   UNL     1      24.039  63.928  16.275  1.00  0.00     0.003 C 
ATOM      6  C   UNL     1      23.296  62.632  15.862  1.00  0.00     0.004 C 
ATOM      7  C   UNL     1      21.988  63.440  16.024  1.00  0.00     0.024 C 
ATOM      8  C   UNL     1      22.824  64.693  15.686  1.00  0.00    -0.022 C 
ATOM      9  C   UNL     1      22.937  64.811  14.139  1.00  0.00     0.008 C 
ATOM     10  C   UNL     1      23.641  63.584  13.503  1.00  0.00     0.005 C 
ATOM     11  C   UNL     1      23.524  62.278  14.357  1.00  0.00    -0.005 C 
ATOM     12  C   UNL     1      22.411  66.047  16.310  1.00  0.00     0.012 C 
ENDROOT
BRANCH  11  13
ATOM     13  C   UNL     1      24.759  61.344  14.139  1.00  0.00    -0.014 C 
ATOM     14  C   UNL     1      25.125  60.550  15.407  1.00  0.00     0.007 C 
ATOM     15  C   UNL     1      24.506  60.348  12.991  1.00  0.00     0.007 C 
ENDBRANCH  11  13
TORSDOF 1
ENDMDL
