MODEL 1
REMARK VINA RESULT:    -4.311      0.000      0.000
REMARK INTER + INTRA:          -6.897
REMARK INTER:                  -6.076
REMARK INTRA:                  -0.821
REMARK UNBOUND:                -0.821
REMARK SMILES CCCCCCCCC(=O)[O-]
REMARK SMILES IDX 6 1 7 2 8 3 9 4 10 5 11 6 5 7 4 8 3 9 2 10 1 11
REMARK H PARENT
REMARK Flexibility Score: inf
ROOT
ATOM      1  C   UNL     1     -21.107  -5.011  16.773  1.00  0.00     0.000 C 
ENDROOT
BRANCH   1   2
ATOM      2  C   UNL     1     -20.959  -5.520  15.330  1.00  0.00     0.006 C 
BRANCH   2   3
ATOM      3  C   UNL     1     -19.532  -5.985  15.011  1.00  0.00     0.053 C 
BRANCH   3   4
ATOM      4  C   UNL     1     -19.486  -7.477  14.887  1.00  0.00     0.041 C 
ATOM      5  O   UNL     1     -18.917  -8.168  15.771  1.00  0.00    -0.550 OA
ATOM      6  O   UNL     1     -20.029  -8.098  13.769  1.00  0.00    -0.550 OA
ENDBRANCH   3   4
ENDBRANCH   2   3
ENDBRANCH   1   2
BRANCH   1   7
ATOM      7  C   UNL     1     -22.189  -5.766  17.560  1.00  0.00     0.000 C 
BRANCH   7   8
ATOM      8  C   UNL     1     -21.762  -7.218  17.824  1.00  0.00    -0.000 C 
BRANCH   8   9
ATOM      9  C   UNL     1     -22.867  -8.232  17.487  1.00  0.00    -0.000 C 
BRANCH   9  10
ATOM     10  C   UNL     1     -22.603  -8.982  16.175  1.00  0.00    -0.003 C 
ATOM     11  C   UNL     1     -23.293  -8.294  15.000  1.00  0.00     0.004 C 
ENDBRANCH   9  10
ENDBRANCH   8   9
ENDBRANCH   7   8
ENDBRANCH   1   7
TORSDOF 7
ENDMDL
MODEL 2
REMARK VINA RESULT:    -4.169      1.268      2.660
REMARK INTER + INTRA:          -6.696
REMARK INTER:                  -6.122
REMARK INTRA:                  -0.574
REMARK UNBOUND:                -0.821
REMARK SMILES CCCCCCCCC(=O)[O-]
REMARK SMILES IDX 6 1 7 2 8 3 9 4 10 5 11 6 5 7 4 8 3 9 2 10 1 11
REMARK H PARENT
REMARK Flexibility Score: inf
ROOT
ATOM      1  C   UNL     1     -22.641  -8.339  14.841  1.00  0.00     0.000 C 
ENDROOT
BRANCH   1   2
ATOM      2  C   UNL     1     -21.539  -7.319  14.511  1.00  0.00     0.006 C 
BRANCH   2   3
ATOM      3  C   UNL     1     -20.227  -7.985  14.079  1.00  0.00     0.053 C 
BRANCH   3   4
ATOM      4  C   UNL     1     -19.118  -7.606  15.010  1.00  0.00     0.041 C 
ATOM      5  O   UNL     1     -18.810  -8.360  15.969  1.00  0.00    -0.550 OA
ATOM      6  O   UNL     1     -18.457  -6.395  14.845  1.00  0.00    -0.550 OA
ENDBRANCH   3   4
ENDBRANCH   2   3
ENDBRANCH   1   2
BRANCH   1   7
ATOM      7  C   UNL     1     -22.355  -9.124  16.131  1.00  0.00     0.000 C 
BRANCH   7   8
ATOM      8  C   UNL     1     -23.540  -9.030  17.103  1.00  0.00    -0.000 C 
BRANCH   8   9
ATOM      9  C   UNL     1     -23.584  -7.693  17.859  1.00  0.00    -0.000 C 
BRANCH   9  10
ATOM     10  C   UNL     1     -22.185  -7.158  18.198  1.00  0.00    -0.003 C 
ATOM     11  C   UNL     1     -22.004  -5.731  17.689  1.00  0.00     0.004 C 
ENDBRANCH   9  10
ENDBRANCH   8   9
ENDBRANCH   7   8
ENDBRANCH   1   7
TORSDOF 7
ENDMDL
MODEL 3
REMARK VINA RESULT:    -4.109      2.318      4.624
REMARK INTER + INTRA:          -6.612
REMARK INTER:                  -6.151
REMARK INTRA:                  -0.461
REMARK UNBOUND:                -0.821
REMARK SMILES CCCCCCCCC(=O)[O-]
REMARK SMILES IDX 6 1 7 2 8 3 9 4 10 5 11 6 5 7 4 8 3 9 2 10 1 11
REMARK H PARENT
REMARK Flexibility Score: inf
ROOT
ATOM      1  C   UNL     1     -21.606  -6.813  14.981  1.00  0.00     0.000 C 
ENDROOT
BRANCH   1   2
ATOM      2  C   UNL     1     -21.070  -5.743  15.946  1.00  0.00     0.006 C 
BRANCH   2   3
ATOM      3  C   UNL     1     -21.922  -5.614  17.215  1.00  0.00     0.053 C 
BRANCH   3   4
ATOM      4  C   UNL     1     -22.123  -6.956  17.847  1.00  0.00     0.041 C 
ATOM      5  O   UNL     1     -21.132  -7.688  18.108  1.00  0.00    -0.550 OA
ATOM      6  O   UNL     1     -23.408  -7.418  18.103  1.00  0.00    -0.550 OA
ENDBRANCH   3   4
ENDBRANCH   2   3
ENDBRANCH   1   2
BRANCH   1   7
ATOM      7  C   UNL     1     -20.500  -7.738  14.449  1.00  0.00     0.000 C 
BRANCH   7   8
ATOM      8  C   UNL     1     -19.171  -7.477  15.172  1.00  0.00    -0.000 C 
BRANCH   8   9
ATOM      9  C   UNL     1     -18.064  -6.992  14.223  1.00  0.00    -0.000 C 
BRANCH   9  10
ATOM     10  C   UNL     1     -17.596  -5.564  14.538  1.00  0.00    -0.003 C 
ATOM     11  C   UNL     1     -16.869  -4.948  13.346  1.00  0.00     0.004 C 
ENDBRANCH   9  10
ENDBRANCH   8   9
ENDBRANCH   7   8
ENDBRANCH   1   7
TORSDOF 7
ENDMDL
MODEL 4
REMARK VINA RESULT:    -4.100      2.331      4.851
REMARK INTER + INTRA:          -6.599
REMARK INTER:                  -6.217
REMARK INTRA:                  -0.383
REMARK UNBOUND:                -0.821
REMARK SMILES CCCCCCCCC(=O)[O-]
REMARK SMILES IDX 6 1 7 2 8 3 9 4 10 5 11 6 5 7 4 8 3 9 2 10 1 11
REMARK H PARENT
REMARK Flexibility Score: inf
ROOT
ATOM      1  C   UNL     1     -20.253  -8.755  16.956  1.00  0.00     0.000 C 
ENDROOT
BRANCH   1   2
ATOM      2  C   UNL     1     -21.248  -7.583  16.978  1.00  0.00     0.006 C 
BRANCH   2   3
ATOM      3  C   UNL     1     -22.704  -8.048  17.103  1.00  0.00     0.053 C 
BRANCH   3   4
ATOM      4  C   UNL     1     -23.015  -9.074  16.057  1.00  0.00     0.041 C 
ATOM      5  O   UNL     1     -23.073  -8.743  14.844  1.00  0.00    -0.550 OA
ATOM      6  O   UNL     1     -23.290 -10.384  16.429  1.00  0.00    -0.550 OA
ENDBRANCH   3   4
ENDBRANCH   2   3
ENDBRANCH   1   2
BRANCH   1   7
ATOM      7  C   UNL     1     -18.973  -8.431  16.169  1.00  0.00     0.000 C 
BRANCH   7   8
ATOM      8  C   UNL     1     -19.306  -7.729  14.845  1.00  0.00    -0.000 C 
BRANCH   8   9
ATOM      9  C   UNL     1     -18.063  -7.150  14.151  1.00  0.00    -0.000 C 
BRANCH   9  10
ATOM     10  C   UNL     1     -17.809  -5.682  14.519  1.00  0.00    -0.003 C 
ATOM     11  C   UNL     1     -16.894  -5.010  13.499  1.00  0.00     0.004 C 
ENDBRANCH   9  10
ENDBRANCH   8   9
ENDBRANCH   7   8
ENDBRANCH   1   7
TORSDOF 7
ENDMDL
MODEL 5
REMARK VINA RESULT:    -4.093      1.822      3.650
REMARK INTER + INTRA:          -6.590
REMARK INTER:                  -5.730
REMARK INTRA:                  -0.860
REMARK UNBOUND:                -0.821
REMARK SMILES CCCCCCCCC(=O)[O-]
REMARK SMILES IDX 6 1 7 2 8 3 9 4 10 5 11 6 5 7 4 8 3 9 2 10 1 11
REMARK H PARENT
REMARK Flexibility Score: inf
ROOT
ATOM      1  C   UNL     1     -21.827  -5.861  17.519  1.00  0.00     0.000 C 
ENDROOT
BRANCH   1   2
ATOM      2  C   UNL     1     -22.873  -6.803  16.901  1.00  0.00     0.006 C 
BRANCH   2   3
ATOM      3  C   UNL     1     -22.694  -8.259  17.349  1.00  0.00     0.053 C 
BRANCH   3   4
ATOM      4  C   UNL     1     -22.933  -9.191  16.202  1.00  0.00     0.041 C 
ATOM      5  O   UNL     1     -23.105 -10.420  16.410  1.00  0.00    -0.550 OA
ATOM      6  O   UNL     1     -22.918  -8.707  14.900  1.00  0.00    -0.550 OA
ENDBRANCH   3   4
ENDBRANCH   2   3
ENDBRANCH   1   2
BRANCH   1   7
ATOM      7  C   UNL     1     -21.256  -4.861  16.501  1.00  0.00     0.000 C 
BRANCH   7   8
ATOM      8  C   UNL     1     -21.020  -5.535  15.142  1.00  0.00    -0.000 C 
BRANCH   8   9
ATOM      9  C   UNL     1     -19.583  -6.056  14.981  1.00  0.00    -0.000 C 
BRANCH   9  10
ATOM     10  C   UNL     1     -19.524  -7.576  14.771  1.00  0.00    -0.003 C 
ATOM     11  C   UNL     1     -19.163  -8.297  16.067  1.00  0.00     0.004 C 
ENDBRANCH   9  10
ENDBRANCH   8   9
ENDBRANCH   7   8
ENDBRANCH   1   7
TORSDOF 7
ENDMDL
MODEL 6
REMARK VINA RESULT:    -4.073      1.329      1.618
REMARK INTER + INTRA:          -6.562
REMARK INTER:                  -5.963
REMARK INTRA:                  -0.599
REMARK UNBOUND:                -0.821
REMARK SMILES CCCCCCCCC(=O)[O-]
REMARK SMILES IDX 6 1 7 2 8 3 9 4 10 5 11 6 5 7 4 8 3 9 2 10 1 11
REMARK H PARENT
REMARK Flexibility Score: inf
ROOT
ATOM      1  C   UNL     1     -21.175  -6.005  15.530  1.00  0.00     0.000 C 
ENDROOT
BRANCH   1   2
ATOM      2  C   UNL     1     -21.374  -7.372  14.856  1.00  0.00     0.006 C 
BRANCH   2   3
ATOM      3  C   UNL     1     -20.119  -7.853  14.116  1.00  0.00     0.053 C 
BRANCH   3   4
ATOM      4  C   UNL     1     -18.910  -7.699  14.986  1.00  0.00     0.041 C 
ATOM      5  O   UNL     1     -18.793  -8.385  16.034  1.00  0.00    -0.550 OA
ATOM      6  O   UNL     1     -17.936  -6.763  14.662  1.00  0.00    -0.550 OA
ENDBRANCH   3   4
ENDBRANCH   2   3
ENDBRANCH   1   2
BRANCH   1   7
ATOM      7  C   UNL     1     -21.760  -5.953  16.950  1.00  0.00     0.000 C 
BRANCH   7   8
ATOM      8  C   UNL     1     -21.934  -7.367  17.523  1.00  0.00    -0.000 C 
BRANCH   8   9
ATOM      9  C   UNL     1     -23.344  -7.611  18.083  1.00  0.00    -0.000 C 
BRANCH   9  10
ATOM     10  C   UNL     1     -24.161  -8.589  17.227  1.00  0.00    -0.003 C 
ATOM     11  C   UNL     1     -23.284  -9.720  16.697  1.00  0.00     0.004 C 
ENDBRANCH   9  10
ENDBRANCH   8   9
ENDBRANCH   7   8
ENDBRANCH   1   7
TORSDOF 7
ENDMDL
MODEL 7
REMARK VINA RESULT:    -3.981      2.206      3.481
REMARK INTER + INTRA:          -6.432
REMARK INTER:                  -5.813
REMARK INTRA:                  -0.619
REMARK UNBOUND:                -0.821
REMARK SMILES CCCCCCCCC(=O)[O-]
REMARK SMILES IDX 6 1 7 2 8 3 9 4 10 5 11 6 5 7 4 8 3 9 2 10 1 11
REMARK H PARENT
REMARK Flexibility Score: inf
ROOT
ATOM      1  C   UNL     1     -19.786  -7.728  14.962  1.00  0.00     0.000 C 
ENDROOT
BRANCH   1   2
ATOM      2  C   UNL     1     -18.708  -8.199  15.952  1.00  0.00     0.006 C 
BRANCH   2   3
ATOM      3  C   UNL     1     -19.296  -8.961  17.146  1.00  0.00     0.053 C 
BRANCH   3   4
ATOM      4  C   UNL     1     -18.202  -9.587  17.955  1.00  0.00     0.041 C 
ATOM      5  O   UNL     1     -17.161  -8.933  18.223  1.00  0.00    -0.550 OA
ATOM      6  O   UNL     1     -18.314 -10.908  18.370  1.00  0.00    -0.550 OA
ENDBRANCH   3   4
ENDBRANCH   2   3
ENDBRANCH   1   2
BRANCH   1   7
ATOM      7  C   UNL     1     -20.268  -6.297  15.247  1.00  0.00     0.000 C 
BRANCH   7   8
ATOM      8  C   UNL     1     -21.693  -6.302  15.818  1.00  0.00    -0.000 C 
BRANCH   8   9
ATOM      9  C   UNL     1     -21.753  -5.801  17.270  1.00  0.00    -0.000 C 
BRANCH   9  10
ATOM     10  C   UNL     1     -22.120  -6.910  18.265  1.00  0.00    -0.003 C 
ATOM     11  C   UNL     1     -23.141  -7.872  17.664  1.00  0.00     0.004 C 
ENDBRANCH   9  10
ENDBRANCH   8   9
ENDBRANCH   7   8
ENDBRANCH   1   7
TORSDOF 7
ENDMDL
MODEL 8
REMARK VINA RESULT:    -3.946      3.039      4.594
REMARK INTER + INTRA:          -6.382
REMARK INTER:                  -5.637
REMARK INTRA:                  -0.745
REMARK UNBOUND:                -0.821
REMARK SMILES CCCCCCCCC(=O)[O-]
REMARK SMILES IDX 6 1 7 2 8 3 9 4 10 5 11 6 5 7 4 8 3 9 2 10 1 11
REMARK H PARENT
REMARK Flexibility Score: inf
ROOT
ATOM      1  C   UNL     1     -21.815  -6.008  17.081  1.00  0.00     0.000 C 
ENDROOT
BRANCH   1   2
ATOM      2  C   UNL     1     -22.099  -7.147  18.074  1.00  0.00     0.006 C 
BRANCH   2   3
ATOM      3  C   UNL     1     -22.972  -8.253  17.468  1.00  0.00     0.053 C 
BRANCH   3   4
ATOM      4  C   UNL     1     -24.359  -8.189  18.029  1.00  0.00     0.041 C 
ATOM      5  O   UNL     1     -25.216  -9.050  17.699  1.00  0.00    -0.550 OA
ATOM      6  O   UNL     1     -24.717  -7.149  18.878  1.00  0.00    -0.550 OA
ENDBRANCH   3   4
ENDBRANCH   2   3
ENDBRANCH   1   2
BRANCH   1   7
ATOM      7  C   UNL     1     -21.998  -6.439  15.617  1.00  0.00     0.000 C 
BRANCH   7   8
ATOM      8  C   UNL     1     -20.652  -6.457  14.878  1.00  0.00    -0.000 C 
BRANCH   8   9
ATOM      9  C   UNL     1     -20.050  -7.868  14.775  1.00  0.00    -0.000 C 
BRANCH   9  10
ATOM     10  C   UNL     1     -18.743  -8.014  15.566  1.00  0.00    -0.003 C 
ATOM     11  C   UNL     1     -18.961  -8.814  16.847  1.00  0.00     0.004 C 
ENDBRANCH   9  10
ENDBRANCH   8   9
ENDBRANCH   7   8
ENDBRANCH   1   7
TORSDOF 7
ENDMDL
MODEL 9
REMARK VINA RESULT:    -3.860      2.150      3.145
REMARK INTER + INTRA:          -6.260
REMARK INTER:                  -5.718
REMARK INTRA:                  -0.543
REMARK UNBOUND:                -0.821
REMARK SMILES CCCCCCCCC(=O)[O-]
REMARK SMILES IDX 6 1 7 2 8 3 9 4 10 5 11 6 5 7 4 8 3 9 2 10 1 11
REMARK H PARENT
REMARK Flexibility Score: inf
ROOT
ATOM      1  C   UNL     1     -22.658  -7.521  14.900  1.00  0.00     0.000 C 
ENDROOT
BRANCH   1   2
ATOM      2  C   UNL     1     -21.200  -7.326  14.454  1.00  0.00     0.006 C 
BRANCH   2   3
ATOM      3  C   UNL     1     -20.373  -6.532  15.472  1.00  0.00     0.053 C 
BRANCH   3   4
ATOM      4  C   UNL     1     -20.906  -5.139  15.604  1.00  0.00     0.041 C 
ATOM      5  O   UNL     1     -21.273  -4.705  16.727  1.00  0.00    -0.550 OA
ATOM      6  O   UNL     1     -21.043  -4.339  14.477  1.00  0.00    -0.550 OA
ENDBRANCH   3   4
ENDBRANCH   2   3
ENDBRANCH   1   2
BRANCH   1   7
ATOM      7  C   UNL     1     -23.035  -9.002  15.064  1.00  0.00     0.000 C 
BRANCH   7   8
ATOM      8  C   UNL     1     -22.861  -9.453  16.522  1.00  0.00    -0.000 C 
BRANCH   8   9
ATOM      9  C   UNL     1     -23.084  -8.312  17.527  1.00  0.00    -0.000 C 
BRANCH   9  10
ATOM     10  C   UNL     1     -24.534  -8.237  18.025  1.00  0.00    -0.003 C 
ATOM     11  C   UNL     1     -24.935  -6.798  18.338  1.00  0.00     0.004 C 
ENDBRANCH   9  10
ENDBRANCH   8   9
ENDBRANCH   7   8
ENDBRANCH   1   7
TORSDOF 7
ENDMDL
