MODEL 1
REMARK VINA RESULT:    -5.163      0.000      0.000
REMARK INTER + INTRA:          -7.854
REMARK INTER:                  -6.973
REMARK INTRA:                  -0.880
REMARK UNBOUND:                -0.880
REMARK SMILES CC(=O)CCC=C(C)CCC=C(C)C
REMARK SMILES IDX 7 1 6 2 8 3 9 4 10 5 11 6 13 7 12 8 14 9 5 10 4 11 2 12 3 13
REMARK SMILES IDX 1 14
REMARK H PARENT
REMARK Flexibility Score: inf
ROOT
ATOM      1  C   UNL     1      15.457 -32.355  23.231  1.00  0.00    -0.077 C 
ATOM      2  C   UNL     1      15.811 -32.940  22.064  1.00  0.00    -0.028 C 
ATOM      3  C   UNL     1      14.603 -33.066  24.254  1.00  0.00     0.039 C 
ENDROOT
BRANCH   1   4
ATOM      4  C   UNL     1      15.951 -30.956  23.527  1.00  0.00     0.034 C 
BRANCH   4   5
ATOM      5  C   UNL     1      15.284 -29.935  22.598  1.00  0.00     0.032 C 
BRANCH   5   6
ATOM      6  C   UNL     1      14.152 -29.229  23.302  1.00  0.00    -0.028 C 
ATOM      7  C   UNL     1      12.390 -30.657  22.241  1.00  0.00     0.039 C 
ATOM      8  C   UNL     1      12.845 -29.526  23.133  1.00  0.00    -0.080 C 
ATOM      9  C   UNL     1      11.821 -28.709  23.877  1.00  0.00     0.039 C 
ENDBRANCH   5   6
ENDBRANCH   4   5
ENDBRANCH   1   4
BRANCH   2  10
ATOM     10  C   UNL     1      15.352 -34.308  21.621  1.00  0.00     0.035 C 
BRANCH  10  11
ATOM     11  C   UNL     1      15.359 -34.408  20.088  1.00  0.00     0.079 C 
BRANCH  11  12
ATOM     12  C   UNL     1      16.595 -35.062  19.511  1.00  0.00     0.130 C 
ATOM     13  O   UNL     1      16.621 -36.281  19.428  1.00  0.00    -0.300 OA
ATOM     14  C   UNL     1      17.791 -34.281  19.039  1.00  0.00     0.087 C 
ENDBRANCH  11  12
ENDBRANCH  10  11
ENDBRANCH   2  10
TORSDOF 6
ENDMDL
MODEL 2
REMARK VINA RESULT:    -5.128      1.158      1.801
REMARK INTER + INTRA:          -7.807
REMARK INTER:                  -6.708
REMARK INTRA:                  -1.098
REMARK UNBOUND:                -0.880
REMARK SMILES CC(=O)CCC=C(C)CCC=C(C)C
REMARK SMILES IDX 7 1 6 2 8 3 9 4 10 5 11 6 13 7 12 8 14 9 5 10 4 11 2 12 3 13
REMARK SMILES IDX 1 14
REMARK H PARENT
REMARK Flexibility Score: inf
ROOT
ATOM      1  C   UNL     1      15.862 -32.794  22.130  1.00  0.00    -0.077 C 
ATOM      2  C   UNL     1      15.174 -33.833  21.605  1.00  0.00    -0.028 C 
ATOM      3  C   UNL     1      16.778 -31.935  21.287  1.00  0.00     0.039 C 
ENDROOT
BRANCH   1   4
ATOM      4  C   UNL     1      15.692 -32.469  23.597  1.00  0.00     0.034 C 
BRANCH   4   5
ATOM      5  C   UNL     1      14.206 -32.400  23.970  1.00  0.00     0.032 C 
BRANCH   5   6
ATOM      6  C   UNL     1      13.757 -30.967  24.120  1.00  0.00    -0.028 C 
ATOM      7  C   UNL     1      12.658 -30.910  21.871  1.00  0.00     0.039 C 
ATOM      8  C   UNL     1      13.083 -30.277  23.175  1.00  0.00    -0.080 C 
ATOM      9  C   UNL     1      12.733 -28.837  23.450  1.00  0.00     0.039 C 
ENDBRANCH   5   6
ENDBRANCH   4   5
ENDBRANCH   1   4
BRANCH   2  10
ATOM     10  C   UNL     1      15.286 -34.295  20.173  1.00  0.00     0.035 C 
BRANCH  10  11
ATOM     11  C   UNL     1      16.077 -35.610  20.092  1.00  0.00     0.079 C 
BRANCH  11  12
ATOM     12  C   UNL     1      17.578 -35.433  20.027  1.00  0.00     0.130 C 
ATOM     13  O   UNL     1      18.270 -36.064  20.812  1.00  0.00    -0.300 OA
ATOM     14  C   UNL     1      18.253 -34.514  19.046  1.00  0.00     0.087 C 
ENDBRANCH  11  12
ENDBRANCH  10  11
ENDBRANCH   2  10
TORSDOF 6
ENDMDL
MODEL 3
REMARK VINA RESULT:    -5.007      2.209      3.969
REMARK INTER + INTRA:          -7.644
REMARK INTER:                  -6.272
REMARK INTRA:                  -1.372
REMARK UNBOUND:                -0.880
REMARK SMILES CC(=O)CCC=C(C)CCC=C(C)C
REMARK SMILES IDX 7 1 6 2 8 3 9 4 10 5 11 6 13 7 12 8 14 9 5 10 4 11 2 12 3 13
REMARK SMILES IDX 1 14
REMARK H PARENT
REMARK Flexibility Score: inf
ROOT
ATOM      1  C   UNL     1      13.609 -30.458  23.065  1.00  0.00    -0.077 C 
ATOM      2  C   UNL     1      14.028 -31.177  24.132  1.00  0.00    -0.028 C 
ATOM      3  C   UNL     1      12.828 -31.088  21.935  1.00  0.00     0.039 C 
ENDROOT
BRANCH   1   4
ATOM      4  C   UNL     1      13.913 -28.977  23.016  1.00  0.00     0.034 C 
BRANCH   4   5
ATOM      5  C   UNL     1      15.427 -28.732  23.020  1.00  0.00     0.032 C 
BRANCH   5   6
ATOM      6  C   UNL     1      16.104 -29.546  21.946  1.00  0.00    -0.028 C 
ATOM      7  C   UNL     1      17.658 -30.670  23.557  1.00  0.00     0.039 C 
ATOM      8  C   UNL     1      17.125 -30.403  22.169  1.00  0.00    -0.080 C 
ATOM      9  C   UNL     1      17.730 -31.121  20.991  1.00  0.00     0.039 C 
ENDBRANCH   5   6
ENDBRANCH   4   5
ENDBRANCH   1   4
BRANCH   2  10
ATOM     10  C   UNL     1      13.835 -32.666  24.287  1.00  0.00     0.035 C 
BRANCH  10  11
ATOM     11  C   UNL     1      15.194 -33.381  24.346  1.00  0.00     0.079 C 
BRANCH  11  12
ATOM     12  C   UNL     1      15.687 -33.896  23.013  1.00  0.00     0.130 C 
ATOM     13  O   UNL     1      14.927 -33.851  22.057  1.00  0.00    -0.300 OA
ATOM     14  C   UNL     1      17.067 -34.462  22.812  1.00  0.00     0.087 C 
ENDBRANCH  11  12
ENDBRANCH  10  11
ENDBRANCH   2  10
TORSDOF 6
ENDMDL
MODEL 4
REMARK VINA RESULT:    -4.995      1.404      1.857
REMARK INTER + INTRA:          -7.627
REMARK INTER:                  -7.035
REMARK INTRA:                  -0.593
REMARK UNBOUND:                -0.880
REMARK SMILES CC(=O)CCC=C(C)CCC=C(C)C
REMARK SMILES IDX 7 1 6 2 8 3 9 4 10 5 11 6 13 7 12 8 14 9 5 10 4 11 2 12 3 13
REMARK SMILES IDX 1 14
REMARK H PARENT
REMARK Flexibility Score: inf
ROOT
ATOM      1  C   UNL     1      14.817 -31.999  21.507  1.00  0.00    -0.077 C 
ATOM      2  C   UNL     1      14.577 -33.325  21.389  1.00  0.00    -0.028 C 
ATOM      3  C   UNL     1      16.221 -31.443  21.571  1.00  0.00     0.039 C 
ENDROOT
BRANCH   1   4
ATOM      4  C   UNL     1      13.644 -31.044  21.553  1.00  0.00     0.034 C 
BRANCH   4   5
ATOM      5  C   UNL     1      13.019 -31.017  22.954  1.00  0.00     0.032 C 
BRANCH   5   6
ATOM      6  C   UNL     1      13.437 -29.775  23.702  1.00  0.00    -0.028 C 
ATOM      7  C   UNL     1      11.302 -28.565  23.203  1.00  0.00     0.039 C 
ATOM      8  C   UNL     1      12.685 -28.657  23.802  1.00  0.00    -0.080 C 
ATOM      9  C   UNL     1      13.250 -27.477  24.551  1.00  0.00     0.039 C 
ENDBRANCH   5   6
ENDBRANCH   4   5
ENDBRANCH   1   4
BRANCH   2  10
ATOM     10  C   UNL     1      15.648 -34.388  21.378  1.00  0.00     0.035 C 
BRANCH  10  11
ATOM     11  C   UNL     1      15.620 -35.167  20.054  1.00  0.00     0.079 C 
BRANCH  11  12
ATOM     12  C   UNL     1      16.985 -35.521  19.508  1.00  0.00     0.130 C 
ATOM     13  O   UNL     1      17.289 -36.702  19.430  1.00  0.00    -0.300 OA
ATOM     14  C   UNL     1      17.983 -34.487  19.063  1.00  0.00     0.087 C 
ENDBRANCH  11  12
ENDBRANCH  10  11
ENDBRANCH   2  10
TORSDOF 6
ENDMDL
MODEL 5
REMARK VINA RESULT:    -4.949      2.912      5.878
REMARK INTER + INTRA:          -7.565
REMARK INTER:                  -6.414
REMARK INTRA:                  -1.151
REMARK UNBOUND:                -0.880
REMARK SMILES CC(=O)CCC=C(C)CCC=C(C)C
REMARK SMILES IDX 7 1 6 2 8 3 9 4 10 5 11 6 13 7 12 8 14 9 5 10 4 11 2 12 3 13
REMARK SMILES IDX 1 14
REMARK H PARENT
REMARK Flexibility Score: inf
ROOT
ATOM      1  C   UNL     1      15.018 -33.765  21.215  1.00  0.00    -0.077 C 
ATOM      2  C   UNL     1      14.208 -32.884  20.584  1.00  0.00    -0.028 C 
ATOM      3  C   UNL     1      15.191 -33.757  22.716  1.00  0.00     0.039 C 
ENDROOT
BRANCH   1   4
ATOM      4  C   UNL     1      15.753 -34.801  20.394  1.00  0.00     0.034 C 
BRANCH   4   5
ATOM      5  C   UNL     1      16.886 -34.154  19.589  1.00  0.00     0.032 C 
BRANCH   5   6
ATOM      6  C   UNL     1      18.131 -34.019  20.430  1.00  0.00    -0.028 C 
ATOM      7  C   UNL     1      17.835 -31.554  20.757  1.00  0.00     0.039 C 
ATOM      8  C   UNL     1      18.584 -32.853  20.941  1.00  0.00    -0.080 C 
ATOM      9  C   UNL     1      19.866 -32.866  21.732  1.00  0.00     0.039 C 
ENDBRANCH   5   6
ENDBRANCH   4   5
ENDBRANCH   1   4
BRANCH   2  10
ATOM     10  C   UNL     1      13.454 -31.773  21.272  1.00  0.00     0.035 C 
BRANCH  10  11
ATOM     11  C   UNL     1      14.345 -30.530  21.419  1.00  0.00     0.079 C 
BRANCH  11  12
ATOM     12  C   UNL     1      14.241 -29.842  22.763  1.00  0.00     0.130 C 
ATOM     13  O   UNL     1      14.683 -28.708  22.869  1.00  0.00    -0.300 OA
ATOM     14  C   UNL     1      13.624 -30.493  23.970  1.00  0.00     0.087 C 
ENDBRANCH  11  12
ENDBRANCH  10  11
ENDBRANCH   2  10
TORSDOF 6
ENDMDL
MODEL 6
REMARK VINA RESULT:    -4.929      1.658      2.380
REMARK INTER + INTRA:          -7.538
REMARK INTER:                  -6.864
REMARK INTRA:                  -0.674
REMARK UNBOUND:                -0.880
REMARK SMILES CC(=O)CCC=C(C)CCC=C(C)C
REMARK SMILES IDX 7 1 6 2 8 3 9 4 10 5 11 6 13 7 12 8 14 9 5 10 4 11 2 12 3 13
REMARK SMILES IDX 1 14
REMARK H PARENT
REMARK Flexibility Score: inf
ROOT
ATOM      1  C   UNL     1      14.606 -33.270  21.080  1.00  0.00    -0.077 C 
ATOM      2  C   UNL     1      14.927 -34.015  19.998  1.00  0.00    -0.028 C 
ATOM      3  C   UNL     1      15.117 -33.605  22.462  1.00  0.00     0.039 C 
ENDROOT
BRANCH   1   4
ATOM      4  C   UNL     1      13.727 -32.052  20.895  1.00  0.00     0.034 C 
BRANCH   4   5
ATOM      5  C   UNL     1      14.322 -30.838  21.619  1.00  0.00     0.032 C 
BRANCH   5   6
ATOM      6  C   UNL     1      13.313 -30.232  22.564  1.00  0.00    -0.028 C 
ATOM      7  C   UNL     1      14.806 -28.318  23.183  1.00  0.00     0.039 C 
ATOM      8  C   UNL     1      13.526 -29.113  23.291  1.00  0.00    -0.080 C 
ATOM      9  C   UNL     1      12.438 -28.646  24.224  1.00  0.00     0.039 C 
ENDBRANCH   5   6
ENDBRANCH   4   5
ENDBRANCH   1   4
BRANCH   2  10
ATOM     10  C   UNL     1      15.752 -35.277  20.046  1.00  0.00     0.035 C 
BRANCH  10  11
ATOM     11  C   UNL     1      17.131 -35.043  19.408  1.00  0.00     0.079 C 
BRANCH  11  12
ATOM     12  C   UNL     1      18.138 -34.382  20.323  1.00  0.00     0.130 C 
ATOM     13  O   UNL     1      18.391 -33.200  20.148  1.00  0.00    -0.300 OA
ATOM     14  C   UNL     1      18.842 -35.115  21.432  1.00  0.00     0.087 C 
ENDBRANCH  11  12
ENDBRANCH  10  11
ENDBRANCH   2  10
TORSDOF 6
ENDMDL
MODEL 7
REMARK VINA RESULT:    -4.913      1.427      2.068
REMARK INTER + INTRA:          -7.516
REMARK INTER:                  -6.518
REMARK INTRA:                  -0.998
REMARK UNBOUND:                -0.880
REMARK SMILES CC(=O)CCC=C(C)CCC=C(C)C
REMARK SMILES IDX 7 1 6 2 8 3 9 4 10 5 11 6 13 7 12 8 14 9 5 10 4 11 2 12 3 13
REMARK SMILES IDX 1 14
REMARK H PARENT
REMARK Flexibility Score: inf
ROOT
ATOM      1  C   UNL     1      17.185 -31.579  21.792  1.00  0.00    -0.077 C 
ATOM      2  C   UNL     1      17.878 -31.897  20.675  1.00  0.00    -0.028 C 
ATOM      3  C   UNL     1      16.966 -32.575  22.907  1.00  0.00     0.039 C 
ENDROOT
BRANCH   1   4
ATOM      4  C   UNL     1      16.632 -30.178  21.937  1.00  0.00     0.034 C 
BRANCH   4   5
ATOM      5  C   UNL     1      15.172 -30.118  21.472  1.00  0.00     0.032 C 
BRANCH   5   6
ATOM      6  C   UNL     1      14.330 -29.339  22.452  1.00  0.00    -0.028 C 
ATOM      7  C   UNL     1      13.575 -31.389  23.676  1.00  0.00     0.039 C 
ATOM      8  C   UNL     1      13.588 -29.898  23.432  1.00  0.00    -0.080 C 
ATOM      9  C   UNL     1      12.765 -28.994  24.313  1.00  0.00     0.039 C 
ENDBRANCH   5   6
ENDBRANCH   4   5
ENDBRANCH   1   4
BRANCH   2  10
ATOM     10  C   UNL     1      18.441 -33.266  20.381  1.00  0.00     0.035 C 
BRANCH  10  11
ATOM     11  C   UNL     1      17.586 -33.985  19.326  1.00  0.00     0.079 C 
BRANCH  11  12
ATOM     12  C   UNL     1      16.394 -34.727  19.889  1.00  0.00     0.130 C 
ATOM     13  O   UNL     1      16.559 -35.870  20.288  1.00  0.00    -0.300 OA
ATOM     14  C   UNL     1      15.019 -34.124  19.975  1.00  0.00     0.087 C 
ENDBRANCH  11  12
ENDBRANCH  10  11
ENDBRANCH   2  10
TORSDOF 6
ENDMDL
MODEL 8
REMARK VINA RESULT:    -4.889      1.929      3.942
REMARK INTER + INTRA:          -7.484
REMARK INTER:                  -6.093
REMARK INTRA:                  -1.391
REMARK UNBOUND:                -0.880
REMARK SMILES CC(=O)CCC=C(C)CCC=C(C)C
REMARK SMILES IDX 7 1 6 2 8 3 9 4 10 5 11 6 13 7 12 8 14 9 5 10 4 11 2 12 3 13
REMARK SMILES IDX 1 14
REMARK H PARENT
REMARK Flexibility Score: inf
ROOT
ATOM      1  C   UNL     1      14.357 -29.798  22.617  1.00  0.00    -0.077 C 
ATOM      2  C   UNL     1      14.305 -30.534  21.483  1.00  0.00    -0.028 C 
ATOM      3  C   UNL     1      13.618 -30.209  23.870  1.00  0.00     0.039 C 
ENDROOT
BRANCH   1   4
ATOM      4  C   UNL     1      15.197 -28.540  22.636  1.00  0.00     0.034 C 
BRANCH   4   5
ATOM      5  C   UNL     1      16.615 -28.824  22.125  1.00  0.00     0.032 C 
BRANCH   5   6
ATOM      6  C   UNL     1      17.274 -29.904  22.948  1.00  0.00    -0.028 C 
ATOM      7  C   UNL     1      17.958 -31.236  20.941  1.00  0.00     0.039 C 
ATOM      8  C   UNL     1      17.860 -31.006  22.430  1.00  0.00    -0.080 C 
ATOM      9  C   UNL     1      18.445 -32.020  23.379  1.00  0.00     0.039 C 
ENDBRANCH   5   6
ENDBRANCH   4   5
ENDBRANCH   1   4
BRANCH   2  10
ATOM     10  C   UNL     1      13.473 -31.780  21.311  1.00  0.00     0.035 C 
BRANCH  10  11
ATOM     11  C   UNL     1      14.314 -32.909  20.694  1.00  0.00     0.079 C 
BRANCH  11  12
ATOM     12  C   UNL     1      15.201 -33.636  21.679  1.00  0.00     0.130 C 
ATOM     13  O   UNL     1      16.110 -34.326  21.241  1.00  0.00    -0.300 OA
ATOM     14  C   UNL     1      15.013 -33.551  23.169  1.00  0.00     0.087 C 
ENDBRANCH  11  12
ENDBRANCH  10  11
ENDBRANCH   2  10
TORSDOF 6
ENDMDL
MODEL 9
REMARK VINA RESULT:    -4.863      2.632      6.073
REMARK INTER + INTRA:          -7.449
REMARK INTER:                  -6.440
REMARK INTRA:                  -1.009
REMARK UNBOUND:                -0.880
REMARK SMILES CC(=O)CCC=C(C)CCC=C(C)C
REMARK SMILES IDX 7 1 6 2 8 3 9 4 10 5 11 6 13 7 12 8 14 9 5 10 4 11 2 12 3 13
REMARK SMILES IDX 1 14
REMARK H PARENT
REMARK Flexibility Score: inf
ROOT
ATOM      1  C   UNL     1      16.954 -32.317  22.021  1.00  0.00    -0.077 C 
ATOM      2  C   UNL     1      15.695 -31.920  22.318  1.00  0.00    -0.028 C 
ATOM      3  C   UNL     1      17.737 -31.704  20.883  1.00  0.00     0.039 C 
ENDROOT
BRANCH   1   4
ATOM      4  C   UNL     1      17.602 -33.389  22.868  1.00  0.00     0.034 C 
BRANCH   4   5
ATOM      5  C   UNL     1      16.813 -34.701  22.784  1.00  0.00     0.032 C 
BRANCH   5   6
ATOM      6  C   UNL     1      17.306 -35.549  21.637  1.00  0.00    -0.028 C 
ATOM      7  C   UNL     1      15.368 -34.962  20.163  1.00  0.00     0.039 C 
ATOM      8  C   UNL     1      16.654 -35.695  20.462  1.00  0.00    -0.080 C 
ATOM      9  C   UNL     1      17.249 -36.607  19.421  1.00  0.00     0.039 C 
ENDBRANCH   5   6
ENDBRANCH   4   5
ENDBRANCH   1   4
BRANCH   2  10
ATOM     10  C   UNL     1      14.914 -30.897  21.530  1.00  0.00     0.035 C 
BRANCH  10  11
ATOM     11  C   UNL     1      13.478 -31.387  21.286  1.00  0.00     0.079 C 
BRANCH  11  12
ATOM     12  C   UNL     1      12.418 -30.607  22.031  1.00  0.00     0.130 C 
ATOM     13  O   UNL     1      11.270 -30.646  21.613  1.00  0.00    -0.300 OA
ATOM     14  C   UNL     1      12.713 -29.785  23.256  1.00  0.00     0.087 C 
ENDBRANCH  11  12
ENDBRANCH  10  11
ENDBRANCH   2  10
TORSDOF 6
ENDMDL
