MODEL 1
REMARK VINA RESULT:    -4.264      0.000      0.000
REMARK INTER + INTRA:         -12.527
REMARK INTER:                  -9.249
REMARK INTRA:                  -3.278
REMARK UNBOUND:                -3.278
REMARK SMILES CCCCCCCCCCCCCCCCCCCCCC(=O)[O-]
REMARK SMILES IDX 12 1 11 2 10 3 9 4 8 5 7 6 6 7 5 8 4 9 3 10 2 11 1 12 13 13
REMARK SMILES IDX 14 14 15 15 16 16 17 17 18 18 19 19 20 20 21 21 22 22 23 23
REMARK SMILES IDX 24 24
REMARK H PARENT
REMARK Flexibility Score: inf
ROOT
ATOM      1  C   UNL     1      46.514   6.833  20.257  1.00  0.00     0.000 C 
ENDROOT
BRANCH   1   2
ATOM      2  C   UNL     1      47.520   6.987  21.411  1.00  0.00     0.000 C 
BRANCH   2   3
ATOM      3  C   UNL     1      47.015   7.811  22.612  1.00  0.00     0.000 C 
BRANCH   3   4
ATOM      4  C   UNL     1      47.910   8.999  23.012  1.00  0.00    -0.000 C 
BRANCH   4   5
ATOM      5  C   UNL     1      47.121  10.295  23.253  1.00  0.00    -0.000 C 
BRANCH   5   6
ATOM      6  C   UNL     1      46.419  10.755  21.966  1.00  0.00    -0.000 C 
BRANCH   6   7
ATOM      7  C   UNL     1      44.903  10.960  22.147  1.00  0.00    -0.000 C 
BRANCH   7   8
ATOM      8  C   UNL     1      44.069   9.664  22.173  1.00  0.00    -0.000 C 
BRANCH   8   9
ATOM      9  C   UNL     1      43.687   9.166  23.580  1.00  0.00    -0.000 C 
BRANCH   9  10
ATOM     10  C   UNL     1      43.467  10.301  24.604  1.00  0.00    -0.000 C 
BRANCH  10  11
ATOM     11  C   UNL     1      44.474  10.250  25.763  1.00  0.00    -0.003 C 
ATOM     12  C   UNL     1      44.896   8.814  26.064  1.00  0.00     0.004 C 
ENDBRANCH  10  11
ENDBRANCH   9  10
ENDBRANCH   8   9
ENDBRANCH   7   8
ENDBRANCH   6   7
ENDBRANCH   5   6
ENDBRANCH   4   5
ENDBRANCH   3   4
ENDBRANCH   2   3
ENDBRANCH   1   2
BRANCH   1  13
ATOM     13  C   UNL     1      46.352   8.121  19.429  1.00  0.00     0.000 C 
BRANCH  13  14
ATOM     14  C   UNL     1      44.943   8.249  18.829  1.00  0.00     0.000 C 
BRANCH  14  15
ATOM     15  C   UNL     1      44.646   9.678  18.346  1.00  0.00     0.000 C 
BRANCH  15  16
ATOM     16  C   UNL     1      45.924  10.533  18.334  1.00  0.00     0.000 C 
BRANCH  16  17
ATOM     17  C   UNL     1      46.379  10.917  16.913  1.00  0.00     0.000 C 
BRANCH  17  18
ATOM     18  C   UNL     1      45.503  10.354  15.780  1.00  0.00     0.000 C 
BRANCH  18  19
ATOM     19  C   UNL     1      46.329   9.702  14.658  1.00  0.00     0.000 C 
BRANCH  19  20
ATOM     20  C   UNL     1      45.811   8.300  14.287  1.00  0.00     0.006 C 
BRANCH  20  21
ATOM     21  C   UNL     1      44.528   7.894  15.034  1.00  0.00     0.053 C 
BRANCH  21  22
ATOM     22  C   UNL     1      43.879   6.692  14.416  1.00  0.00     0.041 C 
ATOM     23  O   UNL     1      42.731   6.783  13.901  1.00  0.00    -0.550 OA
ATOM     24  O   UNL     1      44.521   5.460  14.451  1.00  0.00    -0.550 OA
ENDBRANCH  21  22
ENDBRANCH  20  21
ENDBRANCH  19  20
ENDBRANCH  18  19
ENDBRANCH  17  18
ENDBRANCH  16  17
ENDBRANCH  15  16
ENDBRANCH  14  15
ENDBRANCH  13  14
ENDBRANCH   1  13
TORSDOF 20
ENDMDL
MODEL 2
REMARK VINA RESULT:    -4.193      1.966      2.429
REMARK INTER + INTRA:         -12.373
REMARK INTER:                  -9.907
REMARK INTRA:                  -2.466
REMARK UNBOUND:                -3.278
REMARK SMILES CCCCCCCCCCCCCCCCCCCCCC(=O)[O-]
REMARK SMILES IDX 12 1 11 2 10 3 9 4 8 5 7 6 6 7 5 8 4 9 3 10 2 11 1 12 13 13
REMARK SMILES IDX 14 14 15 15 16 16 17 17 18 18 19 19 20 20 21 21 22 22 23 23
REMARK SMILES IDX 24 24
REMARK H PARENT
REMARK Flexibility Score: inf
ROOT
ATOM      1  C   UNL     1      47.145   6.191  21.271  1.00  0.00     0.000 C 
ENDROOT
BRANCH   1   2
ATOM      2  C   UNL     1      47.916   6.674  22.512  1.00  0.00     0.000 C 
BRANCH   2   3
ATOM      3  C   UNL     1      48.296   8.168  22.504  1.00  0.00     0.000 C 
BRANCH   3   4
ATOM      4  C   UNL     1      47.394   9.077  23.360  1.00  0.00    -0.000 C 
BRANCH   4   5
ATOM      5  C   UNL     1      47.481  10.559  22.965  1.00  0.00    -0.000 C 
BRANCH   5   6
ATOM      6  C   UNL     1      46.087  11.125  22.654  1.00  0.00    -0.000 C 
BRANCH   6   7
ATOM      7  C   UNL     1      45.452  10.508  21.394  1.00  0.00    -0.000 C 
BRANCH   7   8
ATOM      8  C   UNL     1      44.125   9.762  21.632  1.00  0.00    -0.000 C 
BRANCH   8   9
ATOM      9  C   UNL     1      44.138   8.775  22.814  1.00  0.00    -0.000 C 
BRANCH   9  10
ATOM     10  C   UNL     1      43.380   9.284  24.060  1.00  0.00    -0.000 C 
BRANCH  10  11
ATOM     11  C   UNL     1      44.197   9.122  25.351  1.00  0.00    -0.003 C 
ATOM     12  C   UNL     1      44.835  10.443  25.769  1.00  0.00     0.004 C 
ENDBRANCH  10  11
ENDBRANCH   9  10
ENDBRANCH   8   9
ENDBRANCH   7   8
ENDBRANCH   6   7
ENDBRANCH   5   6
ENDBRANCH   4   5
ENDBRANCH   3   4
ENDBRANCH   2   3
ENDBRANCH   1   2
BRANCH   1  13
ATOM     13  C   UNL     1      46.707   7.345  20.352  1.00  0.00     0.000 C 
BRANCH  13  14
ATOM     14  C   UNL     1      46.717   6.938  18.869  1.00  0.00     0.000 C 
BRANCH  14  15
ATOM     15  C   UNL     1      46.401   8.122  17.941  1.00  0.00     0.000 C 
BRANCH  15  16
ATOM     16  C   UNL     1      44.943   8.582  18.109  1.00  0.00     0.000 C 
BRANCH  16  17
ATOM     17  C   UNL     1      44.111   8.431  16.821  1.00  0.00     0.000 C 
BRANCH  17  18
ATOM     18  C   UNL     1      44.155   7.029  16.186  1.00  0.00     0.000 C 
BRANCH  18  19
ATOM     19  C   UNL     1      44.290   7.077  14.654  1.00  0.00     0.000 C 
BRANCH  19  20
ATOM     20  C   UNL     1      45.289   6.033  14.120  1.00  0.00     0.006 C 
BRANCH  20  21
ATOM     21  C   UNL     1      46.754   6.327  14.493  1.00  0.00     0.053 C 
BRANCH  21  22
ATOM     22  C   UNL     1      47.423   5.135  15.108  1.00  0.00     0.041 C 
ATOM     23  O   UNL     1      47.835   5.181  16.300  1.00  0.00    -0.550 OA
ATOM     24  O   UNL     1      47.636   3.990  14.351  1.00  0.00    -0.550 OA
ENDBRANCH  21  22
ENDBRANCH  20  21
ENDBRANCH  19  20
ENDBRANCH  18  19
ENDBRANCH  17  18
ENDBRANCH  16  17
ENDBRANCH  15  16
ENDBRANCH  14  15
ENDBRANCH  13  14
ENDBRANCH   1  13
TORSDOF 20
ENDMDL
MODEL 3
REMARK VINA RESULT:    -4.183      3.681      8.086
REMARK INTER + INTRA:         -12.352
REMARK INTER:                  -9.263
REMARK INTRA:                  -3.089
REMARK UNBOUND:                -3.278
REMARK SMILES CCCCCCCCCCCCCCCCCCCCCC(=O)[O-]
REMARK SMILES IDX 12 1 11 2 10 3 9 4 8 5 7 6 6 7 5 8 4 9 3 10 2 11 1 12 13 13
REMARK SMILES IDX 14 14 15 15 16 16 17 17 18 18 19 19 20 20 21 21 22 22 23 23
REMARK SMILES IDX 24 24
REMARK H PARENT
REMARK Flexibility Score: inf
ROOT
ATOM      1  C   UNL     1      44.449   9.089  20.053  1.00  0.00     0.000 C 
ENDROOT
BRANCH   1   2
ATOM      2  C   UNL     1      43.794  10.080  19.076  1.00  0.00     0.000 C 
BRANCH   2   3
ATOM      3  C   UNL     1      43.815   9.648  17.596  1.00  0.00     0.000 C 
BRANCH   3   4
ATOM      4  C   UNL     1      44.572  10.598  16.649  1.00  0.00    -0.000 C 
BRANCH   4   5
ATOM      5  C   UNL     1      46.090  10.605  16.887  1.00  0.00    -0.000 C 
BRANCH   5   6
ATOM      6  C   UNL     1      46.817   9.788  15.808  1.00  0.00    -0.000 C 
BRANCH   6   7
ATOM      7  C   UNL     1      46.036   9.709  14.483  1.00  0.00    -0.000 C 
BRANCH   7   8
ATOM      8  C   UNL     1      45.812   8.283  13.943  1.00  0.00    -0.000 C 
BRANCH   8   9
ATOM      9  C   UNL     1      44.573   7.562  14.506  1.00  0.00    -0.000 C 
BRANCH   9  10
ATOM     10  C   UNL     1      44.891   6.589  15.662  1.00  0.00    -0.000 C 
BRANCH  10  11
ATOM     11  C   UNL     1      46.281   5.950  15.528  1.00  0.00    -0.003 C 
ATOM     12  C   UNL     1      47.098   6.133  16.804  1.00  0.00     0.004 C 
ENDBRANCH  10  11
ENDBRANCH   9  10
ENDBRANCH   8   9
ENDBRANCH   7   8
ENDBRANCH   6   7
ENDBRANCH   5   6
ENDBRANCH   4   5
ENDBRANCH   3   4
ENDBRANCH   2   3
ENDBRANCH   1   2
BRANCH   1  13
ATOM     13  C   UNL     1      45.388   8.090  19.353  1.00  0.00     0.000 C 
BRANCH  13  14
ATOM     14  C   UNL     1      46.736   7.957  20.081  1.00  0.00     0.000 C 
BRANCH  14  15
ATOM     15  C   UNL     1      46.861   6.619  20.828  1.00  0.00     0.000 C 
BRANCH  15  16
ATOM     16  C   UNL     1      47.526   6.813  22.201  1.00  0.00     0.000 C 
BRANCH  16  17
ATOM     17  C   UNL     1      47.688   8.295  22.590  1.00  0.00     0.000 C 
BRANCH  17  18
ATOM     18  C   UNL     1      46.567   8.854  23.485  1.00  0.00     0.000 C 
BRANCH  18  19
ATOM     19  C   UNL     1      46.198  10.307  23.137  1.00  0.00     0.000 C 
BRANCH  19  20
ATOM     20  C   UNL     1      44.922  10.777  23.861  1.00  0.00     0.006 C 
BRANCH  20  21
ATOM     21  C   UNL     1      43.726   9.823  23.694  1.00  0.00     0.053 C 
BRANCH  21  22
ATOM     22  C   UNL     1      43.068   9.518  25.007  1.00  0.00     0.041 C 
ATOM     23  O   UNL     1      41.815   9.611  25.127  1.00  0.00    -0.550 OA
ATOM     24  O   UNL     1      43.842   9.179  26.110  1.00  0.00    -0.550 OA
ENDBRANCH  21  22
ENDBRANCH  20  21
ENDBRANCH  19  20
ENDBRANCH  18  19
ENDBRANCH  17  18
ENDBRANCH  16  17
ENDBRANCH  15  16
ENDBRANCH  14  15
ENDBRANCH  13  14
ENDBRANCH   1  13
TORSDOF 20
ENDMDL
MODEL 4
REMARK VINA RESULT:    -4.140      3.940      8.327
REMARK INTER + INTRA:         -12.259
REMARK INTER:                  -9.744
REMARK INTRA:                  -2.515
REMARK UNBOUND:                -3.278
REMARK SMILES CCCCCCCCCCCCCCCCCCCCCC(=O)[O-]
REMARK SMILES IDX 12 1 11 2 10 3 9 4 8 5 7 6 6 7 5 8 4 9 3 10 2 11 1 12 13 13
REMARK SMILES IDX 14 14 15 15 16 16 17 17 18 18 19 19 20 20 21 21 22 22 23 23
REMARK SMILES IDX 24 24
REMARK H PARENT
REMARK Flexibility Score: inf
ROOT
ATOM      1  C   UNL     1      46.254   7.382  20.632  1.00  0.00     0.000 C 
ENDROOT
BRANCH   1   2
ATOM      2  C   UNL     1      46.467   7.494  19.113  1.00  0.00     0.000 C 
BRANCH   2   3
ATOM      3  C   UNL     1      46.106   8.863  18.501  1.00  0.00     0.000 C 
BRANCH   3   4
ATOM      4  C   UNL     1      44.614   9.060  18.175  1.00  0.00    -0.000 C 
BRANCH   4   5
ATOM      5  C   UNL     1      44.377   9.691  16.794  1.00  0.00    -0.000 C 
BRANCH   5   6
ATOM      6  C   UNL     1      45.685  10.253  16.217  1.00  0.00    -0.000 C 
BRANCH   6   7
ATOM      7  C   UNL     1      46.095   9.586  14.891  1.00  0.00    -0.000 C 
BRANCH   7   8
ATOM      8  C   UNL     1      45.334   8.288  14.552  1.00  0.00    -0.000 C 
BRANCH   8   9
ATOM      9  C   UNL     1      46.222   7.044  14.369  1.00  0.00    -0.000 C 
BRANCH   9  10
ATOM     10  C   UNL     1      46.194   6.076  15.571  1.00  0.00    -0.000 C 
BRANCH  10  11
ATOM     11  C   UNL     1      47.561   5.426  15.835  1.00  0.00    -0.003 C 
ATOM     12  C   UNL     1      48.050   4.655  14.613  1.00  0.00     0.004 C 
ENDBRANCH  10  11
ENDBRANCH   9  10
ENDBRANCH   8   9
ENDBRANCH   7   8
ENDBRANCH   6   7
ENDBRANCH   5   6
ENDBRANCH   4   5
ENDBRANCH   3   4
ENDBRANCH   2   3
ENDBRANCH   1   2
BRANCH   1  13
ATOM     13  C   UNL     1      47.496   6.857  21.374  1.00  0.00     0.000 C 
BRANCH  13  14
ATOM     14  C   UNL     1      47.896   7.767  22.547  1.00  0.00     0.000 C 
BRANCH  14  15
ATOM     15  C   UNL     1      46.703   8.571  23.089  1.00  0.00     0.000 C 
BRANCH  15  16
ATOM     16  C   UNL     1      47.024  10.075  23.131  1.00  0.00     0.000 C 
BRANCH  16  17
ATOM     17  C   UNL     1      46.166  10.902  22.154  1.00  0.00     0.000 C 
BRANCH  17  18
ATOM     18  C   UNL     1      44.746  10.356  21.921  1.00  0.00     0.000 C 
BRANCH  18  19
ATOM     19  C   UNL     1      43.785  10.691  23.076  1.00  0.00     0.000 C 
BRANCH  19  20
ATOM     20  C   UNL     1      43.292   9.432  23.813  1.00  0.00     0.006 C 
BRANCH  20  21
ATOM     21  C   UNL     1      43.167   9.612  25.336  1.00  0.00     0.053 C 
BRANCH  21  22
ATOM     22  C   UNL     1      44.506   9.600  26.011  1.00  0.00     0.041 C 
ATOM     23  O   UNL     1      44.918   8.556  26.587  1.00  0.00    -0.550 OA
ATOM     24  O   UNL     1      45.278  10.755  26.047  1.00  0.00    -0.550 OA
ENDBRANCH  21  22
ENDBRANCH  20  21
ENDBRANCH  19  20
ENDBRANCH  18  19
ENDBRANCH  17  18
ENDBRANCH  16  17
ENDBRANCH  15  16
ENDBRANCH  14  15
ENDBRANCH  13  14
ENDBRANCH   1  13
TORSDOF 20
ENDMDL
MODEL 5
REMARK VINA RESULT:    -4.081      3.671      7.955
REMARK INTER + INTRA:         -12.132
REMARK INTER:                  -9.068
REMARK INTRA:                  -3.064
REMARK UNBOUND:                -3.278
REMARK SMILES CCCCCCCCCCCCCCCCCCCCCC(=O)[O-]
REMARK SMILES IDX 12 1 11 2 10 3 9 4 8 5 7 6 6 7 5 8 4 9 3 10 2 11 1 12 13 13
REMARK SMILES IDX 14 14 15 15 16 16 17 17 18 18 19 19 20 20 21 21 22 22 23 23
REMARK SMILES IDX 24 24
REMARK H PARENT
REMARK Flexibility Score: inf
ROOT
ATOM      1  C   UNL     1      47.506   6.639  21.363  1.00  0.00     0.000 C 
ENDROOT
BRANCH   1   2
ATOM      2  C   UNL     1      46.356   7.238  20.536  1.00  0.00     0.000 C 
BRANCH   2   3
ATOM      3  C   UNL     1      46.706   7.564  19.070  1.00  0.00     0.000 C 
BRANCH   3   4
ATOM      4  C   UNL     1      45.508   7.597  18.104  1.00  0.00    -0.000 C 
BRANCH   4   5
ATOM      5  C   UNL     1      44.348   8.467  18.610  1.00  0.00    -0.000 C 
BRANCH   5   6
ATOM      6  C   UNL     1      44.005   9.568  17.594  1.00  0.00    -0.000 C 
BRANCH   6   7
ATOM      7  C   UNL     1      45.243  10.339  17.100  1.00  0.00    -0.000 C 
BRANCH   7   8
ATOM      8  C   UNL     1      45.426  10.365  15.570  1.00  0.00    -0.000 C 
BRANCH   8   9
ATOM      9  C   UNL     1      46.488   9.391  15.026  1.00  0.00    -0.000 C 
BRANCH   9  10
ATOM     10  C   UNL     1      45.937   8.382  13.994  1.00  0.00    -0.000 C 
BRANCH  10  11
ATOM     11  C   UNL     1      44.719   7.608  14.522  1.00  0.00    -0.003 C 
ATOM     12  C   UNL     1      45.052   6.134  14.734  1.00  0.00     0.004 C 
ENDBRANCH  10  11
ENDBRANCH   9  10
ENDBRANCH   8   9
ENDBRANCH   7   8
ENDBRANCH   6   7
ENDBRANCH   5   6
ENDBRANCH   4   5
ENDBRANCH   3   4
ENDBRANCH   2   3
ENDBRANCH   1   2
BRANCH   1  13
ATOM     13  C   UNL     1      47.898   7.516  22.566  1.00  0.00     0.000 C 
BRANCH  13  14
ATOM     14  C   UNL     1      46.807   8.541  22.914  1.00  0.00     0.000 C 
BRANCH  14  15
ATOM     15  C   UNL     1      47.390   9.935  23.194  1.00  0.00     0.000 C 
BRANCH  15  16
ATOM     16  C   UNL     1      46.493  11.038  22.608  1.00  0.00     0.000 C 
BRANCH  16  17
ATOM     17  C   UNL     1      45.702  10.578  21.369  1.00  0.00     0.000 C 
BRANCH  17  18
ATOM     18  C   UNL     1      44.191  10.869  21.423  1.00  0.00     0.000 C 
BRANCH  18  19
ATOM     19  C   UNL     1      43.676  11.070  22.859  1.00  0.00     0.000 C 
BRANCH  19  20
ATOM     20  C   UNL     1      43.323   9.738  23.548  1.00  0.00     0.006 C 
BRANCH  20  21
ATOM     21  C   UNL     1      43.170   9.850  25.076  1.00  0.00     0.053 C 
BRANCH  21  22
ATOM     22  C   UNL     1      44.490   9.741  25.778  1.00  0.00     0.041 C 
ATOM     23  O   UNL     1      45.125  10.781  26.105  1.00  0.00    -0.550 OA
ATOM     24  O   UNL     1      45.043   8.490  26.030  1.00  0.00    -0.550 OA
ENDBRANCH  21  22
ENDBRANCH  20  21
ENDBRANCH  19  20
ENDBRANCH  18  19
ENDBRANCH  17  18
ENDBRANCH  16  17
ENDBRANCH  15  16
ENDBRANCH  14  15
ENDBRANCH  13  14
ENDBRANCH   1  13
TORSDOF 20
ENDMDL
MODEL 6
REMARK VINA RESULT:    -3.986      1.931      3.005
REMARK INTER + INTRA:         -11.925
REMARK INTER:                  -9.392
REMARK INTRA:                  -2.533
REMARK UNBOUND:                -3.278
REMARK SMILES CCCCCCCCCCCCCCCCCCCCCC(=O)[O-]
REMARK SMILES IDX 12 1 11 2 10 3 9 4 8 5 7 6 6 7 5 8 4 9 3 10 2 11 1 12 13 13
REMARK SMILES IDX 14 14 15 15 16 16 17 17 18 18 19 19 20 20 21 21 22 22 23 23
REMARK SMILES IDX 24 24
REMARK H PARENT
REMARK Flexibility Score: inf
ROOT
ATOM      1  C   UNL     1      44.107   9.682  20.381  1.00  0.00     0.000 C 
ENDROOT
BRANCH   1   2
ATOM      2  C   UNL     1      44.503   8.559  21.355  1.00  0.00     0.000 C 
BRANCH   2   3
ATOM      3  C   UNL     1      46.018   8.303  21.477  1.00  0.00     0.000 C 
BRANCH   3   4
ATOM      4  C   UNL     1      46.545   8.174  22.918  1.00  0.00    -0.000 C 
BRANCH   4   5
ATOM      5  C   UNL     1      47.675   9.165  23.238  1.00  0.00    -0.000 C 
BRANCH   5   6
ATOM      6  C   UNL     1      47.275  10.596  22.847  1.00  0.00    -0.000 C 
BRANCH   6   7
ATOM      7  C   UNL     1      46.058  11.119  23.632  1.00  0.00    -0.000 C 
BRANCH   7   8
ATOM      8  C   UNL     1      46.095  10.845  25.148  1.00  0.00    -0.000 C 
BRANCH   8   9
ATOM      9  C   UNL     1      44.828  10.180  25.719  1.00  0.00    -0.000 C 
BRANCH   9  10
ATOM     10  C   UNL     1      43.514  10.731  25.124  1.00  0.00    -0.000 C 
BRANCH  10  11
ATOM     11  C   UNL     1      42.625   9.624  24.536  1.00  0.00    -0.003 C 
ATOM     12  C   UNL     1      41.222   9.668  25.134  1.00  0.00     0.004 C 
ENDBRANCH  10  11
ENDBRANCH   9  10
ENDBRANCH   8   9
ENDBRANCH   7   8
ENDBRANCH   6   7
ENDBRANCH   5   6
ENDBRANCH   4   5
ENDBRANCH   3   4
ENDBRANCH   2   3
ENDBRANCH   1   2
BRANCH   1  13
ATOM     13  C   UNL     1      45.324  10.390  19.758  1.00  0.00     0.000 C 
BRANCH  13  14
ATOM     14  C   UNL     1      45.171  10.572  18.239  1.00  0.00     0.000 C 
BRANCH  14  15
ATOM     15  C   UNL     1      46.182   9.726  17.449  1.00  0.00     0.000 C 
BRANCH  15  16
ATOM     16  C   UNL     1      45.934   8.224  17.665  1.00  0.00     0.000 C 
BRANCH  16  17
ATOM     17  C   UNL     1      44.566   7.756  17.132  1.00  0.00     0.000 C 
BRANCH  17  18
ATOM     18  C   UNL     1      44.466   7.671  15.598  1.00  0.00     0.000 C 
BRANCH  18  19
ATOM     19  C   UNL     1      43.919   6.317  15.113  1.00  0.00     0.000 C 
BRANCH  19  20
ATOM     20  C   UNL     1      44.979   5.495  14.355  1.00  0.00     0.006 C 
BRANCH  20  21
ATOM     21  C   UNL     1      46.361   6.170  14.292  1.00  0.00     0.053 C 
BRANCH  21  22
ATOM     22  C   UNL     1      47.401   5.383  15.032  1.00  0.00     0.041 C 
ATOM     23  O   UNL     1      48.174   4.606  14.408  1.00  0.00    -0.550 OA
ATOM     24  O   UNL     1      47.485   5.471  16.416  1.00  0.00    -0.550 OA
ENDBRANCH  21  22
ENDBRANCH  20  21
ENDBRANCH  19  20
ENDBRANCH  18  19
ENDBRANCH  17  18
ENDBRANCH  16  17
ENDBRANCH  15  16
ENDBRANCH  14  15
ENDBRANCH  13  14
ENDBRANCH   1  13
TORSDOF 20
ENDMDL
MODEL 7
REMARK VINA RESULT:    -3.886      1.128      2.374
REMARK INTER + INTRA:         -11.708
REMARK INTER:                  -9.037
REMARK INTRA:                  -2.671
REMARK UNBOUND:                -3.278
REMARK SMILES CCCCCCCCCCCCCCCCCCCCCC(=O)[O-]
REMARK SMILES IDX 12 1 11 2 10 3 9 4 8 5 7 6 6 7 5 8 4 9 3 10 2 11 1 12 13 13
REMARK SMILES IDX 14 14 15 15 16 16 17 17 18 18 19 19 20 20 21 21 22 22 23 23
REMARK SMILES IDX 24 24
REMARK H PARENT
REMARK Flexibility Score: inf
ROOT
ATOM      1  C   UNL     1      47.410   7.422  22.798  1.00  0.00     0.000 C 
ENDROOT
BRANCH   1   2
ATOM      2  C   UNL     1      48.114   8.789  22.839  1.00  0.00     0.000 C 
BRANCH   2   3
ATOM      3  C   UNL     1      47.296   9.927  23.483  1.00  0.00     0.000 C 
BRANCH   3   4
ATOM      4  C   UNL     1      46.970  11.107  22.549  1.00  0.00    -0.000 C 
BRANCH   4   5
ATOM      5  C   UNL     1      46.054  10.717  21.379  1.00  0.00    -0.000 C 
BRANCH   5   6
ATOM      6  C   UNL     1      44.595  10.596  21.844  1.00  0.00    -0.000 C 
BRANCH   6   7
ATOM      7  C   UNL     1      44.085   9.143  21.862  1.00  0.00    -0.000 C 
BRANCH   7   8
ATOM      8  C   UNL     1      43.732   8.594  23.258  1.00  0.00    -0.000 C 
BRANCH   8   9
ATOM      9  C   UNL     1      44.269   9.425  24.438  1.00  0.00    -0.000 C 
BRANCH   9  10
ATOM     10  C   UNL     1      43.190  10.276  25.143  1.00  0.00    -0.000 C 
BRANCH  10  11
ATOM     11  C   UNL     1      41.775   9.706  24.952  1.00  0.00    -0.003 C 
ATOM     12  C   UNL     1      40.719  10.799  25.088  1.00  0.00     0.004 C 
ENDBRANCH  10  11
ENDBRANCH   9  10
ENDBRANCH   8   9
ENDBRANCH   7   8
ENDBRANCH   6   7
ENDBRANCH   5   6
ENDBRANCH   4   5
ENDBRANCH   3   4
ENDBRANCH   2   3
ENDBRANCH   1   2
BRANCH   1  13
ATOM     13  C   UNL     1      47.573   6.706  21.445  1.00  0.00     0.000 C 
BRANCH  13  14
ATOM     14  C   UNL     1      46.746   7.374  20.334  1.00  0.00     0.000 C 
BRANCH  14  15
ATOM     15  C   UNL     1      46.740   6.545  19.039  1.00  0.00     0.000 C 
BRANCH  15  16
ATOM     16  C   UNL     1      46.234   7.380  17.851  1.00  0.00     0.000 C 
BRANCH  16  17
ATOM     17  C   UNL     1      45.338   8.558  18.279  1.00  0.00     0.000 C 
BRANCH  17  18
ATOM     18  C   UNL     1      45.226   9.692  17.244  1.00  0.00     0.000 C 
BRANCH  18  19
ATOM     19  C   UNL     1      46.356   9.658  16.201  1.00  0.00     0.000 C 
BRANCH  19  20
ATOM     20  C   UNL     1      45.820   9.618  14.757  1.00  0.00     0.006 C 
BRANCH  20  21
ATOM     21  C   UNL     1      46.127   8.303  14.017  1.00  0.00     0.053 C 
BRANCH  21  22
ATOM     22  C   UNL     1      45.205   7.198  14.438  1.00  0.00     0.041 C 
ATOM     23  O   UNL     1      43.999   7.445  14.714  1.00  0.00    -0.550 OA
ATOM     24  O   UNL     1      45.689   5.902  14.572  1.00  0.00    -0.550 OA
ENDBRANCH  21  22
ENDBRANCH  20  21
ENDBRANCH  19  20
ENDBRANCH  18  19
ENDBRANCH  17  18
ENDBRANCH  16  17
ENDBRANCH  15  16
ENDBRANCH  14  15
ENDBRANCH  13  14
ENDBRANCH   1  13
TORSDOF 20
ENDMDL
MODEL 8
REMARK VINA RESULT:    -3.854      1.815      3.976
REMARK INTER + INTRA:         -11.639
REMARK INTER:                  -9.110
REMARK INTRA:                  -2.529
REMARK UNBOUND:                -3.278
REMARK SMILES CCCCCCCCCCCCCCCCCCCCCC(=O)[O-]
REMARK SMILES IDX 12 1 11 2 10 3 9 4 8 5 7 6 6 7 5 8 4 9 3 10 2 11 1 12 13 13
REMARK SMILES IDX 14 14 15 15 16 16 17 17 18 18 19 19 20 20 21 21 22 22 23 23
REMARK SMILES IDX 24 24
REMARK H PARENT
REMARK Flexibility Score: inf
ROOT
ATOM      1  C   UNL     1      43.989  10.340  20.731  1.00  0.00     0.000 C 
ENDROOT
BRANCH   1   2
ATOM      2  C   UNL     1      44.142   8.936  21.340  1.00  0.00     0.000 C 
BRANCH   2   3
ATOM      3  C   UNL     1      43.881   8.849  22.857  1.00  0.00     0.000 C 
BRANCH   3   4
ATOM      4  C   UNL     1      44.267  10.106  23.659  1.00  0.00    -0.000 C 
BRANCH   4   5
ATOM      5  C   UNL     1      45.371   9.845  24.696  1.00  0.00    -0.000 C 
BRANCH   5   6
ATOM      6  C   UNL     1      46.688  10.511  24.273  1.00  0.00    -0.000 C 
BRANCH   6   7
ATOM      7  C   UNL     1      47.251   9.952  22.953  1.00  0.00    -0.000 C 
BRANCH   7   8
ATOM      8  C   UNL     1      48.233   8.774  23.111  1.00  0.00    -0.000 C 
BRANCH   8   9
ATOM      9  C   UNL     1      47.814   7.478  22.394  1.00  0.00    -0.000 C 
BRANCH   9  10
ATOM     10  C   UNL     1      46.938   7.713  21.144  1.00  0.00    -0.000 C 
BRANCH  10  11
ATOM     11  C   UNL     1      46.995   6.537  20.156  1.00  0.00    -0.003 C 
ATOM     12  C   UNL     1      46.575   6.974  18.756  1.00  0.00     0.004 C 
ENDBRANCH  10  11
ENDBRANCH   9  10
ENDBRANCH   8   9
ENDBRANCH   7   8
ENDBRANCH   6   7
ENDBRANCH   5   6
ENDBRANCH   4   5
ENDBRANCH   3   4
ENDBRANCH   2   3
ENDBRANCH   1   2
BRANCH   1  13
ATOM     13  C   UNL     1      45.285  10.855  20.080  1.00  0.00     0.000 C 
BRANCH  13  14
ATOM     14  C   UNL     1      45.397  10.436  18.605  1.00  0.00     0.000 C 
BRANCH  14  15
ATOM     15  C   UNL     1      44.046   9.984  18.028  1.00  0.00     0.000 C 
BRANCH  15  16
ATOM     16  C   UNL     1      44.146   9.740  16.512  1.00  0.00     0.000 C 
BRANCH  16  17
ATOM     17  C   UNL     1      45.598   9.588  16.021  1.00  0.00     0.000 C 
BRANCH  17  18
ATOM     18  C   UNL     1      45.833   8.412  15.055  1.00  0.00     0.000 C 
BRANCH  18  19
ATOM     19  C   UNL     1      44.739   7.335  15.155  1.00  0.00     0.000 C 
BRANCH  19  20
ATOM     20  C   UNL     1      45.258   5.936  14.771  1.00  0.00     0.006 C 
BRANCH  20  21
ATOM     21  C   UNL     1      46.645   5.949  14.104  1.00  0.00     0.053 C 
BRANCH  21  22
ATOM     22  C   UNL     1      47.611   5.042  14.807  1.00  0.00     0.041 C 
ATOM     23  O   UNL     1      47.842   5.191  16.038  1.00  0.00    -0.550 OA
ATOM     24  O   UNL     1      48.291   4.063  14.092  1.00  0.00    -0.550 OA
ENDBRANCH  21  22
ENDBRANCH  20  21
ENDBRANCH  19  20
ENDBRANCH  18  19
ENDBRANCH  17  18
ENDBRANCH  16  17
ENDBRANCH  15  16
ENDBRANCH  14  15
ENDBRANCH  13  14
ENDBRANCH   1  13
TORSDOF 20
ENDMDL
MODEL 9
REMARK VINA RESULT:    -3.706      2.764      7.838
REMARK INTER + INTRA:         -11.318
REMARK INTER:                  -8.456
REMARK INTRA:                  -2.861
REMARK UNBOUND:                -3.278
REMARK SMILES CCCCCCCCCCCCCCCCCCCCCC(=O)[O-]
REMARK SMILES IDX 12 1 11 2 10 3 9 4 8 5 7 6 6 7 5 8 4 9 3 10 2 11 1 12 13 13
REMARK SMILES IDX 14 14 15 15 16 16 17 17 18 18 19 19 20 20 21 21 22 22 23 23
REMARK SMILES IDX 24 24
REMARK H PARENT
REMARK Flexibility Score: inf
ROOT
ATOM      1  C   UNL     1      44.127   8.632  21.489  1.00  0.00     0.000 C 
ENDROOT
BRANCH   1   2
ATOM      2  C   UNL     1      44.005  10.075  20.971  1.00  0.00     0.000 C 
BRANCH   2   3
ATOM      3  C   UNL     1      44.090  10.229  19.440  1.00  0.00     0.000 C 
BRANCH   3   4
ATOM      4  C   UNL     1      45.516  10.202  18.858  1.00  0.00    -0.000 C 
BRANCH   4   5
ATOM      5  C   UNL     1      45.909   8.831  18.287  1.00  0.00    -0.000 C 
BRANCH   5   6
ATOM      6  C   UNL     1      44.691   8.126  17.671  1.00  0.00    -0.000 C 
BRANCH   6   7
ATOM      7  C   UNL     1      44.382   8.596  16.238  1.00  0.00    -0.000 C 
BRANCH   7   8
ATOM      8  C   UNL     1      45.617   8.971  15.395  1.00  0.00    -0.000 C 
BRANCH   8   9
ATOM      9  C   UNL     1      45.972   7.968  14.282  1.00  0.00    -0.000 C 
BRANCH   9  10
ATOM     10  C   UNL     1      45.484   6.530  14.560  1.00  0.00    -0.000 C 
BRANCH  10  11
ATOM     11  C   UNL     1      46.642   5.561  14.845  1.00  0.00    -0.003 C 
ATOM     12  C   UNL     1      47.269   5.838  16.208  1.00  0.00     0.004 C 
ENDBRANCH  10  11
ENDBRANCH   9  10
ENDBRANCH   8   9
ENDBRANCH   7   8
ENDBRANCH   6   7
ENDBRANCH   5   6
ENDBRANCH   4   5
ENDBRANCH   3   4
ENDBRANCH   2   3
ENDBRANCH   1   2
BRANCH   1  13
ATOM     13  C   UNL     1      43.949   8.527  23.015  1.00  0.00     0.000 C 
BRANCH  13  14
ATOM     14  C   UNL     1      43.255   9.766  23.602  1.00  0.00     0.000 C 
BRANCH  14  15
ATOM     15  C   UNL     1      43.110   9.679  25.130  1.00  0.00     0.000 C 
BRANCH  15  16
ATOM     16  C   UNL     1      44.477   9.801  25.823  1.00  0.00     0.000 C 
BRANCH  16  17
ATOM     17  C   UNL     1      45.260  11.058  25.396  1.00  0.00     0.000 C 
BRANCH  17  18
ATOM     18  C   UNL     1      46.640  10.777  24.772  1.00  0.00     0.000 C 
BRANCH  18  19
ATOM     19  C   UNL     1      46.696  11.125  23.275  1.00  0.00     0.000 C 
BRANCH  19  20
ATOM     20  C   UNL     1      47.303   9.988  22.431  1.00  0.00     0.006 C 
BRANCH  20  21
ATOM     21  C   UNL     1      47.592   8.706  23.233  1.00  0.00     0.053 C 
BRANCH  21  22
ATOM     22  C   UNL     1      47.704   7.505  22.342  1.00  0.00     0.041 C 
ATOM     23  O   UNL     1      48.284   6.462  22.751  1.00  0.00    -0.550 OA
ATOM     24  O   UNL     1      47.211   7.553  21.044  1.00  0.00    -0.550 OA
ENDBRANCH  21  22
ENDBRANCH  20  21
ENDBRANCH  19  20
ENDBRANCH  18  19
ENDBRANCH  17  18
ENDBRANCH  16  17
ENDBRANCH  15  16
ENDBRANCH  14  15
ENDBRANCH  13  14
ENDBRANCH   1  13
TORSDOF 20
ENDMDL
