MODEL 1
REMARK VINA RESULT:    -5.608      0.000      0.000
REMARK INTER + INTRA:          -8.495
REMARK INTER:                  -7.903
REMARK INTRA:                  -0.593
REMARK UNBOUND:                -0.593
REMARK SMILES OCC1=C[C@H](O)[C@H]2C=CO[C@@H](O[C@H]3O[C@@H](CO)[C@H](O)[C@H](O)[C@@H]3O)[C@H]12
REMARK SMILES IDX 12 1 11 2 8 3 9 4 7 5 10 6 24 7 5 8 3 9 4 10 6 11 2 13 1 14
REMARK SMILES IDX 13 16 22 17 14 18 20 19 15 20 18 21 23 22 21 24 16 26 17 27
REMARK SMILES IDX 19 29
REMARK H PARENT 6 12 1 15 23 23 21 25 17 28 19 30
REMARK Flexibility Score: inf
ROOT
ATOM      1  O   UNL     1      -7.623   6.306  -3.663  1.00  0.00    -0.310 OA
ENDROOT
BRANCH   1   2
ATOM      2  C   UNL     1      -8.477   5.730  -2.684  1.00  0.00     0.316 C 
ATOM      3  C   UNL     1     -10.489   6.113  -0.619  1.00  0.00     0.018 C 
ATOM      4  C   UNL     1     -10.820   6.266  -1.912  1.00  0.00     0.186 C 
ATOM      5  C   UNL     1      -9.146   5.524  -0.330  1.00  0.00     0.061 C 
ATOM      6  O   UNL     1      -9.871   6.032  -2.937  1.00  0.00    -0.472 OA
ATOM      7  C   UNL     1      -8.118   6.168  -1.249  1.00  0.00     0.096 C 
ATOM      8  C   UNL     1      -8.521   5.664   1.055  1.00  0.00     0.145 C 
ATOM      9  C   UNL     1      -6.845   5.742  -0.594  1.00  0.00    -0.036 C 
ATOM     10  C   UNL     1      -7.064   5.533   0.710  1.00  0.00     0.007 C 
BRANCH   8  11
ATOM     11  O   UNL     1      -8.917   4.622   1.904  1.00  0.00    -0.388 OA
ATOM     12  H   UNL     1      -8.108   4.070   2.062  1.00  0.00     0.211 HD
ENDBRANCH   8  11
BRANCH   9  13
ATOM     13  C   UNL     1      -5.477   5.822  -1.206  1.00  0.00     0.187 C 
BRANCH  13  14
ATOM     14  O   UNL     1      -4.590   4.984  -0.516  1.00  0.00    -0.392 OA
ATOM     15  H   UNL     1      -5.149   4.329  -0.022  1.00  0.00     0.211 HD
ENDBRANCH  13  14
ENDBRANCH   9  13
ENDBRANCH   1   2
BRANCH   1  16
ATOM     16  C   UNL     1      -8.287   7.184  -4.563  1.00  0.00     0.286 C 
ATOM     17  C   UNL     1      -7.469   7.330  -5.877  1.00  0.00     0.202 C 
ATOM     18  O   UNL     1      -8.567   8.410  -3.894  1.00  0.00    -0.341 OA
ATOM     19  C   UNL     1      -7.540   8.762  -6.427  1.00  0.00     0.179 C 
ATOM     20  C   UNL     1      -7.525   9.379  -3.919  1.00  0.00     0.178 C 
ATOM     21  C   UNL     1      -7.043   9.753  -5.356  1.00  0.00     0.177 C 
BRANCH  17  22
ATOM     22  O   UNL     1      -7.945   6.425  -6.841  1.00  0.00    -0.385 OA
ATOM     23  H   UNL     1      -7.682   5.516  -6.538  1.00  0.00     0.211 HD
ENDBRANCH  17  22
BRANCH  19  24
ATOM     24  O   UNL     1      -8.831   9.070  -6.901  1.00  0.00    -0.387 OA
ATOM     25  H   UNL     1      -9.495   8.756  -6.235  1.00  0.00     0.211 HD
ENDBRANCH  19  24
BRANCH  20  26
ATOM     26  C   UNL     1      -6.377   9.048  -2.941  1.00  0.00     0.191 C 
BRANCH  26  27
ATOM     27  O   UNL     1      -5.464  10.104  -2.838  1.00  0.00    -0.394 OA
ATOM     28  H   UNL     1      -5.293  10.415  -3.764  1.00  0.00     0.210 HD
ENDBRANCH  26  27
ENDBRANCH  20  26
BRANCH  21  29
ATOM     29  O   UNL     1      -7.388  11.075  -5.697  1.00  0.00    -0.387 OA
ATOM     30  H   UNL     1      -6.876  11.687  -5.107  1.00  0.00     0.211 HD
ENDBRANCH  21  29
ENDBRANCH   1  16
TORSDOF 10
ENDMDL
MODEL 2
REMARK VINA RESULT:    -5.290      1.633      3.773
REMARK INTER + INTRA:          -8.047
REMARK INTER:                  -6.905
REMARK INTRA:                  -1.142
REMARK UNBOUND:                -0.593
REMARK SMILES OCC1=C[C@H](O)[C@H]2C=CO[C@@H](O[C@H]3O[C@@H](CO)[C@H](O)[C@H](O)[C@@H]3O)[C@H]12
REMARK SMILES IDX 12 1 11 2 8 3 9 4 7 5 10 6 24 7 5 8 3 9 4 10 6 11 2 13 1 14
REMARK SMILES IDX 13 16 22 17 14 18 20 19 15 20 18 21 23 22 21 24 16 26 17 27
REMARK SMILES IDX 19 29
REMARK H PARENT 6 12 1 15 23 23 21 25 17 28 19 30
REMARK Flexibility Score: inf
ROOT
ATOM      1  O   UNL     1      -7.761   6.914  -2.009  1.00  0.00    -0.310 OA
ENDROOT
BRANCH   1   2
ATOM      2  C   UNL     1      -7.880   7.006  -0.597  1.00  0.00     0.316 C 
ATOM      3  C   UNL     1      -7.636   5.717   1.999  1.00  0.00     0.018 C 
ATOM      4  C   UNL     1      -6.531   6.053   1.312  1.00  0.00     0.186 C 
ATOM      5  C   UNL     1      -8.937   6.240   1.483  1.00  0.00     0.061 C 
ATOM      6  O   UNL     1      -6.625   6.730   0.071  1.00  0.00    -0.472 OA
ATOM      7  C   UNL     1      -8.970   6.074  -0.029  1.00  0.00     0.096 C 
ATOM      8  C   UNL     1     -10.256   5.620   1.937  1.00  0.00     0.145 C 
ATOM      9  C   UNL     1     -10.420   6.302  -0.308  1.00  0.00    -0.036 C 
ATOM     10  C   UNL     1     -11.138   5.975   0.773  1.00  0.00     0.007 C 
BRANCH   8  11
ATOM     11  O   UNL     1     -10.729   6.223   3.110  1.00  0.00    -0.388 OA
ATOM     12  H   UNL     1     -10.648   7.201   2.972  1.00  0.00     0.211 HD
ENDBRANCH   8  11
BRANCH   9  13
ATOM     13  C   UNL     1     -11.021   6.559  -1.660  1.00  0.00     0.187 C 
BRANCH  13  14
ATOM     14  O   UNL     1     -10.438   5.716  -2.615  1.00  0.00    -0.392 OA
ATOM     15  H   UNL     1     -10.519   4.792  -2.262  1.00  0.00     0.211 HD
ENDBRANCH  13  14
ENDBRANCH   9  13
ENDBRANCH   1   2
BRANCH   1  16
ATOM     16  C   UNL     1      -6.852   7.850  -2.574  1.00  0.00     0.286 C 
ATOM     17  C   UNL     1      -7.508   9.257  -2.661  1.00  0.00     0.202 C 
ATOM     18  O   UNL     1      -6.369   7.339  -3.813  1.00  0.00    -0.341 OA
ATOM     19  C   UNL     1      -7.084   9.998  -3.937  1.00  0.00     0.179 C 
ATOM     20  C   UNL     1      -7.171   7.624  -4.953  1.00  0.00     0.178 C 
ATOM     21  C   UNL     1      -7.441   9.147  -5.172  1.00  0.00     0.177 C 
BRANCH  17  22
ATOM     22  O   UNL     1      -7.162  10.017  -1.531  1.00  0.00    -0.385 OA
ATOM     23  H   UNL     1      -7.092  10.963  -1.829  1.00  0.00     0.211 HD
ENDBRANCH  17  22
BRANCH  19  24
ATOM     24  O   UNL     1      -5.722  10.360  -3.897  1.00  0.00    -0.387 OA
ATOM     25  H   UNL     1      -5.660  11.347  -3.848  1.00  0.00     0.211 HD
ENDBRANCH  19  24
BRANCH  20  26
ATOM     26  C   UNL     1      -8.439   6.748  -5.027  1.00  0.00     0.191 C 
BRANCH  26  27
ATOM     27  O   UNL     1      -8.189   5.438  -4.600  1.00  0.00    -0.394 OA
ATOM     28  H   UNL     1      -9.029   5.119  -4.180  1.00  0.00     0.210 HD
ENDBRANCH  26  27
ENDBRANCH  20  26
BRANCH  21  29
ATOM     29  O   UNL     1      -6.791   9.634  -6.322  1.00  0.00    -0.387 OA
ATOM     30  H   UNL     1      -6.086  10.268  -6.030  1.00  0.00     0.211 HD
ENDBRANCH  21  29
ENDBRANCH   1  16
TORSDOF 10
ENDMDL
MODEL 3
REMARK VINA RESULT:    -5.073      3.234      7.566
REMARK INTER + INTRA:          -7.742
REMARK INTER:                  -7.196
REMARK INTRA:                  -0.546
REMARK UNBOUND:                -0.593
REMARK SMILES OCC1=C[C@H](O)[C@H]2C=CO[C@@H](O[C@H]3O[C@@H](CO)[C@H](O)[C@H](O)[C@@H]3O)[C@H]12
REMARK SMILES IDX 12 1 11 2 8 3 9 4 7 5 10 6 24 7 5 8 3 9 4 10 6 11 2 13 1 14
REMARK SMILES IDX 13 16 22 17 14 18 20 19 15 20 18 21 23 22 21 24 16 26 17 27
REMARK SMILES IDX 19 29
REMARK H PARENT 6 12 1 15 23 23 21 25 17 28 19 30
REMARK Flexibility Score: inf
ROOT
ATOM      1  O   UNL     1      -9.315   6.536   2.170  1.00  0.00    -0.310 OA
ENDROOT
BRANCH   1   2
ATOM      2  C   UNL     1      -9.499   5.732   1.013  1.00  0.00     0.316 C 
ATOM      3  C   UNL     1      -8.519   3.597  -0.701  1.00  0.00     0.018 C 
ATOM      4  C   UNL     1      -9.026   3.304   0.509  1.00  0.00     0.186 C 
ATOM      5  C   UNL     1      -8.703   4.996  -1.190  1.00  0.00     0.061 C 
ATOM      6  O   UNL     1      -9.558   4.322   1.338  1.00  0.00    -0.472 OA
ATOM      7  C   UNL     1      -8.406   5.960  -0.051  1.00  0.00     0.096 C 
ATOM      8  C   UNL     1      -7.854   5.533  -2.339  1.00  0.00     0.145 C 
ATOM      9  C   UNL     1      -8.290   7.251  -0.794  1.00  0.00    -0.036 C 
ATOM     10  C   UNL     1      -7.909   7.007  -2.053  1.00  0.00     0.007 C 
BRANCH   8  11
ATOM     11  O   UNL     1      -8.438   5.254  -3.583  1.00  0.00    -0.388 OA
ATOM     12  H   UNL     1      -9.398   5.487  -3.496  1.00  0.00     0.211 HD
ENDBRANCH   8  11
BRANCH   9  13
ATOM     13  C   UNL     1      -8.296   8.619  -0.176  1.00  0.00     0.187 C 
BRANCH  13  14
ATOM     14  O   UNL     1      -9.583   8.938   0.277  1.00  0.00    -0.392 OA
ATOM     15  H   UNL     1      -9.942   9.617  -0.352  1.00  0.00     0.211 HD
ENDBRANCH  13  14
ENDBRANCH   9  13
ENDBRANCH   1   2
BRANCH   1  16
ATOM     16  C   UNL     1      -9.029   5.795   3.348  1.00  0.00     0.286 C 
ATOM     17  C   UNL     1      -9.156   6.704   4.603  1.00  0.00     0.202 C 
ATOM     18  O   UNL     1      -7.765   5.156   3.199  1.00  0.00    -0.341 OA
ATOM     19  C   UNL     1      -8.093   6.361   5.656  1.00  0.00     0.179 C 
ATOM     20  C   UNL     1      -6.632   5.934   3.568  1.00  0.00     0.178 C 
ATOM     21  C   UNL     1      -6.689   6.479   5.031  1.00  0.00     0.177 C 
BRANCH  17  22
ATOM     22  O   UNL     1     -10.439   6.573   5.161  1.00  0.00    -0.385 OA
ATOM     23  H   UNL     1     -10.570   5.609   5.362  1.00  0.00     0.211 HD
ENDBRANCH  17  22
BRANCH  19  24
ATOM     24  O   UNL     1      -8.328   5.099   6.237  1.00  0.00    -0.387 OA
ATOM     25  H   UNL     1      -8.638   5.234   7.169  1.00  0.00     0.211 HD
ENDBRANCH  19  24
BRANCH  20  26
ATOM     26  C   UNL     1      -6.273   7.003   2.515  1.00  0.00     0.191 C 
BRANCH  26  27
ATOM     27  O   UNL     1      -5.821   8.186   3.112  1.00  0.00    -0.394 OA
ATOM     28  H   UNL     1      -6.054   8.919   2.485  1.00  0.00     0.210 HD
ENDBRANCH  26  27
ENDBRANCH  20  26
BRANCH  21  29
ATOM     29  O   UNL     1      -5.720   5.874   5.854  1.00  0.00    -0.387 OA
ATOM     30  H   UNL     1      -5.663   4.915   5.604  1.00  0.00     0.211 HD
ENDBRANCH  21  29
ENDBRANCH   1  16
TORSDOF 10
ENDMDL
MODEL 4
REMARK VINA RESULT:    -5.030      2.046      3.258
REMARK INTER + INTRA:          -7.681
REMARK INTER:                  -6.127
REMARK INTRA:                  -1.555
REMARK UNBOUND:                -0.593
REMARK SMILES OCC1=C[C@H](O)[C@H]2C=CO[C@@H](O[C@H]3O[C@@H](CO)[C@H](O)[C@H](O)[C@@H]3O)[C@H]12
REMARK SMILES IDX 12 1 11 2 8 3 9 4 7 5 10 6 24 7 5 8 3 9 4 10 6 11 2 13 1 14
REMARK SMILES IDX 13 16 22 17 14 18 20 19 15 20 18 21 23 22 21 24 16 26 17 27
REMARK SMILES IDX 19 29
REMARK H PARENT 6 12 1 15 23 23 21 25 17 28 19 30
REMARK Flexibility Score: inf
ROOT
ATOM      1  O   UNL     1      -7.885   7.506  -1.409  1.00  0.00    -0.310 OA
ENDROOT
BRANCH   1   2
ATOM      2  C   UNL     1      -8.271   6.732  -0.282  1.00  0.00     0.316 C 
ATOM      3  C   UNL     1      -9.732   4.449   0.773  1.00  0.00     0.018 C 
ATOM      4  C   UNL     1      -8.598   4.255   0.078  1.00  0.00     0.186 C 
ATOM      5  C   UNL     1     -10.054   5.856   1.161  1.00  0.00     0.061 C 
ATOM      6  O   UNL     1      -7.842   5.354  -0.399  1.00  0.00    -0.472 OA
ATOM      7  C   UNL     1      -9.792   6.768  -0.028  1.00  0.00     0.096 C 
ATOM      8  C   UNL     1     -11.467   6.235   1.596  1.00  0.00     0.145 C 
ATOM      9  C   UNL     1     -10.485   8.015   0.413  1.00  0.00    -0.036 C 
ATOM     10  C   UNL     1     -11.469   7.701   1.265  1.00  0.00     0.007 C 
BRANCH   8  11
ATOM     11  O   UNL     1     -11.650   6.045   2.972  1.00  0.00    -0.388 OA
ATOM     12  H   UNL     1     -11.647   6.949   3.379  1.00  0.00     0.211 HD
ENDBRANCH   8  11
BRANCH   9  13
ATOM     13  C   UNL     1     -10.327   9.372  -0.211  1.00  0.00     0.187 C 
BRANCH  13  14
ATOM     14  O   UNL     1      -9.094   9.929   0.155  1.00  0.00    -0.392 OA
ATOM     15  H   UNL     1      -8.397   9.417  -0.332  1.00  0.00     0.211 HD
ENDBRANCH  13  14
ENDBRANCH   9  13
ENDBRANCH   1   2
BRANCH   1  16
ATOM     16  C   UNL     1      -8.632   7.224  -2.586  1.00  0.00     0.286 C 
ATOM     17  C   UNL     1      -7.807   6.323  -3.546  1.00  0.00     0.202 C 
ATOM     18  O   UNL     1      -9.081   8.450  -3.155  1.00  0.00    -0.341 OA
ATOM     19  C   UNL     1      -8.044   6.701  -5.015  1.00  0.00     0.179 C 
ATOM     20  C   UNL     1      -8.170   9.090  -4.041  1.00  0.00     0.178 C 
ATOM     21  C   UNL     1      -7.704   8.189  -5.229  1.00  0.00     0.177 C 
BRANCH  17  22
ATOM     22  O   UNL     1      -8.140   4.973  -3.342  1.00  0.00    -0.385 OA
ATOM     23  H   UNL     1      -8.007   4.786  -2.375  1.00  0.00     0.211 HD
ENDBRANCH  17  22
BRANCH  19  24
ATOM     24  O   UNL     1      -9.352   6.374  -5.428  1.00  0.00    -0.387 OA
ATOM     25  H   UNL     1      -9.734   5.726  -4.783  1.00  0.00     0.211 HD
ENDBRANCH  19  24
BRANCH  20  26
ATOM     26  C   UNL     1      -7.015   9.798  -3.302  1.00  0.00     0.191 C 
BRANCH  26  27
ATOM     27  O   UNL     1      -7.453  10.415  -2.125  1.00  0.00    -0.394 OA
ATOM     28  H   UNL     1      -7.569   9.689  -1.458  1.00  0.00     0.210 HD
ENDBRANCH  26  27
ENDBRANCH  20  26
BRANCH  21  29
ATOM     29  O   UNL     1      -8.205   8.647  -6.462  1.00  0.00    -0.387 OA
ATOM     30  H   UNL     1      -7.596   8.327  -7.177  1.00  0.00     0.211 HD
ENDBRANCH  21  29
ENDBRANCH   1  16
TORSDOF 10
ENDMDL
MODEL 5
REMARK VINA RESULT:    -4.991      1.824      6.696
REMARK INTER + INTRA:          -7.626
REMARK INTER:                  -6.298
REMARK INTRA:                  -1.328
REMARK UNBOUND:                -0.593
REMARK SMILES OCC1=C[C@H](O)[C@H]2C=CO[C@@H](O[C@H]3O[C@@H](CO)[C@H](O)[C@H](O)[C@@H]3O)[C@H]12
REMARK SMILES IDX 12 1 11 2 8 3 9 4 7 5 10 6 24 7 5 8 3 9 4 10 6 11 2 13 1 14
REMARK SMILES IDX 13 16 22 17 14 18 20 19 15 20 18 21 23 22 21 24 16 26 17 27
REMARK SMILES IDX 19 29
REMARK H PARENT 6 12 1 15 23 23 21 25 17 28 19 30
REMARK Flexibility Score: inf
ROOT
ATOM      1  O   UNL     1      -8.077   6.863  -1.221  1.00  0.00    -0.310 OA
ENDROOT
BRANCH   1   2
ATOM      2  C   UNL     1      -7.281   7.571  -2.160  1.00  0.00     0.316 C 
ATOM      3  C   UNL     1      -6.834  10.000  -3.697  1.00  0.00     0.018 C 
ATOM      4  C   UNL     1      -6.611   9.996  -2.372  1.00  0.00     0.186 C 
ATOM      5  C   UNL     1      -7.082   8.676  -4.344  1.00  0.00     0.061 C 
ATOM      6  O   UNL     1      -6.771   8.810  -1.612  1.00  0.00    -0.472 OA
ATOM      7  C   UNL     1      -8.034   7.872  -3.473  1.00  0.00     0.096 C 
ATOM      8  C   UNL     1      -7.717   8.599  -5.730  1.00  0.00     0.145 C 
ATOM      9  C   UNL     1      -8.432   6.784  -4.416  1.00  0.00    -0.036 C 
ATOM     10  C   UNL     1      -8.322   7.224  -5.675  1.00  0.00     0.007 C 
BRANCH   8  11
ATOM     11  O   UNL     1      -6.750   8.667  -6.742  1.00  0.00    -0.388 OA
ATOM     12  H   UNL     1      -6.035   8.029  -6.486  1.00  0.00     0.211 HD
ENDBRANCH   8  11
BRANCH   9  13
ATOM     13  C   UNL     1      -9.132   5.510  -4.038  1.00  0.00     0.187 C 
BRANCH  13  14
ATOM     14  O   UNL     1     -10.131   5.772  -3.091  1.00  0.00    -0.392 OA
ATOM     15  H   UNL     1     -10.716   6.472  -3.485  1.00  0.00     0.211 HD
ENDBRANCH  13  14
ENDBRANCH   9  13
ENDBRANCH   1   2
BRANCH   1  16
ATOM     16  C   UNL     1      -7.755   7.143   0.135  1.00  0.00     0.286 C 
ATOM     17  C   UNL     1      -7.283   5.850   0.857  1.00  0.00     0.202 C 
ATOM     18  O   UNL     1      -8.860   7.799   0.749  1.00  0.00    -0.341 OA
ATOM     19  C   UNL     1      -7.775   5.804   2.310  1.00  0.00     0.179 C 
ATOM     20  C   UNL     1      -9.859   6.946   1.297  1.00  0.00     0.178 C 
ATOM     21  C   UNL     1      -9.312   5.920   2.339  1.00  0.00     0.177 C 
BRANCH  17  22
ATOM     22  O   UNL     1      -5.880   5.770   0.827  1.00  0.00    -0.385 OA
ATOM     23  H   UNL     1      -5.565   5.860   1.765  1.00  0.00     0.211 HD
ENDBRANCH  17  22
BRANCH  19  24
ATOM     24  O   UNL     1      -7.138   6.779   3.103  1.00  0.00    -0.387 OA
ATOM     25  H   UNL     1      -6.175   6.554   3.167  1.00  0.00     0.211 HD
ENDBRANCH  19  24
BRANCH  20  26
ATOM     26  C   UNL     1     -10.766   6.318   0.217  1.00  0.00     0.191 C 
BRANCH  26  27
ATOM     27  O   UNL     1     -11.061   7.227  -0.805  1.00  0.00    -0.394 OA
ATOM     28  H   UNL     1     -10.433   7.986  -0.692  1.00  0.00     0.210 HD
ENDBRANCH  26  27
ENDBRANCH  20  26
BRANCH  21  29
ATOM     29  O   UNL     1      -9.770   6.201   3.641  1.00  0.00    -0.387 OA
ATOM     30  H   UNL     1      -9.788   7.187   3.753  1.00  0.00     0.211 HD
ENDBRANCH  21  29
ENDBRANCH   1  16
TORSDOF 10
ENDMDL
MODEL 6
REMARK VINA RESULT:    -4.961      1.984      2.971
REMARK INTER + INTRA:          -7.584
REMARK INTER:                  -6.328
REMARK INTRA:                  -1.256
REMARK UNBOUND:                -0.593
REMARK SMILES OCC1=C[C@H](O)[C@H]2C=CO[C@@H](O[C@H]3O[C@@H](CO)[C@H](O)[C@H](O)[C@@H]3O)[C@H]12
REMARK SMILES IDX 12 1 11 2 8 3 9 4 7 5 10 6 24 7 5 8 3 9 4 10 6 11 2 13 1 14
REMARK SMILES IDX 13 16 22 17 14 18 20 19 15 20 18 21 23 22 21 24 16 26 17 27
REMARK SMILES IDX 19 29
REMARK H PARENT 6 12 1 15 23 23 21 25 17 28 19 30
REMARK Flexibility Score: inf
ROOT
ATOM      1  O   UNL     1      -6.837   8.258  -4.779  1.00  0.00    -0.310 OA
ENDROOT
BRANCH   1   2
ATOM      2  C   UNL     1      -7.097   7.404  -3.674  1.00  0.00     0.316 C 
ATOM      3  C   UNL     1      -9.047   6.041  -2.001  1.00  0.00     0.018 C 
ATOM      4  C   UNL     1      -8.819   5.607  -3.252  1.00  0.00     0.186 C 
ATOM      5  C   UNL     1      -8.107   7.070  -1.461  1.00  0.00     0.061 C 
ATOM      6  O   UNL     1      -7.835   6.221  -4.066  1.00  0.00    -0.472 OA
ATOM      7  C   UNL     1      -7.853   8.118  -2.534  1.00  0.00     0.096 C 
ATOM      8  C   UNL     1      -8.487   7.900  -0.238  1.00  0.00     0.145 C 
ATOM      9  C   UNL     1      -7.217   9.202  -1.729  1.00  0.00    -0.036 C 
ATOM     10  C   UNL     1      -7.634   9.118  -0.460  1.00  0.00     0.007 C 
BRANCH   8  11
ATOM     11  O   UNL     1      -8.121   7.258   0.953  1.00  0.00    -0.388 OA
ATOM     12  H   UNL     1      -7.947   7.977   1.613  1.00  0.00     0.211 HD
ENDBRANCH   8  11
BRANCH   9  13
ATOM     13  C   UNL     1      -6.473  10.382  -2.283  1.00  0.00     0.187 C 
BRANCH  13  14
ATOM     14  O   UNL     1      -5.216   9.981  -2.756  1.00  0.00    -0.392 OA
ATOM     15  H   UNL     1      -5.265  10.014  -3.747  1.00  0.00     0.211 HD
ENDBRANCH  13  14
ENDBRANCH   9  13
ENDBRANCH   1   2
BRANCH   1  16
ATOM     16  C   UNL     1      -7.900   8.321  -5.721  1.00  0.00     0.286 C 
ATOM     17  C   UNL     1      -7.478   7.651  -7.058  1.00  0.00     0.202 C 
ATOM     18  O   UNL     1      -8.332   9.673  -5.842  1.00  0.00    -0.341 OA
ATOM     19  C   UNL     1      -8.052   8.400  -8.269  1.00  0.00     0.179 C 
ATOM     20  C   UNL     1      -7.621  10.468  -6.783  1.00  0.00     0.178 C 
ATOM     21  C   UNL     1      -7.603   9.874  -8.227  1.00  0.00     0.177 C 
BRANCH  17  22
ATOM     22  O   UNL     1      -7.906   6.313  -7.079  1.00  0.00    -0.385 OA
ATOM     23  H   UNL     1      -7.428   5.845  -6.344  1.00  0.00     0.211 HD
ENDBRANCH  17  22
BRANCH  19  24
ATOM     24  O   UNL     1      -9.452   8.257  -8.349  1.00  0.00    -0.387 OA
ATOM     25  H   UNL     1      -9.668   7.291  -8.407  1.00  0.00     0.211 HD
ENDBRANCH  19  24
BRANCH  20  26
ATOM     26  C   UNL     1      -6.233  10.905  -6.270  1.00  0.00     0.191 C 
BRANCH  26  27
ATOM     27  O   UNL     1      -5.208  10.126  -6.820  1.00  0.00    -0.394 OA
ATOM     28  H   UNL     1      -5.069  10.463  -7.743  1.00  0.00     0.210 HD
ENDBRANCH  26  27
ENDBRANCH  20  26
BRANCH  21  29
ATOM     29  O   UNL     1      -8.356  10.654  -9.125  1.00  0.00    -0.387 OA
ATOM     30  H   UNL     1      -7.795  10.826  -9.926  1.00  0.00     0.211 HD
ENDBRANCH  21  29
ENDBRANCH   1  16
TORSDOF 10
ENDMDL
MODEL 7
REMARK VINA RESULT:    -4.859      3.986      6.545
REMARK INTER + INTRA:          -7.441
REMARK INTER:                  -5.848
REMARK INTRA:                  -1.592
REMARK UNBOUND:                -0.593
REMARK SMILES OCC1=C[C@H](O)[C@H]2C=CO[C@@H](O[C@H]3O[C@@H](CO)[C@H](O)[C@H](O)[C@@H]3O)[C@H]12
REMARK SMILES IDX 12 1 11 2 8 3 9 4 7 5 10 6 24 7 5 8 3 9 4 10 6 11 2 13 1 14
REMARK SMILES IDX 13 16 22 17 14 18 20 19 15 20 18 21 23 22 21 24 16 26 17 27
REMARK SMILES IDX 19 29
REMARK H PARENT 6 12 1 15 23 23 21 25 17 28 19 30
REMARK Flexibility Score: inf
ROOT
ATOM      1  O   UNL     1      -8.996   6.781   2.610  1.00  0.00    -0.310 OA
ENDROOT
BRANCH   1   2
ATOM      2  C   UNL     1      -9.304   6.304   3.912  1.00  0.00     0.316 C 
ATOM      3  C   UNL     1      -9.886   6.907   6.697  1.00  0.00     0.018 C 
ATOM      4  C   UNL     1     -10.806   7.162   5.751  1.00  0.00     0.186 C 
ATOM      5  C   UNL     1      -8.694   6.107   6.282  1.00  0.00     0.061 C 
ATOM      6  O   UNL     1     -10.565   6.827   4.395  1.00  0.00    -0.472 OA
ATOM      7  C   UNL     1      -8.198   6.622   4.940  1.00  0.00     0.096 C 
ATOM      8  C   UNL     1      -7.435   6.091   7.144  1.00  0.00     0.145 C 
ATOM      9  C   UNL     1      -6.852   5.978   4.868  1.00  0.00    -0.036 C 
ATOM     10  C   UNL     1      -6.400   5.752   6.108  1.00  0.00     0.007 C 
BRANCH   8  11
ATOM     11  O   UNL     1      -7.494   5.088   8.121  1.00  0.00    -0.388 OA
ATOM     12  H   UNL     1      -6.868   5.365   8.840  1.00  0.00     0.211 HD
ENDBRANCH   8  11
BRANCH   9  13
ATOM     13  C   UNL     1      -5.997   5.872   3.638  1.00  0.00     0.187 C 
BRANCH  13  14
ATOM     14  O   UNL     1      -5.998   7.090   2.945  1.00  0.00    -0.392 OA
ATOM     15  H   UNL     1      -5.533   6.923   2.084  1.00  0.00     0.211 HD
ENDBRANCH  13  14
ENDBRANCH   9  13
ENDBRANCH   1   2
BRANCH   1  16
ATOM     16  C   UNL     1      -9.076   5.786   1.597  1.00  0.00     0.286 C 
ATOM     17  C   UNL     1      -8.143   6.148   0.409  1.00  0.00     0.202 C 
ATOM     18  O   UNL     1     -10.443   5.592   1.245  1.00  0.00    -0.341 OA
ATOM     19  C   UNL     1      -8.769   5.761  -0.938  1.00  0.00     0.179 C 
ATOM     20  C   UNL     1     -10.954   6.467   0.246  1.00  0.00     0.178 C 
ATOM     21  C   UNL     1     -10.141   6.449  -1.087  1.00  0.00     0.177 C 
BRANCH  17  22
ATOM     22  O   UNL     1      -6.903   5.503   0.560  1.00  0.00    -0.385 OA
ATOM     23  H   UNL     1      -7.095   4.571   0.845  1.00  0.00     0.211 HD
ENDBRANCH  17  22
BRANCH  19  24
ATOM     24  O   UNL     1      -8.840   4.362  -1.093  1.00  0.00    -0.387 OA
ATOM     25  H   UNL     1      -7.964   3.972  -0.840  1.00  0.00     0.211 HD
ENDBRANCH  19  24
BRANCH  20  26
ATOM     26  C   UNL     1     -11.242   7.885   0.784  1.00  0.00     0.191 C 
BRANCH  26  27
ATOM     27  O   UNL     1     -11.831   7.849   2.053  1.00  0.00    -0.394 OA
ATOM     28  H   UNL     1     -12.678   7.342   1.951  1.00  0.00     0.210 HD
ENDBRANCH  26  27
ENDBRANCH  20  26
BRANCH  21  29
ATOM     29  O   UNL     1     -10.878   5.877  -2.142  1.00  0.00    -0.387 OA
ATOM     30  H   UNL     1     -10.973   4.907  -1.958  1.00  0.00     0.211 HD
ENDBRANCH  21  29
ENDBRANCH   1  16
TORSDOF 10
ENDMDL
MODEL 8
REMARK VINA RESULT:    -4.826      2.282      4.641
REMARK INTER + INTRA:          -7.393
REMARK INTER:                  -5.762
REMARK INTRA:                  -1.632
REMARK UNBOUND:                -0.593
REMARK SMILES OCC1=C[C@H](O)[C@H]2C=CO[C@@H](O[C@H]3O[C@@H](CO)[C@H](O)[C@H](O)[C@@H]3O)[C@H]12
REMARK SMILES IDX 12 1 11 2 8 3 9 4 7 5 10 6 24 7 5 8 3 9 4 10 6 11 2 13 1 14
REMARK SMILES IDX 13 16 22 17 14 18 20 19 15 20 18 21 23 22 21 24 16 26 17 27
REMARK SMILES IDX 19 29
REMARK H PARENT 6 12 1 15 23 23 21 25 17 28 19 30
REMARK Flexibility Score: inf
ROOT
ATOM      1  O   UNL     1      -7.833   9.245  -5.774  1.00  0.00    -0.310 OA
ENDROOT
BRANCH   1   2
ATOM      2  C   UNL     1      -7.903   9.504  -4.379  1.00  0.00     0.316 C 
ATOM      3  C   UNL     1      -6.520   9.736  -1.830  1.00  0.00     0.018 C 
ATOM      4  C   UNL     1      -6.363  10.687  -2.766  1.00  0.00     0.186 C 
ATOM      5  C   UNL     1      -7.589   8.720  -2.073  1.00  0.00     0.061 C 
ATOM      6  O   UNL     1      -7.068  10.622  -3.993  1.00  0.00    -0.472 OA
ATOM      7  C   UNL     1      -7.525   8.274  -3.526  1.00  0.00     0.096 C 
ATOM      8  C   UNL     1      -7.597   7.405  -1.298  1.00  0.00     0.145 C 
ATOM      9  C   UNL     1      -8.384   7.053  -3.486  1.00  0.00    -0.036 C 
ATOM     10  C   UNL     1      -8.360   6.531  -2.254  1.00  0.00     0.007 C 
BRANCH   8  11
ATOM     11  O   UNL     1      -8.292   7.527  -0.087  1.00  0.00    -0.388 OA
ATOM     12  H   UNL     1      -7.761   8.146   0.476  1.00  0.00     0.211 HD
ENDBRANCH   8  11
BRANCH   9  13
ATOM     13  C   UNL     1      -8.943   6.338  -4.682  1.00  0.00     0.187 C 
BRANCH  13  14
ATOM     14  O   UNL     1      -7.906   5.946  -5.538  1.00  0.00    -0.392 OA
ATOM     15  H   UNL     1      -7.458   5.174  -5.103  1.00  0.00     0.211 HD
ENDBRANCH  13  14
ENDBRANCH   9  13
ENDBRANCH   1   2
BRANCH   1  16
ATOM     16  C   UNL     1      -6.523   8.950  -6.241  1.00  0.00     0.286 C 
ATOM     17  C   UNL     1      -5.904  10.196  -6.935  1.00  0.00     0.202 C 
ATOM     18  O   UNL     1      -6.572   7.779  -7.050  1.00  0.00    -0.341 OA
ATOM     19  C   UNL     1      -5.053   9.799  -8.150  1.00  0.00     0.179 C 
ATOM     20  C   UNL     1      -6.876   7.989  -8.424  1.00  0.00     0.178 C 
ATOM     21  C   UNL     1      -5.912   8.988  -9.140  1.00  0.00     0.177 C 
BRANCH  17  22
ATOM     22  O   UNL     1      -5.118  10.913  -6.017  1.00  0.00    -0.385 OA
ATOM     23  H   UNL     1      -4.925  10.300  -5.260  1.00  0.00     0.211 HD
ENDBRANCH  17  22
BRANCH  19  24
ATOM     24  O   UNL     1      -3.880   9.120  -7.761  1.00  0.00    -0.387 OA
ATOM     25  H   UNL     1      -3.487   9.591  -6.982  1.00  0.00     0.211 HD
ENDBRANCH  19  24
BRANCH  20  26
ATOM     26  C   UNL     1      -8.372   8.281  -8.668  1.00  0.00     0.191 C 
BRANCH  26  27
ATOM     27  O   UNL     1      -9.190   7.566  -7.785  1.00  0.00    -0.394 OA
ATOM     28  H   UNL     1      -9.386   8.179  -7.030  1.00  0.00     0.210 HD
ENDBRANCH  26  27
ENDBRANCH  20  26
BRANCH  21  29
ATOM     29  O   UNL     1      -5.103   8.342 -10.095  1.00  0.00    -0.387 OA
ATOM     30  H   UNL     1      -4.254   8.849 -10.170  1.00  0.00     0.211 HD
ENDBRANCH  21  29
ENDBRANCH   1  16
TORSDOF 10
ENDMDL
MODEL 9
REMARK VINA RESULT:    -4.693      2.280      3.723
REMARK INTER + INTRA:          -7.205
REMARK INTER:                  -5.946
REMARK INTRA:                  -1.259
REMARK UNBOUND:                -0.593
REMARK SMILES OCC1=C[C@H](O)[C@H]2C=CO[C@@H](O[C@H]3O[C@@H](CO)[C@H](O)[C@H](O)[C@@H]3O)[C@H]12
REMARK SMILES IDX 12 1 11 2 8 3 9 4 7 5 10 6 24 7 5 8 3 9 4 10 6 11 2 13 1 14
REMARK SMILES IDX 13 16 22 17 14 18 20 19 15 20 18 21 23 22 21 24 16 26 17 27
REMARK SMILES IDX 19 29
REMARK H PARENT 6 12 1 15 23 23 21 25 17 28 19 30
REMARK Flexibility Score: inf
ROOT
ATOM      1  O   UNL     1      -7.055   8.529  -4.921  1.00  0.00    -0.310 OA
ENDROOT
BRANCH   1   2
ATOM      2  C   UNL     1      -7.531   9.213  -3.771  1.00  0.00     0.316 C 
ATOM      3  C   UNL     1      -7.089  10.031  -1.015  1.00  0.00     0.018 C 
ATOM      4  C   UNL     1      -6.395  10.616  -2.007  1.00  0.00     0.186 C 
ATOM      5  C   UNL     1      -8.223   9.145  -1.416  1.00  0.00     0.061 C 
ATOM      6  O   UNL     1      -6.633  10.272  -3.360  1.00  0.00    -0.472 OA
ATOM      7  C   UNL     1      -7.778   8.268  -2.576  1.00  0.00     0.096 C 
ATOM      8  C   UNL     1      -8.815   8.148  -0.424  1.00  0.00     0.145 C 
ATOM      9  C   UNL     1      -8.868   7.248  -2.596  1.00  0.00    -0.036 C 
ATOM     10  C   UNL     1      -9.394   7.134  -1.370  1.00  0.00     0.007 C 
BRANCH   8  11
ATOM     11  O   UNL     1      -9.830   8.731   0.347  1.00  0.00    -0.388 OA
ATOM     12  H   UNL     1     -10.284   9.387  -0.242  1.00  0.00     0.211 HD
ENDBRANCH   8  11
BRANCH   9  13
ATOM     13  C   UNL     1      -9.142   6.281  -3.712  1.00  0.00     0.187 C 
BRANCH  13  14
ATOM     14  O   UNL     1      -7.954   5.651  -4.106  1.00  0.00    -0.392 OA
ATOM     15  H   UNL     1      -7.256   5.937  -3.461  1.00  0.00     0.211 HD
ENDBRANCH  13  14
ENDBRANCH   9  13
ENDBRANCH   1   2
BRANCH   1  16
ATOM     16  C   UNL     1      -7.974   8.516  -6.006  1.00  0.00     0.286 C 
ATOM     17  C   UNL     1      -7.459   7.584  -7.139  1.00  0.00     0.202 C 
ATOM     18  O   UNL     1      -8.236   9.857  -6.409  1.00  0.00    -0.341 OA
ATOM     19  C   UNL     1      -7.786   8.152  -8.527  1.00  0.00     0.179 C 
ATOM     20  C   UNL     1      -7.327  10.408  -7.354  1.00  0.00     0.178 C 
ATOM     21  C   UNL     1      -7.188   9.566  -8.663  1.00  0.00     0.177 C 
BRANCH  17  22
ATOM     22  O   UNL     1      -8.025   6.305  -7.002  1.00  0.00    -0.385 OA
ATOM     23  H   UNL     1      -8.986   6.436  -6.786  1.00  0.00     0.211 HD
ENDBRANCH  17  22
BRANCH  19  24
ATOM     24  O   UNL     1      -9.172   8.118  -8.786  1.00  0.00    -0.387 OA
ATOM     25  H   UNL     1      -9.341   7.463  -9.510  1.00  0.00     0.211 HD
ENDBRANCH  19  24
BRANCH  20  26
ATOM     26  C   UNL     1      -5.977  10.808  -6.722  1.00  0.00     0.191 C 
BRANCH  26  27
ATOM     27  O   UNL     1      -4.976   9.868  -6.998  1.00  0.00    -0.394 OA
ATOM     28  H   UNL     1      -4.798   9.931  -7.971  1.00  0.00     0.210 HD
ENDBRANCH  26  27
ENDBRANCH  20  26
BRANCH  21  29
ATOM     29  O   UNL     1      -7.728  10.237  -9.776  1.00  0.00    -0.387 OA
ATOM     30  H   UNL     1      -7.441   9.753 -10.594  1.00  0.00     0.211 HD
ENDBRANCH  21  29
ENDBRANCH   1  16
TORSDOF 10
ENDMDL
