MODEL 1
REMARK VINA RESULT:    -4.226      0.000      0.000
REMARK INTER + INTRA:          -5.091
REMARK INTER:                  -4.968
REMARK INTRA:                  -0.123
REMARK UNBOUND:                -0.123
REMARK SMILES O=C([O-])C=Cc1ccc(O)c(O)c1
REMARK SMILES IDX 6 1 13 2 7 3 11 4 8 5 9 6 5 7 4 8 2 9 1 10 3 11 12 12 10 14
REMARK H PARENT 12 13 10 15
REMARK Flexibility Score: inf
ROOT
ATOM      1  C   UNL     1      -5.422  84.967  -9.664  1.00  0.00    -0.022 A 
ATOM      2  C   UNL     1      -4.338  85.449  -8.906  1.00  0.00     0.058 A 
ATOM      3  C   UNL     1      -5.443  83.613 -10.027  1.00  0.00     0.012 A 
ATOM      4  C   UNL     1      -3.307  84.593  -8.496  1.00  0.00     0.157 A 
ATOM      5  C   UNL     1      -4.422  82.752  -9.620  1.00  0.00     0.051 A 
ATOM      6  C   UNL     1      -3.353  83.225  -8.853  1.00  0.00     0.157 A 
ENDROOT
BRANCH   1   7
ATOM      7  C   UNL     1      -6.526  85.844 -10.128  1.00  0.00     0.010 C 
ATOM      8  C   UNL     1      -6.365  87.133 -10.454  1.00  0.00     0.025 C 
BRANCH   8   9
ATOM      9  C   UNL     1      -7.491  87.969 -10.898  1.00  0.00     0.064 C 
ATOM     10  O   UNL     1      -8.458  88.175 -10.117  1.00  0.00    -0.545 OA
ATOM     11  O   UNL     1      -7.507  88.538 -12.166  1.00  0.00    -0.545 OA
ENDBRANCH   8   9
ENDBRANCH   1   7
BRANCH   4  12
ATOM     12  O   UNL     1      -2.263  85.141  -7.747  1.00  0.00    -0.504 OA
ATOM     13  H   UNL     1      -1.331  85.292  -8.104  1.00  0.00     0.293 HD
ENDBRANCH   4  12
BRANCH   6  14
ATOM     14  O   UNL     1      -2.368  82.311  -8.472  1.00  0.00    -0.504 OA
ATOM     15  H   UNL     1      -1.687  81.918  -9.105  1.00  0.00     0.293 HD
ENDBRANCH   6  14
TORSDOF 4
ENDMDL
MODEL 2
REMARK VINA RESULT:    -4.191      8.053     10.973
REMARK INTER + INTRA:          -5.049
REMARK INTER:                  -4.926
REMARK INTRA:                  -0.123
REMARK UNBOUND:                -0.123
REMARK SMILES O=C([O-])C=Cc1ccc(O)c(O)c1
REMARK SMILES IDX 6 1 13 2 7 3 11 4 8 5 9 6 5 7 4 8 2 9 1 10 3 11 12 12 10 14
REMARK H PARENT 12 13 10 15
REMARK Flexibility Score: inf
ROOT
ATOM      1  C   UNL     1      -3.925  91.891 -16.783  1.00  0.00    -0.022 A 
ATOM      2  C   UNL     1      -5.095  91.456 -17.435  1.00  0.00     0.058 A 
ATOM      3  C   UNL     1      -2.888  92.438 -17.551  1.00  0.00     0.012 A 
ATOM      4  C   UNL     1      -5.239  91.586 -18.823  1.00  0.00     0.157 A 
ATOM      5  C   UNL     1      -3.023  92.574 -18.934  1.00  0.00     0.051 A 
ATOM      6  C   UNL     1      -4.190  92.159 -19.582  1.00  0.00     0.157 A 
ENDROOT
BRANCH   1   7
ATOM      7  C   UNL     1      -3.731  91.759 -15.318  1.00  0.00     0.010 C 
ATOM      8  C   UNL     1      -4.342  92.535 -14.413  1.00  0.00     0.025 C 
BRANCH   8   9
ATOM      9  C   UNL     1      -4.110  92.376 -12.969  1.00  0.00     0.064 C 
ATOM     10  O   UNL     1      -3.779  93.377 -12.280  1.00  0.00    -0.545 OA
ATOM     11  O   UNL     1      -4.253  91.140 -12.350  1.00  0.00    -0.545 OA
ENDBRANCH   8   9
ENDBRANCH   1   7
BRANCH   4  12
ATOM     12  O   UNL     1      -6.425  91.133 -19.402  1.00  0.00    -0.504 OA
ATOM     13  H   UNL     1      -7.133  91.739 -19.791  1.00  0.00     0.293 HD
ENDBRANCH   4  12
BRANCH   6  14
ATOM     14  O   UNL     1      -4.265  92.330 -20.966  1.00  0.00    -0.504 OA
ATOM     15  H   UNL     1      -3.651  91.875 -21.625  1.00  0.00     0.293 HD
ENDBRANCH   6  14
TORSDOF 4
ENDMDL
MODEL 3
REMARK VINA RESULT:    -4.108      3.237      3.981
REMARK INTER + INTRA:          -4.951
REMARK INTER:                  -4.809
REMARK INTRA:                  -0.142
REMARK UNBOUND:                -0.123
REMARK SMILES O=C([O-])C=Cc1ccc(O)c(O)c1
REMARK SMILES IDX 6 1 13 2 7 3 11 4 8 5 9 6 5 7 4 8 2 9 1 10 3 11 12 12 10 14
REMARK H PARENT 12 13 10 15
REMARK Flexibility Score: inf
ROOT
ATOM      1  C   UNL     1      -6.288  83.137  -8.991  1.00  0.00    -0.022 A 
ATOM      2  C   UNL     1      -5.356  82.823  -9.999  1.00  0.00     0.058 A 
ATOM      3  C   UNL     1      -5.851  83.190  -7.660  1.00  0.00     0.012 A 
ATOM      4  C   UNL     1      -4.010  82.589  -9.689  1.00  0.00     0.157 A 
ATOM      5  C   UNL     1      -4.512  82.961  -7.342  1.00  0.00     0.051 A 
ATOM      6  C   UNL     1      -3.581  82.665  -8.342  1.00  0.00     0.157 A 
ENDROOT
BRANCH   1   7
ATOM      7  C   UNL     1      -7.724  83.379  -9.277  1.00  0.00     0.010 C 
ATOM      8  C   UNL     1      -8.724  82.746  -8.651  1.00  0.00     0.025 C 
BRANCH   8   9
ATOM      9  C   UNL     1     -10.135  83.009  -8.976  1.00  0.00     0.064 C 
ATOM     10  O   UNL     1     -10.580  84.185  -8.906  1.00  0.00    -0.545 OA
ATOM     11  O   UNL     1     -10.987  81.981  -9.362  1.00  0.00    -0.545 OA
ENDBRANCH   8   9
ENDBRANCH   1   7
BRANCH   4  12
ATOM     12  O   UNL     1      -3.143  82.281 -10.738  1.00  0.00    -0.504 OA
ATOM     13  H   UNL     1      -3.148  81.403 -11.237  1.00  0.00     0.293 HD
ENDBRANCH   4  12
BRANCH   6  14
ATOM     14  O   UNL     1      -2.254  82.455  -7.959  1.00  0.00    -0.504 OA
ATOM     15  H   UNL     1      -1.923  81.613  -7.512  1.00  0.00     0.293 HD
ENDBRANCH   6  14
TORSDOF 4
ENDMDL
MODEL 4
REMARK VINA RESULT:    -4.075      6.946      8.580
REMARK INTER + INTRA:          -4.913
REMARK INTER:                  -4.790
REMARK INTRA:                  -0.123
REMARK UNBOUND:                -0.123
REMARK SMILES O=C([O-])C=Cc1ccc(O)c(O)c1
REMARK SMILES IDX 6 1 13 2 7 3 11 4 8 5 9 6 5 7 4 8 2 9 1 10 3 11 12 12 10 14
REMARK H PARENT 12 13 10 15
REMARK Flexibility Score: inf
ROOT
ATOM      1  C   UNL     1      -4.279  92.271 -13.340  1.00  0.00    -0.022 A 
ATOM      2  C   UNL     1      -4.425  90.883 -13.150  1.00  0.00     0.058 A 
ATOM      3  C   UNL     1      -4.315  92.782 -14.645  1.00  0.00     0.012 A 
ATOM      4  C   UNL     1      -4.629  90.024 -14.238  1.00  0.00     0.157 A 
ATOM      5  C   UNL     1      -4.521  91.934 -15.734  1.00  0.00     0.051 A 
ATOM      6  C   UNL     1      -4.683  90.558 -15.548  1.00  0.00     0.157 A 
ENDROOT
BRANCH   1   7
ATOM      7  C   UNL     1      -4.049  93.212 -12.215  1.00  0.00     0.010 C 
ATOM      8  C   UNL     1      -4.426  92.968 -10.953  1.00  0.00     0.025 C 
BRANCH   8   9
ATOM      9  C   UNL     1      -4.188  93.935  -9.870  1.00  0.00     0.064 C 
ATOM     10  O   UNL     1      -5.070  94.110  -8.988  1.00  0.00    -0.545 OA
ATOM     11  O   UNL     1      -3.004  94.660  -9.802  1.00  0.00    -0.545 OA
ENDBRANCH   8   9
ENDBRANCH   1   7
BRANCH   4  12
ATOM     12  O   UNL     1      -4.765  88.660 -13.975  1.00  0.00    -0.504 OA
ATOM     13  H   UNL     1      -4.371  87.931 -14.553  1.00  0.00     0.293 HD
ENDBRANCH   4  12
BRANCH   6  14
ATOM     14  O   UNL     1      -4.893  89.765 -16.678  1.00  0.00    -0.504 OA
ATOM     15  H   UNL     1      -5.604  89.052 -16.744  1.00  0.00     0.293 HD
ENDBRANCH   6  14
TORSDOF 4
ENDMDL
MODEL 5
REMARK VINA RESULT:    -4.074      2.700      3.515
REMARK INTER + INTRA:          -4.912
REMARK INTER:                  -4.756
REMARK INTRA:                  -0.156
REMARK UNBOUND:                -0.123
REMARK SMILES O=C([O-])C=Cc1ccc(O)c(O)c1
REMARK SMILES IDX 6 1 13 2 7 3 11 4 8 5 9 6 5 7 4 8 2 9 1 10 3 11 12 12 10 14
REMARK H PARENT 12 13 10 15
REMARK Flexibility Score: inf
ROOT
ATOM      1  C   UNL     1      -4.244  85.924  -8.430  1.00  0.00    -0.022 A 
ATOM      2  C   UNL     1      -3.362  84.833  -8.303  1.00  0.00     0.058 A 
ATOM      3  C   UNL     1      -5.359  85.796  -9.270  1.00  0.00     0.012 A 
ATOM      4  C   UNL     1      -3.601  83.630  -8.980  1.00  0.00     0.157 A 
ATOM      5  C   UNL     1      -5.607  84.600  -9.946  1.00  0.00     0.051 A 
ATOM      6  C   UNL     1      -4.742  83.510  -9.809  1.00  0.00     0.157 A 
ENDROOT
BRANCH   1   7
ATOM      7  C   UNL     1      -4.019  87.218  -7.740  1.00  0.00     0.010 C 
ATOM      8  C   UNL     1      -4.831  88.277  -7.861  1.00  0.00     0.025 C 
BRANCH   8   9
ATOM      9  C   UNL     1      -4.562  89.546  -7.166  1.00  0.00     0.064 C 
ATOM     10  O   UNL     1      -3.547  89.647  -6.428  1.00  0.00    -0.545 OA
ATOM     11  O   UNL     1      -5.410  90.638  -7.312  1.00  0.00    -0.545 OA
ENDBRANCH   8   9
ENDBRANCH   1   7
BRANCH   4  12
ATOM     12  O   UNL     1      -2.684  82.591  -8.808  1.00  0.00    -0.504 OA
ATOM     13  H   UNL     1      -2.769  81.873  -8.104  1.00  0.00     0.293 HD
ENDBRANCH   4  12
BRANCH   6  14
ATOM     14  O   UNL     1      -5.050  82.340 -10.506  1.00  0.00    -0.504 OA
ATOM     15  H   UNL     1      -5.628  82.311 -11.333  1.00  0.00     0.293 HD
ENDBRANCH   6  14
TORSDOF 4
ENDMDL
MODEL 6
REMARK VINA RESULT:    -4.007      2.859      5.943
REMARK INTER + INTRA:          -4.832
REMARK INTER:                  -4.690
REMARK INTRA:                  -0.142
REMARK UNBOUND:                -0.123
REMARK SMILES O=C([O-])C=Cc1ccc(O)c(O)c1
REMARK SMILES IDX 6 1 13 2 7 3 11 4 8 5 9 6 5 7 4 8 2 9 1 10 3 11 12 12 10 14
REMARK H PARENT 12 13 10 15
REMARK Flexibility Score: inf
ROOT
ATOM      1  C   UNL     1      -3.451  85.774  -8.038  1.00  0.00    -0.022 A 
ATOM      2  C   UNL     1      -4.493  86.687  -8.290  1.00  0.00     0.058 A 
ATOM      3  C   UNL     1      -2.356  86.194  -7.271  1.00  0.00     0.012 A 
ATOM      4  C   UNL     1      -4.457  87.985  -7.765  1.00  0.00     0.157 A 
ATOM      5  C   UNL     1      -2.312  87.485  -6.741  1.00  0.00     0.051 A 
ATOM      6  C   UNL     1      -3.354  88.388  -6.975  1.00  0.00     0.157 A 
ENDROOT
BRANCH   1   7
ATOM      7  C   UNL     1      -3.447  84.395  -8.586  1.00  0.00     0.010 C 
ATOM      8  C   UNL     1      -3.130  83.310  -7.866  1.00  0.00     0.025 C 
BRANCH   8   9
ATOM      9  C   UNL     1      -3.127  81.961  -8.454  1.00  0.00     0.064 C 
ATOM     10  O   UNL     1      -2.856  80.968  -7.729  1.00  0.00    -0.545 OA
ATOM     11  O   UNL     1      -3.421  81.763  -9.799  1.00  0.00    -0.545 OA
ENDBRANCH   8   9
ENDBRANCH   1   7
BRANCH   4  12
ATOM     12  O   UNL     1      -5.525  88.837  -8.057  1.00  0.00    -0.504 OA
ATOM     13  H   UNL     1      -5.574  89.802  -7.765  1.00  0.00     0.293 HD
ENDBRANCH   4  12
BRANCH   6  14
ATOM     14  O   UNL     1      -3.254  89.662  -6.412  1.00  0.00    -0.504 OA
ATOM     15  H   UNL     1      -2.822  89.852  -5.520  1.00  0.00     0.293 HD
ENDBRANCH   6  14
TORSDOF 4
ENDMDL
MODEL 7
REMARK VINA RESULT:    -3.963      6.728      7.364
REMARK INTER + INTRA:          -4.781
REMARK INTER:                  -4.655
REMARK INTRA:                  -0.126
REMARK UNBOUND:                -0.123
REMARK SMILES O=C([O-])C=Cc1ccc(O)c(O)c1
REMARK SMILES IDX 6 1 13 2 7 3 11 4 8 5 9 6 5 7 4 8 2 9 1 10 3 11 12 12 10 14
REMARK H PARENT 12 13 10 15
REMARK Flexibility Score: inf
ROOT
ATOM      1  C   UNL     1      -6.650  89.953 -13.530  1.00  0.00    -0.022 A 
ATOM      2  C   UNL     1      -6.329  89.763 -14.888  1.00  0.00     0.058 A 
ATOM      3  C   UNL     1      -5.648  90.394 -12.654  1.00  0.00     0.012 A 
ATOM      4  C   UNL     1      -5.041  90.031 -15.369  1.00  0.00     0.157 A 
ATOM      5  C   UNL     1      -4.362  90.666 -13.125  1.00  0.00     0.051 A 
ATOM      6  C   UNL     1      -4.045  90.495 -14.476  1.00  0.00     0.157 A 
ENDROOT
BRANCH   1   7
ATOM      7  C   UNL     1      -7.999  89.670 -12.980  1.00  0.00     0.010 C 
ATOM      8  C   UNL     1      -9.067  89.388 -13.738  1.00  0.00     0.025 C 
BRANCH   8   9
ATOM      9  C   UNL     1     -10.390  89.124 -13.149  1.00  0.00     0.064 C 
ATOM     10  O   UNL     1     -10.486  88.901 -11.913  1.00  0.00    -0.545 OA
ATOM     11  O   UNL     1     -11.537  89.119 -13.934  1.00  0.00    -0.545 OA
ENDBRANCH   8   9
ENDBRANCH   1   7
BRANCH   4  12
ATOM     12  O   UNL     1      -4.794  89.819 -16.726  1.00  0.00    -0.504 OA
ATOM     13  H   UNL     1      -4.390  90.509 -17.343  1.00  0.00     0.293 HD
ENDBRANCH   4  12
BRANCH   6  14
ATOM     14  O   UNL     1      -2.743  90.791 -14.885  1.00  0.00    -0.504 OA
ATOM     15  H   UNL     1      -2.005  90.107 -14.959  1.00  0.00     0.293 HD
ENDBRANCH   6  14
TORSDOF 4
ENDMDL
MODEL 8
REMARK VINA RESULT:    -3.948      7.156     10.128
REMARK INTER + INTRA:          -4.763
REMARK INTER:                  -4.626
REMARK INTRA:                  -0.137
REMARK UNBOUND:                -0.123
REMARK SMILES O=C([O-])C=Cc1ccc(O)c(O)c1
REMARK SMILES IDX 6 1 13 2 7 3 11 4 8 5 9 6 5 7 4 8 2 9 1 10 3 11 12 12 10 14
REMARK H PARENT 12 13 10 15
REMARK Flexibility Score: inf
ROOT
ATOM      1  C   UNL     1      -5.217  91.035 -16.678  1.00  0.00    -0.022 A 
ATOM      2  C   UNL     1      -5.857  91.461 -17.857  1.00  0.00     0.058 A 
ATOM      3  C   UNL     1      -3.818  90.936 -16.666  1.00  0.00     0.012 A 
ATOM      4  C   UNL     1      -5.117  91.806 -18.996  1.00  0.00     0.157 A 
ATOM      5  C   UNL     1      -3.072  91.280 -17.795  1.00  0.00     0.051 A 
ATOM      6  C   UNL     1      -3.704  91.719 -18.962  1.00  0.00     0.157 A 
ENDROOT
BRANCH   1   7
ATOM      7  C   UNL     1      -5.966  90.650 -15.456  1.00  0.00     0.010 C 
ATOM      8  C   UNL     1      -5.822  89.471 -14.836  1.00  0.00     0.025 C 
BRANCH   8   9
ATOM      9  C   UNL     1      -6.596  89.127 -13.632  1.00  0.00     0.064 C 
ATOM     10  O   UNL     1      -6.023  89.105 -12.511  1.00  0.00    -0.545 OA
ATOM     11  O   UNL     1      -7.951  88.828 -13.710  1.00  0.00    -0.545 OA
ENDBRANCH   8   9
ENDBRANCH   1   7
BRANCH   4  12
ATOM     12  O   UNL     1      -5.818  92.218 -20.130  1.00  0.00    -0.504 OA
ATOM     13  H   UNL     1      -5.635  91.879 -21.063  1.00  0.00     0.293 HD
ENDBRANCH   4  12
BRANCH   6  14
ATOM     14  O   UNL     1      -2.901  92.055 -20.054  1.00  0.00    -0.504 OA
ATOM     15  H   UNL     1      -2.080  92.640 -19.992  1.00  0.00     0.293 HD
ENDBRANCH   6  14
TORSDOF 4
ENDMDL
MODEL 9
REMARK VINA RESULT:    -3.902      7.384      8.693
REMARK INTER + INTRA:          -4.710
REMARK INTER:                  -4.586
REMARK INTRA:                  -0.124
REMARK UNBOUND:                -0.123
REMARK SMILES O=C([O-])C=Cc1ccc(O)c(O)c1
REMARK SMILES IDX 6 1 13 2 7 3 11 4 8 5 9 6 5 7 4 8 2 9 1 10 3 11 12 12 10 14
REMARK H PARENT 12 13 10 15
REMARK Flexibility Score: inf
ROOT
ATOM      1  C   UNL     1      -4.604  91.669 -13.034  1.00  0.00    -0.022 A 
ATOM      2  C   UNL     1      -4.074  92.342 -14.152  1.00  0.00     0.058 A 
ATOM      3  C   UNL     1      -5.197  90.413 -13.221  1.00  0.00     0.012 A 
ATOM      4  C   UNL     1      -4.111  91.763 -15.427  1.00  0.00     0.157 A 
ATOM      5  C   UNL     1      -5.236  89.826 -14.487  1.00  0.00     0.051 A 
ATOM      6  C   UNL     1      -4.695  90.484 -15.596  1.00  0.00     0.157 A 
ENDROOT
BRANCH   1   7
ATOM      7  C   UNL     1      -4.594  92.255 -11.671  1.00  0.00     0.010 C 
ATOM      8  C   UNL     1      -4.138  93.483 -11.391  1.00  0.00     0.025 C 
BRANCH   8   9
ATOM      9  C   UNL     1      -4.136  94.018 -10.021  1.00  0.00     0.064 C 
ATOM     10  O   UNL     1      -3.166  94.719  -9.628  1.00  0.00    -0.545 OA
ATOM     11  O   UNL     1      -5.190  93.767  -9.150  1.00  0.00    -0.545 OA
ENDBRANCH   8   9
ENDBRANCH   1   7
BRANCH   4  12
ATOM     12  O   UNL     1      -3.568  92.487 -16.489  1.00  0.00    -0.504 OA
ATOM     13  H   UNL     1      -2.628  92.858 -16.499  1.00  0.00     0.293 HD
ENDBRANCH   4  12
BRANCH   6  14
ATOM     14  O   UNL     1      -4.759  89.841 -16.833  1.00  0.00    -0.504 OA
ATOM     15  H   UNL     1      -4.111  90.005 -17.589  1.00  0.00     0.293 HD
ENDBRANCH   6  14
TORSDOF 4
ENDMDL
