MODEL 1
REMARK VINA RESULT:    -4.120      0.000      0.000
REMARK INTER + INTRA:          -9.926
REMARK INTER:                  -7.493
REMARK INTRA:                  -2.434
REMARK UNBOUND:                -2.434
REMARK SMILES CCCCCCCCCCCCCCCC(=O)[O-]
REMARK SMILES IDX 9 1 10 2 11 3 12 4 13 5 14 6 15 7 16 8 17 9 18 10 8 11 7 12
REMARK SMILES IDX 6 13 5 14 4 15 3 16 2 17 1 18
REMARK H PARENT
REMARK Flexibility Score: inf
ROOT
ATOM      1  C   UNL     1      10.840  80.458  35.680  1.00  0.00     0.000 C 
ENDROOT
BRANCH   1   2
ATOM      2  C   UNL     1      11.567  79.107  35.536  1.00  0.00     0.000 C 
BRANCH   2   3
ATOM      3  C   UNL     1      10.647  77.883  35.373  1.00  0.00     0.000 C 
BRANCH   3   4
ATOM      4  C   UNL     1      10.446  77.479  33.902  1.00  0.00     0.000 C 
BRANCH   4   5
ATOM      5  C   UNL     1      11.586  77.972  32.995  1.00  0.00     0.000 C 
BRANCH   5   6
ATOM      6  C   UNL     1      11.464  77.452  31.552  1.00  0.00     0.006 C 
BRANCH   6   7
ATOM      7  C   UNL     1      11.708  78.559  30.518  1.00  0.00     0.053 C 
BRANCH   7   8
ATOM      8  C   UNL     1      10.820  78.404  29.322  1.00  0.00     0.041 C 
ATOM      9  O   UNL     1      10.380  79.420  28.723  1.00  0.00    -0.550 OA
ATOM     10  O   UNL     1      10.506  77.137  28.847  1.00  0.00    -0.550 OA
ENDBRANCH   7   8
ENDBRANCH   6   7
ENDBRANCH   5   6
ENDBRANCH   4   5
ENDBRANCH   3   4
ENDBRANCH   2   3
ENDBRANCH   1   2
BRANCH   1  11
ATOM     11  C   UNL     1      10.861  81.350  34.423  1.00  0.00     0.000 C 
BRANCH  11  12
ATOM     12  C   UNL     1       9.727  81.079  33.413  1.00  0.00    -0.000 C 
BRANCH  12  13
ATOM     13  C   UNL     1       8.428  80.534  34.031  1.00  0.00    -0.000 C 
BRANCH  13  14
ATOM     14  C   UNL     1       7.685  79.563  33.095  1.00  0.00    -0.000 C 
BRANCH  14  15
ATOM     15  C   UNL     1       8.343  79.454  31.711  1.00  0.00    -0.000 C 
BRANCH  15  16
ATOM     16  C   UNL     1       7.707  78.356  30.841  1.00  0.00    -0.000 C 
BRANCH  16  17
ATOM     17  C   UNL     1       7.364  77.092  31.647  1.00  0.00    -0.003 C 
ATOM     18  C   UNL     1       8.370  75.961  31.431  1.00  0.00     0.004 C 
ENDBRANCH  16  17
ENDBRANCH  15  16
ENDBRANCH  14  15
ENDBRANCH  13  14
ENDBRANCH  12  13
ENDBRANCH  11  12
ENDBRANCH   1  11
TORSDOF 14
ENDMDL
MODEL 2
REMARK VINA RESULT:    -4.043     15.853     17.533
REMARK INTER + INTRA:          -9.785
REMARK INTER:                  -7.819
REMARK INTRA:                  -1.966
REMARK UNBOUND:                -2.434
REMARK SMILES CCCCCCCCCCCCCCCC(=O)[O-]
REMARK SMILES IDX 9 1 10 2 11 3 12 4 13 5 14 6 15 7 16 8 17 9 18 10 8 11 7 12
REMARK SMILES IDX 6 13 5 14 4 15 3 16 2 17 1 18
REMARK H PARENT
REMARK Flexibility Score: inf
ROOT
ATOM      1  C   UNL     1      17.934  72.570  20.357  1.00  0.00     0.000 C 
ENDROOT
BRANCH   1   2
ATOM      2  C   UNL     1      18.538  71.163  20.171  1.00  0.00     0.000 C 
BRANCH   2   3
ATOM      3  C   UNL     1      18.873  70.783  18.717  1.00  0.00     0.000 C 
BRANCH   3   4
ATOM      4  C   UNL     1      18.121  69.527  18.241  1.00  0.00     0.000 C 
BRANCH   4   5
ATOM      5  C   UNL     1      17.086  69.840  17.147  1.00  0.00     0.000 C 
BRANCH   5   6
ATOM      6  C   UNL     1      15.642  69.827  17.676  1.00  0.00     0.006 C 
BRANCH   6   7
ATOM      7  C   UNL     1      15.451  68.809  18.808  1.00  0.00     0.053 C 
BRANCH   7   8
ATOM      8  C   UNL     1      14.339  67.852  18.511  1.00  0.00     0.041 C 
ATOM      9  O   UNL     1      13.914  67.719  17.333  1.00  0.00    -0.550 OA
ATOM     10  O   UNL     1      13.793  67.081  19.530  1.00  0.00    -0.550 OA
ENDBRANCH   7   8
ENDBRANCH   6   7
ENDBRANCH   5   6
ENDBRANCH   4   5
ENDBRANCH   3   4
ENDBRANCH   2   3
ENDBRANCH   1   2
BRANCH   1  11
ATOM     11  C   UNL     1      16.452  72.704  19.955  1.00  0.00     0.000 C 
BRANCH  11  12
ATOM     12  C   UNL     1      16.204  73.426  18.614  1.00  0.00    -0.000 C 
BRANCH  12  13
ATOM     13  C   UNL     1      17.387  74.267  18.103  1.00  0.00    -0.000 C 
BRANCH  13  14
ATOM     14  C   UNL     1      17.189  75.776  18.334  1.00  0.00    -0.000 C 
BRANCH  14  15
ATOM     15  C   UNL     1      18.499  76.499  18.683  1.00  0.00    -0.000 C 
BRANCH  15  16
ATOM     16  C   UNL     1      19.717  75.559  18.654  1.00  0.00    -0.000 C 
BRANCH  16  17
ATOM     17  C   UNL     1      20.738  75.884  19.756  1.00  0.00    -0.003 C 
ATOM     18  C   UNL     1      20.610  74.965  20.971  1.00  0.00     0.004 C 
ENDBRANCH  16  17
ENDBRANCH  15  16
ENDBRANCH  14  15
ENDBRANCH  13  14
ENDBRANCH  12  13
ENDBRANCH  11  12
ENDBRANCH   1  11
TORSDOF 14
ENDMDL
MODEL 3
REMARK VINA RESULT:    -4.035     15.708     17.351
REMARK INTER + INTRA:          -9.771
REMARK INTER:                  -7.589
REMARK INTRA:                  -2.182
REMARK UNBOUND:                -2.434
REMARK SMILES CCCCCCCCCCCCCCCC(=O)[O-]
REMARK SMILES IDX 9 1 10 2 11 3 12 4 13 5 14 6 15 7 16 8 17 9 18 10 8 11 7 12
REMARK SMILES IDX 6 13 5 14 4 15 3 16 2 17 1 18
REMARK H PARENT
REMARK Flexibility Score: inf
ROOT
ATOM      1  C   UNL     1      16.243  74.533  18.659  1.00  0.00     0.000 C 
ENDROOT
BRANCH   1   2
ATOM      2  C   UNL     1      17.250  74.676  17.500  1.00  0.00     0.000 C 
BRANCH   2   3
ATOM      3  C   UNL     1      18.285  73.542  17.390  1.00  0.00     0.000 C 
BRANCH   3   4
ATOM      4  C   UNL     1      19.639  73.907  18.024  1.00  0.00     0.000 C 
BRANCH   4   5
ATOM      5  C   UNL     1      19.523  74.210  19.526  1.00  0.00     0.000 C 
BRANCH   5   6
ATOM      6  C   UNL     1      20.265  75.495  19.932  1.00  0.00     0.006 C 
BRANCH   6   7
ATOM      7  C   UNL     1      19.645  76.745  19.295  1.00  0.00     0.053 C 
BRANCH   7   8
ATOM      8  C   UNL     1      20.610  77.439  18.384  1.00  0.00     0.041 C 
ATOM      9  O   UNL     1      20.547  78.686  18.223  1.00  0.00    -0.550 OA
ATOM     10  O   UNL     1      21.602  76.712  17.737  1.00  0.00    -0.550 OA
ENDBRANCH   7   8
ENDBRANCH   6   7
ENDBRANCH   5   6
ENDBRANCH   4   5
ENDBRANCH   3   4
ENDBRANCH   2   3
ENDBRANCH   1   2
BRANCH   1  11
ATOM     11  C   UNL     1      15.137  73.481  18.438  1.00  0.00     0.000 C 
BRANCH  11  12
ATOM     12  C   UNL     1      15.263  72.212  19.305  1.00  0.00    -0.000 C 
BRANCH  12  13
ATOM     13  C   UNL     1      16.413  72.239  20.327  1.00  0.00    -0.000 C 
BRANCH  13  14
ATOM     14  C   UNL     1      17.001  70.842  20.599  1.00  0.00    -0.000 C 
BRANCH  14  15
ATOM     15  C   UNL     1      18.520  70.784  20.372  1.00  0.00    -0.000 C 
BRANCH  15  16
ATOM     16  C   UNL     1      18.885  70.393  18.930  1.00  0.00    -0.000 C 
BRANCH  16  17
ATOM     17  C   UNL     1      17.831  69.479  18.282  1.00  0.00    -0.003 C 
ATOM     18  C   UNL     1      17.343  70.003  16.932  1.00  0.00     0.004 C 
ENDBRANCH  16  17
ENDBRANCH  15  16
ENDBRANCH  14  15
ENDBRANCH  13  14
ENDBRANCH  12  13
ENDBRANCH  11  12
ENDBRANCH   1  11
TORSDOF 14
ENDMDL
MODEL 4
REMARK VINA RESULT:    -4.014     16.028     17.590
REMARK INTER + INTRA:          -9.733
REMARK INTER:                  -7.898
REMARK INTRA:                  -1.835
REMARK UNBOUND:                -2.434
REMARK SMILES CCCCCCCCCCCCCCCC(=O)[O-]
REMARK SMILES IDX 9 1 10 2 11 3 12 4 13 5 14 6 15 7 16 8 17 9 18 10 8 11 7 12
REMARK SMILES IDX 6 13 5 14 4 15 3 16 2 17 1 18
REMARK H PARENT
REMARK Flexibility Score: inf
ROOT
ATOM      1  C   UNL     1      16.099  74.981  18.149  1.00  0.00     0.000 C 
ENDROOT
BRANCH   1   2
ATOM      2  C   UNL     1      16.562  73.566  18.547  1.00  0.00     0.000 C 
BRANCH   2   3
ATOM      3  C   UNL     1      18.057  73.442  18.897  1.00  0.00     0.000 C 
BRANCH   3   4
ATOM      4  C   UNL     1      18.804  72.454  17.983  1.00  0.00     0.000 C 
BRANCH   4   5
ATOM      5  C   UNL     1      17.959  71.218  17.637  1.00  0.00     0.000 C 
BRANCH   5   6
ATOM      6  C   UNL     1      18.385  69.967  18.425  1.00  0.00     0.006 C 
BRANCH   6   7
ATOM      7  C   UNL     1      17.297  69.501  19.401  1.00  0.00     0.053 C 
BRANCH   7   8
ATOM      8  C   UNL     1      17.314  70.296  20.670  1.00  0.00     0.041 C 
ATOM      9  O   UNL     1      18.405  70.545  21.248  1.00  0.00    -0.550 OA
ATOM     10  O   UNL     1      16.128  70.791  21.198  1.00  0.00    -0.550 OA
ENDBRANCH   7   8
ENDBRANCH   6   7
ENDBRANCH   5   6
ENDBRANCH   4   5
ENDBRANCH   3   4
ENDBRANCH   2   3
ENDBRANCH   1   2
BRANCH   1  11
ATOM     11  C   UNL     1      17.233  75.975  17.829  1.00  0.00     0.000 C 
BRANCH  11  12
ATOM     12  C   UNL     1      17.555  76.134  16.328  1.00  0.00    -0.000 C 
BRANCH  12  13
ATOM     13  C   UNL     1      18.743  77.061  16.017  1.00  0.00    -0.000 C 
BRANCH  13  14
ATOM     14  C   UNL     1      19.292  77.767  17.269  1.00  0.00    -0.000 C 
BRANCH  14  15
ATOM     15  C   UNL     1      20.769  77.435  17.538  1.00  0.00    -0.000 C 
BRANCH  15  16
ATOM     16  C   UNL     1      20.940  76.184  18.415  1.00  0.00    -0.000 C 
BRANCH  16  17
ATOM     17  C   UNL     1      20.182  76.290  19.749  1.00  0.00    -0.003 C 
ATOM     18  C   UNL     1      20.607  75.224  20.758  1.00  0.00     0.004 C 
ENDBRANCH  16  17
ENDBRANCH  15  16
ENDBRANCH  14  15
ENDBRANCH  13  14
ENDBRANCH  12  13
ENDBRANCH  11  12
ENDBRANCH   1  11
TORSDOF 14
ENDMDL
MODEL 5
REMARK VINA RESULT:    -4.000     15.712     17.551
REMARK INTER + INTRA:          -9.707
REMARK INTER:                  -7.518
REMARK INTRA:                  -2.189
REMARK UNBOUND:                -2.434
REMARK SMILES CCCCCCCCCCCCCCCC(=O)[O-]
REMARK SMILES IDX 9 1 10 2 11 3 12 4 13 5 14 6 15 7 16 8 17 9 18 10 8 11 7 12
REMARK SMILES IDX 6 13 5 14 4 15 3 16 2 17 1 18
REMARK H PARENT
REMARK Flexibility Score: inf
ROOT
ATOM      1  C   UNL     1      15.110  72.514  19.035  1.00  0.00     0.000 C 
ENDROOT
BRANCH   1   2
ATOM      2  C   UNL     1      15.506  72.787  17.570  1.00  0.00     0.000 C 
BRANCH   2   3
ATOM      3  C   UNL     1      16.914  73.377  17.373  1.00  0.00     0.000 C 
BRANCH   3   4
ATOM      4  C   UNL     1      16.893  74.890  17.090  1.00  0.00     0.000 C 
BRANCH   4   5
ATOM      5  C   UNL     1      17.272  75.726  18.323  1.00  0.00     0.000 C 
BRANCH   5   6
ATOM      6  C   UNL     1      18.739  75.534  18.743  1.00  0.00     0.006 C 
BRANCH   6   7
ATOM      7  C   UNL     1      19.353  76.825  19.301  1.00  0.00     0.053 C 
BRANCH   7   8
ATOM      8  C   UNL     1      20.481  77.316  18.447  1.00  0.00     0.041 C 
ATOM      9  O   UNL     1      20.588  78.541  18.179  1.00  0.00    -0.550 OA
ATOM     10  O   UNL     1      21.435  76.423  17.974  1.00  0.00    -0.550 OA
ENDBRANCH   7   8
ENDBRANCH   6   7
ENDBRANCH   5   6
ENDBRANCH   4   5
ENDBRANCH   3   4
ENDBRANCH   2   3
ENDBRANCH   1   2
BRANCH   1  11
ATOM     11  C   UNL     1      16.260  72.629  20.056  1.00  0.00     0.000 C 
BRANCH  11  12
ATOM     12  C   UNL     1      16.929  71.293  20.437  1.00  0.00    -0.000 C 
BRANCH  12  13
ATOM     13  C   UNL     1      18.457  71.262  20.262  1.00  0.00    -0.000 C 
BRANCH  13  14
ATOM     14  C   UNL     1      18.894  70.589  18.948  1.00  0.00    -0.000 C 
BRANCH  14  15
ATOM     15  C   UNL     1      17.933  69.474  18.505  1.00  0.00    -0.000 C 
BRANCH  15  16
ATOM     16  C   UNL     1      17.400  69.689  17.079  1.00  0.00    -0.000 C 
BRANCH  16  17
ATOM     17  C   UNL     1      16.016  69.053  16.865  1.00  0.00    -0.003 C 
ATOM     18  C   UNL     1      15.243  68.866  18.170  1.00  0.00     0.004 C 
ENDBRANCH  16  17
ENDBRANCH  15  16
ENDBRANCH  14  15
ENDBRANCH  13  14
ENDBRANCH  12  13
ENDBRANCH  11  12
ENDBRANCH   1  11
TORSDOF 14
ENDMDL
MODEL 6
REMARK VINA RESULT:    -3.999     15.730     17.565
REMARK INTER + INTRA:          -9.705
REMARK INTER:                  -7.587
REMARK INTRA:                  -2.118
REMARK UNBOUND:                -2.434
REMARK SMILES CCCCCCCCCCCCCCCC(=O)[O-]
REMARK SMILES IDX 9 1 10 2 11 3 12 4 13 5 14 6 15 7 16 8 17 9 18 10 8 11 7 12
REMARK SMILES IDX 6 13 5 14 4 15 3 16 2 17 1 18
REMARK H PARENT
REMARK Flexibility Score: inf
ROOT
ATOM      1  C   UNL     1      18.772  73.325  18.279  1.00  0.00     0.000 C 
ENDROOT
BRANCH   1   2
ATOM      2  C   UNL     1      17.572  73.422  17.316  1.00  0.00     0.000 C 
BRANCH   2   3
ATOM      3  C   UNL     1      17.453  74.754  16.553  1.00  0.00     0.000 C 
BRANCH   3   4
ATOM      4  C   UNL     1      17.475  75.979  17.484  1.00  0.00     0.000 C 
BRANCH   4   5
ATOM      5  C   UNL     1      18.329  77.129  16.925  1.00  0.00     0.000 C 
BRANCH   5   6
ATOM      6  C   UNL     1      19.482  77.523  17.863  1.00  0.00     0.006 C 
BRANCH   6   7
ATOM      7  C   UNL     1      19.391  76.812  19.220  1.00  0.00     0.053 C 
BRANCH   7   8
ATOM      8  C   UNL     1      20.723  76.293  19.663  1.00  0.00     0.041 C 
ATOM      9  O   UNL     1      21.779  76.694  19.107  1.00  0.00    -0.550 OA
ATOM     10  O   UNL     1      20.803  75.389  20.716  1.00  0.00    -0.550 OA
ENDBRANCH   7   8
ENDBRANCH   6   7
ENDBRANCH   5   6
ENDBRANCH   4   5
ENDBRANCH   3   4
ENDBRANCH   2   3
ENDBRANCH   1   2
BRANCH   1  11
ATOM     11  C   UNL     1      18.410  73.023  19.747  1.00  0.00     0.000 C 
BRANCH  11  12
ATOM     12  C   UNL     1      16.899  72.916  20.036  1.00  0.00    -0.000 C 
BRANCH  12  13
ATOM     13  C   UNL     1      16.409  71.503  20.398  1.00  0.00    -0.000 C 
BRANCH  13  14
ATOM     14  C   UNL     1      17.557  70.482  20.503  1.00  0.00    -0.000 C 
BRANCH  14  15
ATOM     15  C   UNL     1      17.431  69.340  19.483  1.00  0.00    -0.000 C 
BRANCH  15  16
ATOM     16  C   UNL     1      18.084  69.682  18.133  1.00  0.00    -0.000 C 
BRANCH  16  17
ATOM     17  C   UNL     1      17.156  69.397  16.941  1.00  0.00    -0.003 C 
ATOM     18  C   UNL     1      15.935  70.316  16.908  1.00  0.00     0.004 C 
ENDBRANCH  16  17
ENDBRANCH  15  16
ENDBRANCH  14  15
ENDBRANCH  13  14
ENDBRANCH  12  13
ENDBRANCH  11  12
ENDBRANCH   1  11
TORSDOF 14
ENDMDL
MODEL 7
REMARK VINA RESULT:    -3.994     16.446     17.829
REMARK INTER + INTRA:          -9.696
REMARK INTER:                  -8.308
REMARK INTRA:                  -1.388
REMARK UNBOUND:                -2.434
REMARK SMILES CCCCCCCCCCCCCCCC(=O)[O-]
REMARK SMILES IDX 9 1 10 2 11 3 12 4 13 5 14 6 15 7 16 8 17 9 18 10 8 11 7 12
REMARK SMILES IDX 6 13 5 14 4 15 3 16 2 17 1 18
REMARK H PARENT
REMARK Flexibility Score: inf
ROOT
ATOM      1  C   UNL     1      18.168  74.208  18.962  1.00  0.00     0.000 C 
ENDROOT
BRANCH   1   2
ATOM      2  C   UNL     1      19.544  74.518  19.586  1.00  0.00     0.000 C 
BRANCH   2   3
ATOM      3  C   UNL     1      19.862  76.015  19.754  1.00  0.00     0.000 C 
BRANCH   3   4
ATOM      4  C   UNL     1      18.736  76.927  19.235  1.00  0.00     0.000 C 
BRANCH   4   5
ATOM      5  C   UNL     1      19.213  77.879  18.126  1.00  0.00     0.000 C 
BRANCH   5   6
ATOM      6  C   UNL     1      20.686  77.654  17.743  1.00  0.00     0.006 C 
BRANCH   6   7
ATOM      7  C   UNL     1      20.836  77.135  16.307  1.00  0.00     0.053 C 
BRANCH   7   8
ATOM      8  C   UNL     1      20.496  75.681  16.205  1.00  0.00     0.041 C 
ATOM      9  O   UNL     1      21.368  74.806  16.448  1.00  0.00    -0.550 OA
ATOM     10  O   UNL     1      19.204  75.290  15.875  1.00  0.00    -0.550 OA
ENDBRANCH   7   8
ENDBRANCH   6   7
ENDBRANCH   5   6
ENDBRANCH   4   5
ENDBRANCH   3   4
ENDBRANCH   2   3
ENDBRANCH   1   2
BRANCH   1  11
ATOM     11  C   UNL     1      17.497  72.916  19.468  1.00  0.00     0.000 C 
BRANCH  11  12
ATOM     12  C   UNL     1      18.468  71.763  19.795  1.00  0.00    -0.000 C 
BRANCH  12  13
ATOM     13  C   UNL     1      18.871  70.896  18.589  1.00  0.00    -0.000 C 
BRANCH  13  14
ATOM     14  C   UNL     1      18.065  69.587  18.500  1.00  0.00    -0.000 C 
BRANCH  14  15
ATOM     15  C   UNL     1      17.239  69.312  19.766  1.00  0.00    -0.000 C 
BRANCH  15  16
ATOM     16  C   UNL     1      15.858  68.714  19.450  1.00  0.00    -0.000 C 
BRANCH  16  17
ATOM     17  C   UNL     1      15.448  68.922  17.983  1.00  0.00    -0.003 C 
ATOM     18  C   UNL     1      14.425  70.043  17.807  1.00  0.00     0.004 C 
ENDBRANCH  16  17
ENDBRANCH  15  16
ENDBRANCH  14  15
ENDBRANCH  13  14
ENDBRANCH  12  13
ENDBRANCH  11  12
ENDBRANCH   1  11
TORSDOF 14
ENDMDL
MODEL 8
REMARK VINA RESULT:    -3.990     15.222     17.166
REMARK INTER + INTRA:          -9.689
REMARK INTER:                  -7.594
REMARK INTRA:                  -2.095
REMARK UNBOUND:                -2.434
REMARK SMILES CCCCCCCCCCCCCCCC(=O)[O-]
REMARK SMILES IDX 9 1 10 2 11 3 12 4 13 5 14 6 15 7 16 8 17 9 18 10 8 11 7 12
REMARK SMILES IDX 6 13 5 14 4 15 3 16 2 17 1 18
REMARK H PARENT
REMARK Flexibility Score: inf
ROOT
ATOM      1  C   UNL     1      18.273  72.636  19.723  1.00  0.00     0.000 C 
ENDROOT
BRANCH   1   2
ATOM      2  C   UNL     1      19.118  71.848  18.702  1.00  0.00     0.000 C 
BRANCH   2   3
ATOM      3  C   UNL     1      18.330  70.857  17.827  1.00  0.00     0.000 C 
BRANCH   3   4
ATOM      4  C   UNL     1      18.051  69.522  18.541  1.00  0.00     0.000 C 
BRANCH   4   5
ATOM      5  C   UNL     1      16.548  69.256  18.726  1.00  0.00     0.000 C 
BRANCH   5   6
ATOM      6  C   UNL     1      16.049  69.618  20.135  1.00  0.00     0.006 C 
BRANCH   6   7
ATOM      7  C   UNL     1      17.129  69.402  21.203  1.00  0.00     0.053 C 
BRANCH   7   8
ATOM      8  C   UNL     1      16.570  69.515  22.588  1.00  0.00     0.041 C 
ATOM      9  O   UNL     1      15.460  70.076  22.780  1.00  0.00    -0.550 OA
ATOM     10  O   UNL     1      17.261  68.971  23.664  1.00  0.00    -0.550 OA
ENDBRANCH   7   8
ENDBRANCH   6   7
ENDBRANCH   5   6
ENDBRANCH   4   5
ENDBRANCH   3   4
ENDBRANCH   2   3
ENDBRANCH   1   2
BRANCH   1  11
ATOM     11  C   UNL     1      16.895  73.101  19.211  1.00  0.00     0.000 C 
BRANCH  11  12
ATOM     12  C   UNL     1      16.939  74.123  18.057  1.00  0.00    -0.000 C 
BRANCH  12  13
ATOM     13  C   UNL     1      16.863  75.596  18.496  1.00  0.00    -0.000 C 
BRANCH  13  14
ATOM     14  C   UNL     1      18.161  76.372  18.205  1.00  0.00    -0.000 C 
BRANCH  14  15
ATOM     15  C   UNL     1      19.184  75.542  17.416  1.00  0.00    -0.000 C 
BRANCH  15  16
ATOM     16  C   UNL     1      20.479  75.294  18.208  1.00  0.00    -0.000 C 
BRANCH  16  17
ATOM     17  C   UNL     1      20.529  76.096  19.519  1.00  0.00    -0.003 C 
ATOM     18  C   UNL     1      20.579  75.203  20.759  1.00  0.00     0.004 C 
ENDBRANCH  16  17
ENDBRANCH  15  16
ENDBRANCH  14  15
ENDBRANCH  13  14
ENDBRANCH  12  13
ENDBRANCH  11  12
ENDBRANCH   1  11
TORSDOF 14
ENDMDL
MODEL 9
REMARK VINA RESULT:    -3.934     16.348     18.070
REMARK INTER + INTRA:          -9.587
REMARK INTER:                  -7.474
REMARK INTRA:                  -2.113
REMARK UNBOUND:                -2.434
REMARK SMILES CCCCCCCCCCCCCCCC(=O)[O-]
REMARK SMILES IDX 9 1 10 2 11 3 12 4 13 5 14 6 15 7 16 8 17 9 18 10 8 11 7 12
REMARK SMILES IDX 6 13 5 14 4 15 3 16 2 17 1 18
REMARK H PARENT
REMARK Flexibility Score: inf
ROOT
ATOM      1  C   UNL     1      16.799  73.847  18.400  1.00  0.00     0.000 C 
ENDROOT
BRANCH   1   2
ATOM      2  C   UNL     1      17.903  73.098  19.173  1.00  0.00     0.000 C 
BRANCH   2   3
ATOM      3  C   UNL     1      18.727  72.104  18.335  1.00  0.00     0.000 C 
BRANCH   3   4
ATOM      4  C   UNL     1      19.010  70.787  19.079  1.00  0.00     0.000 C 
BRANCH   4   5
ATOM      5  C   UNL     1      18.268  69.590  18.462  1.00  0.00     0.000 C 
BRANCH   5   6
ATOM      6  C   UNL     1      17.567  69.944  17.139  1.00  0.00     0.006 C 
BRANCH   6   7
ATOM      7  C   UNL     1      16.230  69.207  16.980  1.00  0.00     0.053 C 
BRANCH   7   8
ATOM      8  C   UNL     1      15.331  69.431  18.156  1.00  0.00     0.041 C 
ATOM      9  O   UNL     1      14.944  68.457  18.853  1.00  0.00    -0.550 OA
ATOM     10  O   UNL     1      14.947  70.721  18.503  1.00  0.00    -0.550 OA
ENDBRANCH   7   8
ENDBRANCH   6   7
ENDBRANCH   5   6
ENDBRANCH   4   5
ENDBRANCH   3   4
ENDBRANCH   2   3
ENDBRANCH   1   2
BRANCH   1  11
ATOM     11  C   UNL     1      16.750  73.559  16.886  1.00  0.00     0.000 C 
BRANCH  11  12
ATOM     12  C   UNL     1      17.212  74.724  15.987  1.00  0.00    -0.000 C 
BRANCH  12  13
ATOM     13  C   UNL     1      17.577  76.016  16.738  1.00  0.00    -0.000 C 
BRANCH  13  14
ATOM     14  C   UNL     1      19.047  76.427  16.538  1.00  0.00    -0.000 C 
BRANCH  14  15
ATOM     15  C   UNL     1      20.030  75.475  17.237  1.00  0.00    -0.000 C 
BRANCH  15  16
ATOM     16  C   UNL     1      20.782  76.152  18.396  1.00  0.00    -0.000 C 
BRANCH  16  17
ATOM     17  C   UNL     1      19.982  76.131  19.709  1.00  0.00    -0.003 C 
ATOM     18  C   UNL     1      20.562  75.164  20.740  1.00  0.00     0.004 C 
ENDBRANCH  16  17
ENDBRANCH  15  16
ENDBRANCH  14  15
ENDBRANCH  13  14
ENDBRANCH  12  13
ENDBRANCH  11  12
ENDBRANCH   1  11
TORSDOF 14
ENDMDL
