MODEL 1
REMARK VINA RESULT:    -5.518      0.000      0.000
REMARK INTER + INTRA:          -9.456
REMARK INTER:                  -8.745
REMARK INTRA:                  -0.712
REMARK UNBOUND:                -0.712
REMARK SMILES CCCCCCCCCCCC(=O)[O-]
REMARK SMILES IDX 7 1 8 2 9 3 10 4 11 5 12 6 13 7 14 8 6 9 5 10 4 11 3 12 2 13
REMARK SMILES IDX 1 14
REMARK H PARENT
REMARK Flexibility Score: inf
ROOT
ATOM      1  C   UNL     1      13.400   2.508  15.274  1.00  0.00     0.000 C 
ENDROOT
BRANCH   1   2
ATOM      2  C   UNL     1      12.927   3.379  16.447  1.00  0.00     0.000 C 
BRANCH   2   3
ATOM      3  C   UNL     1      14.035   3.625  17.488  1.00  0.00     0.000 C 
BRANCH   3   4
ATOM      4  C   UNL     1      13.669   3.066  18.879  1.00  0.00     0.006 C 
BRANCH   4   5
ATOM      5  C   UNL     1      14.568   1.904  19.330  1.00  0.00     0.053 C 
BRANCH   5   6
ATOM      6  C   UNL     1      14.030   0.572  18.909  1.00  0.00     0.041 C 
ATOM      7  O   UNL     1      14.266   0.131  17.754  1.00  0.00    -0.550 OA
ATOM      8  O   UNL     1      13.289  -0.193  19.800  1.00  0.00    -0.550 OA
ENDBRANCH   5   6
ENDBRANCH   4   5
ENDBRANCH   3   4
ENDBRANCH   2   3
ENDBRANCH   1   2
BRANCH   1   9
ATOM      9  C   UNL     1      14.915   2.606  15.032  1.00  0.00     0.000 C 
BRANCH   9  10
ATOM     10  C   UNL     1      15.213   2.997  13.576  1.00  0.00    -0.000 C 
BRANCH  10  11
ATOM     11  C   UNL     1      15.245   1.786  12.630  1.00  0.00    -0.000 C 
BRANCH  11  12
ATOM     12  C   UNL     1      16.028   2.069  11.336  1.00  0.00    -0.000 C 
BRANCH  12  13
ATOM     13  C   UNL     1      17.190   1.086  11.124  1.00  0.00    -0.003 C 
ATOM     14  C   UNL     1      17.570   0.333  12.399  1.00  0.00     0.004 C 
ENDBRANCH  12  13
ENDBRANCH  11  12
ENDBRANCH  10  11
ENDBRANCH   9  10
ENDBRANCH   1   9
TORSDOF 10
ENDMDL
MODEL 2
REMARK VINA RESULT:    -5.474      1.361      2.260
REMARK INTER + INTRA:          -9.385
REMARK INTER:                  -8.431
REMARK INTRA:                  -0.955
REMARK UNBOUND:                -0.712
REMARK SMILES CCCCCCCCCCCC(=O)[O-]
REMARK SMILES IDX 7 1 8 2 9 3 10 4 11 5 12 6 13 7 14 8 6 9 5 10 4 11 3 12 2 13
REMARK SMILES IDX 1 14
REMARK H PARENT
REMARK Flexibility Score: inf
ROOT
ATOM      1  C   UNL     1      12.903   3.432  16.833  1.00  0.00     0.000 C 
ENDROOT
BRANCH   1   2
ATOM      2  C   UNL     1      14.035   3.879  17.771  1.00  0.00     0.000 C 
BRANCH   2   3
ATOM      3  C   UNL     1      13.947   3.224  19.162  1.00  0.00     0.000 C 
BRANCH   3   4
ATOM      4  C   UNL     1      14.070   1.688  19.096  1.00  0.00     0.006 C 
BRANCH   4   5
ATOM      5  C   UNL     1      15.461   1.165  19.487  1.00  0.00     0.053 C 
BRANCH   5   6
ATOM      6  C   UNL     1      16.252   0.711  18.300  1.00  0.00     0.041 C 
ATOM      7  O   UNL     1      15.880  -0.292  17.638  1.00  0.00    -0.550 OA
ATOM      8  O   UNL     1      17.387   1.410  17.912  1.00  0.00    -0.550 OA
ENDBRANCH   5   6
ENDBRANCH   4   5
ENDBRANCH   3   4
ENDBRANCH   2   3
ENDBRANCH   1   2
BRANCH   1   9
ATOM      9  C   UNL     1      13.423   2.759  15.553  1.00  0.00     0.000 C 
BRANCH   9  10
ATOM     10  C   UNL     1      14.959   2.735  15.531  1.00  0.00    -0.000 C 
BRANCH  10  11
ATOM     11  C   UNL     1      15.525   1.617  14.642  1.00  0.00    -0.000 C 
BRANCH  11  12
ATOM     12  C   UNL     1      14.888   1.599  13.241  1.00  0.00    -0.000 C 
BRANCH  12  13
ATOM     13  C   UNL     1      15.561   2.590  12.277  1.00  0.00    -0.003 C 
ATOM     14  C   UNL     1      16.405   1.897  11.207  1.00  0.00     0.004 C 
ENDBRANCH  12  13
ENDBRANCH  11  12
ENDBRANCH  10  11
ENDBRANCH   9  10
ENDBRANCH   1   9
TORSDOF 10
ENDMDL
MODEL 3
REMARK VINA RESULT:    -5.471      2.987      5.727
REMARK INTER + INTRA:          -9.381
REMARK INTER:                  -8.267
REMARK INTRA:                  -1.114
REMARK UNBOUND:                -0.712
REMARK SMILES CCCCCCCCCCCC(=O)[O-]
REMARK SMILES IDX 7 1 8 2 9 3 10 4 11 5 12 6 13 7 14 8 6 9 5 10 4 11 3 12 2 13
REMARK SMILES IDX 1 14
REMARK H PARENT
REMARK Flexibility Score: inf
ROOT
ATOM      1  C   UNL     1      14.239   3.605  17.665  1.00  0.00     0.000 C 
ENDROOT
BRANCH   1   2
ATOM      2  C   UNL     1      12.981   3.503  16.789  1.00  0.00     0.000 C 
BRANCH   2   3
ATOM      3  C   UNL     1      13.179   2.579  15.572  1.00  0.00     0.000 C 
BRANCH   3   4
ATOM      4  C   UNL     1      14.665   2.249  15.321  1.00  0.00     0.006 C 
BRANCH   4   5
ATOM      5  C   UNL     1      14.897   1.356  14.092  1.00  0.00     0.053 C 
BRANCH   5   6
ATOM      6  C   UNL     1      15.195   2.152  12.859  1.00  0.00     0.041 C 
ATOM      7  O   UNL     1      15.478   1.567  11.782  1.00  0.00    -0.550 OA
ATOM      8  O   UNL     1      15.135   3.539  12.894  1.00  0.00    -0.550 OA
ENDBRANCH   5   6
ENDBRANCH   4   5
ENDBRANCH   3   4
ENDBRANCH   2   3
ENDBRANCH   1   2
BRANCH   1   9
ATOM      9  C   UNL     1      14.014   3.080  19.092  1.00  0.00     0.000 C 
BRANCH   9  10
ATOM     10  C   UNL     1      14.135   1.549  19.138  1.00  0.00    -0.000 C 
BRANCH  10  11
ATOM     11  C   UNL     1      15.105   1.061  20.226  1.00  0.00    -0.000 C 
BRANCH  11  12
ATOM     12  C   UNL     1      16.385   0.440  19.640  1.00  0.00    -0.000 C 
BRANCH  12  13
ATOM     13  C   UNL     1      16.415   0.495  18.105  1.00  0.00    -0.003 C 
ATOM     14  C   UNL     1      17.540   1.379  17.565  1.00  0.00     0.004 C 
ENDBRANCH  12  13
ENDBRANCH  11  12
ENDBRANCH  10  11
ENDBRANCH   9  10
ENDBRANCH   1   9
TORSDOF 10
ENDMDL
MODEL 4
REMARK VINA RESULT:    -5.451      2.774      5.537
REMARK INTER + INTRA:          -9.349
REMARK INTER:                  -8.439
REMARK INTRA:                  -0.910
REMARK UNBOUND:                -0.712
REMARK SMILES CCCCCCCCCCCC(=O)[O-]
REMARK SMILES IDX 7 1 8 2 9 3 10 4 11 5 12 6 13 7 14 8 6 9 5 10 4 11 3 12 2 13
REMARK SMILES IDX 1 14
REMARK H PARENT
REMARK Flexibility Score: inf
ROOT
ATOM      1  C   UNL     1      13.809   1.784  18.953  1.00  0.00     0.000 C 
ENDROOT
BRANCH   1   2
ATOM      2  C   UNL     1      13.658   3.252  18.528  1.00  0.00     0.000 C 
BRANCH   2   3
ATOM      3  C   UNL     1      13.090   3.403  17.104  1.00  0.00     0.000 C 
BRANCH   3   4
ATOM      4  C   UNL     1      13.597   2.302  16.151  1.00  0.00     0.006 C 
BRANCH   4   5
ATOM      5  C   UNL     1      14.876   2.687  15.391  1.00  0.00     0.053 C 
BRANCH   5   6
ATOM      6  C   UNL     1      14.780   2.393  13.927  1.00  0.00     0.041 C 
ATOM      7  O   UNL     1      14.384   1.265  13.533  1.00  0.00    -0.550 OA
ATOM      8  O   UNL     1      15.104   3.372  12.997  1.00  0.00    -0.550 OA
ENDBRANCH   5   6
ENDBRANCH   4   5
ENDBRANCH   3   4
ENDBRANCH   2   3
ENDBRANCH   1   2
BRANCH   1   9
ATOM      9  C   UNL     1      14.750   1.606  20.154  1.00  0.00     0.000 C 
BRANCH   9  10
ATOM     10  C   UNL     1      15.280   0.165  20.227  1.00  0.00    -0.000 C 
BRANCH  10  11
ATOM     11  C   UNL     1      16.572  -0.036  19.419  1.00  0.00    -0.000 C 
BRANCH  11  12
ATOM     12  C   UNL     1      16.725  -1.477  18.901  1.00  0.00    -0.000 C 
BRANCH  12  13
ATOM     13  C   UNL     1      15.863  -1.749  17.658  1.00  0.00    -0.003 C 
ATOM     14  C   UNL     1      15.970  -0.643  16.608  1.00  0.00     0.004 C 
ENDBRANCH  12  13
ENDBRANCH  11  12
ENDBRANCH  10  11
ENDBRANCH   9  10
ENDBRANCH   1   9
TORSDOF 10
ENDMDL
MODEL 5
REMARK VINA RESULT:    -5.447      2.853      6.163
REMARK INTER + INTRA:          -9.342
REMARK INTER:                  -8.108
REMARK INTRA:                  -1.235
REMARK UNBOUND:                -0.712
REMARK SMILES CCCCCCCCCCCC(=O)[O-]
REMARK SMILES IDX 7 1 8 2 9 3 10 4 11 5 12 6 13 7 14 8 6 9 5 10 4 11 3 12 2 13
REMARK SMILES IDX 1 14
REMARK H PARENT
REMARK Flexibility Score: inf
ROOT
ATOM      1  C   UNL     1      16.453  -0.467  19.297  1.00  0.00     0.000 C 
ENDROOT
BRANCH   1   2
ATOM      2  C   UNL     1      17.662   0.374  18.861  1.00  0.00     0.000 C 
BRANCH   2   3
ATOM      3  C   UNL     1      17.345   1.297  17.670  1.00  0.00     0.000 C 
BRANCH   3   4
ATOM      4  C   UNL     1      16.973   0.507  16.398  1.00  0.00     0.006 C 
BRANCH   4   5
ATOM      5  C   UNL     1      15.621   0.919  15.792  1.00  0.00     0.053 C 
BRANCH   5   6
ATOM      6  C   UNL     1      15.778   1.643  14.491  1.00  0.00     0.041 C 
ATOM      7  O   UNL     1      16.181   1.028  13.470  1.00  0.00    -0.550 OA
ATOM      8  O   UNL     1      15.453   2.990  14.401  1.00  0.00    -0.550 OA
ENDBRANCH   5   6
ENDBRANCH   4   5
ENDBRANCH   3   4
ENDBRANCH   2   3
ENDBRANCH   1   2
BRANCH   1   9
ATOM      9  C   UNL     1      15.531   0.280  20.274  1.00  0.00     0.000 C 
BRANCH   9  10
ATOM     10  C   UNL     1      14.058   0.125  19.865  1.00  0.00    -0.000 C 
BRANCH  10  11
ATOM     11  C   UNL     1      13.625   1.145  18.801  1.00  0.00    -0.000 C 
BRANCH  11  12
ATOM     12  C   UNL     1      14.121   2.568  19.113  1.00  0.00    -0.000 C 
BRANCH  12  13
ATOM     13  C   UNL     1      13.250   3.651  18.456  1.00  0.00    -0.003 C 
ATOM     14  C   UNL     1      12.974   3.375  16.978  1.00  0.00     0.004 C 
ENDBRANCH  12  13
ENDBRANCH  11  12
ENDBRANCH  10  11
ENDBRANCH   9  10
ENDBRANCH   1   9
TORSDOF 10
ENDMDL
MODEL 6
REMARK VINA RESULT:    -5.431      2.211      2.805
REMARK INTER + INTRA:          -9.317
REMARK INTER:                  -8.376
REMARK INTRA:                  -0.941
REMARK UNBOUND:                -0.712
REMARK SMILES CCCCCCCCCCCC(=O)[O-]
REMARK SMILES IDX 7 1 8 2 9 3 10 4 11 5 12 6 13 7 14 8 6 9 5 10 4 11 3 12 2 13
REMARK SMILES IDX 1 14
REMARK H PARENT
REMARK Flexibility Score: inf
ROOT
ATOM      1  C   UNL     1      15.846   1.944  15.430  1.00  0.00     0.000 C 
ENDROOT
BRANCH   1   2
ATOM      2  C   UNL     1      15.929   0.440  15.733  1.00  0.00     0.000 C 
BRANCH   2   3
ATOM      3  C   UNL     1      17.291   0.029  16.323  1.00  0.00     0.000 C 
BRANCH   3   4
ATOM      4  C   UNL     1      17.752   0.975  17.450  1.00  0.00     0.006 C 
BRANCH   4   5
ATOM      5  C   UNL     1      17.683   0.343  18.850  1.00  0.00     0.053 C 
BRANCH   5   6
ATOM      6  C   UNL     1      16.315   0.438  19.450  1.00  0.00     0.041 C 
ATOM      7  O   UNL     1      15.919  -0.436  20.264  1.00  0.00    -0.550 OA
ATOM      8  O   UNL     1      15.487   1.505  19.129  1.00  0.00    -0.550 OA
ENDBRANCH   5   6
ENDBRANCH   4   5
ENDBRANCH   3   4
ENDBRANCH   2   3
ENDBRANCH   1   2
BRANCH   1   9
ATOM      9  C   UNL     1      14.731   2.288  14.429  1.00  0.00     0.000 C 
BRANCH   9  10
ATOM     10  C   UNL     1      15.302   3.013  13.200  1.00  0.00    -0.000 C 
BRANCH  10  11
ATOM     11  C   UNL     1      15.451   2.089  11.981  1.00  0.00    -0.000 C 
BRANCH  11  12
ATOM     12  C   UNL     1      16.860   2.149  11.365  1.00  0.00    -0.000 C 
BRANCH  12  13
ATOM     13  C   UNL     1      17.495   0.758  11.213  1.00  0.00    -0.003 C 
ATOM     14  C   UNL     1      17.718   0.058  12.554  1.00  0.00     0.004 C 
ENDBRANCH  12  13
ENDBRANCH  11  12
ENDBRANCH  10  11
ENDBRANCH   9  10
ENDBRANCH   1   9
TORSDOF 10
ENDMDL
MODEL 7
REMARK VINA RESULT:    -5.418      2.478      5.616
REMARK INTER + INTRA:          -9.298
REMARK INTER:                  -8.291
REMARK INTRA:                  -1.007
REMARK UNBOUND:                -0.712
REMARK SMILES CCCCCCCCCCCC(=O)[O-]
REMARK SMILES IDX 7 1 8 2 9 3 10 4 11 5 12 6 13 7 14 8 6 9 5 10 4 11 3 12 2 13
REMARK SMILES IDX 1 14
REMARK H PARENT
REMARK Flexibility Score: inf
ROOT
ATOM      1  C   UNL     1      13.250   3.644  17.405  1.00  0.00     0.000 C 
ENDROOT
BRANCH   1   2
ATOM      2  C   UNL     1      13.327   2.378  16.539  1.00  0.00     0.000 C 
BRANCH   2   3
ATOM      3  C   UNL     1      13.754   2.676  15.089  1.00  0.00     0.000 C 
BRANCH   3   4
ATOM      4  C   UNL     1      15.270   2.490  14.874  1.00  0.00     0.006 C 
BRANCH   4   5
ATOM      5  C   UNL     1      15.932   1.577  15.917  1.00  0.00     0.053 C 
BRANCH   5   6
ATOM      6  C   UNL     1      16.419   0.292  15.322  1.00  0.00     0.041 C 
ATOM      7  O   UNL     1      16.224  -0.797  15.921  1.00  0.00    -0.550 OA
ATOM      8  O   UNL     1      17.065   0.296  14.093  1.00  0.00    -0.550 OA
ENDBRANCH   5   6
ENDBRANCH   4   5
ENDBRANCH   3   4
ENDBRANCH   2   3
ENDBRANCH   1   2
BRANCH   1   9
ATOM      9  C   UNL     1      13.703   3.402  18.854  1.00  0.00     0.000 C 
BRANCH   9  10
ATOM     10  C   UNL     1      13.973   1.909  19.101  1.00  0.00    -0.000 C 
BRANCH  10  11
ATOM     11  C   UNL     1      14.775   1.654  20.387  1.00  0.00    -0.000 C 
BRANCH  11  12
ATOM     12  C   UNL     1      15.087   0.163  20.601  1.00  0.00    -0.000 C 
BRANCH  12  13
ATOM     13  C   UNL     1      15.911  -0.437  19.451  1.00  0.00    -0.003 C 
ATOM     14  C   UNL     1      17.270   0.241  19.278  1.00  0.00     0.004 C 
ENDBRANCH  12  13
ENDBRANCH  11  12
ENDBRANCH  10  11
ENDBRANCH   9  10
ENDBRANCH   1   9
TORSDOF 10
ENDMDL
MODEL 8
REMARK VINA RESULT:    -5.385      1.678      2.511
REMARK INTER + INTRA:          -9.244
REMARK INTER:                  -8.323
REMARK INTRA:                  -0.921
REMARK UNBOUND:                -0.712
REMARK SMILES CCCCCCCCCCCC(=O)[O-]
REMARK SMILES IDX 7 1 8 2 9 3 10 4 11 5 12 6 13 7 14 8 6 9 5 10 4 11 3 12 2 13
REMARK SMILES IDX 1 14
REMARK H PARENT
REMARK Flexibility Score: inf
ROOT
ATOM      1  C   UNL     1      14.577   2.434  14.221  1.00  0.00     0.000 C 
ENDROOT
BRANCH   1   2
ATOM      2  C   UNL     1      15.524   2.191  15.406  1.00  0.00     0.000 C 
BRANCH   2   3
ATOM      3  C   UNL     1      15.472   0.741  15.921  1.00  0.00     0.000 C 
BRANCH   3   4
ATOM      4  C   UNL     1      15.087   0.661  17.412  1.00  0.00     0.006 C 
BRANCH   4   5
ATOM      5  C   UNL     1      13.815   1.450  17.762  1.00  0.00     0.053 C 
BRANCH   5   6
ATOM      6  C   UNL     1      14.086   2.575  18.712  1.00  0.00     0.041 C 
ATOM      7  O   UNL     1      13.956   3.768  18.334  1.00  0.00    -0.550 OA
ATOM      8  O   UNL     1      14.458   2.305  20.022  1.00  0.00    -0.550 OA
ENDBRANCH   5   6
ENDBRANCH   4   5
ENDBRANCH   3   4
ENDBRANCH   2   3
ENDBRANCH   1   2
BRANCH   1   9
ATOM      9  C   UNL     1      15.286   3.065  13.012  1.00  0.00     0.000 C 
BRANCH   9  10
ATOM     10  C   UNL     1      15.560   2.012  11.927  1.00  0.00    -0.000 C 
BRANCH  10  11
ATOM     11  C   UNL     1      17.003   2.062  11.400  1.00  0.00    -0.000 C 
BRANCH  11  12
ATOM     12  C   UNL     1      17.739   0.721  11.568  1.00  0.00    -0.000 C 
BRANCH  12  13
ATOM     13  C   UNL     1      17.333  -0.015  12.855  1.00  0.00    -0.003 C 
ATOM     14  C   UNL     1      18.534  -0.424  13.708  1.00  0.00     0.004 C 
ENDBRANCH  12  13
ENDBRANCH  11  12
ENDBRANCH  10  11
ENDBRANCH   9  10
ENDBRANCH   1   9
TORSDOF 10
ENDMDL
MODEL 9
REMARK VINA RESULT:    -5.328      2.783      6.186
REMARK INTER + INTRA:          -9.154
REMARK INTER:                  -7.860
REMARK INTRA:                  -1.294
REMARK UNBOUND:                -0.712
REMARK SMILES CCCCCCCCCCCC(=O)[O-]
REMARK SMILES IDX 7 1 8 2 9 3 10 4 11 5 12 6 13 7 14 8 6 9 5 10 4 11 3 12 2 13
REMARK SMILES IDX 1 14
REMARK H PARENT
REMARK Flexibility Score: inf
ROOT
ATOM      1  C   UNL     1      17.755   0.811  18.140  1.00  0.00     0.000 C 
ENDROOT
BRANCH   1   2
ATOM      2  C   UNL     1      17.839   0.151  16.755  1.00  0.00     0.000 C 
BRANCH   2   3
ATOM      3  C   UNL     1      16.475  -0.365  16.260  1.00  0.00     0.000 C 
BRANCH   3   4
ATOM      4  C   UNL     1      15.924   0.468  15.084  1.00  0.00     0.006 C 
BRANCH   4   5
ATOM      5  C   UNL     1      15.620   1.929  15.455  1.00  0.00     0.053 C 
BRANCH   5   6
ATOM      6  C   UNL     1      14.574   2.534  14.572  1.00  0.00     0.041 C 
ATOM      7  O   UNL     1      13.357   2.444  14.880  1.00  0.00    -0.550 OA
ATOM      8  O   UNL     1      14.944   3.219  13.422  1.00  0.00    -0.550 OA
ENDBRANCH   5   6
ENDBRANCH   4   5
ENDBRANCH   3   4
ENDBRANCH   2   3
ENDBRANCH   1   2
BRANCH   1   9
ATOM      9  C   UNL     1      17.021  -0.061  19.171  1.00  0.00     0.000 C 
BRANCH   9  10
ATOM     10  C   UNL     1      15.826   0.694  19.775  1.00  0.00    -0.000 C 
BRANCH  10  11
ATOM     11  C   UNL     1      14.475   0.188  19.247  1.00  0.00    -0.000 C 
BRANCH  11  12
ATOM     12  C   UNL     1      13.691   1.277  18.493  1.00  0.00    -0.000 C 
BRANCH  12  13
ATOM     13  C   UNL     1      14.067   2.695  18.951  1.00  0.00    -0.003 C 
ATOM     14  C   UNL     1      13.382   3.786  18.127  1.00  0.00     0.004 C 
ENDBRANCH  12  13
ENDBRANCH  11  12
ENDBRANCH  10  11
ENDBRANCH   9  10
ENDBRANCH   1   9
TORSDOF 10
ENDMDL
