MODEL 1
REMARK VINA RESULT:    -2.572      0.000      0.000
REMARK INTER + INTRA:          -4.043
REMARK INTER:                  -3.549
REMARK INTRA:                  -0.494
REMARK UNBOUND:                -0.494
REMARK SMILES CCCCCCCCO
REMARK SMILES IDX 5 1 4 2 3 3 2 4 1 5 6 6 7 7 8 8 9 9
REMARK H PARENT 9 10
REMARK Flexibility Score: inf
ROOT
ATOM      1  C   UNL     1     140.905 148.586 140.017  1.00  0.00     0.000 C 
ENDROOT
BRANCH   1   2
ATOM      2  C   UNL     1     140.078 147.916 141.123  1.00  0.00    -0.000 C 
BRANCH   2   3
ATOM      3  C   UNL     1     140.707 146.579 141.544  1.00  0.00    -0.000 C 
BRANCH   3   4
ATOM      4  C   UNL     1     141.417 146.663 142.905  1.00  0.00    -0.003 C 
ATOM      5  C   UNL     1     142.159 145.377 143.266  1.00  0.00     0.004 C 
ENDBRANCH   3   4
ENDBRANCH   2   3
ENDBRANCH   1   2
BRANCH   1   6
ATOM      6  C   UNL     1     141.770 149.744 140.541  1.00  0.00     0.002 C 
BRANCH   6   7
ATOM      7  C   UNL     1     143.169 149.287 140.980  1.00  0.00     0.028 C 
BRANCH   7   8
ATOM      8  C   UNL     1     143.698 148.181 140.067  1.00  0.00     0.156 C 
BRANCH   8   9
ATOM      9  O   UNL     1     144.216 147.141 140.847  1.00  0.00    -0.396 OA
ATOM     10  H   UNL     1     144.611 146.490 140.209  1.00  0.00     0.210 HD
ENDBRANCH   8   9
ENDBRANCH   7   8
ENDBRANCH   6   7
ENDBRANCH   1   6
TORSDOF 7
ENDMDL
MODEL 2
REMARK VINA RESULT:    -2.557      8.716      9.320
REMARK INTER + INTRA:          -4.023
REMARK INTER:                  -3.728
REMARK INTRA:                  -0.295
REMARK UNBOUND:                -0.494
REMARK SMILES CCCCCCCCO
REMARK SMILES IDX 5 1 4 2 3 3 2 4 1 5 6 6 7 7 8 8 9 9
REMARK H PARENT 9 10
REMARK Flexibility Score: inf
ROOT
ATOM      1  C   UNL     1     145.768 139.450 141.490  1.00  0.00     0.000 C 
ENDROOT
BRANCH   1   2
ATOM      2  C   UNL     1     144.775 139.536 142.658  1.00  0.00    -0.000 C 
BRANCH   2   3
ATOM      3  C   UNL     1     145.515 139.580 144.004  1.00  0.00    -0.000 C 
BRANCH   3   4
ATOM      4  C   UNL     1     144.745 138.863 145.124  1.00  0.00    -0.003 C 
ATOM      5  C   UNL     1     143.246 138.767 144.845  1.00  0.00     0.004 C 
ENDBRANCH   3   4
ENDBRANCH   2   3
ENDBRANCH   1   2
BRANCH   1   6
ATOM      6  C   UNL     1     147.206 139.165 141.952  1.00  0.00     0.002 C 
BRANCH   6   7
ATOM      7  C   UNL     1     148.258 139.882 141.093  1.00  0.00     0.028 C 
BRANCH   7   8
ATOM      8  C   UNL     1     148.098 141.400 141.181  1.00  0.00     0.156 C 
BRANCH   8   9
ATOM      9  O   UNL     1     148.846 141.886 142.259  1.00  0.00    -0.396 OA
ATOM     10  H   UNL     1     148.405 142.730 142.541  1.00  0.00     0.210 HD
ENDBRANCH   8   9
ENDBRANCH   7   8
ENDBRANCH   6   7
ENDBRANCH   1   6
TORSDOF 7
ENDMDL
MODEL 3
REMARK VINA RESULT:    -2.551      2.186      3.166
REMARK INTER + INTRA:          -4.015
REMARK INTER:                  -3.695
REMARK INTRA:                  -0.319
REMARK UNBOUND:                -0.494
REMARK SMILES CCCCCCCCO
REMARK SMILES IDX 5 1 4 2 3 3 2 4 1 5 6 6 7 7 8 8 9 9
REMARK H PARENT 9 10
REMARK Flexibility Score: inf
ROOT
ATOM      1  C   UNL     1     142.108 146.163 140.994  1.00  0.00     0.000 C 
ENDROOT
BRANCH   1   2
ATOM      2  C   UNL     1     142.118 145.180 142.174  1.00  0.00    -0.000 C 
BRANCH   2   3
ATOM      3  C   UNL     1     141.894 145.917 143.503  1.00  0.00    -0.000 C 
BRANCH   3   4
ATOM      4  C   UNL     1     142.441 145.137 144.710  1.00  0.00    -0.003 C 
ATOM      5  C   UNL     1     142.636 143.650 144.414  1.00  0.00     0.004 C 
ENDBRANCH   3   4
ENDBRANCH   2   3
ENDBRANCH   1   2
BRANCH   1   6
ATOM      6  C   UNL     1     142.382 147.613 141.427  1.00  0.00     0.002 C 
BRANCH   6   7
ATOM      7  C   UNL     1     141.383 148.610 140.821  1.00  0.00     0.028 C 
BRANCH   7   8
ATOM      8  C   UNL     1     139.955 148.297 141.266  1.00  0.00     0.156 C 
BRANCH   8   9
ATOM      9  O   UNL     1     139.601 149.140 142.326  1.00  0.00    -0.396 OA
ATOM     10  H   UNL     1     138.613 149.236 142.282  1.00  0.00     0.210 HD
ENDBRANCH   8   9
ENDBRANCH   7   8
ENDBRANCH   6   7
ENDBRANCH   1   6
TORSDOF 7
ENDMDL
MODEL 4
REMARK VINA RESULT:    -2.531      8.987     10.230
REMARK INTER + INTRA:          -3.987
REMARK INTER:                  -3.421
REMARK INTRA:                  -0.566
REMARK UNBOUND:                -0.494
REMARK SMILES CCCCCCCCO
REMARK SMILES IDX 5 1 4 2 3 3 2 4 1 5 6 6 7 7 8 8 9 9
REMARK H PARENT 9 10
REMARK Flexibility Score: inf
ROOT
ATOM      1  C   UNL     1     133.021 140.672 140.135  1.00  0.00     0.000 C 
ENDROOT
BRANCH   1   2
ATOM      2  C   UNL     1     133.939 140.343 141.320  1.00  0.00    -0.000 C 
BRANCH   2   3
ATOM      3  C   UNL     1     135.414 140.561 140.948  1.00  0.00    -0.000 C 
BRANCH   3   4
ATOM      4  C   UNL     1     136.202 141.277 142.056  1.00  0.00    -0.003 C 
ATOM      5  C   UNL     1     135.312 141.747 143.206  1.00  0.00     0.004 C 
ENDBRANCH   3   4
ENDBRANCH   2   3
ENDBRANCH   1   2
BRANCH   1   6
ATOM      6  C   UNL     1     131.944 141.710 140.489  1.00  0.00     0.002 C 
BRANCH   6   7
ATOM      7  C   UNL     1     132.534 142.997 141.083  1.00  0.00     0.028 C 
BRANCH   7   8
ATOM      8  C   UNL     1     133.461 143.689 140.084  1.00  0.00     0.156 C 
BRANCH   8   9
ATOM      9  O   UNL     1     134.576 144.201 140.759  1.00  0.00    -0.396 OA
ATOM     10  H   UNL     1     135.250 144.406 140.060  1.00  0.00     0.210 HD
ENDBRANCH   8   9
ENDBRANCH   7   8
ENDBRANCH   6   7
ENDBRANCH   1   6
TORSDOF 7
ENDMDL
MODEL 5
REMARK VINA RESULT:    -2.529      8.013      9.179
REMARK INTER + INTRA:          -3.984
REMARK INTER:                  -3.455
REMARK INTRA:                  -0.528
REMARK UNBOUND:                -0.494
REMARK SMILES CCCCCCCCO
REMARK SMILES IDX 5 1 4 2 3 3 2 4 1 5 6 6 7 7 8 8 9 9
REMARK H PARENT 9 10
REMARK Flexibility Score: inf
ROOT
ATOM      1  C   UNL     1     145.764 140.986 140.656  1.00  0.00     0.000 C 
ENDROOT
BRANCH   1   2
ATOM      2  C   UNL     1     144.572 140.939 141.623  1.00  0.00    -0.000 C 
BRANCH   2   3
ATOM      3  C   UNL     1     144.241 139.490 142.014  1.00  0.00    -0.000 C 
BRANCH   3   4
ATOM      4  C   UNL     1     144.015 139.324 143.525  1.00  0.00    -0.003 C 
ATOM      5  C   UNL     1     145.318 139.342 144.324  1.00  0.00     0.004 C 
ENDBRANCH   3   4
ENDBRANCH   2   3
ENDBRANCH   1   2
BRANCH   1   6
ATOM      6  C   UNL     1     147.118 140.905 141.378  1.00  0.00     0.002 C 
BRANCH   6   7
ATOM      7  C   UNL     1     148.000 139.762 140.856  1.00  0.00     0.028 C 
BRANCH   7   8
ATOM      8  C   UNL     1     147.923 138.543 141.776  1.00  0.00     0.156 C 
BRANCH   8   9
ATOM      9  O   UNL     1     147.142 137.551 141.172  1.00  0.00    -0.396 OA
ATOM     10  H   UNL     1     147.760 136.801 140.968  1.00  0.00     0.210 HD
ENDBRANCH   8   9
ENDBRANCH   7   8
ENDBRANCH   6   7
ENDBRANCH   1   6
TORSDOF 7
ENDMDL
MODEL 6
REMARK VINA RESULT:    -2.516      8.656     10.306
REMARK INTER + INTRA:          -3.966
REMARK INTER:                  -3.384
REMARK INTRA:                  -0.582
REMARK UNBOUND:                -0.494
REMARK SMILES CCCCCCCCO
REMARK SMILES IDX 5 1 4 2 3 3 2 4 1 5 6 6 7 7 8 8 9 9
REMARK H PARENT 9 10
REMARK Flexibility Score: inf
ROOT
ATOM      1  C   UNL     1     148.950 140.705 139.983  1.00  0.00     0.000 C 
ENDROOT
BRANCH   1   2
ATOM      2  C   UNL     1     148.135 141.436 141.060  1.00  0.00    -0.000 C 
BRANCH   2   3
ATOM      3  C   UNL     1     146.635 141.398 140.732  1.00  0.00    -0.000 C 
BRANCH   3   4
ATOM      4  C   UNL     1     145.847 140.478 141.678  1.00  0.00    -0.003 C 
ATOM      5  C   UNL     1     146.626 140.124 142.945  1.00  0.00     0.004 C 
ENDBRANCH   3   4
ENDBRANCH   2   3
ENDBRANCH   1   2
BRANCH   1   6
ATOM      6  C   UNL     1     149.922 139.670 140.574  1.00  0.00     0.002 C 
BRANCH   6   7
ATOM      7  C   UNL     1     149.207 138.409 141.082  1.00  0.00     0.028 C 
BRANCH   7   8
ATOM      8  C   UNL     1     148.156 137.932 140.080  1.00  0.00     0.156 C 
BRANCH   8   9
ATOM      9  O   UNL     1     147.102 137.317 140.767  1.00  0.00    -0.396 OA
ATOM     10  H   UNL     1     147.500 136.930 141.590  1.00  0.00     0.210 HD
ENDBRANCH   8   9
ENDBRANCH   7   8
ENDBRANCH   6   7
ENDBRANCH   1   6
TORSDOF 7
ENDMDL
MODEL 7
REMARK VINA RESULT:    -2.489      9.118     10.308
REMARK INTER + INTRA:          -3.929
REMARK INTER:                  -3.473
REMARK INTRA:                  -0.456
REMARK UNBOUND:                -0.494
REMARK SMILES CCCCCCCCO
REMARK SMILES IDX 5 1 4 2 3 3 2 4 1 5 6 6 7 7 8 8 9 9
REMARK H PARENT 9 10
REMARK Flexibility Score: inf
ROOT
ATOM      1  C   UNL     1     146.359 138.859 141.132  1.00  0.00     0.000 C 
ENDROOT
BRANCH   1   2
ATOM      2  C   UNL     1     147.749 138.569 141.718  1.00  0.00    -0.000 C 
BRANCH   2   3
ATOM      3  C   UNL     1     148.843 139.286 140.912  1.00  0.00    -0.000 C 
BRANCH   3   4
ATOM      4  C   UNL     1     148.387 140.657 140.388  1.00  0.00    -0.003 C 
ATOM      5  C   UNL     1     148.571 141.774 141.415  1.00  0.00     0.004 C 
ENDBRANCH   3   4
ENDBRANCH   2   3
ENDBRANCH   1   2
BRANCH   1   6
ATOM      6  C   UNL     1     145.386 139.438 142.171  1.00  0.00     0.002 C 
BRANCH   6   7
ATOM      7  C   UNL     1     146.090 139.865 143.468  1.00  0.00     0.028 C 
BRANCH   7   8
ATOM      8  C   UNL     1     145.159 139.721 144.672  1.00  0.00     0.156 C 
BRANCH   8   9
ATOM      9  O   UNL     1     145.134 138.384 145.085  1.00  0.00    -0.396 OA
ATOM     10  H   UNL     1     144.320 138.284 145.645  1.00  0.00     0.210 HD
ENDBRANCH   8   9
ENDBRANCH   7   8
ENDBRANCH   6   7
ENDBRANCH   1   6
TORSDOF 7
ENDMDL
MODEL 8
REMARK VINA RESULT:    -2.476      9.031      9.666
REMARK INTER + INTRA:          -3.912
REMARK INTER:                  -3.527
REMARK INTRA:                  -0.385
REMARK UNBOUND:                -0.494
REMARK SMILES CCCCCCCCO
REMARK SMILES IDX 5 1 4 2 3 3 2 4 1 5 6 6 7 7 8 8 9 9
REMARK H PARENT 9 10
REMARK Flexibility Score: inf
ROOT
ATOM      1  C   UNL     1     145.381 140.143 143.902  1.00  0.00     0.000 C 
ENDROOT
BRANCH   1   2
ATOM      2  C   UNL     1     145.134 139.161 145.056  1.00  0.00    -0.000 C 
BRANCH   2   3
ATOM      3  C   UNL     1     143.653 138.758 145.125  1.00  0.00    -0.000 C 
BRANCH   3   4
ATOM      4  C   UNL     1     142.776 139.567 144.156  1.00  0.00    -0.003 C 
ATOM      5  C   UNL     1     142.079 138.689 143.116  1.00  0.00     0.004 C 
ENDBRANCH   3   4
ENDBRANCH   2   3
ENDBRANCH   1   2
BRANCH   1   6
ATOM      6  C   UNL     1     146.399 139.613 142.879  1.00  0.00     0.002 C 
BRANCH   6   7
ATOM      7  C   UNL     1     145.781 139.389 141.491  1.00  0.00     0.028 C 
BRANCH   7   8
ATOM      8  C   UNL     1     146.764 138.679 140.560  1.00  0.00     0.156 C 
BRANCH   8   9
ATOM      9  O   UNL     1     147.330 137.585 141.225  1.00  0.00    -0.396 OA
ATOM     10  H   UNL     1     147.587 136.937 140.518  1.00  0.00     0.210 HD
ENDBRANCH   8   9
ENDBRANCH   7   8
ENDBRANCH   6   7
ENDBRANCH   1   6
TORSDOF 7
ENDMDL
MODEL 9
REMARK VINA RESULT:    -2.430      1.531      2.683
REMARK INTER + INTRA:          -3.848
REMARK INTER:                  -3.410
REMARK INTRA:                  -0.438
REMARK UNBOUND:                -0.494
REMARK SMILES CCCCCCCCO
REMARK SMILES IDX 5 1 4 2 3 3 2 4 1 5 6 6 7 7 8 8 9 9
REMARK H PARENT 9 10
REMARK Flexibility Score: inf
ROOT
ATOM      1  C   UNL     1     140.894 145.647 141.404  1.00  0.00     0.000 C 
ENDROOT
BRANCH   1   2
ATOM      2  C   UNL     1     141.952 144.703 141.995  1.00  0.00    -0.000 C 
BRANCH   2   3
ATOM      3  C   UNL     1     141.354 143.848 143.123  1.00  0.00    -0.000 C 
BRANCH   3   4
ATOM      4  C   UNL     1     142.296 143.726 144.332  1.00  0.00    -0.003 C 
ATOM      5  C   UNL     1     142.692 145.083 144.913  1.00  0.00     0.004 C 
ENDBRANCH   3   4
ENDBRANCH   2   3
ENDBRANCH   1   2
BRANCH   1   6
ATOM      6  C   UNL     1     141.160 147.122 141.743  1.00  0.00     0.002 C 
BRANCH   6   7
ATOM      7  C   UNL     1     142.634 147.397 142.074  1.00  0.00     0.028 C 
BRANCH   7   8
ATOM      8  C   UNL     1     143.402 147.852 140.832  1.00  0.00     0.156 C 
BRANCH   8   9
ATOM      9  O   UNL     1     144.391 146.910 140.525  1.00  0.00    -0.396 OA
ATOM     10  H   UNL     1     144.935 147.310 139.797  1.00  0.00     0.210 HD
ENDBRANCH   8   9
ENDBRANCH   7   8
ENDBRANCH   6   7
ENDBRANCH   1   6
TORSDOF 7
ENDMDL
