MODEL 1
REMARK VINA RESULT:    -4.359      0.000      0.000
REMARK INTER + INTRA:         -12.368
REMARK INTER:                  -9.965
REMARK INTRA:                  -2.403
REMARK UNBOUND:                -2.403
REMARK SMILES CCCCCCCCCCCCCCCCCCCCCCCC(=O)[O-]
REMARK SMILES IDX 13 1 14 2 15 3 16 4 17 5 18 6 19 7 20 8 21 9 22 10 23 11
REMARK SMILES IDX 24 12 25 13 26 14 12 15 11 16 10 17 9 18 8 19 7 20 6 21 5 22
REMARK SMILES IDX 4 23 3 24 2 25 1 26
REMARK H PARENT
REMARK Flexibility Score: inf
ROOT
ATOM      1  C   UNL     1     -21.777 -13.319  35.423  1.00  0.00     0.000 C 
ENDROOT
BRANCH   1   2
ATOM      2  C   UNL     1     -22.811 -12.355  34.818  1.00  0.00     0.000 C 
BRANCH   2   3
ATOM      3  C   UNL     1     -22.979 -12.455  33.290  1.00  0.00     0.000 C 
BRANCH   3   4
ATOM      4  C   UNL     1     -24.318 -11.888  32.773  1.00  0.00     0.000 C 
BRANCH   4   5
ATOM      5  C   UNL     1     -25.298 -11.579  33.915  1.00  0.00     0.000 C 
BRANCH   5   6
ATOM      6  C   UNL     1     -26.686 -11.221  33.369  1.00  0.00     0.000 C 
BRANCH   6   7
ATOM      7  C   UNL     1     -27.762 -11.385  34.452  1.00  0.00     0.000 C 
BRANCH   7   8
ATOM      8  C   UNL     1     -28.239 -10.042  35.026  1.00  0.00     0.000 C 
BRANCH   8   9
ATOM      9  C   UNL     1     -28.776  -9.090  33.946  1.00  0.00     0.000 C 
BRANCH   9  10
ATOM     10  C   UNL     1     -30.284  -8.864  34.113  1.00  0.00     0.006 C 
BRANCH  10  11
ATOM     11  C   UNL     1     -30.851  -8.042  32.950  1.00  0.00     0.053 C 
BRANCH  11  12
ATOM     12  C   UNL     1     -32.086  -7.314  33.376  1.00  0.00     0.041 C 
ATOM     13  O   UNL     1     -32.002  -6.323  34.149  1.00  0.00    -0.550 OA
ATOM     14  O   UNL     1     -33.327  -7.698  32.882  1.00  0.00    -0.550 OA
ENDBRANCH  11  12
ENDBRANCH  10  11
ENDBRANCH   9  10
ENDBRANCH   8   9
ENDBRANCH   7   8
ENDBRANCH   6   7
ENDBRANCH   5   6
ENDBRANCH   4   5
ENDBRANCH   3   4
ENDBRANCH   2   3
ENDBRANCH   1   2
BRANCH   1  15
ATOM     15  C   UNL     1     -20.504 -13.438  34.569  1.00  0.00     0.000 C 
BRANCH  15  16
ATOM     16  C   UNL     1     -19.217 -13.470  35.414  1.00  0.00     0.000 C 
BRANCH  16  17
ATOM     17  C   UNL     1     -19.388 -13.080  36.894  1.00  0.00     0.000 C 
BRANCH  17  18
ATOM     18  C   UNL     1     -19.425 -14.296  37.836  1.00  0.00    -0.000 C 
BRANCH  18  19
ATOM     19  C   UNL     1     -19.798 -13.917  39.279  1.00  0.00    -0.000 C 
BRANCH  19  20
ATOM     20  C   UNL     1     -21.007 -14.706  39.830  1.00  0.00    -0.000 C 
BRANCH  20  21
ATOM     21  C   UNL     1     -22.076 -14.949  38.751  1.00  0.00    -0.000 C 
BRANCH  21  22
ATOM     22  C   UNL     1     -23.474 -14.447  39.175  1.00  0.00    -0.000 C 
BRANCH  22  23
ATOM     23  C   UNL     1     -23.990 -13.260  38.341  1.00  0.00    -0.000 C 
BRANCH  23  24
ATOM     24  C   UNL     1     -23.676 -11.868  38.919  1.00  0.00    -0.000 C 
BRANCH  24  25
ATOM     25  C   UNL     1     -22.251 -11.357  38.643  1.00  0.00    -0.003 C 
ATOM     26  C   UNL     1     -21.523 -10.904  39.907  1.00  0.00     0.004 C 
ENDBRANCH  24  25
ENDBRANCH  23  24
ENDBRANCH  22  23
ENDBRANCH  21  22
ENDBRANCH  20  21
ENDBRANCH  19  20
ENDBRANCH  18  19
ENDBRANCH  17  18
ENDBRANCH  16  17
ENDBRANCH  15  16
ENDBRANCH   1  15
TORSDOF 22
ENDMDL
MODEL 2
REMARK VINA RESULT:    -3.820     16.262     19.522
REMARK INTER + INTRA:         -11.136
REMARK INTER:                  -8.841
REMARK INTRA:                  -2.295
REMARK UNBOUND:                -2.403
REMARK SMILES CCCCCCCCCCCCCCCCCCCCCCCC(=O)[O-]
REMARK SMILES IDX 13 1 14 2 15 3 16 4 17 5 18 6 19 7 20 8 21 9 22 10 23 11
REMARK SMILES IDX 24 12 25 13 26 14 12 15 11 16 10 17 9 18 8 19 7 20 6 21 5 22
REMARK SMILES IDX 4 23 3 24 2 25 1 26
REMARK H PARENT
REMARK Flexibility Score: inf
ROOT
ATOM      1  C   UNL     1     -37.728  -8.577  47.321  1.00  0.00     0.000 C 
ENDROOT
BRANCH   1   2
ATOM      2  C   UNL     1     -38.070  -9.254  48.658  1.00  0.00     0.000 C 
BRANCH   2   3
ATOM      3  C   UNL     1     -37.071  -8.984  49.799  1.00  0.00     0.000 C 
BRANCH   3   4
ATOM      4  C   UNL     1     -36.761 -10.226  50.661  1.00  0.00     0.000 C 
BRANCH   4   5
ATOM      5  C   UNL     1     -37.159 -11.534  49.961  1.00  0.00     0.000 C 
BRANCH   5   6
ATOM      6  C   UNL     1     -35.920 -12.313  49.501  1.00  0.00     0.000 C 
BRANCH   6   7
ATOM      7  C   UNL     1     -35.925 -12.504  47.979  1.00  0.00     0.000 C 
BRANCH   7   8
ATOM      8  C   UNL     1     -37.239 -13.104  47.457  1.00  0.00     0.000 C 
BRANCH   8   9
ATOM      9  C   UNL     1     -37.143 -13.566  45.994  1.00  0.00     0.000 C 
BRANCH   9  10
ATOM     10  C   UNL     1     -36.188 -12.670  45.196  1.00  0.00     0.006 C 
BRANCH  10  11
ATOM     11  C   UNL     1     -36.368 -12.876  43.688  1.00  0.00     0.053 C 
BRANCH  11  12
ATOM     12  C   UNL     1     -36.526 -11.560  42.994  1.00  0.00     0.041 C 
ATOM     13  O   UNL     1     -37.549 -10.855  43.200  1.00  0.00    -0.550 OA
ATOM     14  O   UNL     1     -35.521 -11.089  42.157  1.00  0.00    -0.550 OA
ENDBRANCH  11  12
ENDBRANCH  10  11
ENDBRANCH   9  10
ENDBRANCH   8   9
ENDBRANCH   7   8
ENDBRANCH   6   7
ENDBRANCH   5   6
ENDBRANCH   4   5
ENDBRANCH   3   4
ENDBRANCH   2   3
ENDBRANCH   1   2
BRANCH   1  15
ATOM     15  C   UNL     1     -37.179  -7.151  47.499  1.00  0.00     0.000 C 
BRANCH  15  16
ATOM     16  C   UNL     1     -38.274  -6.072  47.404  1.00  0.00     0.000 C 
BRANCH  16  17
ATOM     17  C   UNL     1     -38.522  -5.267  48.694  1.00  0.00     0.000 C 
BRANCH  17  18
ATOM     18  C   UNL     1     -37.406  -5.444  49.738  1.00  0.00    -0.000 C 
BRANCH  18  19
ATOM     19  C   UNL     1     -37.138  -4.162  50.543  1.00  0.00    -0.000 C 
BRANCH  19  20
ATOM     20  C   UNL     1     -35.689  -3.643  50.408  1.00  0.00    -0.000 C 
BRANCH  20  21
ATOM     21  C   UNL     1     -35.182  -3.002  51.712  1.00  0.00    -0.000 C 
BRANCH  21  22
ATOM     22  C   UNL     1     -35.351  -1.467  51.725  1.00  0.00    -0.000 C 
BRANCH  22  23
ATOM     23  C   UNL     1     -35.147  -0.806  50.350  1.00  0.00    -0.000 C 
BRANCH  23  24
ATOM     24  C   UNL     1     -36.342   0.016  49.835  1.00  0.00    -0.000 C 
BRANCH  24  25
ATOM     25  C   UNL     1     -37.670  -0.236  50.573  1.00  0.00    -0.003 C 
ATOM     26  C   UNL     1     -38.640  -1.107  49.777  1.00  0.00     0.004 C 
ENDBRANCH  24  25
ENDBRANCH  23  24
ENDBRANCH  22  23
ENDBRANCH  21  22
ENDBRANCH  20  21
ENDBRANCH  19  20
ENDBRANCH  18  19
ENDBRANCH  17  18
ENDBRANCH  16  17
ENDBRANCH  15  16
ENDBRANCH   1  15
TORSDOF 22
ENDMDL
MODEL 3
REMARK VINA RESULT:    -3.803      5.815      9.151
REMARK INTER + INTRA:         -11.096
REMARK INTER:                  -8.578
REMARK INTRA:                  -2.519
REMARK UNBOUND:                -2.403
REMARK SMILES CCCCCCCCCCCCCCCCCCCCCCCC(=O)[O-]
REMARK SMILES IDX 13 1 14 2 15 3 16 4 17 5 18 6 19 7 20 8 21 9 22 10 23 11
REMARK SMILES IDX 24 12 25 13 26 14 12 15 11 16 10 17 9 18 8 19 7 20 6 21 5 22
REMARK SMILES IDX 4 23 3 24 2 25 1 26
REMARK H PARENT
REMARK Flexibility Score: inf
ROOT
ATOM      1  C   UNL     1     -22.195 -14.237  42.598  1.00  0.00     0.000 C 
ENDROOT
BRANCH   1   2
ATOM      2  C   UNL     1     -20.685 -14.371  42.852  1.00  0.00     0.000 C 
BRANCH   2   3
ATOM      3  C   UNL     1     -19.831 -13.195  42.340  1.00  0.00     0.000 C 
BRANCH   3   4
ATOM      4  C   UNL     1     -19.665 -13.169  40.806  1.00  0.00     0.000 C 
BRANCH   4   5
ATOM      5  C   UNL     1     -19.078 -14.480  40.262  1.00  0.00     0.000 C 
BRANCH   5   6
ATOM      6  C   UNL     1     -19.823 -14.938  39.002  1.00  0.00     0.000 C 
BRANCH   6   7
ATOM      7  C   UNL     1     -21.287 -15.274  39.320  1.00  0.00     0.000 C 
BRANCH   7   8
ATOM      8  C   UNL     1     -22.275 -14.605  38.352  1.00  0.00     0.000 C 
BRANCH   8   9
ATOM      9  C   UNL     1     -23.514 -14.038  39.064  1.00  0.00     0.000 C 
BRANCH   9  10
ATOM     10  C   UNL     1     -23.921 -12.685  38.465  1.00  0.00     0.006 C 
BRANCH  10  11
ATOM     11  C   UNL     1     -22.710 -11.756  38.328  1.00  0.00     0.053 C 
BRANCH  11  12
ATOM     12  C   UNL     1     -22.641 -10.811  39.485  1.00  0.00     0.041 C 
ATOM     13  O   UNL     1     -23.675 -10.200  39.865  1.00  0.00    -0.550 OA
ATOM     14  O   UNL     1     -21.447 -10.640  40.175  1.00  0.00    -0.550 OA
ENDBRANCH  11  12
ENDBRANCH  10  11
ENDBRANCH   9  10
ENDBRANCH   8   9
ENDBRANCH   7   8
ENDBRANCH   6   7
ENDBRANCH   5   6
ENDBRANCH   4   5
ENDBRANCH   3   4
ENDBRANCH   2   3
ENDBRANCH   1   2
BRANCH   1  15
ATOM     15  C   UNL     1     -23.040 -15.038  43.603  1.00  0.00     0.000 C 
BRANCH  15  16
ATOM     16  C   UNL     1     -22.225 -16.110  44.350  1.00  0.00     0.000 C 
BRANCH  16  17
ATOM     17  C   UNL     1     -22.073 -15.888  45.867  1.00  0.00     0.000 C 
BRANCH  17  18
ATOM     18  C   UNL     1     -22.256 -14.418  46.281  1.00  0.00    -0.000 C 
BRANCH  18  19
ATOM     19  C   UNL     1     -23.115 -14.260  47.547  1.00  0.00    -0.000 C 
BRANCH  19  20
ATOM     20  C   UNL     1     -23.947 -12.959  47.568  1.00  0.00    -0.000 C 
BRANCH  20  21
ATOM     21  C   UNL     1     -25.387 -13.187  47.077  1.00  0.00    -0.000 C 
BRANCH  21  22
ATOM     22  C   UNL     1     -25.511 -13.105  45.540  1.00  0.00    -0.000 C 
BRANCH  22  23
ATOM     23  C   UNL     1     -26.950 -12.873  45.042  1.00  0.00    -0.000 C 
BRANCH  23  24
ATOM     24  C   UNL     1     -27.150 -11.613  44.181  1.00  0.00    -0.000 C 
BRANCH  24  25
ATOM     25  C   UNL     1     -25.888 -10.753  43.986  1.00  0.00    -0.003 C 
ATOM     26  C   UNL     1     -25.937  -9.437  44.759  1.00  0.00     0.004 C 
ENDBRANCH  24  25
ENDBRANCH  23  24
ENDBRANCH  22  23
ENDBRANCH  21  22
ENDBRANCH  20  21
ENDBRANCH  19  20
ENDBRANCH  18  19
ENDBRANCH  17  18
ENDBRANCH  16  17
ENDBRANCH  15  16
ENDBRANCH   1  15
TORSDOF 22
ENDMDL
MODEL 4
REMARK VINA RESULT:    -3.785      7.407     11.595
REMARK INTER + INTRA:         -11.057
REMARK INTER:                  -8.072
REMARK INTRA:                  -2.984
REMARK UNBOUND:                -2.403
REMARK SMILES CCCCCCCCCCCCCCCCCCCCCCCC(=O)[O-]
REMARK SMILES IDX 13 1 14 2 15 3 16 4 17 5 18 6 19 7 20 8 21 9 22 10 23 11
REMARK SMILES IDX 24 12 25 13 26 14 12 15 11 16 10 17 9 18 8 19 7 20 6 21 5 22
REMARK SMILES IDX 4 23 3 24 2 25 1 26
REMARK H PARENT
REMARK Flexibility Score: inf
ROOT
ATOM      1  C   UNL     1     -23.268 -13.925  42.262  1.00  0.00     0.000 C 
ENDROOT
BRANCH   1   2
ATOM      2  C   UNL     1     -23.407 -14.765  43.542  1.00  0.00     0.000 C 
BRANCH   2   3
ATOM      3  C   UNL     1     -22.413 -15.935  43.666  1.00  0.00     0.000 C 
BRANCH   3   4
ATOM      4  C   UNL     1     -21.639 -15.956  45.001  1.00  0.00     0.000 C 
BRANCH   4   5
ATOM      5  C   UNL     1     -20.222 -15.380  44.861  1.00  0.00     0.000 C 
BRANCH   5   6
ATOM      6  C   UNL     1     -20.077 -14.072  45.650  1.00  0.00     0.000 C 
BRANCH   6   7
ATOM      7  C   UNL     1     -21.263 -13.871  46.604  1.00  0.00     0.000 C 
BRANCH   7   8
ATOM      8  C   UNL     1     -21.133 -12.599  47.456  1.00  0.00     0.000 C 
BRANCH   8   9
ATOM      9  C   UNL     1     -22.460 -12.182  48.109  1.00  0.00     0.000 C 
BRANCH   9  10
ATOM     10  C   UNL     1     -22.608 -10.654  48.127  1.00  0.00     0.006 C 
BRANCH  10  11
ATOM     11  C   UNL     1     -21.486 -10.001  48.941  1.00  0.00     0.053 C 
BRANCH  11  12
ATOM     12  C   UNL     1     -21.748 -10.149  50.407  1.00  0.00     0.041 C 
ATOM     13  O   UNL     1     -20.800 -10.395  51.197  1.00  0.00    -0.550 OA
ATOM     14  O   UNL     1     -23.032  -9.966  50.907  1.00  0.00    -0.550 OA
ENDBRANCH  11  12
ENDBRANCH  10  11
ENDBRANCH   9  10
ENDBRANCH   8   9
ENDBRANCH   7   8
ENDBRANCH   6   7
ENDBRANCH   5   6
ENDBRANCH   4   5
ENDBRANCH   3   4
ENDBRANCH   2   3
ENDBRANCH   1   2
BRANCH   1  15
ATOM     15  C   UNL     1     -21.933 -14.165  41.536  1.00  0.00     0.000 C 
BRANCH  15  16
ATOM     16  C   UNL     1     -20.851 -13.138  41.918  1.00  0.00     0.000 C 
BRANCH  16  17
ATOM     17  C   UNL     1     -19.669 -13.028  40.936  1.00  0.00     0.000 C 
BRANCH  17  18
ATOM     18  C   UNL     1     -19.494 -11.611  40.363  1.00  0.00    -0.000 C 
BRANCH  18  19
ATOM     19  C   UNL     1     -19.375 -11.602  38.830  1.00  0.00    -0.000 C 
BRANCH  19  20
ATOM     20  C   UNL     1     -19.421 -13.012  38.201  1.00  0.00    -0.000 C 
BRANCH  20  21
ATOM     21  C   UNL     1     -20.498 -13.121  37.108  1.00  0.00    -0.000 C 
BRANCH  21  22
ATOM     22  C   UNL     1     -21.913 -13.337  37.687  1.00  0.00    -0.000 C 
BRANCH  22  23
ATOM     23  C   UNL     1     -22.743 -12.045  37.802  1.00  0.00    -0.000 C 
BRANCH  23  24
ATOM     24  C   UNL     1     -23.370 -11.791  39.185  1.00  0.00    -0.000 C 
BRANCH  24  25
ATOM     25  C   UNL     1     -23.119 -10.386  39.762  1.00  0.00    -0.003 C 
ATOM     26  C   UNL     1     -24.403  -9.673  40.181  1.00  0.00     0.004 C 
ENDBRANCH  24  25
ENDBRANCH  23  24
ENDBRANCH  22  23
ENDBRANCH  21  22
ENDBRANCH  20  21
ENDBRANCH  19  20
ENDBRANCH  18  19
ENDBRANCH  17  18
ENDBRANCH  16  17
ENDBRANCH  15  16
ENDBRANCH   1  15
TORSDOF 22
ENDMDL
MODEL 5
REMARK VINA RESULT:    -3.759     12.166     14.582
REMARK INTER + INTRA:         -10.997
REMARK INTER:                  -7.297
REMARK INTRA:                  -3.700
REMARK UNBOUND:                -2.403
REMARK SMILES CCCCCCCCCCCCCCCCCCCCCCCC(=O)[O-]
REMARK SMILES IDX 13 1 14 2 15 3 16 4 17 5 18 6 19 7 20 8 21 9 22 10 23 11
REMARK SMILES IDX 24 12 25 13 26 14 12 15 11 16 10 17 9 18 8 19 7 20 6 21 5 22
REMARK SMILES IDX 4 23 3 24 2 25 1 26
REMARK H PARENT
REMARK Flexibility Score: inf
ROOT
ATOM      1  C   UNL     1     -26.039 -12.354  45.366  1.00  0.00     0.000 C 
ENDROOT
BRANCH   1   2
ATOM      2  C   UNL     1     -26.973 -13.320  44.619  1.00  0.00     0.000 C 
BRANCH   2   3
ATOM      3  C   UNL     1     -28.383 -12.771  44.332  1.00  0.00     0.000 C 
BRANCH   3   4
ATOM      4  C   UNL     1     -29.514 -13.582  45.000  1.00  0.00     0.000 C 
BRANCH   4   5
ATOM      5  C   UNL     1     -29.016 -14.925  45.556  1.00  0.00     0.000 C 
BRANCH   5   6
ATOM      6  C   UNL     1     -29.320 -15.049  47.054  1.00  0.00     0.000 C 
BRANCH   6   7
ATOM      7  C   UNL     1     -30.550 -14.215  47.437  1.00  0.00     0.000 C 
BRANCH   7   8
ATOM      8  C   UNL     1     -31.140 -14.613  48.799  1.00  0.00     0.000 C 
BRANCH   8   9
ATOM      9  C   UNL     1     -31.355 -13.408  49.729  1.00  0.00     0.000 C 
BRANCH   9  10
ATOM     10  C   UNL     1     -31.900 -13.857  51.092  1.00  0.00     0.006 C 
BRANCH  10  11
ATOM     11  C   UNL     1     -32.208 -12.651  51.986  1.00  0.00     0.053 C 
BRANCH  11  12
ATOM     12  C   UNL     1     -33.612 -12.183  51.769  1.00  0.00     0.041 C 
ATOM     13  O   UNL     1     -34.519 -13.011  51.492  1.00  0.00    -0.550 OA
ATOM     14  O   UNL     1     -33.929 -10.838  51.919  1.00  0.00    -0.550 OA
ENDBRANCH  11  12
ENDBRANCH  10  11
ENDBRANCH   9  10
ENDBRANCH   8   9
ENDBRANCH   7   8
ENDBRANCH   6   7
ENDBRANCH   5   6
ENDBRANCH   4   5
ENDBRANCH   3   4
ENDBRANCH   2   3
ENDBRANCH   1   2
BRANCH   1  15
ATOM     15  C   UNL     1     -25.215 -13.052  46.462  1.00  0.00     0.000 C 
BRANCH  15  16
ATOM     16  C   UNL     1     -26.070 -13.493  47.664  1.00  0.00     0.000 C 
BRANCH  16  17
ATOM     17  C   UNL     1     -25.427 -14.552  48.579  1.00  0.00     0.000 C 
BRANCH  17  18
ATOM     18  C   UNL     1     -26.067 -14.607  49.977  1.00  0.00    -0.000 C 
BRANCH  18  19
ATOM     19  C   UNL     1     -27.450 -13.937  50.023  1.00  0.00    -0.000 C 
BRANCH  19  20
ATOM     20  C   UNL     1     -28.136 -14.035  51.404  1.00  0.00    -0.000 C 
BRANCH  20  21
ATOM     21  C   UNL     1     -28.401 -12.649  52.017  1.00  0.00    -0.000 C 
BRANCH  21  22
ATOM     22  C   UNL     1     -28.338 -11.515  50.971  1.00  0.00    -0.000 C 
BRANCH  22  23
ATOM     23  C   UNL     1     -27.963 -10.143  51.561  1.00  0.00    -0.000 C 
BRANCH  23  24
ATOM     24  C   UNL     1     -26.568  -9.622  51.175  1.00  0.00    -0.000 C 
BRANCH  24  25
ATOM     25  C   UNL     1     -25.425 -10.638  51.349  1.00  0.00    -0.003 C 
ATOM     26  C   UNL     1     -24.786 -11.052  50.024  1.00  0.00     0.004 C 
ENDBRANCH  24  25
ENDBRANCH  23  24
ENDBRANCH  22  23
ENDBRANCH  21  22
ENDBRANCH  20  21
ENDBRANCH  19  20
ENDBRANCH  18  19
ENDBRANCH  17  18
ENDBRANCH  16  17
ENDBRANCH  15  16
ENDBRANCH   1  15
TORSDOF 22
ENDMDL
MODEL 6
REMARK VINA RESULT:    -3.726      5.925     10.233
REMARK INTER + INTRA:         -10.921
REMARK INTER:                  -7.662
REMARK INTRA:                  -3.260
REMARK UNBOUND:                -2.403
REMARK SMILES CCCCCCCCCCCCCCCCCCCCCCCC(=O)[O-]
REMARK SMILES IDX 13 1 14 2 15 3 16 4 17 5 18 6 19 7 20 8 21 9 22 10 23 11
REMARK SMILES IDX 24 12 25 13 26 14 12 15 11 16 10 17 9 18 8 19 7 20 6 21 5 22
REMARK SMILES IDX 4 23 3 24 2 25 1 26
REMARK H PARENT
REMARK Flexibility Score: inf
ROOT
ATOM      1  C   UNL     1     -22.420 -14.129  41.916  1.00  0.00     0.000 C 
ENDROOT
BRANCH   1   2
ATOM      2  C   UNL     1     -21.744 -14.833  43.104  1.00  0.00     0.000 C 
BRANCH   2   3
ATOM      3  C   UNL     1     -22.613 -15.886  43.817  1.00  0.00     0.000 C 
BRANCH   3   4
ATOM      4  C   UNL     1     -22.218 -16.125  45.290  1.00  0.00     0.000 C 
BRANCH   4   5
ATOM      5  C   UNL     1     -20.760 -15.733  45.572  1.00  0.00     0.000 C 
BRANCH   5   6
ATOM      6  C   UNL     1     -20.626 -15.049  46.938  1.00  0.00     0.000 C 
BRANCH   6   7
ATOM      7  C   UNL     1     -21.673 -13.938  47.102  1.00  0.00     0.000 C 
BRANCH   7   8
ATOM      8  C   UNL     1     -22.553 -14.128  48.347  1.00  0.00     0.000 C 
BRANCH   8   9
ATOM      9  C   UNL     1     -24.056 -14.079  48.027  1.00  0.00     0.000 C 
BRANCH   9  10
ATOM     10  C   UNL     1     -24.355 -13.022  46.955  1.00  0.00     0.006 C 
BRANCH  10  11
ATOM     11  C   UNL     1     -25.813 -13.103  46.492  1.00  0.00     0.053 C 
BRANCH  11  12
ATOM     12  C   UNL     1     -25.912 -12.840  45.023  1.00  0.00     0.041 C 
ATOM     13  O   UNL     1     -25.293 -13.571  44.206  1.00  0.00    -0.550 OA
ATOM     14  O   UNL     1     -26.726 -11.817  44.552  1.00  0.00    -0.550 OA
ENDBRANCH  11  12
ENDBRANCH  10  11
ENDBRANCH   9  10
ENDBRANCH   8   9
ENDBRANCH   7   8
ENDBRANCH   6   7
ENDBRANCH   5   6
ENDBRANCH   4   5
ENDBRANCH   3   4
ENDBRANCH   2   3
ENDBRANCH   1   2
BRANCH   1  15
ATOM     15  C   UNL     1     -22.030 -14.744  40.561  1.00  0.00     0.000 C 
BRANCH  15  16
ATOM     16  C   UNL     1     -20.754 -15.603  40.639  1.00  0.00     0.000 C 
BRANCH  16  17
ATOM     17  C   UNL     1     -19.554 -15.081  39.827  1.00  0.00     0.000 C 
BRANCH  17  18
ATOM     18  C   UNL     1     -19.969 -14.404  38.509  1.00  0.00    -0.000 C 
BRANCH  18  19
ATOM     19  C   UNL     1     -19.341 -13.011  38.335  1.00  0.00    -0.000 C 
BRANCH  19  20
ATOM     20  C   UNL     1     -19.016 -12.311  39.673  1.00  0.00    -0.000 C 
BRANCH  20  21
ATOM     21  C   UNL     1     -19.737 -10.959  39.808  1.00  0.00    -0.000 C 
BRANCH  21  22
ATOM     22  C   UNL     1     -21.184 -11.106  40.329  1.00  0.00    -0.000 C 
BRANCH  22  23
ATOM     23  C   UNL     1     -22.261 -10.798  39.273  1.00  0.00    -0.000 C 
BRANCH  23  24
ATOM     24  C   UNL     1     -23.486 -11.730  39.297  1.00  0.00    -0.000 C 
BRANCH  24  25
ATOM     25  C   UNL     1     -23.716 -12.533  38.004  1.00  0.00    -0.003 C 
ATOM     26  C   UNL     1     -22.680 -12.233  36.922  1.00  0.00     0.004 C 
ENDBRANCH  24  25
ENDBRANCH  23  24
ENDBRANCH  22  23
ENDBRANCH  21  22
ENDBRANCH  20  21
ENDBRANCH  19  20
ENDBRANCH  18  19
ENDBRANCH  17  18
ENDBRANCH  16  17
ENDBRANCH  15  16
ENDBRANCH   1  15
TORSDOF 22
ENDMDL
MODEL 7
REMARK VINA RESULT:    -3.720     10.987     13.608
REMARK INTER + INTRA:         -10.908
REMARK INTER:                  -7.358
REMARK INTRA:                  -3.550
REMARK UNBOUND:                -2.403
REMARK SMILES CCCCCCCCCCCCCCCCCCCCCCCC(=O)[O-]
REMARK SMILES IDX 13 1 14 2 15 3 16 4 17 5 18 6 19 7 20 8 21 9 22 10 23 11
REMARK SMILES IDX 24 12 25 13 26 14 12 15 11 16 10 17 9 18 8 19 7 20 6 21 5 22
REMARK SMILES IDX 4 23 3 24 2 25 1 26
REMARK H PARENT
REMARK Flexibility Score: inf
ROOT
ATOM      1  C   UNL     1     -25.894 -12.347  45.404  1.00  0.00     0.000 C 
ENDROOT
BRANCH   1   2
ATOM      2  C   UNL     1     -26.823 -13.307  44.642  1.00  0.00     0.000 C 
BRANCH   2   3
ATOM      3  C   UNL     1     -28.205 -12.730  44.283  1.00  0.00     0.000 C 
BRANCH   3   4
ATOM      4  C   UNL     1     -29.383 -13.648  44.671  1.00  0.00     0.000 C 
BRANCH   4   5
ATOM      5  C   UNL     1     -28.969 -14.731  45.678  1.00  0.00     0.000 C 
BRANCH   5   6
ATOM      6  C   UNL     1     -29.823 -14.658  46.950  1.00  0.00     0.000 C 
BRANCH   6   7
ATOM      7  C   UNL     1     -29.261 -15.576  48.044  1.00  0.00     0.000 C 
BRANCH   7   8
ATOM      8  C   UNL     1     -29.267 -14.920  49.433  1.00  0.00     0.000 C 
BRANCH   8   9
ATOM      9  C   UNL     1     -30.640 -14.342  49.813  1.00  0.00     0.000 C 
BRANCH   9  10
ATOM     10  C   UNL     1     -30.505 -12.908  50.343  1.00  0.00     0.006 C 
BRANCH  10  11
ATOM     11  C   UNL     1     -29.033 -12.522  50.520  1.00  0.00     0.053 C 
BRANCH  11  12
ATOM     12  C   UNL     1     -28.914 -11.102  50.976  1.00  0.00     0.041 C 
ATOM     13  O   UNL     1     -29.921 -10.498  51.431  1.00  0.00    -0.550 OA
ATOM     14  O   UNL     1     -27.682 -10.461  50.944  1.00  0.00    -0.550 OA
ENDBRANCH  11  12
ENDBRANCH  10  11
ENDBRANCH   9  10
ENDBRANCH   8   9
ENDBRANCH   7   8
ENDBRANCH   6   7
ENDBRANCH   5   6
ENDBRANCH   4   5
ENDBRANCH   3   4
ENDBRANCH   2   3
ENDBRANCH   1   2
BRANCH   1  15
ATOM     15  C   UNL     1     -25.253 -12.998  46.641  1.00  0.00     0.000 C 
BRANCH  15  16
ATOM     16  C   UNL     1     -26.292 -13.498  47.662  1.00  0.00     0.000 C 
BRANCH  16  17
ATOM     17  C   UNL     1     -25.736 -13.850  49.054  1.00  0.00     0.000 C 
BRANCH  17  18
ATOM     18  C   UNL     1     -25.289 -15.318  49.169  1.00  0.00    -0.000 C 
BRANCH  18  19
ATOM     19  C   UNL     1     -23.795 -15.459  49.505  1.00  0.00    -0.000 C 
BRANCH  19  20
ATOM     20  C   UNL     1     -22.865 -15.145  48.312  1.00  0.00    -0.000 C 
BRANCH  20  21
ATOM     21  C   UNL     1     -21.964 -13.928  48.588  1.00  0.00    -0.000 C 
BRANCH  21  22
ATOM     22  C   UNL     1     -22.151 -13.361  50.012  1.00  0.00    -0.000 C 
BRANCH  22  23
ATOM     23  C   UNL     1     -22.211 -11.823  50.067  1.00  0.00    -0.000 C 
BRANCH  23  24
ATOM     24  C   UNL     1     -23.434 -11.190  49.380  1.00  0.00    -0.000 C 
BRANCH  24  25
ATOM     25  C   UNL     1     -23.133 -10.477  48.049  1.00  0.00    -0.003 C 
ATOM     26  C   UNL     1     -21.658 -10.111  47.887  1.00  0.00     0.004 C 
ENDBRANCH  24  25
ENDBRANCH  23  24
ENDBRANCH  22  23
ENDBRANCH  21  22
ENDBRANCH  20  21
ENDBRANCH  19  20
ENDBRANCH  18  19
ENDBRANCH  17  18
ENDBRANCH  16  17
ENDBRANCH  15  16
ENDBRANCH   1  15
TORSDOF 22
ENDMDL
MODEL 8
REMARK VINA RESULT:    -3.699     16.710     19.426
REMARK INTER + INTRA:         -10.860
REMARK INTER:                  -8.106
REMARK INTRA:                  -2.754
REMARK UNBOUND:                -2.403
REMARK SMILES CCCCCCCCCCCCCCCCCCCCCCCC(=O)[O-]
REMARK SMILES IDX 13 1 14 2 15 3 16 4 17 5 18 6 19 7 20 8 21 9 22 10 23 11
REMARK SMILES IDX 24 12 25 13 26 14 12 15 11 16 10 17 9 18 8 19 7 20 6 21 5 22
REMARK SMILES IDX 4 23 3 24 2 25 1 26
REMARK H PARENT
REMARK Flexibility Score: inf
ROOT
ATOM      1  C   UNL     1     -38.713  -9.637  46.216  1.00  0.00     0.000 C 
ENDROOT
BRANCH   1   2
ATOM      2  C   UNL     1     -38.804  -8.119  46.442  1.00  0.00     0.000 C 
BRANCH   2   3
ATOM      3  C   UNL     1     -37.623  -7.503  47.215  1.00  0.00     0.000 C 
BRANCH   3   4
ATOM      4  C   UNL     1     -37.973  -6.187  47.941  1.00  0.00     0.000 C 
BRANCH   4   5
ATOM      5  C   UNL     1     -37.057  -5.926  49.146  1.00  0.00     0.000 C 
BRANCH   5   6
ATOM      6  C   UNL     1     -37.874  -5.554  50.390  1.00  0.00     0.000 C 
BRANCH   6   7
ATOM      7  C   UNL     1     -37.568  -4.119  50.841  1.00  0.00     0.000 C 
BRANCH   7   8
ATOM      8  C   UNL     1     -36.099  -3.726  50.621  1.00  0.00     0.000 C 
BRANCH   8   9
ATOM      9  C   UNL     1     -35.458  -3.097  51.868  1.00  0.00     0.000 C 
BRANCH   9  10
ATOM     10  C   UNL     1     -35.257  -1.587  51.681  1.00  0.00     0.006 C 
BRANCH  10  11
ATOM     11  C   UNL     1     -35.298  -1.205  50.198  1.00  0.00     0.053 C 
BRANCH  11  12
ATOM     12  C   UNL     1     -36.295  -0.115  49.965  1.00  0.00     0.041 C 
ATOM     13  O   UNL     1     -35.909   1.073  49.805  1.00  0.00    -0.550 OA
ATOM     14  O   UNL     1     -37.649  -0.416  49.875  1.00  0.00    -0.550 OA
ENDBRANCH  11  12
ENDBRANCH  10  11
ENDBRANCH   9  10
ENDBRANCH   8   9
ENDBRANCH   7   8
ENDBRANCH   6   7
ENDBRANCH   5   6
ENDBRANCH   4   5
ENDBRANCH   3   4
ENDBRANCH   2   3
ENDBRANCH   1   2
BRANCH   1  15
ATOM     15  C   UNL     1     -37.322 -10.084  45.735  1.00  0.00     0.000 C 
BRANCH  15  16
ATOM     16  C   UNL     1     -37.358 -10.774  44.359  1.00  0.00     0.000 C 
BRANCH  16  17
ATOM     17  C   UNL     1     -36.768 -12.197  44.318  1.00  0.00     0.000 C 
BRANCH  17  18
ATOM     18  C   UNL     1     -36.326 -12.705  45.701  1.00  0.00    -0.000 C 
BRANCH  18  19
ATOM     19  C   UNL     1     -37.205 -13.857  46.218  1.00  0.00    -0.000 C 
BRANCH  19  20
ATOM     20  C   UNL     1     -37.335 -13.889  47.757  1.00  0.00    -0.000 C 
BRANCH  20  21
ATOM     21  C   UNL     1     -38.667 -13.286  48.236  1.00  0.00    -0.000 C 
BRANCH  21  22
ATOM     22  C   UNL     1     -38.501 -11.865  48.817  1.00  0.00    -0.000 C 
BRANCH  22  23
ATOM     23  C   UNL     1     -37.089 -11.572  49.356  1.00  0.00    -0.000 C 
BRANCH  23  24
ATOM     24  C   UNL     1     -36.836 -10.111  49.770  1.00  0.00    -0.000 C 
BRANCH  24  25
ATOM     25  C   UNL     1     -38.011  -9.430  50.496  1.00  0.00    -0.003 C 
ATOM     26  C   UNL     1     -37.993  -9.660  52.007  1.00  0.00     0.004 C 
ENDBRANCH  24  25
ENDBRANCH  23  24
ENDBRANCH  22  23
ENDBRANCH  21  22
ENDBRANCH  20  21
ENDBRANCH  19  20
ENDBRANCH  18  19
ENDBRANCH  17  18
ENDBRANCH  16  17
ENDBRANCH  15  16
ENDBRANCH   1  15
TORSDOF 22
ENDMDL
MODEL 9
REMARK VINA RESULT:    -3.675      6.559     10.639
REMARK INTER + INTRA:         -10.805
REMARK INTER:                  -7.978
REMARK INTRA:                  -2.827
REMARK UNBOUND:                -2.403
REMARK SMILES CCCCCCCCCCCCCCCCCCCCCCCC(=O)[O-]
REMARK SMILES IDX 13 1 14 2 15 3 16 4 17 5 18 6 19 7 20 8 21 9 22 10 23 11
REMARK SMILES IDX 24 12 25 13 26 14 12 15 11 16 10 17 9 18 8 19 7 20 6 21 5 22
REMARK SMILES IDX 4 23 3 24 2 25 1 26
REMARK H PARENT
REMARK Flexibility Score: inf
ROOT
ATOM      1  C   UNL     1     -22.846 -15.073  43.138  1.00  0.00     0.000 C 
ENDROOT
BRANCH   1   2
ATOM      2  C   UNL     1     -22.316 -15.814  44.377  1.00  0.00     0.000 C 
BRANCH   2   3
ATOM      3  C   UNL     1     -22.357 -15.005  45.687  1.00  0.00     0.000 C 
BRANCH   3   4
ATOM      4  C   UNL     1     -21.857 -15.789  46.918  1.00  0.00     0.000 C 
BRANCH   4   5
ATOM      5  C   UNL     1     -22.470 -15.269  48.227  1.00  0.00     0.000 C 
BRANCH   5   6
ATOM      6  C   UNL     1     -23.748 -16.041  48.583  1.00  0.00     0.000 C 
BRANCH   6   7
ATOM      7  C   UNL     1     -24.702 -15.172  49.414  1.00  0.00     0.000 C 
BRANCH   7   8
ATOM      8  C   UNL     1     -24.505 -13.668  49.168  1.00  0.00     0.000 C 
BRANCH   8   9
ATOM      9  C   UNL     1     -25.705 -13.019  48.460  1.00  0.00     0.000 C 
BRANCH   9  10
ATOM     10  C   UNL     1     -25.844 -13.541  47.023  1.00  0.00     0.006 C 
BRANCH  10  11
ATOM     11  C   UNL     1     -25.386 -12.489  46.008  1.00  0.00     0.053 C 
BRANCH  11  12
ATOM     12  C   UNL     1     -26.389 -12.351  44.907  1.00  0.00     0.041 C 
ATOM     13  O   UNL     1     -26.472 -11.275  44.259  1.00  0.00    -0.550 OA
ATOM     14  O   UNL     1     -27.200 -13.426  44.565  1.00  0.00    -0.550 OA
ENDBRANCH  11  12
ENDBRANCH  10  11
ENDBRANCH   9  10
ENDBRANCH   8   9
ENDBRANCH   7   8
ENDBRANCH   6   7
ENDBRANCH   5   6
ENDBRANCH   4   5
ENDBRANCH   3   4
ENDBRANCH   2   3
ENDBRANCH   1   2
BRANCH   1  15
ATOM     15  C   UNL     1     -21.766 -14.224  42.446  1.00  0.00     0.000 C 
BRANCH  15  16
ATOM     16  C   UNL     1     -20.506 -15.033  42.088  1.00  0.00     0.000 C 
BRANCH  16  17
ATOM     17  C   UNL     1     -20.228 -15.192  40.581  1.00  0.00     0.000 C 
BRANCH  17  18
ATOM     18  C   UNL     1     -21.462 -15.658  39.788  1.00  0.00    -0.000 C 
BRANCH  18  19
ATOM     19  C   UNL     1     -21.865 -14.668  38.683  1.00  0.00    -0.000 C 
BRANCH  19  20
ATOM     20  C   UNL     1     -23.065 -13.774  39.067  1.00  0.00    -0.000 C 
BRANCH  20  21
ATOM     21  C   UNL     1     -23.241 -12.596  38.093  1.00  0.00    -0.000 C 
BRANCH  21  22
ATOM     22  C   UNL     1     -22.594 -11.293  38.612  1.00  0.00    -0.000 C 
BRANCH  22  23
ATOM     23  C   UNL     1     -22.149 -11.361  40.085  1.00  0.00    -0.000 C 
BRANCH  23  24
ATOM     24  C   UNL     1     -20.710 -10.887  40.357  1.00  0.00    -0.000 C 
BRANCH  24  25
ATOM     25  C   UNL     1     -19.614 -11.914  40.021  1.00  0.00    -0.003 C 
ATOM     26  C   UNL     1     -18.913 -11.627  38.694  1.00  0.00     0.004 C 
ENDBRANCH  24  25
ENDBRANCH  23  24
ENDBRANCH  22  23
ENDBRANCH  21  22
ENDBRANCH  20  21
ENDBRANCH  19  20
ENDBRANCH  18  19
ENDBRANCH  17  18
ENDBRANCH  16  17
ENDBRANCH  15  16
ENDBRANCH   1  15
TORSDOF 22
ENDMDL
