MODEL 1
REMARK VINA RESULT:     0.000      0.000      0.000
REMARK INTER + INTRA:          -0.986
REMARK INTER:                   0.000
REMARK INTRA:                  -0.986
REMARK UNBOUND:                -0.986
REMARK SMILES CCCCCCC=CC(=O)[O-]
REMARK SMILES IDX 5 1 6 2 7 3 8 4 9 5 10 6 11 7 4 8 3 9 2 10 1 11
REMARK H PARENT
REMARK Flexibility Score: inf
ROOT
ATOM      1  C   UNL     1      19.333 -14.946  16.896  1.00  0.00     0.004 C 
ENDROOT
BRANCH   1   2
ATOM      2  C   UNL     1      20.414 -14.540  17.911  1.00  0.00     0.027 C 
BRANCH   2   3
ATOM      3  C   UNL     1      19.917 -14.687  19.325  1.00  0.00    -0.025 C 
ATOM      4  C   UNL     1      19.473 -13.692  20.110  1.00  0.00     0.020 C 
BRANCH   4   5
ATOM      5  C   UNL     1      19.351 -12.264  19.744  1.00  0.00     0.064 C 
ATOM      6  O   UNL     1      18.248 -11.747  19.426  1.00  0.00    -0.545 OA
ATOM      7  O   UNL     1      20.487 -11.466  19.769  1.00  0.00    -0.545 OA
ENDBRANCH   4   5
ENDBRANCH   2   3
ENDBRANCH   1   2
BRANCH   1   8
ATOM      8  C   UNL     1      18.538 -13.742  16.362  1.00  0.00     0.000 C 
BRANCH   8   9
ATOM      9  C   UNL     1      17.047 -13.718  16.756  1.00  0.00    -0.000 C 
BRANCH   9  10
ATOM     10  C   UNL     1      16.581 -14.913  17.607  1.00  0.00    -0.003 C 
ATOM     11  C   UNL     1      16.007 -14.492  18.960  1.00  0.00     0.004 C 
ENDBRANCH   9  10
ENDBRANCH   8   9
ENDBRANCH   1   8
TORSDOF 6
ENDMDL
MODEL 2
REMARK VINA RESULT:     0.000      5.062      6.281
REMARK INTER + INTRA:          -0.986
REMARK INTER:                   0.000
REMARK INTRA:                  -0.986
REMARK UNBOUND:                -0.986
REMARK SMILES CCCCCCC=CC(=O)[O-]
REMARK SMILES IDX 5 1 6 2 7 3 8 4 9 5 10 6 11 7 4 8 3 9 2 10 1 11
REMARK H PARENT
REMARK Flexibility Score: inf
ROOT
ATOM      1  C   UNL     1      12.440 -12.090  18.791  1.00  0.00     0.004 C 
ENDROOT
BRANCH   1   2
ATOM      2  C   UNL     1      12.892 -13.381  19.494  1.00  0.00     0.027 C 
BRANCH   2   3
ATOM      3  C   UNL     1      12.769 -13.258  20.990  1.00  0.00    -0.025 C 
ATOM      4  C   UNL     1      13.774 -13.000  21.843  1.00  0.00     0.020 C 
BRANCH   4   5
ATOM      5  C   UNL     1      15.189 -12.754  21.493  1.00  0.00     0.064 C 
ATOM      6  O   UNL     1      15.677 -11.594  21.453  1.00  0.00    -0.545 OA
ATOM      7  O   UNL     1      16.010 -13.839  21.217  1.00  0.00    -0.545 OA
ENDBRANCH   4   5
ENDBRANCH   2   3
ENDBRANCH   1   2
BRANCH   1   8
ATOM      8  C   UNL     1      13.615 -11.156  18.452  1.00  0.00     0.000 C 
BRANCH   8   9
ATOM      9  C   UNL     1      13.619  -9.811  19.207  1.00  0.00    -0.000 C 
BRANCH   9  10
ATOM     10  C   UNL     1      12.436  -9.604  20.169  1.00  0.00    -0.003 C 
ATOM     11  C   UNL     1      12.877  -9.377  21.615  1.00  0.00     0.004 C 
ENDBRANCH   9  10
ENDBRANCH   8   9
ENDBRANCH   1   8
TORSDOF 6
ENDMDL
MODEL 3
REMARK VINA RESULT:     0.000     13.353     15.205
REMARK INTER + INTRA:          -0.986
REMARK INTER:                   0.000
REMARK INTRA:                  -0.986
REMARK UNBOUND:                -0.986
REMARK SMILES CCCCCCC=CC(=O)[O-]
REMARK SMILES IDX 5 1 6 2 7 3 8 4 9 5 10 6 11 7 4 8 3 9 2 10 1 11
REMARK H PARENT
REMARK Flexibility Score: inf
ROOT
ATOM      1  C   UNL     1       4.517  -6.852  22.076  1.00  0.00     0.004 C 
ENDROOT
BRANCH   1   2
ATOM      2  C   UNL     1       4.372  -8.157  21.277  1.00  0.00     0.027 C 
BRANCH   2   3
ATOM      3  C   UNL     1       4.093  -9.324  22.187  1.00  0.00    -0.025 C 
ATOM      4  C   UNL     1       4.993 -10.230  22.604  1.00  0.00     0.020 C 
BRANCH   4   5
ATOM      5  C   UNL     1       6.437 -10.253  22.286  1.00  0.00     0.064 C 
ATOM      6  O   UNL     1       7.308  -9.848  23.099  1.00  0.00    -0.545 OA
ATOM      7  O   UNL     1       6.844 -10.754  21.057  1.00  0.00    -0.545 OA
ENDBRANCH   4   5
ENDBRANCH   2   3
ENDBRANCH   1   2
BRANCH   1   8
ATOM      8  C   UNL     1       5.983  -6.502  22.384  1.00  0.00     0.000 C 
BRANCH   8   9
ATOM      9  C   UNL     1       6.362  -6.537  23.879  1.00  0.00    -0.000 C 
BRANCH   9  10
ATOM     10  C   UNL     1       5.209  -6.898  24.833  1.00  0.00    -0.003 C 
ATOM     11  C   UNL     1       5.495  -8.145  25.667  1.00  0.00     0.004 C 
ENDBRANCH   9  10
ENDBRANCH   8   9
ENDBRANCH   1   8
TORSDOF 6
ENDMDL
MODEL 4
REMARK VINA RESULT:     0.000      7.850      9.195
REMARK INTER + INTRA:          -0.986
REMARK INTER:                   0.000
REMARK INTRA:                  -0.986
REMARK UNBOUND:                -0.986
REMARK SMILES CCCCCCC=CC(=O)[O-]
REMARK SMILES IDX 5 1 6 2 7 3 8 4 9 5 10 6 11 7 4 8 3 9 2 10 1 11
REMARK H PARENT
REMARK Flexibility Score: inf
ROOT
ATOM      1  C   UNL     1      12.675 -15.395  21.458  1.00  0.00     0.004 C 
ENDROOT
BRANCH   1   2
ATOM      2  C   UNL     1      11.395 -14.757  20.894  1.00  0.00     0.027 C 
BRANCH   2   3
ATOM      3  C   UNL     1      11.274 -13.316  21.313  1.00  0.00    -0.025 C 
ATOM      4  C   UNL     1      10.504 -12.848  22.311  1.00  0.00     0.020 C 
BRANCH   4   5
ATOM      5  C   UNL     1       9.649 -13.646  23.215  1.00  0.00     0.064 C 
ATOM      6  O   UNL     1      10.005 -13.941  24.386  1.00  0.00    -0.545 OA
ATOM      7  O   UNL     1       8.406 -14.068  22.764  1.00  0.00    -0.545 OA
ENDBRANCH   4   5
ENDBRANCH   2   3
ENDBRANCH   1   2
BRANCH   1   8
ATOM      8  C   UNL     1      12.426 -16.169  22.764  1.00  0.00     0.000 C 
BRANCH   8   9
ATOM      9  C   UNL     1      13.111 -15.577  24.014  1.00  0.00    -0.000 C 
BRANCH   9  10
ATOM     10  C   UNL     1      13.952 -14.314  23.756  1.00  0.00    -0.003 C 
ATOM     11  C   UNL     1      13.477 -13.107  24.564  1.00  0.00     0.004 C 
ENDBRANCH   9  10
ENDBRANCH   8   9
ENDBRANCH   1   8
TORSDOF 6
ENDMDL
MODEL 5
REMARK VINA RESULT:     0.000      7.225      9.007
REMARK INTER + INTRA:          -0.986
REMARK INTER:                   0.000
REMARK INTRA:                  -0.986
REMARK UNBOUND:                -0.986
REMARK SMILES CCCCCCC=CC(=O)[O-]
REMARK SMILES IDX 5 1 6 2 7 3 8 4 9 5 10 6 11 7 4 8 3 9 2 10 1 11
REMARK H PARENT
REMARK Flexibility Score: inf
ROOT
ATOM      1  C   UNL     1      13.725 -12.037  26.508  1.00  0.00     0.004 C 
ENDROOT
BRANCH   1   2
ATOM      2  C   UNL     1      14.742 -12.737  25.592  1.00  0.00     0.027 C 
BRANCH   2   3
ATOM      3  C   UNL     1      15.130 -11.855  24.435  1.00  0.00    -0.025 C 
ATOM      4  C   UNL     1      14.650 -11.941  23.183  1.00  0.00     0.020 C 
BRANCH   4   5
ATOM      5  C   UNL     1      13.628 -12.891  22.692  1.00  0.00     0.064 C 
ATOM      6  O   UNL     1      12.427 -12.554  22.526  1.00  0.00    -0.545 OA
ATOM      7  O   UNL     1      14.011 -14.190  22.389  1.00  0.00    -0.545 OA
ENDBRANCH   4   5
ENDBRANCH   2   3
ENDBRANCH   1   2
BRANCH   1   8
ATOM      8  C   UNL     1      12.271 -12.426  26.189  1.00  0.00     0.000 C 
BRANCH   8   9
ATOM      9  C   UNL     1      11.392 -11.278  25.651  1.00  0.00    -0.000 C 
BRANCH   9  10
ATOM     10  C   UNL     1      12.102  -9.917  25.535  1.00  0.00    -0.003 C 
ATOM     11  C   UNL     1      12.102  -9.365  24.110  1.00  0.00     0.004 C 
ENDBRANCH   9  10
ENDBRANCH   8   9
ENDBRANCH   1   8
TORSDOF 6
ENDMDL
MODEL 6
REMARK VINA RESULT:     0.000      5.930      7.807
REMARK INTER + INTRA:          -0.985
REMARK INTER:                   0.000
REMARK INTRA:                  -0.985
REMARK UNBOUND:                -0.986
REMARK SMILES CCCCCCC=CC(=O)[O-]
REMARK SMILES IDX 5 1 6 2 7 3 8 4 9 5 10 6 11 7 4 8 3 9 2 10 1 11
REMARK H PARENT
REMARK Flexibility Score: inf
ROOT
ATOM      1  C   UNL     1      12.717  -9.518  17.489  1.00  0.00     0.004 C 
ENDROOT
BRANCH   1   2
ATOM      2  C   UNL     1      11.665  -9.289  18.585  1.00  0.00     0.027 C 
BRANCH   2   3
ATOM      3  C   UNL     1      12.070  -9.952  19.876  1.00  0.00    -0.025 C 
ATOM      4  C   UNL     1      11.610 -11.127  20.336  1.00  0.00     0.020 C 
BRANCH   4   5
ATOM      5  C   UNL     1      10.643 -12.021  19.664  1.00  0.00     0.064 C 
ATOM      6  O   UNL     1      11.007 -13.051  19.038  1.00  0.00    -0.545 OA
ATOM      7  O   UNL     1       9.289 -11.724  19.741  1.00  0.00    -0.545 OA
ENDBRANCH   4   5
ENDBRANCH   2   3
ENDBRANCH   1   2
BRANCH   1   8
ATOM      8  C   UNL     1      12.371 -10.705  16.572  1.00  0.00     0.000 C 
BRANCH   8   9
ATOM      9  C   UNL     1      13.344 -11.899  16.657  1.00  0.00    -0.000 C 
BRANCH   9  10
ATOM     10  C   UNL     1      14.519 -11.712  17.633  1.00  0.00    -0.003 C 
ATOM     11  C   UNL     1      14.558 -12.776  18.729  1.00  0.00     0.004 C 
ENDBRANCH   9  10
ENDBRANCH   8   9
ENDBRANCH   1   8
TORSDOF 6
ENDMDL
MODEL 7
REMARK VINA RESULT:     0.001      7.753      9.054
REMARK INTER + INTRA:          -0.985
REMARK INTER:                   0.000
REMARK INTRA:                  -0.985
REMARK UNBOUND:                -0.986
REMARK SMILES CCCCCCC=CC(=O)[O-]
REMARK SMILES IDX 5 1 6 2 7 3 8 4 9 5 10 6 11 7 4 8 3 9 2 10 1 11
REMARK H PARENT
REMARK Flexibility Score: inf
ROOT
ATOM      1  C   UNL     1      19.288 -12.452  25.334  1.00  0.00     0.004 C 
ENDROOT
BRANCH   1   2
ATOM      2  C   UNL     1      18.499 -11.286  25.951  1.00  0.00     0.027 C 
BRANCH   2   3
ATOM      3  C   UNL     1      19.075  -9.958  25.536  1.00  0.00    -0.025 C 
ATOM      4  C   UNL     1      19.886  -9.185  26.277  1.00  0.00     0.020 C 
BRANCH   4   5
ATOM      5  C   UNL     1      20.402  -9.487  27.629  1.00  0.00     0.064 C 
ATOM      6  O   UNL     1      21.570  -9.917  27.819  1.00  0.00    -0.545 OA
ATOM      7  O   UNL     1      19.577  -9.273  28.725  1.00  0.00    -0.545 OA
ENDBRANCH   4   5
ENDBRANCH   2   3
ENDBRANCH   1   2
BRANCH   1   8
ATOM      8  C   UNL     1      20.353 -13.020  26.289  1.00  0.00     0.000 C 
BRANCH   8   9
ATOM      9  C   UNL     1      21.813 -12.823  25.829  1.00  0.00    -0.000 C 
BRANCH   9  10
ATOM     10  C   UNL     1      21.976 -12.103  24.478  1.00  0.00    -0.003 C 
ATOM     11  C   UNL     1      22.794 -10.817  24.583  1.00  0.00     0.004 C 
ENDBRANCH   9  10
ENDBRANCH   8   9
ENDBRANCH   1   8
TORSDOF 6
ENDMDL
MODEL 8
REMARK VINA RESULT:     0.001      4.609      5.728
REMARK INTER + INTRA:          -0.985
REMARK INTER:                   0.000
REMARK INTRA:                  -0.985
REMARK UNBOUND:                -0.986
REMARK SMILES CCCCCCC=CC(=O)[O-]
REMARK SMILES IDX 5 1 6 2 7 3 8 4 9 5 10 6 11 7 4 8 3 9 2 10 1 11
REMARK H PARENT
REMARK Flexibility Score: inf
ROOT
ATOM      1  C   UNL     1      12.897 -12.594  18.428  1.00  0.00     0.004 C 
ENDROOT
BRANCH   1   2
ATOM      2  C   UNL     1      13.469 -12.321  19.829  1.00  0.00     0.027 C 
BRANCH   2   3
ATOM      3  C   UNL     1      13.379 -10.858  20.177  1.00  0.00    -0.025 C 
ATOM      4  C   UNL     1      14.384  -9.969  20.107  1.00  0.00     0.020 C 
BRANCH   4   5
ATOM      5  C   UNL     1      15.764 -10.230  19.648  1.00  0.00     0.064 C 
ATOM      6  O   UNL     1      16.157  -9.915  18.494  1.00  0.00    -0.545 OA
ATOM      7  O   UNL     1      16.661 -10.826  20.524  1.00  0.00    -0.545 OA
ENDBRANCH   4   5
ENDBRANCH   2   3
ENDBRANCH   1   2
BRANCH   1   8
ATOM      8  C   UNL     1      13.984 -12.636  17.340  1.00  0.00     0.000 C 
BRANCH   8   9
ATOM      9  C   UNL     1      13.901 -11.507  16.292  1.00  0.00    -0.000 C 
BRANCH   9  10
ATOM     10  C   UNL     1      12.733 -10.524  16.488  1.00  0.00    -0.003 C 
ATOM     11  C   UNL     1      13.195  -9.079  16.674  1.00  0.00     0.004 C 
ENDBRANCH   9  10
ENDBRANCH   8   9
ENDBRANCH   1   8
TORSDOF 6
ENDMDL
MODEL 9
REMARK VINA RESULT:     0.001      9.397     10.995
REMARK INTER + INTRA:          -0.985
REMARK INTER:                   0.000
REMARK INTRA:                  -0.985
REMARK UNBOUND:                -0.986
REMARK SMILES CCCCCCC=CC(=O)[O-]
REMARK SMILES IDX 5 1 6 2 7 3 8 4 9 5 10 6 11 7 4 8 3 9 2 10 1 11
REMARK H PARENT
REMARK Flexibility Score: inf
ROOT
ATOM      1  C   UNL     1       8.804  -9.402  18.369  1.00  0.00     0.004 C 
ENDROOT
BRANCH   1   2
ATOM      2  C   UNL     1       9.986 -10.368  18.552  1.00  0.00     0.027 C 
BRANCH   2   3
ATOM      3  C   UNL     1       9.598 -11.778  18.189  1.00  0.00    -0.025 C 
ATOM      4  C   UNL     1       9.275 -12.753  19.054  1.00  0.00     0.020 C 
BRANCH   4   5
ATOM      5  C   UNL     1       9.204 -12.640  20.527  1.00  0.00     0.064 C 
ATOM      6  O   UNL     1       8.110 -12.512  21.136  1.00  0.00    -0.545 OA
ATOM      7  O   UNL     1      10.381 -12.694  21.261  1.00  0.00    -0.545 OA
ENDBRANCH   4   5
ENDBRANCH   2   3
ENDBRANCH   1   2
BRANCH   1   8
ATOM      8  C   UNL     1       8.037  -9.147  19.678  1.00  0.00     0.000 C 
BRANCH   8   9
ATOM      9  C   UNL     1       6.586  -9.671  19.696  1.00  0.00    -0.000 C 
BRANCH   9  10
ATOM     10  C   UNL     1       6.126 -10.353  18.395  1.00  0.00    -0.003 C 
ATOM     11  C   UNL     1       5.687 -11.802  18.605  1.00  0.00     0.004 C 
ENDBRANCH   9  10
ENDBRANCH   8   9
ENDBRANCH   1   8
TORSDOF 6
ENDMDL
