MODEL 1
REMARK VINA RESULT:    -5.967      0.000      0.000
REMARK INTER + INTRA:          -5.967
REMARK INTER:                  -5.967
REMARK INTRA:                   0.000
REMARK UNBOUND:                 0.000
REMARK SMILES Cc1cc2cc3c(C)cc(=O)oc3c(C)c2o1
REMARK SMILES IDX 8 1 7 2 9 3 10 4 11 5 12 6 13 7 6 8 5 9 4 10 3 11 2 12 17 13
REMARK SMILES IDX 16 14 14 15 15 16 1 17
REMARK H PARENT
REMARK Flexibility Score: inf
ROOT
ATOM      1  C   UNL     1       5.631  -2.093 -11.149  1.00  0.00     0.045 C 
ATOM      2  C   UNL     1       5.665  -1.601  -9.725  1.00  0.00    -0.033 A 
ATOM      3  C   UNL     1       5.155  -0.331  -9.427  1.00  0.00     0.098 A 
ATOM      4  C   UNL     1       5.184   0.134  -8.112  1.00  0.00     0.336 A 
ATOM      5  O   UNL     1       4.728   1.275  -7.840  1.00  0.00    -0.246 OA
ATOM      6  O   UNL     1       5.689  -0.617  -7.141  1.00  0.00    -0.422 OA
ATOM      7  C   UNL     1       6.189  -1.833  -7.353  1.00  0.00     0.145 A 
ATOM      8  C   UNL     1       6.200  -2.382  -8.675  1.00  0.00     0.022 A 
ATOM      9  C   UNL     1       6.742  -3.672  -8.892  1.00  0.00     0.024 A 
ATOM     10  C   UNL     1       7.252  -4.359  -7.797  1.00  0.00     0.022 A 
ATOM     11  C   UNL     1       7.841  -5.600  -7.719  1.00  0.00     0.054 A 
ATOM     12  C   UNL     1       8.153  -5.744  -6.371  1.00  0.00     0.102 A 
ATOM     13  O   UNL     1       7.788  -4.675  -5.688  1.00  0.00    -0.461 OA
ATOM     14  C   UNL     1       7.242  -3.835  -6.534  1.00  0.00     0.140 A 
ATOM     15  C   UNL     1       6.707  -2.572  -6.263  1.00  0.00     0.036 A 
ATOM     16  C   UNL     1       6.730  -2.001  -4.874  1.00  0.00     0.052 C 
ATOM     17  C   UNL     1       8.829  -6.928  -5.766  1.00  0.00     0.087 C 
ENDROOT
TORSDOF 0
ENDMDL
MODEL 2
REMARK VINA RESULT:    -5.837      1.677      5.977
REMARK INTER + INTRA:          -5.837
REMARK INTER:                  -5.837
REMARK INTRA:                   0.000
REMARK UNBOUND:                 0.000
REMARK SMILES Cc1cc2cc3c(C)cc(=O)oc3c(C)c2o1
REMARK SMILES IDX 8 1 7 2 9 3 10 4 11 5 12 6 13 7 6 8 5 9 4 10 3 11 2 12 17 13
REMARK SMILES IDX 16 14 14 15 15 16 1 17
REMARK H PARENT
REMARK Flexibility Score: inf
ROOT
ATOM      1  C   UNL     1       6.620  -1.777  -4.728  1.00  0.00     0.045 C 
ATOM      2  C   UNL     1       6.730  -2.523  -6.032  1.00  0.00    -0.033 A 
ATOM      3  C   UNL     1       7.373  -3.768  -6.056  1.00  0.00     0.098 A 
ATOM      4  C   UNL     1       7.481  -4.465  -7.260  1.00  0.00     0.336 A 
ATOM      5  O   UNL     1       8.059  -5.583  -7.287  1.00  0.00    -0.246 OA
ATOM      6  O   UNL     1       6.979  -3.961  -8.380  1.00  0.00    -0.422 OA
ATOM      7  C   UNL     1       6.355  -2.787  -8.429  1.00  0.00     0.145 A 
ATOM      8  C   UNL     1       6.205  -2.006  -7.238  1.00  0.00     0.022 A 
ATOM      9  C   UNL     1       5.549  -0.753  -7.301  1.00  0.00     0.024 A 
ATOM     10  C   UNL     1       5.074  -0.325  -8.536  1.00  0.00     0.022 A 
ATOM     11  C   UNL     1       4.420   0.834  -8.887  1.00  0.00     0.054 A 
ATOM     12  C   UNL     1       4.206   0.702 -10.255  1.00  0.00     0.102 A 
ATOM     13  O   UNL     1       4.694  -0.442 -10.699  1.00  0.00    -0.461 OA
ATOM     14  C   UNL     1       5.217  -1.071  -9.673  1.00  0.00     0.140 A 
ATOM     15  C   UNL     1       5.845  -2.319  -9.663  1.00  0.00     0.036 A 
ATOM     16  C   UNL     1       6.019  -3.111 -10.929  1.00  0.00     0.052 C 
ATOM     17  C   UNL     1       3.539   1.715 -11.122  1.00  0.00     0.087 C 
ENDROOT
TORSDOF 0
ENDMDL
MODEL 3
REMARK VINA RESULT:    -5.831     10.468     13.046
REMARK INTER + INTRA:          -5.831
REMARK INTER:                  -5.831
REMARK INTRA:                   0.000
REMARK UNBOUND:                 0.000
REMARK SMILES Cc1cc2cc3c(C)cc(=O)oc3c(C)c2o1
REMARK SMILES IDX 8 1 7 2 9 3 10 4 11 5 12 6 13 7 6 8 5 9 4 10 3 11 2 12 17 13
REMARK SMILES IDX 16 14 14 15 15 16 1 17
REMARK H PARENT
REMARK Flexibility Score: inf
ROOT
ATOM      1  C   UNL     1       2.415  12.073 -12.376  1.00  0.00     0.045 C 
ATOM      2  C   UNL     1       2.860  10.907 -11.532  1.00  0.00    -0.033 A 
ATOM      3  C   UNL     1       2.967  11.067 -10.144  1.00  0.00     0.098 A 
ATOM      4  C   UNL     1       3.380   9.993  -9.355  1.00  0.00     0.336 A 
ATOM      5  O   UNL     1       3.478  10.133  -8.107  1.00  0.00    -0.246 OA
ATOM      6  O   UNL     1       3.671   8.822  -9.907  1.00  0.00    -0.422 OA
ATOM      7  C   UNL     1       3.590   8.599 -11.216  1.00  0.00     0.145 A 
ATOM      8  C   UNL     1       3.177   9.651 -12.097  1.00  0.00     0.022 A 
ATOM      9  C   UNL     1       3.104   9.408 -13.490  1.00  0.00     0.024 A 
ATOM     10  C   UNL     1       3.444   8.142 -13.952  1.00  0.00     0.022 A 
ATOM     11  C   UNL     1       3.477   7.638 -15.232  1.00  0.00     0.054 A 
ATOM     12  C   UNL     1       3.899   6.323 -15.070  1.00  0.00     0.102 A 
ATOM     13  O   UNL     1       4.111   6.052 -13.795  1.00  0.00    -0.461 OA
ATOM     14  C   UNL     1       3.838   7.137 -13.111  1.00  0.00     0.140 A 
ATOM     15  C   UNL     1       3.915   7.320 -11.727  1.00  0.00     0.036 A 
ATOM     16  C   UNL     1       4.378   6.214 -10.822  1.00  0.00     0.052 C 
ATOM     17  C   UNL     1       4.112   5.345 -16.175  1.00  0.00     0.087 C 
ENDROOT
TORSDOF 0
ENDMDL
MODEL 4
REMARK VINA RESULT:    -5.729      2.871      5.452
REMARK INTER + INTRA:          -5.729
REMARK INTER:                  -5.729
REMARK INTRA:                   0.000
REMARK UNBOUND:                 0.000
REMARK SMILES Cc1cc2cc3c(C)cc(=O)oc3c(C)c2o1
REMARK SMILES IDX 8 1 7 2 9 3 10 4 11 5 12 6 13 7 6 8 5 9 4 10 3 11 2 12 17 13
REMARK SMILES IDX 16 14 14 15 15 16 1 17
REMARK H PARENT
REMARK Flexibility Score: inf
ROOT
ATOM      1  C   UNL     1       9.376  -8.124  -8.413  1.00  0.00     0.045 C 
ATOM      2  C   UNL     1       8.949  -6.987  -9.305  1.00  0.00    -0.033 A 
ATOM      3  C   UNL     1       9.137  -7.095 -10.689  1.00  0.00     0.098 A 
ATOM      4  C   UNL     1       8.747  -6.046 -11.522  1.00  0.00     0.336 A 
ATOM      5  O   UNL     1       8.915  -6.138 -12.767  1.00  0.00    -0.246 OA
ATOM      6  O   UNL     1       8.198  -4.949 -11.016  1.00  0.00    -0.422 OA
ATOM      7  C   UNL     1       7.989  -4.781  -9.712  1.00  0.00     0.145 A 
ATOM      8  C   UNL     1       8.365  -5.809  -8.789  1.00  0.00     0.022 A 
ATOM      9  C   UNL     1       8.147  -5.617  -7.403  1.00  0.00     0.024 A 
ATOM     10  C   UNL     1       7.573  -4.419  -6.990  1.00  0.00     0.022 A 
ATOM     11  C   UNL     1       7.265  -3.966  -5.728  1.00  0.00     0.054 A 
ATOM     12  C   UNL     1       6.723  -2.704  -5.943  1.00  0.00     0.102 A 
ATOM     13  O   UNL     1       6.708  -2.412  -7.231  1.00  0.00    -0.461 OA
ATOM     14  C   UNL     1       7.214  -3.438  -7.873  1.00  0.00     0.140 A 
ATOM     15  C   UNL     1       7.395  -3.582  -9.251  1.00  0.00     0.036 A 
ATOM     16  C   UNL     1       7.021  -2.481 -10.203  1.00  0.00     0.052 C 
ATOM     17  C   UNL     1       6.241  -1.781  -4.876  1.00  0.00     0.087 C 
ENDROOT
TORSDOF 0
ENDMDL
MODEL 5
REMARK VINA RESULT:    -5.659      1.874      5.874
REMARK INTER + INTRA:          -5.659
REMARK INTER:                  -5.659
REMARK INTRA:                   0.000
REMARK UNBOUND:                 0.000
REMARK SMILES Cc1cc2cc3c(C)cc(=O)oc3c(C)c2o1
REMARK SMILES IDX 8 1 7 2 9 3 10 4 11 5 12 6 13 7 6 8 5 9 4 10 3 11 2 12 17 13
REMARK SMILES IDX 16 14 14 15 15 16 1 17
REMARK H PARENT
REMARK Flexibility Score: inf
ROOT
ATOM      1  C   UNL     1       7.790  -6.179  -5.099  1.00  0.00     0.045 C 
ATOM      2  C   UNL     1       7.983  -5.904  -6.568  1.00  0.00    -0.033 A 
ATOM      3  C   UNL     1       8.585  -6.879  -7.374  1.00  0.00     0.098 A 
ATOM      4  C   UNL     1       8.770  -6.631  -8.735  1.00  0.00     0.336 A 
ATOM      5  O   UNL     1       9.311  -7.505  -9.463  1.00  0.00    -0.246 OA
ATOM      6  O   UNL     1       8.379  -5.483  -9.272  1.00  0.00    -0.422 OA
ATOM      7  C   UNL     1       7.800  -4.515  -8.566  1.00  0.00     0.145 A 
ATOM      8  C   UNL     1       7.577  -4.688  -7.162  1.00  0.00     0.022 A 
ATOM      9  C   UNL     1       6.969  -3.648  -6.417  1.00  0.00     0.024 A 
ATOM     10  C   UNL     1       6.612  -2.485  -7.089  1.00  0.00     0.022 A 
ATOM     11  C   UNL     1       6.028  -1.329  -6.624  1.00  0.00     0.054 A 
ATOM     12  C   UNL     1       5.923  -0.522  -7.751  1.00  0.00     0.102 A 
ATOM     13  O   UNL     1       6.409  -1.136  -8.814  1.00  0.00    -0.461 OA
ATOM     14  C   UNL     1       6.824  -2.320  -8.430  1.00  0.00     0.140 A 
ATOM     15  C   UNL     1       7.409  -3.319  -9.214  1.00  0.00     0.036 A 
ATOM     16  C   UNL     1       7.661  -3.108 -10.680  1.00  0.00     0.052 C 
ATOM     17  C   UNL     1       5.364   0.860  -7.771  1.00  0.00     0.087 C 
ENDROOT
TORSDOF 0
ENDMDL
MODEL 6
REMARK VINA RESULT:    -5.619      1.602      5.221
REMARK INTER + INTRA:          -5.619
REMARK INTER:                  -5.619
REMARK INTRA:                   0.000
REMARK UNBOUND:                 0.000
REMARK SMILES Cc1cc2cc3c(C)cc(=O)oc3c(C)c2o1
REMARK SMILES IDX 8 1 7 2 9 3 10 4 11 5 12 6 13 7 6 8 5 9 4 10 3 11 2 12 17 13
REMARK SMILES IDX 16 14 14 15 15 16 1 17
REMARK H PARENT
REMARK Flexibility Score: inf
ROOT
ATOM      1  C   UNL     1       7.510  -4.853  -7.921  1.00  0.00     0.045 C 
ATOM      2  C   UNL     1       6.953  -3.544  -7.424  1.00  0.00    -0.033 A 
ATOM      3  C   UNL     1       7.069  -3.223  -6.065  1.00  0.00     0.098 A 
ATOM      4  C   UNL     1       6.554  -2.014  -5.595  1.00  0.00     0.336 A 
ATOM      5  O   UNL     1       6.654  -1.722  -4.375  1.00  0.00    -0.246 OA
ATOM      6  O   UNL     1       5.959  -1.166  -6.424  1.00  0.00    -0.422 OA
ATOM      7  C   UNL     1       5.816  -1.406  -7.725  1.00  0.00     0.145 A 
ATOM      8  C   UNL     1       6.314  -2.626  -8.287  1.00  0.00     0.022 A 
ATOM      9  C   UNL     1       6.149  -2.877  -9.671  1.00  0.00     0.024 A 
ATOM     10  C   UNL     1       5.499  -1.916 -10.437  1.00  0.00     0.022 A 
ATOM     11  C   UNL     1       5.193  -1.902 -11.778  1.00  0.00     0.054 A 
ATOM     12  C   UNL     1       4.537  -0.691 -11.965  1.00  0.00     0.102 A 
ATOM     13  O   UNL     1       4.446  -0.026 -10.828  1.00  0.00    -0.461 OA
ATOM     14  C   UNL     1       5.024  -0.751  -9.900  1.00  0.00     0.140 A 
ATOM     15  C   UNL     1       5.172  -0.449  -8.544  1.00  0.00     0.036 A 
ATOM     16  C   UNL     1       4.618   0.824  -7.967  1.00  0.00     0.052 C 
ATOM     17  C   UNL     1       3.983  -0.204 -13.261  1.00  0.00     0.087 C 
ENDROOT
TORSDOF 0
ENDMDL
MODEL 7
REMARK VINA RESULT:    -5.591      8.201     12.335
REMARK INTER + INTRA:          -5.591
REMARK INTER:                  -5.591
REMARK INTRA:                   0.000
REMARK UNBOUND:                 0.000
REMARK SMILES Cc1cc2cc3c(C)cc(=O)oc3c(C)c2o1
REMARK SMILES IDX 8 1 7 2 9 3 10 4 11 5 12 6 13 7 6 8 5 9 4 10 3 11 2 12 17 13
REMARK SMILES IDX 16 14 14 15 15 16 1 17
REMARK H PARENT
REMARK Flexibility Score: inf
ROOT
ATOM      1  C   UNL     1       2.998   4.963  -9.587  1.00  0.00     0.045 C 
ATOM      2  C   UNL     1       3.426   4.647 -10.997  1.00  0.00    -0.033 A 
ATOM      3  C   UNL     1       3.835   3.345 -11.314  1.00  0.00     0.098 A 
ATOM      4  C   UNL     1       4.234   3.045 -12.616  1.00  0.00     0.336 A 
ATOM      5  O   UNL     1       4.604   1.876 -12.905  1.00  0.00    -0.246 OA
ATOM      6  O   UNL     1       4.229   3.980 -13.557  1.00  0.00    -0.422 OA
ATOM      7  C   UNL     1       3.851   5.235 -13.327  1.00  0.00     0.145 A 
ATOM      8  C   UNL     1       3.430   5.627 -12.016  1.00  0.00     0.022 A 
ATOM      9  C   UNL     1       3.040   6.967 -11.778  1.00  0.00     0.024 A 
ATOM     10  C   UNL     1       3.085   7.860 -12.842  1.00  0.00     0.022 A 
ATOM     11  C   UNL     1       2.781   9.201 -12.895  1.00  0.00     0.054 A 
ATOM     12  C   UNL     1       3.026   9.554 -14.217  1.00  0.00     0.102 A 
ATOM     13  O   UNL     1       3.450   8.513 -14.910  1.00  0.00    -0.461 OA
ATOM     14  C   UNL     1       3.487   7.486 -14.095  1.00  0.00     0.140 A 
ATOM     15  C   UNL     1       3.870   6.174 -14.386  1.00  0.00     0.036 A 
ATOM     16  C   UNL     1       4.337   5.788 -15.761  1.00  0.00     0.052 C 
ATOM     17  C   UNL     1       2.862  10.922 -14.787  1.00  0.00     0.087 C 
ENDROOT
TORSDOF 0
ENDMDL
MODEL 8
REMARK VINA RESULT:    -5.564      1.941      3.514
REMARK INTER + INTRA:          -5.564
REMARK INTER:                  -5.564
REMARK INTRA:                   0.000
REMARK UNBOUND:                 0.000
REMARK SMILES Cc1cc2cc3c(C)cc(=O)oc3c(C)c2o1
REMARK SMILES IDX 8 1 7 2 9 3 10 4 11 5 12 6 13 7 6 8 5 9 4 10 3 11 2 12 17 13
REMARK SMILES IDX 16 14 14 15 15 16 1 17
REMARK H PARENT
REMARK Flexibility Score: inf
ROOT
ATOM      1  C   UNL     1       4.226   1.973  -7.741  1.00  0.00     0.045 C 
ATOM      2  C   UNL     1       4.424   0.983  -8.859  1.00  0.00    -0.033 A 
ATOM      3  C   UNL     1       3.953   1.294 -10.142  1.00  0.00     0.098 A 
ATOM      4  C   UNL     1       4.131   0.381 -11.182  1.00  0.00     0.336 A 
ATOM      5  O   UNL     1       3.709   0.657 -12.336  1.00  0.00    -0.246 OA
ATOM      6  O   UNL     1       4.742  -0.777 -10.968  1.00  0.00    -0.422 OA
ATOM      7  C   UNL     1       5.215  -1.136  -9.777  1.00  0.00     0.145 A 
ATOM      8  C   UNL     1       5.070  -0.257  -8.656  1.00  0.00     0.022 A 
ATOM      9  C   UNL     1       5.567  -0.652  -7.390  1.00  0.00     0.024 A 
ATOM     10  C   UNL     1       6.180  -1.896  -7.287  1.00  0.00     0.022 A 
ATOM     11  C   UNL     1       6.733  -2.530  -6.198  1.00  0.00     0.054 A 
ATOM     12  C   UNL     1       7.182  -3.745  -6.704  1.00  0.00     0.102 A 
ATOM     13  O   UNL     1       6.919  -3.842  -7.994  1.00  0.00    -0.461 OA
ATOM     14  C   UNL     1       6.318  -2.734  -8.358  1.00  0.00     0.140 A 
ATOM     15  C   UNL     1       5.857  -2.388  -9.631  1.00  0.00     0.036 A 
ATOM     16  C   UNL     1       5.993  -3.335 -10.790  1.00  0.00     0.052 C 
ATOM     17  C   UNL     1       7.850  -4.814  -5.908  1.00  0.00     0.087 C 
ENDROOT
TORSDOF 0
ENDMDL
MODEL 9
REMARK VINA RESULT:    -5.557      6.935      9.809
REMARK INTER + INTRA:          -5.557
REMARK INTER:                  -5.557
REMARK INTRA:                   0.000
REMARK UNBOUND:                 0.000
REMARK SMILES Cc1cc2cc3c(C)cc(=O)oc3c(C)c2o1
REMARK SMILES IDX 8 1 7 2 9 3 10 4 11 5 12 6 13 7 6 8 5 9 4 10 3 11 2 12 17 13
REMARK SMILES IDX 16 14 14 15 15 16 1 17
REMARK H PARENT
REMARK Flexibility Score: inf
ROOT
ATOM      1  C   UNL     1       4.436   5.425 -16.114  1.00  0.00     0.045 C 
ATOM      2  C   UNL     1       3.988   6.106 -14.846  1.00  0.00    -0.033 A 
ATOM      3  C   UNL     1       3.721   7.481 -14.865  1.00  0.00     0.098 A 
ATOM      4  C   UNL     1       3.307   8.119 -13.696  1.00  0.00     0.336 A 
ATOM      5  O   UNL     1       3.067   9.356 -13.708  1.00  0.00    -0.246 OA
ATOM      6  O   UNL     1       3.163   7.436 -12.567  1.00  0.00    -0.422 OA
ATOM      7  C   UNL     1       3.397   6.129 -12.478  1.00  0.00     0.145 A 
ATOM      8  C   UNL     1       3.829   5.400 -13.633  1.00  0.00     0.022 A 
ATOM      9  C   UNL     1       4.086   4.011 -13.526  1.00  0.00     0.024 A 
ATOM     10  C   UNL     1       3.909   3.406 -12.287  1.00  0.00     0.022 A 
ATOM     11  C   UNL     1       4.094   2.100 -11.897  1.00  0.00     0.054 A 
ATOM     12  C   UNL     1       3.769   2.098 -10.546  1.00  0.00     0.102 A 
ATOM     13  O   UNL     1       3.419   3.307 -10.145  1.00  0.00    -0.461 OA
ATOM     14  C   UNL     1       3.497   4.103 -11.185  1.00  0.00     0.140 A 
ATOM     15  C   UNL     1       3.218   5.472 -11.238  1.00  0.00     0.036 A 
ATOM     16  C   UNL     1       2.793   6.226 -10.010  1.00  0.00     0.052 C 
ATOM     17  C   UNL     1       3.824   0.908  -9.649  1.00  0.00     0.087 C 
ENDROOT
TORSDOF 0
ENDMDL
