MODEL 1
REMARK VINA RESULT:    26.613      0.000      0.000
REMARK INTER + INTRA:          32.350
REMARK INTER:                  32.059
REMARK INTRA:                   0.291
REMARK UNBOUND:                 0.291
REMARK SMILES O=c1c(O)c(-c2ccc(O)c(O)c2)oc2cc(O)cc(O)c12
REMARK SMILES IDX 5 1 3 2 2 3 1 4 22 5 20 6 19 7 17 8 16 9 15 10 14 11 6 12
REMARK SMILES IDX 7 13 8 14 9 15 13 16 11 17 10 18 12 20 4 22 21 24 18 26
REMARK H PARENT 10 19 12 21 4 23 21 25 18 27
REMARK Flexibility Score: inf
ROOT
ATOM      1  C   UNL     1      -7.666  -4.622  21.170  1.00  0.00     0.180 A 
ATOM      2  C   UNL     1      -7.946  -5.294  19.969  1.00  0.00     0.208 A 
ATOM      3  C   UNL     1      -8.378  -6.630  20.021  1.00  0.00     0.238 A 
ATOM      4  O   UNL     1      -8.678  -7.210  18.945  1.00  0.00    -0.285 OA
ATOM      5  C   UNL     1      -8.509  -7.280  21.272  1.00  0.00     0.111 A 
ATOM      6  C   UNL     1      -8.900  -8.642  21.440  1.00  0.00     0.134 A 
ATOM      7  C   UNL     1      -9.124  -9.141  22.730  1.00  0.00     0.093 A 
ATOM      8  C   UNL     1      -8.908  -8.349  23.857  1.00  0.00     0.123 A 
ATOM      9  C   UNL     1      -8.467  -7.034  23.706  1.00  0.00     0.094 A 
ATOM     10  C   UNL     1      -8.271  -6.496  22.431  1.00  0.00     0.146 A 
ATOM     11  O   UNL     1      -7.862  -5.236  22.330  1.00  0.00    -0.452 OA
ENDROOT
BRANCH   1  12
ATOM     12  C   UNL     1      -7.182  -3.221  21.195  1.00  0.00     0.025 A 
ATOM     13  C   UNL     1      -6.475  -2.673  20.112  1.00  0.00     0.016 A 
ATOM     14  C   UNL     1      -6.007  -1.357  20.167  1.00  0.00     0.051 A 
ATOM     15  C   UNL     1      -6.226  -0.575  21.306  1.00  0.00     0.157 A 
ATOM     16  C   UNL     1      -7.383  -2.441  22.345  1.00  0.00     0.062 A 
ATOM     17  C   UNL     1      -6.915  -1.120  22.403  1.00  0.00     0.158 A 
BRANCH  15  18
ATOM     18  O   UNL     1      -5.749   0.734  21.331  1.00  0.00    -0.504 OA
ATOM     19  H   UNL     1      -4.759   0.947  21.346  1.00  0.00     0.293 HD
ENDBRANCH  15  18
BRANCH  17  20
ATOM     20  O   UNL     1      -7.130  -0.349  23.545  1.00  0.00    -0.504 OA
ATOM     21  H   UNL     1      -7.628   0.531  23.504  1.00  0.00     0.293 HD
ENDBRANCH  17  20
ENDBRANCH   1  12
BRANCH   2  22
ATOM     22  O   UNL     1      -7.829  -4.629  18.746  1.00  0.00    -0.502 OA
ATOM     23  H   UNL     1      -7.004  -4.099  18.489  1.00  0.00     0.293 HD
ENDBRANCH   2  22
BRANCH   6  24
ATOM     24  O   UNL     1      -9.055  -9.546  20.386  1.00  0.00    -0.507 OA
ATOM     25  H   UNL     1      -9.700 -10.322  20.384  1.00  0.00     0.293 HD
ENDBRANCH   6  24
BRANCH   8  26
ATOM     26  O   UNL     1      -9.125  -8.885  25.125  1.00  0.00    -0.508 OA
ATOM     27  H   UNL     1      -9.444  -9.839  25.250  1.00  0.00     0.293 HD
ENDBRANCH   8  26
TORSDOF 6
ENDMDL
MODEL 2
REMARK VINA RESULT:    27.960      1.067      1.482
REMARK INTER + INTRA:          33.972
REMARK INTER:                  33.647
REMARK INTRA:                   0.324
REMARK UNBOUND:                 0.291
REMARK SMILES O=c1c(O)c(-c2ccc(O)c(O)c2)oc2cc(O)cc(O)c12
REMARK SMILES IDX 5 1 3 2 2 3 1 4 22 5 20 6 19 7 17 8 16 9 15 10 14 11 6 12
REMARK SMILES IDX 7 13 8 14 9 15 13 16 11 17 10 18 12 20 4 22 21 24 18 26
REMARK H PARENT 10 19 12 21 4 23 21 25 18 27
REMARK Flexibility Score: inf
ROOT
ATOM      1  C   UNL     1      -7.481  -4.130  21.052  1.00  0.00     0.180 A 
ATOM      2  C   UNL     1      -7.709  -4.545  19.730  1.00  0.00     0.208 A 
ATOM      3  C   UNL     1      -8.147  -5.859  19.494  1.00  0.00     0.238 A 
ATOM      4  O   UNL     1      -8.401  -6.209  18.312  1.00  0.00    -0.285 OA
ATOM      5  C   UNL     1      -8.335  -6.745  20.583  1.00  0.00     0.111 A 
ATOM      6  C   UNL     1      -8.736  -8.109  20.457  1.00  0.00     0.134 A 
ATOM      7  C   UNL     1      -9.018  -8.853  21.610  1.00  0.00     0.093 A 
ATOM      8  C   UNL     1      -8.850  -8.306  22.881  1.00  0.00     0.123 A 
ATOM      9  C   UNL     1      -8.399  -6.992  23.016  1.00  0.00     0.094 A 
ATOM     10  C   UNL     1      -8.146  -6.212  21.885  1.00  0.00     0.146 A 
ATOM     11  O   UNL     1      -7.730  -4.962  22.056  1.00  0.00    -0.452 OA
ENDROOT
BRANCH   1  12
ATOM     12  C   UNL     1      -6.995  -2.768  21.378  1.00  0.00     0.025 A 
ATOM     13  C   UNL     1      -6.221  -2.523  22.525  1.00  0.00     0.016 A 
ATOM     14  C   UNL     1      -5.795  -1.227  22.825  1.00  0.00     0.051 A 
ATOM     15  C   UNL     1      -6.144  -0.157  21.995  1.00  0.00     0.157 A 
ATOM     16  C   UNL     1      -7.363  -1.689  20.558  1.00  0.00     0.062 A 
ATOM     17  C   UNL     1      -6.935  -0.387  20.857  1.00  0.00     0.158 A 
BRANCH  15  18
ATOM     18  O   UNL     1      -5.702   1.125  22.319  1.00  0.00    -0.504 OA
ATOM     19  H   UNL     1      -5.803   1.907  21.683  1.00  0.00     0.293 HD
ENDBRANCH  15  18
BRANCH  17  20
ATOM     20  O   UNL     1      -7.294   0.676  20.029  1.00  0.00    -0.504 OA
ATOM     21  H   UNL     1      -7.435   0.549  19.034  1.00  0.00     0.293 HD
ENDBRANCH  17  20
ENDBRANCH   1  12
BRANCH   2  22
ATOM     22  O   UNL     1      -7.537  -3.649  18.671  1.00  0.00    -0.502 OA
ATOM     23  H   UNL     1      -7.570  -2.645  18.796  1.00  0.00     0.293 HD
ENDBRANCH   2  22
BRANCH   6  24
ATOM     24  O   UNL     1      -8.847  -8.781  19.237  1.00  0.00    -0.507 OA
ATOM     25  H   UNL     1      -9.008  -9.773  19.141  1.00  0.00     0.293 HD
ENDBRANCH   6  24
BRANCH   8  26
ATOM     26  O   UNL     1      -9.124  -9.082  24.005  1.00  0.00    -0.508 OA
ATOM     27  H   UNL     1     -10.064  -9.403  24.211  1.00  0.00     0.293 HD
ENDBRANCH   8  26
TORSDOF 6
ENDMDL
