MODEL 1
REMARK VINA RESULT:    -6.040      0.000      0.000
REMARK INTER + INTRA:          -7.678
REMARK INTER:                  -7.099
REMARK INTRA:                  -0.578
REMARK UNBOUND:                -0.578
REMARK SMILES C=C(C)[C@H]1CC[C@]2(CO)CC[C@@]3(C)[C@H](CC[C@@H]4[C@]5(C)CC[C@H](O)C(C)(C)[C@@H]5CC[C@@]43C)[C@H]12
REMARK SMILES IDX 4 1 5 2 6 3 7 4 32 5 14 6 15 7 16 8 17 9 18 10 20 11 21 12
REMARK SMILES IDX 22 13 24 14 27 15 28 16 29 17 30 18 12 19 11 20 10 21 13 22
REMARK SMILES IDX 31 23 25 24 26 25 19 26 2 27 3 28 1 29 8 30 9 31 23 33
REMARK H PARENT 9 32 23 34
REMARK Flexibility Score: inf
ROOT
ATOM      1  C   UNL     1     -63.337 -78.545 221.138  1.00  0.00     0.018 C 
ATOM      2  C   UNL     1     -63.509 -78.254 222.634  1.00  0.00     0.009 C 
ATOM      3  C   UNL     1     -62.103 -78.187 223.193  1.00  0.00     0.010 C 
ATOM      4  C   UNL     1     -61.314 -79.282 222.450  1.00  0.00    -0.003 C 
ATOM      5  C   UNL     1     -61.995 -79.349 221.042  1.00  0.00     0.008 C 
ATOM      6  C   UNL     1     -61.060 -78.978 219.823  1.00  0.00    -0.000 C 
ATOM      7  C   UNL     1     -60.810 -77.462 219.652  1.00  0.00     0.005 C 
ATOM      8  C   UNL     1     -59.906 -77.143 218.475  1.00  0.00     0.005 C 
ATOM      9  C   UNL     1     -58.513 -77.829 218.545  1.00  0.00     0.002 C 
ATOM     10  C   UNL     1     -57.486 -77.344 217.375  1.00  0.00    -0.026 C 
ATOM     11  C   UNL     1     -57.952 -75.984 216.735  1.00  0.00     0.010 C 
ATOM     12  C   UNL     1     -57.171 -75.523 215.500  1.00  0.00     0.033 C 
ATOM     13  C   UNL     1     -57.209 -76.572 214.386  1.00  0.00     0.120 C 
ATOM     14  C   UNL     1     -56.658 -77.946 214.865  1.00  0.00    -0.006 C 
ATOM     15  C   UNL     1     -57.354 -78.434 216.219  1.00  0.00     0.003 C 
ATOM     16  C   UNL     1     -58.719 -79.140 216.016  1.00  0.00     0.005 C 
ATOM     17  C   UNL     1     -59.223 -79.906 217.266  1.00  0.00     0.008 C 
ATOM     18  C   UNL     1     -58.693 -79.398 218.657  1.00  0.00    -0.024 C 
ATOM     19  C   UNL     1     -59.715 -79.804 219.856  1.00  0.00    -0.024 C 
ATOM     20  C   UNL     1     -59.018 -79.640 221.273  1.00  0.00     0.008 C 
ATOM     21  C   UNL     1     -59.805 -78.921 222.387  1.00  0.00     0.010 C 
ATOM     22  C   UNL     1     -60.089 -81.320 219.679  1.00  0.00     0.012 C 
ATOM     23  C   UNL     1     -57.300 -80.092 218.945  1.00  0.00     0.012 C 
ATOM     24  C   UNL     1     -55.115 -77.841 215.056  1.00  0.00     0.014 C 
ATOM     25  C   UNL     1     -56.833 -78.985 213.715  1.00  0.00     0.014 C 
ATOM     26  C   UNL     1     -56.087 -77.096 218.043  1.00  0.00     0.012 C 
ENDROOT
BRANCH   1  27
ATOM     27  C   UNL     1     -64.583 -79.206 220.529  1.00  0.00    -0.077 C 
ATOM     28  C   UNL     1     -65.745 -79.582 221.423  1.00  0.00     0.039 C 
ATOM     29  C   UNL     1     -64.774 -79.310 219.201  1.00  0.00     0.008 C 
ENDBRANCH   1  27
BRANCH   4  30
ATOM     30  C   UNL     1     -61.490 -80.637 223.216  1.00  0.00     0.163 C 
BRANCH  30  31
ATOM     31  O   UNL     1     -62.219 -81.566 222.449  1.00  0.00    -0.396 OA
ATOM     32  H   UNL     1     -63.003 -81.090 222.066  1.00  0.00     0.210 HD
ENDBRANCH  30  31
ENDBRANCH   4  30
BRANCH  13  33
ATOM     33  O   UNL     1     -58.536 -76.694 213.927  1.00  0.00    -0.393 OA
ATOM     34  H   UNL     1     -59.136 -76.405 214.665  1.00  0.00     0.210 HD
ENDBRANCH  13  33
TORSDOF 4
ENDMDL
MODEL 2
REMARK VINA RESULT:    -5.957      3.082      5.108
REMARK INTER + INTRA:          -7.580
REMARK INTER:                  -7.053
REMARK INTRA:                  -0.527
REMARK UNBOUND:                -0.578
REMARK SMILES C=C(C)[C@H]1CC[C@]2(CO)CC[C@@]3(C)[C@H](CC[C@@H]4[C@]5(C)CC[C@H](O)C(C)(C)[C@@H]5CC[C@@]43C)[C@H]12
REMARK SMILES IDX 4 1 5 2 6 3 7 4 32 5 14 6 15 7 16 8 17 9 18 10 20 11 21 12
REMARK SMILES IDX 22 13 24 14 27 15 28 16 29 17 30 18 12 19 11 20 10 21 13 22
REMARK SMILES IDX 31 23 25 24 26 25 19 26 2 27 3 28 1 29 8 30 9 31 23 33
REMARK H PARENT 9 32 23 34
REMARK Flexibility Score: inf
ROOT
ATOM      1  C   UNL     1     -63.981 -79.535 224.207  1.00  0.00     0.018 C 
ATOM      2  C   UNL     1     -65.503 -79.375 224.114  1.00  0.00     0.009 C 
ATOM      3  C   UNL     1     -65.789 -79.112 222.650  1.00  0.00     0.010 C 
ATOM      4  C   UNL     1     -64.637 -78.214 222.162  1.00  0.00    -0.003 C 
ATOM      5  C   UNL     1     -63.417 -78.655 223.040  1.00  0.00     0.008 C 
ATOM      6  C   UNL     1     -62.201 -79.272 222.241  1.00  0.00    -0.000 C 
ATOM      7  C   UNL     1     -62.419 -80.730 221.779  1.00  0.00     0.005 C 
ATOM      8  C   UNL     1     -61.233 -81.289 221.012  1.00  0.00     0.005 C 
ATOM      9  C   UNL     1     -60.850 -80.464 219.752  1.00  0.00     0.002 C 
ATOM     10  C   UNL     1     -59.695 -81.164 218.839  1.00  0.00    -0.026 C 
ATOM     11  C   UNL     1     -59.559 -82.697 219.168  1.00  0.00     0.010 C 
ATOM     12  C   UNL     1     -58.382 -83.421 218.507  1.00  0.00     0.033 C 
ATOM     13  C   UNL     1     -57.045 -82.771 218.873  1.00  0.00     0.120 C 
ATOM     14  C   UNL     1     -57.009 -81.264 218.487  1.00  0.00    -0.006 C 
ATOM     15  C   UNL     1     -58.276 -80.468 219.051  1.00  0.00     0.003 C 
ATOM     16  C   UNL     1     -58.138 -80.014 220.526  1.00  0.00     0.005 C 
ATOM     17  C   UNL     1     -59.194 -78.966 220.963  1.00  0.00     0.008 C 
ATOM     18  C   UNL     1     -60.549 -78.965 220.164  1.00  0.00    -0.024 C 
ATOM     19  C   UNL     1     -61.752 -78.330 221.056  1.00  0.00    -0.024 C 
ATOM     20  C   UNL     1     -63.005 -77.978 220.146  1.00  0.00     0.008 C 
ATOM     21  C   UNL     1     -64.401 -78.407 220.640  1.00  0.00     0.010 C 
ATOM     22  C   UNL     1     -61.229 -76.991 221.690  1.00  0.00     0.012 C 
ATOM     23  C   UNL     1     -60.368 -78.066 218.874  1.00  0.00     0.012 C 
ATOM     24  C   UNL     1     -56.935 -81.134 216.936  1.00  0.00     0.014 C 
ATOM     25  C   UNL     1     -55.667 -80.650 218.989  1.00  0.00     0.014 C 
ATOM     26  C   UNL     1     -60.137 -81.041 217.337  1.00  0.00     0.012 C 
ENDROOT
BRANCH   1  27
ATOM     27  C   UNL     1     -63.451 -79.232 225.617  1.00  0.00    -0.077 C 
ATOM     28  C   UNL     1     -61.960 -79.214 225.871  1.00  0.00     0.039 C 
ATOM     29  C   UNL     1     -64.246 -78.802 226.615  1.00  0.00     0.008 C 
ENDBRANCH   1  27
BRANCH   4  30
ATOM     30  C   UNL     1     -65.010 -76.719 222.442  1.00  0.00     0.163 C 
BRANCH  30  31
ATOM     31  O   UNL     1     -64.012 -76.076 223.197  1.00  0.00    -0.396 OA
ATOM     32  H   UNL     1     -63.832 -76.638 223.998  1.00  0.00     0.210 HD
ENDBRANCH  30  31
ENDBRANCH   4  30
BRANCH  13  33
ATOM     33  O   UNL     1     -56.823 -82.943 220.253  1.00  0.00    -0.393 OA
ATOM     34  H   UNL     1     -57.519 -83.566 220.594  1.00  0.00     0.210 HD
ENDBRANCH  13  33
TORSDOF 4
ENDMDL
MODEL 3
REMARK VINA RESULT:    -5.885      2.982      6.066
REMARK INTER + INTRA:          -7.495
REMARK INTER:                  -7.022
REMARK INTRA:                  -0.473
REMARK UNBOUND:                -0.578
REMARK SMILES C=C(C)[C@H]1CC[C@]2(CO)CC[C@@]3(C)[C@H](CC[C@@H]4[C@]5(C)CC[C@H](O)C(C)(C)[C@@H]5CC[C@@]43C)[C@H]12
REMARK SMILES IDX 4 1 5 2 6 3 7 4 32 5 14 6 15 7 16 8 17 9 18 10 20 11 21 12
REMARK SMILES IDX 22 13 24 14 27 15 28 16 29 17 30 18 12 19 11 20 10 21 13 22
REMARK SMILES IDX 31 23 25 24 26 25 19 26 2 27 3 28 1 29 8 30 9 31 23 33
REMARK H PARENT 9 32 23 34
REMARK Flexibility Score: inf
ROOT
ATOM      1  C   UNL     1     -66.859 -81.016 224.271  1.00  0.00     0.018 C 
ATOM      2  C   UNL     1     -68.249 -80.372 224.329  1.00  0.00     0.009 C 
ATOM      3  C   UNL     1     -68.083 -79.005 223.697  1.00  0.00     0.010 C 
ATOM      4  C   UNL     1     -66.705 -78.502 224.165  1.00  0.00    -0.003 C 
ATOM      5  C   UNL     1     -65.860 -79.810 224.326  1.00  0.00     0.008 C 
ATOM      6  C   UNL     1     -64.600 -79.920 223.377  1.00  0.00    -0.000 C 
ATOM      7  C   UNL     1     -64.937 -80.294 221.916  1.00  0.00     0.005 C 
ATOM      8  C   UNL     1     -63.705 -80.387 221.033  1.00  0.00     0.005 C 
ATOM      9  C   UNL     1     -62.862 -79.082 220.986  1.00  0.00     0.002 C 
ATOM     10  C   UNL     1     -61.644 -79.130 219.903  1.00  0.00    -0.026 C 
ATOM     11  C   UNL     1     -61.869 -80.269 218.841  1.00  0.00     0.010 C 
ATOM     12  C   UNL     1     -60.702 -80.532 217.884  1.00  0.00     0.033 C 
ATOM     13  C   UNL     1     -59.420 -80.883 218.643  1.00  0.00     0.120 C 
ATOM     14  C   UNL     1     -59.021 -79.768 219.653  1.00  0.00    -0.006 C 
ATOM     15  C   UNL     1     -60.235 -79.363 220.612  1.00  0.00     0.003 C 
ATOM     16  C   UNL     1     -60.420 -80.297 221.835  1.00  0.00     0.005 C 
ATOM     17  C   UNL     1     -61.355 -79.722 222.929  1.00  0.00     0.008 C 
ATOM     18  C   UNL     1     -62.426 -78.673 222.452  1.00  0.00    -0.024 C 
ATOM     19  C   UNL     1     -63.695 -78.630 223.469  1.00  0.00    -0.024 C 
ATOM     20  C   UNL     1     -64.578 -77.334 223.217  1.00  0.00     0.008 C 
ATOM     21  C   UNL     1     -66.107 -77.507 223.133  1.00  0.00     0.010 C 
ATOM     22  C   UNL     1     -63.136 -78.550 224.936  1.00  0.00     0.012 C 
ATOM     23  C   UNL     1     -61.753 -77.240 222.446  1.00  0.00     0.012 C 
ATOM     24  C   UNL     1     -58.513 -78.522 218.866  1.00  0.00     0.014 C 
ATOM     25  C   UNL     1     -57.777 -80.246 220.461  1.00  0.00     0.014 C 
ATOM     26  C   UNL     1     -61.639 -77.761 219.133  1.00  0.00     0.012 C 
ENDROOT
BRANCH   1  27
ATOM     27  C   UNL     1     -66.682 -82.108 225.337  1.00  0.00    -0.077 C 
ATOM     28  C   UNL     1     -66.096 -81.751 226.686  1.00  0.00     0.039 C 
ATOM     29  C   UNL     1     -67.190 -83.347 225.200  1.00  0.00     0.008 C 
ENDBRANCH   1  27
BRANCH   4  30
ATOM     30  C   UNL     1     -66.874 -77.778 225.542  1.00  0.00     0.163 C 
BRANCH  30  31
ATOM     31  O   UNL     1     -67.717 -76.656 225.430  1.00  0.00    -0.396 OA
ATOM     32  H   UNL     1     -67.951 -76.362 226.352  1.00  0.00     0.210 HD
ENDBRANCH  30  31
ENDBRANCH   4  30
BRANCH  13  33
ATOM     33  O   UNL     1     -59.609 -82.114 219.301  1.00  0.00    -0.393 OA
ATOM     34  H   UNL     1     -60.510 -82.096 219.719  1.00  0.00     0.210 HD
ENDBRANCH  13  33
TORSDOF 4
ENDMDL
MODEL 4
REMARK VINA RESULT:    -5.850      2.036      8.008
REMARK INTER + INTRA:          -7.454
REMARK INTER:                  -6.919
REMARK INTRA:                  -0.534
REMARK UNBOUND:                -0.578
REMARK SMILES C=C(C)[C@H]1CC[C@]2(CO)CC[C@@]3(C)[C@H](CC[C@@H]4[C@]5(C)CC[C@H](O)C(C)(C)[C@@H]5CC[C@@]43C)[C@H]12
REMARK SMILES IDX 4 1 5 2 6 3 7 4 32 5 14 6 15 7 16 8 17 9 18 10 20 11 21 12
REMARK SMILES IDX 22 13 24 14 27 15 28 16 29 17 30 18 12 19 11 20 10 21 13 22
REMARK SMILES IDX 31 23 25 24 26 25 19 26 2 27 3 28 1 29 8 30 9 31 23 33
REMARK H PARENT 9 32 23 34
REMARK Flexibility Score: inf
ROOT
ATOM      1  C   UNL     1     -58.525 -77.938 217.189  1.00  0.00     0.018 C 
ATOM      2  C   UNL     1     -58.240 -78.615 215.843  1.00  0.00     0.009 C 
ATOM      3  C   UNL     1     -58.822 -80.008 215.966  1.00  0.00     0.010 C 
ATOM      4  C   UNL     1     -58.528 -80.449 217.412  1.00  0.00    -0.003 C 
ATOM      5  C   UNL     1     -58.552 -79.112 218.226  1.00  0.00     0.008 C 
ATOM      6  C   UNL     1     -59.673 -79.019 219.337  1.00  0.00    -0.000 C 
ATOM      7  C   UNL     1     -61.089 -78.732 218.788  1.00  0.00     0.005 C 
ATOM      8  C   UNL     1     -62.140 -78.653 219.881  1.00  0.00     0.005 C 
ATOM      9  C   UNL     1     -62.240 -79.936 220.753  1.00  0.00     0.002 C 
ATOM     10  C   UNL     1     -63.486 -79.913 221.806  1.00  0.00    -0.026 C 
ATOM     11  C   UNL     1     -64.560 -78.839 221.397  1.00  0.00     0.010 C 
ATOM     12  C   UNL     1     -65.683 -78.596 222.409  1.00  0.00     0.033 C 
ATOM     13  C   UNL     1     -65.130 -78.171 223.772  1.00  0.00     0.120 C 
ATOM     14  C   UNL     1     -64.134 -79.219 224.345  1.00  0.00    -0.006 C 
ATOM     15  C   UNL     1     -62.994 -79.605 223.291  1.00  0.00     0.003 C 
ATOM     16  C   UNL     1     -61.805 -78.612 223.247  1.00  0.00     0.005 C 
ATOM     17  C   UNL     1     -60.563 -79.153 222.493  1.00  0.00     0.008 C 
ATOM     18  C   UNL     1     -60.832 -80.254 221.402  1.00  0.00    -0.024 C 
ATOM     19  C   UNL     1     -59.646 -80.277 220.290  1.00  0.00    -0.024 C 
ATOM     20  C   UNL     1     -59.707 -81.608 219.425  1.00  0.00     0.008 C 
ATOM     21  C   UNL     1     -59.584 -81.481 217.894  1.00  0.00     0.010 C 
ATOM     22  C   UNL     1     -58.270 -80.264 221.050  1.00  0.00     0.012 C 
ATOM     23  C   UNL     1     -60.863 -81.667 222.116  1.00  0.00     0.012 C 
ATOM     24  C   UNL     1     -64.922 -80.491 224.781  1.00  0.00     0.014 C 
ATOM     25  C   UNL     1     -63.533 -78.665 225.673  1.00  0.00     0.014 C 
ATOM     26  C   UNL     1     -64.180 -81.320 221.750  1.00  0.00     0.012 C 
ENDROOT
BRANCH   1  27
ATOM     27  C   UNL     1     -57.548 -76.786 217.475  1.00  0.00    -0.077 C 
ATOM     28  C   UNL     1     -56.164 -77.091 218.006  1.00  0.00     0.039 C 
ATOM     29  C   UNL     1     -57.797 -75.515 217.108  1.00  0.00     0.008 C 
ENDBRANCH   1  27
BRANCH   4  30
ATOM     30  C   UNL     1     -57.107 -81.103 217.461  1.00  0.00     0.163 C 
BRANCH  30  31
ATOM     31  O   UNL     1     -56.267 -80.433 218.371  1.00  0.00    -0.396 OA
ATOM     32  H   UNL     1     -55.604 -79.913 217.842  1.00  0.00     0.210 HD
ENDBRANCH  30  31
ENDBRANCH   4  30
BRANCH  13  33
ATOM     33  O   UNL     1     -64.514 -76.912 223.635  1.00  0.00    -0.393 OA
ATOM     34  H   UNL     1     -63.908 -76.788 224.413  1.00  0.00     0.210 HD
ENDBRANCH  13  33
TORSDOF 4
ENDMDL
MODEL 5
REMARK VINA RESULT:    -5.824      4.392     10.934
REMARK INTER + INTRA:          -7.423
REMARK INTER:                  -6.977
REMARK INTRA:                  -0.446
REMARK UNBOUND:                -0.578
REMARK SMILES C=C(C)[C@H]1CC[C@]2(CO)CC[C@@]3(C)[C@H](CC[C@@H]4[C@]5(C)CC[C@H](O)C(C)(C)[C@@H]5CC[C@@]43C)[C@H]12
REMARK SMILES IDX 4 1 5 2 6 3 7 4 32 5 14 6 15 7 16 8 17 9 18 10 20 11 21 12
REMARK SMILES IDX 22 13 24 14 27 15 28 16 29 17 30 18 12 19 11 20 10 21 13 22
REMARK SMILES IDX 31 23 25 24 26 25 19 26 2 27 3 28 1 29 8 30 9 31 23 33
REMARK H PARENT 9 32 23 34
REMARK Flexibility Score: inf
ROOT
ATOM      1  C   UNL     1     -61.451 -78.275 222.693  1.00  0.00     0.018 C 
ATOM      2  C   UNL     1     -61.279 -76.862 222.123  1.00  0.00     0.009 C 
ATOM      3  C   UNL     1     -62.682 -76.302 222.010  1.00  0.00     0.010 C 
ATOM      4  C   UNL     1     -63.560 -77.485 221.558  1.00  0.00    -0.003 C 
ATOM      5  C   UNL     1     -62.862 -78.735 222.192  1.00  0.00     0.008 C 
ATOM      6  C   UNL     1     -63.735 -79.534 223.240  1.00  0.00    -0.000 C 
ATOM      7  C   UNL     1     -63.833 -78.862 224.628  1.00  0.00     0.005 C 
ATOM      8  C   UNL     1     -64.681 -79.653 225.608  1.00  0.00     0.005 C 
ATOM      9  C   UNL     1     -66.135 -79.909 225.121  1.00  0.00     0.002 C 
ATOM     10  C   UNL     1     -67.089 -80.602 226.248  1.00  0.00    -0.026 C 
ATOM     11  C   UNL     1     -66.481 -80.436 227.690  1.00  0.00     0.010 C 
ATOM     12  C   UNL     1     -67.192 -81.204 228.808  1.00  0.00     0.033 C 
ATOM     13  C   UNL     1     -67.235 -82.707 228.518  1.00  0.00     0.120 C 
ATOM     14  C   UNL     1     -67.926 -83.015 227.158  1.00  0.00    -0.006 C 
ATOM     15  C   UNL     1     -67.305 -82.155 225.961  1.00  0.00     0.003 C 
ATOM     16  C   UNL     1     -66.012 -82.753 225.351  1.00  0.00     0.005 C 
ATOM     17  C   UNL     1     -65.606 -82.123 223.994  1.00  0.00     0.008 C 
ATOM     18  C   UNL     1     -66.110 -80.656 223.726  1.00  0.00    -0.024 C 
ATOM     19  C   UNL     1     -65.155 -79.898 222.651  1.00  0.00    -0.024 C 
ATOM     20  C   UNL     1     -65.858 -78.586 222.096  1.00  0.00     0.008 C 
ATOM     21  C   UNL     1     -65.025 -77.291 222.034  1.00  0.00     0.010 C 
ATOM     22  C   UNL     1     -64.926 -80.868 221.437  1.00  0.00     0.012 C 
ATOM     23  C   UNL     1     -67.569 -80.733 223.117  1.00  0.00     0.012 C 
ATOM     24  C   UNL     1     -69.454 -82.740 227.286  1.00  0.00     0.014 C 
ATOM     25  C   UNL     1     -67.832 -84.546 226.883  1.00  0.00     0.014 C 
ATOM     26  C   UNL     1     -68.469 -79.853 226.228  1.00  0.00     0.012 C 
ENDROOT
BRANCH   1  27
ATOM     27  C   UNL     1     -60.265 -79.187 222.348  1.00  0.00    -0.077 C 
ATOM     28  C   UNL     1     -59.550 -79.021 221.025  1.00  0.00     0.039 C 
ATOM     29  C   UNL     1     -59.705 -80.021 223.244  1.00  0.00     0.008 C 
ENDBRANCH   1  27
BRANCH   4  30
ATOM     30  C   UNL     1     -63.530 -77.566 219.995  1.00  0.00     0.163 C 
BRANCH  30  31
ATOM     31  O   UNL     1     -63.533 -76.282 219.416  1.00  0.00    -0.396 OA
ATOM     32  H   UNL     1     -62.712 -76.202 218.860  1.00  0.00     0.210 HD
ENDBRANCH  30  31
ENDBRANCH   4  30
BRANCH  13  33
ATOM     33  O   UNL     1     -65.919 -83.208 228.539  1.00  0.00    -0.393 OA
ATOM     34  H   UNL     1     -65.847 -83.831 229.310  1.00  0.00     0.210 HD
ENDBRANCH  13  33
TORSDOF 4
ENDMDL
MODEL 6
REMARK VINA RESULT:    -5.795      1.969      8.304
REMARK INTER + INTRA:          -7.389
REMARK INTER:                  -6.910
REMARK INTRA:                  -0.479
REMARK UNBOUND:                -0.578
REMARK SMILES C=C(C)[C@H]1CC[C@]2(CO)CC[C@@]3(C)[C@H](CC[C@@H]4[C@]5(C)CC[C@H](O)C(C)(C)[C@@H]5CC[C@@]43C)[C@H]12
REMARK SMILES IDX 4 1 5 2 6 3 7 4 32 5 14 6 15 7 16 8 17 9 18 10 20 11 21 12
REMARK SMILES IDX 22 13 24 14 27 15 28 16 29 17 30 18 12 19 11 20 10 21 13 22
REMARK SMILES IDX 31 23 25 24 26 25 19 26 2 27 3 28 1 29 8 30 9 31 23 33
REMARK H PARENT 9 32 23 34
REMARK Flexibility Score: inf
ROOT
ATOM      1  C   UNL     1     -57.146 -80.613 219.759  1.00  0.00     0.018 C 
ATOM      2  C   UNL     1     -56.078 -79.708 219.133  1.00  0.00     0.009 C 
ATOM      3  C   UNL     1     -56.766 -78.378 218.903  1.00  0.00     0.010 C 
ATOM      4  C   UNL     1     -58.197 -78.729 218.454  1.00  0.00    -0.003 C 
ATOM      5  C   UNL     1     -58.504 -80.076 219.192  1.00  0.00     0.008 C 
ATOM      6  C   UNL     1     -59.703 -80.024 220.220  1.00  0.00    -0.000 C 
ATOM      7  C   UNL     1     -59.358 -79.344 221.564  1.00  0.00     0.005 C 
ATOM      8  C   UNL     1     -60.533 -79.307 222.525  1.00  0.00     0.005 C 
ATOM      9  C   UNL     1     -61.789 -78.587 221.960  1.00  0.00     0.002 C 
ATOM     10  C   UNL     1     -62.981 -78.396 223.056  1.00  0.00    -0.026 C 
ATOM     11  C   UNL     1     -62.437 -78.554 224.524  1.00  0.00     0.010 C 
ATOM     12  C   UNL     1     -63.496 -78.580 225.631  1.00  0.00     0.033 C 
ATOM     13  C   UNL     1     -64.511 -79.705 225.412  1.00  0.00     0.120 C 
ATOM     14  C   UNL     1     -65.212 -79.592 224.028  1.00  0.00    -0.006 C 
ATOM     15  C   UNL     1     -64.160 -79.446 222.832  1.00  0.00     0.003 C 
ATOM     16  C   UNL     1     -63.568 -80.790 222.336  1.00  0.00     0.005 C 
ATOM     17  C   UNL     1     -62.826 -80.687 220.978  1.00  0.00     0.008 C 
ATOM     18  C   UNL     1     -62.239 -79.276 220.608  1.00  0.00    -0.024 C 
ATOM     19  C   UNL     1     -61.002 -79.415 219.560  1.00  0.00    -0.024 C 
ATOM     20  C   UNL     1     -60.662 -78.012 218.898  1.00  0.00     0.008 C 
ATOM     21  C   UNL     1     -59.182 -77.587 218.825  1.00  0.00     0.010 C 
ATOM     22  C   UNL     1     -61.449 -80.391 218.412  1.00  0.00     0.012 C 
ATOM     23  C   UNL     1     -63.379 -78.427 219.911  1.00  0.00     0.012 C 
ATOM     24  C   UNL     1     -66.185 -78.375 224.044  1.00  0.00     0.014 C 
ATOM     25  C   UNL     1     -66.143 -80.827 223.834  1.00  0.00     0.014 C 
ATOM     26  C   UNL     1     -63.529 -76.931 222.911  1.00  0.00     0.012 C 
ENDROOT
BRANCH   1  27
ATOM     27  C   UNL     1     -56.845 -82.103 219.536  1.00  0.00    -0.077 C 
ATOM     28  C   UNL     1     -57.725 -82.915 218.610  1.00  0.00     0.039 C 
ATOM     29  C   UNL     1     -55.722 -82.693 219.985  1.00  0.00     0.008 C 
ENDBRANCH   1  27
BRANCH   4  30
ATOM     30  C   UNL     1     -58.203 -78.933 216.902  1.00  0.00     0.163 C 
BRANCH  30  31
ATOM     31  O   UNL     1     -58.293 -77.702 216.225  1.00  0.00    -0.396 OA
ATOM     32  H   UNL     1     -58.722 -77.875 215.344  1.00  0.00     0.210 HD
ENDBRANCH  30  31
ENDBRANCH   4  30
BRANCH  13  33
ATOM     33  O   UNL     1     -63.848 -80.941 225.542  1.00  0.00    -0.393 OA
ATOM     34  H   UNL     1     -64.420 -81.531 226.101  1.00  0.00     0.210 HD
ENDBRANCH  13  33
TORSDOF 4
ENDMDL
MODEL 7
REMARK VINA RESULT:    -5.789      5.565     12.102
REMARK INTER + INTRA:          -7.382
REMARK INTER:                  -6.776
REMARK INTRA:                  -0.606
REMARK UNBOUND:                -0.578
REMARK SMILES C=C(C)[C@H]1CC[C@]2(CO)CC[C@@]3(C)[C@H](CC[C@@H]4[C@]5(C)CC[C@H](O)C(C)(C)[C@@H]5CC[C@@]43C)[C@H]12
REMARK SMILES IDX 4 1 5 2 6 3 7 4 32 5 14 6 15 7 16 8 17 9 18 10 20 11 21 12
REMARK SMILES IDX 22 13 24 14 27 15 28 16 29 17 30 18 12 19 11 20 10 21 13 22
REMARK SMILES IDX 31 23 25 24 26 25 19 26 2 27 3 28 1 29 8 30 9 31 23 33
REMARK H PARENT 9 32 23 34
REMARK Flexibility Score: inf
ROOT
ATOM      1  C   UNL     1     -62.923 -78.197 223.816  1.00  0.00     0.018 C 
ATOM      2  C   UNL     1     -63.151 -76.986 222.903  1.00  0.00     0.009 C 
ATOM      3  C   UNL     1     -64.634 -76.993 222.592  1.00  0.00     0.010 C 
ATOM      4  C   UNL     1     -65.012 -78.478 222.432  1.00  0.00    -0.003 C 
ATOM      5  C   UNL     1     -64.031 -79.223 223.398  1.00  0.00     0.008 C 
ATOM      6  C   UNL     1     -64.720 -80.009 224.584  1.00  0.00    -0.000 C 
ATOM      7  C   UNL     1     -65.207 -79.109 225.743  1.00  0.00     0.005 C 
ATOM      8  C   UNL     1     -65.867 -79.896 226.862  1.00  0.00     0.005 C 
ATOM      9  C   UNL     1     -67.083 -80.747 226.403  1.00  0.00     0.002 C 
ATOM     10  C   UNL     1     -67.893 -81.447 227.634  1.00  0.00    -0.026 C 
ATOM     11  C   UNL     1     -67.561 -80.749 229.005  1.00  0.00     0.010 C 
ATOM     12  C   UNL     1     -68.116 -81.435 230.256  1.00  0.00     0.033 C 
ATOM     13  C   UNL     1     -67.629 -82.882 230.368  1.00  0.00     0.120 C 
ATOM     14  C   UNL     1     -68.003 -83.718 229.111  1.00  0.00    -0.006 C 
ATOM     15  C   UNL     1     -67.551 -83.000 227.755  1.00  0.00     0.003 C 
ATOM     16  C   UNL     1     -66.067 -83.234 227.374  1.00  0.00     0.005 C 
ATOM     17  C   UNL     1     -65.722 -82.836 225.916  1.00  0.00     0.008 C 
ATOM     18  C   UNL     1     -66.639 -81.742 225.254  1.00  0.00    -0.024 C 
ATOM     19  C   UNL     1     -65.856 -80.970 224.056  1.00  0.00    -0.024 C 
ATOM     20  C   UNL     1     -66.873 -80.153 223.150  1.00  0.00     0.008 C 
ATOM     21  C   UNL     1     -66.508 -78.701 222.783  1.00  0.00     0.010 C 
ATOM     22  C   UNL     1     -65.171 -82.055 223.148  1.00  0.00     0.012 C 
ATOM     23  C   UNL     1     -67.903 -82.461 224.630  1.00  0.00     0.012 C 
ATOM     24  C   UNL     1     -69.540 -83.971 229.102  1.00  0.00     0.014 C 
ATOM     25  C   UNL     1     -67.379 -85.140 229.250  1.00  0.00     0.014 C 
ATOM     26  C   UNL     1     -69.427 -81.252 227.365  1.00  0.00     0.012 C 
ENDROOT
BRANCH   1  27
ATOM     27  C   UNL     1     -61.470 -78.692 223.768  1.00  0.00    -0.077 C 
ATOM     28  C   UNL     1     -60.734 -78.986 225.057  1.00  0.00     0.039 C 
ATOM     29  C   UNL     1     -60.863 -79.055 222.622  1.00  0.00     0.008 C 
ENDBRANCH   1  27
BRANCH   4  30
ATOM     30  C   UNL     1     -64.760 -78.905 220.947  1.00  0.00     0.163 C 
BRANCH  30  31
ATOM     31  O   UNL     1     -63.772 -79.904 220.864  1.00  0.00    -0.396 OA
ATOM     32  H   UNL     1     -63.236 -79.729 220.044  1.00  0.00     0.210 HD
ENDBRANCH  30  31
ENDBRANCH   4  30
BRANCH  13  33
ATOM     33  O   UNL     1     -66.235 -82.873 230.571  1.00  0.00    -0.393 OA
ATOM     34  H   UNL     1     -65.882 -83.752 230.269  1.00  0.00     0.210 HD
ENDBRANCH  13  33
TORSDOF 4
ENDMDL
MODEL 8
REMARK VINA RESULT:    -5.741      4.581      7.329
REMARK INTER + INTRA:          -7.326
REMARK INTER:                  -6.720
REMARK INTRA:                  -0.606
REMARK UNBOUND:                -0.578
REMARK SMILES C=C(C)[C@H]1CC[C@]2(CO)CC[C@@]3(C)[C@H](CC[C@@H]4[C@]5(C)CC[C@H](O)C(C)(C)[C@@H]5CC[C@@]43C)[C@H]12
REMARK SMILES IDX 4 1 5 2 6 3 7 4 32 5 14 6 15 7 16 8 17 9 18 10 20 11 21 12
REMARK SMILES IDX 22 13 24 14 27 15 28 16 29 17 30 18 12 19 11 20 10 21 13 22
REMARK SMILES IDX 31 23 25 24 26 25 19 26 2 27 3 28 1 29 8 30 9 31 23 33
REMARK H PARENT 9 32 23 34
REMARK Flexibility Score: inf
ROOT
ATOM      1  C   UNL     1     -62.384 -77.497 222.778  1.00  0.00     0.018 C 
ATOM      2  C   UNL     1     -63.640 -76.989 223.496  1.00  0.00     0.009 C 
ATOM      3  C   UNL     1     -64.088 -78.135 224.379  1.00  0.00     0.010 C 
ATOM      4  C   UNL     1     -63.829 -79.412 223.556  1.00  0.00    -0.003 C 
ATOM      5  C   UNL     1     -62.585 -79.048 222.678  1.00  0.00     0.008 C 
ATOM      6  C   UNL     1     -61.295 -79.924 222.940  1.00  0.00    -0.000 C 
ATOM      7  C   UNL     1     -60.522 -79.548 224.224  1.00  0.00     0.005 C 
ATOM      8  C   UNL     1     -59.293 -80.412 224.446  1.00  0.00     0.005 C 
ATOM      9  C   UNL     1     -59.598 -81.934 224.527  1.00  0.00     0.002 C 
ATOM     10  C   UNL     1     -58.304 -82.838 224.941  1.00  0.00    -0.026 C 
ATOM     11  C   UNL     1     -57.183 -81.957 225.607  1.00  0.00     0.010 C 
ATOM     12  C   UNL     1     -55.848 -82.660 225.869  1.00  0.00     0.033 C 
ATOM     13  C   UNL     1     -55.252 -83.234 224.581  1.00  0.00     0.120 C 
ATOM     14  C   UNL     1     -56.229 -84.222 223.880  1.00  0.00    -0.006 C 
ATOM     15  C   UNL     1     -57.683 -83.588 223.679  1.00  0.00     0.003 C 
ATOM     16  C   UNL     1     -57.816 -82.687 222.424  1.00  0.00     0.005 C 
ATOM     17  C   UNL     1     -59.282 -82.355 222.042  1.00  0.00     0.008 C 
ATOM     18  C   UNL     1     -60.337 -82.403 223.208  1.00  0.00    -0.024 C 
ATOM     19  C   UNL     1     -61.623 -81.468 222.871  1.00  0.00    -0.024 C 
ATOM     20  C   UNL     1     -62.836 -81.803 223.840  1.00  0.00     0.008 C 
ATOM     21  C   UNL     1     -63.586 -80.626 224.494  1.00  0.00     0.010 C 
ATOM     22  C   UNL     1     -62.082 -81.787 221.402  1.00  0.00     0.012 C 
ATOM     23  C   UNL     1     -60.842 -83.895 223.363  1.00  0.00     0.012 C 
ATOM     24  C   UNL     1     -56.321 -85.532 224.719  1.00  0.00     0.014 C 
ATOM     25  C   UNL     1     -55.600 -84.674 222.528  1.00  0.00     0.014 C 
ATOM     26  C   UNL     1     -58.780 -83.885 226.010  1.00  0.00     0.012 C 
ENDROOT
BRANCH   1  27
ATOM     27  C   UNL     1     -62.126 -76.749 221.461  1.00  0.00    -0.077 C 
ATOM     28  C   UNL     1     -60.875 -77.044 220.663  1.00  0.00     0.039 C 
ATOM     29  C   UNL     1     -63.051 -75.961 220.880  1.00  0.00     0.008 C 
ENDBRANCH   1  27
BRANCH   4  30
ATOM     30  C   UNL     1     -65.079 -79.694 222.657  1.00  0.00     0.163 C 
BRANCH  30  31
ATOM     31  O   UNL     1     -64.773 -79.536 221.292  1.00  0.00    -0.396 OA
ATOM     32  H   UNL     1     -65.483 -78.967 220.889  1.00  0.00     0.210 HD
ENDBRANCH  30  31
ENDBRANCH   4  30
BRANCH  13  33
ATOM     33  O   UNL     1     -54.916 -82.166 223.726  1.00  0.00    -0.393 OA
ATOM     34  H   UNL     1     -54.812 -82.537 222.809  1.00  0.00     0.210 HD
ENDBRANCH  13  33
TORSDOF 4
ENDMDL
MODEL 9
REMARK VINA RESULT:    -5.635      7.793     11.547
REMARK INTER + INTRA:          -7.202
REMARK INTER:                  -6.602
REMARK INTRA:                  -0.600
REMARK UNBOUND:                -0.578
REMARK SMILES C=C(C)[C@H]1CC[C@]2(CO)CC[C@@]3(C)[C@H](CC[C@@H]4[C@]5(C)CC[C@H](O)C(C)(C)[C@@H]5CC[C@@]43C)[C@H]12
REMARK SMILES IDX 4 1 5 2 6 3 7 4 32 5 14 6 15 7 16 8 17 9 18 10 20 11 21 12
REMARK SMILES IDX 22 13 24 14 27 15 28 16 29 17 30 18 12 19 11 20 10 21 13 22
REMARK SMILES IDX 31 23 25 24 26 25 19 26 2 27 3 28 1 29 8 30 9 31 23 33
REMARK H PARENT 9 32 23 34
REMARK Flexibility Score: inf
ROOT
ATOM      1  C   UNL     1     -72.724 -76.042 217.501  1.00  0.00     0.018 C 
ATOM      2  C   UNL     1     -73.925 -75.360 216.835  1.00  0.00     0.009 C 
ATOM      3  C   UNL     1     -73.663 -75.455 215.346  1.00  0.00     0.010 C 
ATOM      4  C   UNL     1     -72.147 -75.239 215.181  1.00  0.00    -0.003 C 
ATOM      5  C   UNL     1     -71.538 -75.823 216.501  1.00  0.00     0.008 C 
ATOM      6  C   UNL     1     -70.568 -77.056 216.307  1.00  0.00    -0.000 C 
ATOM      7  C   UNL     1     -71.290 -78.394 216.026  1.00  0.00     0.005 C 
ATOM      8  C   UNL     1     -70.329 -79.554 215.842  1.00  0.00     0.005 C 
ATOM      9  C   UNL     1     -69.297 -79.344 214.699  1.00  0.00     0.002 C 
ATOM     10  C   UNL     1     -68.386 -80.662 214.390  1.00  0.00    -0.026 C 
ATOM     11  C   UNL     1     -69.049 -81.963 214.977  1.00  0.00     0.010 C 
ATOM     12  C   UNL     1     -68.198 -83.235 214.912  1.00  0.00     0.033 C 
ATOM     13  C   UNL     1     -66.861 -83.055 215.637  1.00  0.00     0.120 C 
ATOM     14  C   UNL     1     -66.049 -81.858 215.065  1.00  0.00    -0.006 C 
ATOM     15  C   UNL     1     -66.919 -80.518 214.997  1.00  0.00     0.003 C 
ATOM     16  C   UNL     1     -66.986 -79.734 216.333  1.00  0.00     0.005 C 
ATOM     17  C   UNL     1     -67.529 -78.289 216.187  1.00  0.00     0.008 C 
ATOM     18  C   UNL     1     -68.473 -78.018 214.958  1.00  0.00    -0.024 C 
ATOM     19  C   UNL     1     -69.447 -76.747 215.239  1.00  0.00    -0.024 C 
ATOM     20  C   UNL     1     -70.116 -76.238 213.891  1.00  0.00     0.008 C 
ATOM     21  C   UNL     1     -71.630 -75.948 213.900  1.00  0.00     0.010 C 
ATOM     22  C   UNL     1     -68.565 -75.577 215.807  1.00  0.00     0.012 C 
ATOM     23  C   UNL     1     -67.572 -77.677 213.701  1.00  0.00     0.012 C 
ATOM     24  C   UNL     1     -65.517 -82.230 213.648  1.00  0.00     0.014 C 
ATOM     25  C   UNL     1     -64.760 -81.671 215.923  1.00  0.00     0.014 C 
ATOM     26  C   UNL     1     -68.310 -80.832 212.831  1.00  0.00     0.012 C 
ENDROOT
BRANCH   1  27
ATOM     27  C   UNL     1     -72.509 -75.557 218.943  1.00  0.00    -0.077 C 
ATOM     28  C   UNL     1     -73.622 -75.701 219.957  1.00  0.00     0.039 C 
ATOM     29  C   UNL     1     -71.306 -75.167 219.406  1.00  0.00     0.008 C 
ENDBRANCH   1  27
BRANCH   4  30
ATOM     30  C   UNL     1     -71.865 -73.703 215.073  1.00  0.00     0.163 C 
BRANCH  30  31
ATOM     31  O   UNL     1     -71.088 -73.248 216.155  1.00  0.00    -0.396 OA
ATOM     32  H   UNL     1     -70.482 -72.538 215.812  1.00  0.00     0.210 HD
ENDBRANCH  30  31
ENDBRANCH   4  30
BRANCH  13  33
ATOM     33  O   UNL     1     -67.115 -82.880 217.012  1.00  0.00    -0.393 OA
ATOM     34  H   UNL     1     -66.316 -83.203 217.507  1.00  0.00     0.210 HD
ENDBRANCH  13  33
TORSDOF 4
ENDMDL
