MODEL 1
REMARK VINA RESULT:    -3.728      0.000      0.000
REMARK INTER + INTRA:          -6.095
REMARK INTER:                  -5.689
REMARK INTRA:                  -0.406
REMARK UNBOUND:                -0.406
REMARK SMILES CCCCCCCCCCC(=O)[O-]
REMARK SMILES IDX 7 1 8 2 9 3 10 4 11 5 12 6 13 7 6 8 5 9 4 10 3 11 2 12 1 13
REMARK H PARENT
REMARK Flexibility Score: inf
ROOT
ATOM      1  C   UNL     1      16.913  -4.715  12.818  1.00  0.00     0.000 C 
ENDROOT
BRANCH   1   2
ATOM      2  C   UNL     1      17.414  -4.328  14.220  1.00  0.00     0.000 C 
BRANCH   2   3
ATOM      3  C   UNL     1      18.940  -4.460  14.373  1.00  0.00     0.006 C 
BRANCH   3   4
ATOM      4  C   UNL     1      19.375  -5.255  15.616  1.00  0.00     0.053 C 
BRANCH   4   5
ATOM      5  C   UNL     1      20.831  -5.611  15.590  1.00  0.00     0.041 C 
ATOM      6  O   UNL     1      21.693  -4.776  15.968  1.00  0.00    -0.550 OA
ATOM      7  O   UNL     1      21.233  -6.877  15.182  1.00  0.00    -0.550 OA
ENDBRANCH   4   5
ENDBRANCH   3   4
ENDBRANCH   2   3
ENDBRANCH   1   2
BRANCH   1   8
ATOM      8  C   UNL     1      18.029  -5.280  11.926  1.00  0.00     0.000 C 
BRANCH   8   9
ATOM      9  C   UNL     1      17.520  -6.351  10.950  1.00  0.00    -0.000 C 
BRANCH   9  10
ATOM     10  C   UNL     1      18.293  -6.297   9.623  1.00  0.00    -0.000 C 
BRANCH  10  11
ATOM     11  C   UNL     1      17.591  -7.071   8.496  1.00  0.00    -0.000 C 
BRANCH  11  12
ATOM     12  C   UNL     1      16.987  -6.144   7.431  1.00  0.00    -0.003 C 
ATOM     13  C   UNL     1      17.583  -4.742   7.521  1.00  0.00     0.004 C 
ENDBRANCH  11  12
ENDBRANCH  10  11
ENDBRANCH   9  10
ENDBRANCH   8   9
ENDBRANCH   1   8
TORSDOF 9
ENDMDL
MODEL 2
REMARK VINA RESULT:    -3.546     14.063     15.611
REMARK INTER + INTRA:          -5.818
REMARK INTER:                  -5.192
REMARK INTRA:                  -0.625
REMARK UNBOUND:                -0.406
REMARK SMILES CCCCCCCCCCC(=O)[O-]
REMARK SMILES IDX 7 1 8 2 9 3 10 4 11 5 12 6 13 7 6 8 5 9 4 10 3 11 2 12 1 13
REMARK H PARENT
REMARK Flexibility Score: inf
ROOT
ATOM      1  C   UNL     1      20.634   9.967  11.835  1.00  0.00     0.000 C 
ENDROOT
BRANCH   1   2
ATOM      2  C   UNL     1      20.220   9.799  10.363  1.00  0.00     0.000 C 
BRANCH   2   3
ATOM      3  C   UNL     1      21.398   9.433   9.443  1.00  0.00     0.006 C 
BRANCH   3   4
ATOM      4  C   UNL     1      21.353  10.124   8.069  1.00  0.00     0.053 C 
BRANCH   4   5
ATOM      5  C   UNL     1      21.485   9.155   6.933  1.00  0.00     0.041 C 
ATOM      6  O   UNL     1      20.795   9.304   5.891  1.00  0.00    -0.550 OA
ATOM      7  O   UNL     1      22.394   8.108   7.011  1.00  0.00    -0.550 OA
ENDBRANCH   4   5
ENDBRANCH   3   4
ENDBRANCH   2   3
ENDBRANCH   1   2
BRANCH   1   8
ATOM      8  C   UNL     1      19.469   9.732  12.808  1.00  0.00     0.000 C 
BRANCH   8   9
ATOM      9  C   UNL     1      19.945   9.361  14.221  1.00  0.00    -0.000 C 
BRANCH   9  10
ATOM     10  C   UNL     1      19.041   8.285  14.840  1.00  0.00    -0.000 C 
BRANCH  10  11
ATOM     11  C   UNL     1      18.383   7.383  13.784  1.00  0.00    -0.000 C 
BRANCH  11  12
ATOM     12  C   UNL     1      19.085   6.023  13.649  1.00  0.00    -0.003 C 
ATOM     13  C   UNL     1      20.101   6.040  12.511  1.00  0.00     0.004 C 
ENDBRANCH  11  12
ENDBRANCH  10  11
ENDBRANCH   9  10
ENDBRANCH   8   9
ENDBRANCH   1   8
TORSDOF 9
ENDMDL
MODEL 3
REMARK VINA RESULT:    -3.463      4.151      7.097
REMARK INTER + INTRA:          -5.691
REMARK INTER:                  -5.400
REMARK INTRA:                  -0.291
REMARK UNBOUND:                -0.406
REMARK SMILES CCCCCCCCCCC(=O)[O-]
REMARK SMILES IDX 7 1 8 2 9 3 10 4 11 5 12 6 13 7 6 8 5 9 4 10 3 11 2 12 1 13
REMARK H PARENT
REMARK Flexibility Score: inf
ROOT
ATOM      1  C   UNL     1      17.440  -4.966  12.619  1.00  0.00     0.000 C 
ENDROOT
BRANCH   1   2
ATOM      2  C   UNL     1      18.083  -5.936  11.613  1.00  0.00     0.000 C 
BRANCH   2   3
ATOM      3  C   UNL     1      17.303  -6.038  10.290  1.00  0.00     0.006 C 
BRANCH   3   4
ATOM      4  C   UNL     1      18.190  -6.313   9.063  1.00  0.00     0.053 C 
BRANCH   4   5
ATOM      5  C   UNL     1      17.573  -5.827   7.787  1.00  0.00     0.041 C 
ATOM      6  O   UNL     1      16.876  -6.605   7.084  1.00  0.00    -0.550 OA
ATOM      7  O   UNL     1      17.737  -4.505   7.391  1.00  0.00    -0.550 OA
ENDBRANCH   4   5
ENDBRANCH   3   4
ENDBRANCH   2   3
ENDBRANCH   1   2
BRANCH   1   8
ATOM      8  C   UNL     1      18.386  -4.598  13.772  1.00  0.00     0.000 C 
BRANCH   8   9
ATOM      9  C   UNL     1      18.867  -3.141  13.699  1.00  0.00    -0.000 C 
BRANCH   9  10
ATOM     10  C   UNL     1      18.581  -2.402  15.016  1.00  0.00    -0.000 C 
BRANCH  10  11
ATOM     11  C   UNL     1      17.188  -1.754  15.042  1.00  0.00    -0.000 C 
BRANCH  11  12
ATOM     12  C   UNL     1      17.215  -0.280  14.613  1.00  0.00    -0.003 C 
ATOM     13  C   UNL     1      17.711   0.613  15.747  1.00  0.00     0.004 C 
ENDBRANCH  11  12
ENDBRANCH  10  11
ENDBRANCH   9  10
ENDBRANCH   8   9
ENDBRANCH   1   8
TORSDOF 9
ENDMDL
MODEL 4
REMARK VINA RESULT:    -3.381      3.475      6.808
REMARK INTER + INTRA:          -5.566
REMARK INTER:                  -5.138
REMARK INTRA:                  -0.428
REMARK UNBOUND:                -0.406
REMARK SMILES CCCCCCCCCCC(=O)[O-]
REMARK SMILES IDX 7 1 8 2 9 3 10 4 11 5 12 6 13 7 6 8 5 9 4 10 3 11 2 12 1 13
REMARK H PARENT
REMARK Flexibility Score: inf
ROOT
ATOM      1  C   UNL     1      17.010  -5.053  12.464  1.00  0.00     0.000 C 
ENDROOT
BRANCH   1   2
ATOM      2  C   UNL     1      16.932  -6.261  11.515  1.00  0.00     0.000 C 
BRANCH   2   3
ATOM      3  C   UNL     1      18.021  -6.246  10.428  1.00  0.00     0.006 C 
BRANCH   3   4
ATOM      4  C   UNL     1      17.521  -5.775   9.051  1.00  0.00     0.053 C 
BRANCH   4   5
ATOM      5  C   UNL     1      17.641  -6.837   8.001  1.00  0.00     0.041 C 
ATOM      6  O   UNL     1      18.382  -7.837   8.194  1.00  0.00    -0.550 OA
ATOM      7  O   UNL     1      16.909  -6.743   6.824  1.00  0.00    -0.550 OA
ENDBRANCH   4   5
ENDBRANCH   3   4
ENDBRANCH   2   3
ENDBRANCH   1   2
BRANCH   1   8
ATOM      8  C   UNL     1      18.456  -4.672  12.818  1.00  0.00     0.000 C 
BRANCH   8   9
ATOM      9  C   UNL     1      18.534  -3.634  13.947  1.00  0.00    -0.000 C 
BRANCH   9  10
ATOM     10  C   UNL     1      19.249  -4.212  15.177  1.00  0.00    -0.000 C 
BRANCH  10  11
ATOM     11  C   UNL     1      20.182  -5.382  14.825  1.00  0.00    -0.000 C 
BRANCH  11  12
ATOM     12  C   UNL     1      21.399  -5.467  15.757  1.00  0.00    -0.003 C 
ATOM     13  C   UNL     1      21.965  -6.884  15.793  1.00  0.00     0.004 C 
ENDBRANCH  11  12
ENDBRANCH  10  11
ENDBRANCH   9  10
ENDBRANCH   8   9
ENDBRANCH   1   8
TORSDOF 9
ENDMDL
MODEL 5
REMARK VINA RESULT:    -3.363     17.479     18.768
REMARK INTER + INTRA:          -5.539
REMARK INTER:                  -5.300
REMARK INTRA:                  -0.239
REMARK UNBOUND:                -0.406
REMARK SMILES CCCCCCCCCCC(=O)[O-]
REMARK SMILES IDX 7 1 8 2 9 3 10 4 11 5 12 6 13 7 6 8 5 9 4 10 3 11 2 12 1 13
REMARK H PARENT
REMARK Flexibility Score: inf
ROOT
ATOM      1  C   UNL     1      36.756  -5.624  13.549  1.00  0.00     0.000 C 
ENDROOT
BRANCH   1   2
ATOM      2  C   UNL     1      36.598  -7.065  14.065  1.00  0.00     0.000 C 
BRANCH   2   3
ATOM      3  C   UNL     1      36.457  -8.099  12.934  1.00  0.00     0.006 C 
BRANCH   3   4
ATOM      4  C   UNL     1      36.440  -7.483  11.525  1.00  0.00     0.053 C 
BRANCH   4   5
ATOM      5  C   UNL     1      35.588  -8.260  10.567  1.00  0.00     0.041 C 
ATOM      6  O   UNL     1      34.519  -8.794  10.962  1.00  0.00    -0.550 OA
ATOM      7  O   UNL     1      35.957  -8.366   9.232  1.00  0.00    -0.550 OA
ENDBRANCH   4   5
ENDBRANCH   3   4
ENDBRANCH   2   3
ENDBRANCH   1   2
BRANCH   1   8
ATOM      8  C   UNL     1      36.788  -4.589  14.684  1.00  0.00     0.000 C 
BRANCH   8   9
ATOM      9  C   UNL     1      37.125  -3.176  14.184  1.00  0.00    -0.000 C 
BRANCH   9  10
ATOM     10  C   UNL     1      36.507  -2.109  15.100  1.00  0.00    -0.000 C 
BRANCH  10  11
ATOM     11  C   UNL     1      36.058  -0.856  14.332  1.00  0.00    -0.000 C 
BRANCH  11  12
ATOM     12  C   UNL     1      36.567   0.444  14.973  1.00  0.00    -0.003 C 
ATOM     13  C   UNL     1      35.845   1.659  14.399  1.00  0.00     0.004 C 
ENDBRANCH  11  12
ENDBRANCH  10  11
ENDBRANCH   9  10
ENDBRANCH   8   9
ENDBRANCH   1   8
TORSDOF 9
ENDMDL
MODEL 6
REMARK VINA RESULT:    -3.007     12.416     14.051
REMARK INTER + INTRA:          -4.996
REMARK INTER:                  -4.244
REMARK INTRA:                  -0.752
REMARK UNBOUND:                -0.406
REMARK SMILES CCCCCCCCCCC(=O)[O-]
REMARK SMILES IDX 7 1 8 2 9 3 10 4 11 5 12 6 13 7 6 8 5 9 4 10 3 11 2 12 1 13
REMARK H PARENT
REMARK Flexibility Score: inf
ROOT
ATOM      1  C   UNL     1      17.481   7.258  11.951  1.00  0.00     0.000 C 
ENDROOT
BRANCH   1   2
ATOM      2  C   UNL     1      16.924   8.685  11.818  1.00  0.00     0.000 C 
BRANCH   2   3
ATOM      3  C   UNL     1      17.909   9.657  11.143  1.00  0.00     0.006 C 
BRANCH   3   4
ATOM      4  C   UNL     1      19.072  10.095  12.051  1.00  0.00     0.053 C 
BRANCH   4   5
ATOM      5  C   UNL     1      20.393   9.555  11.595  1.00  0.00     0.041 C 
ATOM      6  O   UNL     1      21.321   9.368  12.425  1.00  0.00    -0.550 OA
ATOM      7  O   UNL     1      20.589   9.223  10.260  1.00  0.00    -0.550 OA
ENDBRANCH   4   5
ENDBRANCH   3   4
ENDBRANCH   2   3
ENDBRANCH   1   2
BRANCH   1   8
ATOM      8  C   UNL     1      17.144   6.615  13.306  1.00  0.00     0.000 C 
BRANCH   8   9
ATOM      9  C   UNL     1      17.707   7.411  14.493  1.00  0.00    -0.000 C 
BRANCH   9  10
ATOM     10  C   UNL     1      18.971   6.740  15.054  1.00  0.00    -0.000 C 
BRANCH  10  11
ATOM     11  C   UNL     1      19.202   5.335  14.476  1.00  0.00    -0.000 C 
BRANCH  11  12
ATOM     12  C   UNL     1      19.030   4.229  15.528  1.00  0.00    -0.003 C 
ATOM     13  C   UNL     1      17.699   3.505  15.351  1.00  0.00     0.004 C 
ENDBRANCH  11  12
ENDBRANCH  10  11
ENDBRANCH   9  10
ENDBRANCH   8   9
ENDBRANCH   1   8
TORSDOF 9
ENDMDL
MODEL 7
REMARK VINA RESULT:    -2.923     17.566     18.275
REMARK INTER + INTRA:          -4.867
REMARK INTER:                  -4.492
REMARK INTRA:                  -0.376
REMARK UNBOUND:                -0.406
REMARK SMILES CCCCCCCCCCC(=O)[O-]
REMARK SMILES IDX 7 1 8 2 9 3 10 4 11 5 12 6 13 7 6 8 5 9 4 10 3 11 2 12 1 13
REMARK H PARENT
REMARK Flexibility Score: inf
ROOT
ATOM      1  C   UNL     1      36.968  -4.765  13.922  1.00  0.00     0.000 C 
ENDROOT
BRANCH   1   2
ATOM      2  C   UNL     1      36.716  -3.653  14.955  1.00  0.00     0.000 C 
BRANCH   2   3
ATOM      3  C   UNL     1      36.759  -2.241  14.344  1.00  0.00     0.006 C 
BRANCH   3   4
ATOM      4  C   UNL     1      36.391  -1.122  15.334  1.00  0.00     0.053 C 
BRANCH   4   5
ATOM      5  C   UNL     1      35.902   0.117  14.646  1.00  0.00     0.041 C 
ATOM      6  O   UNL     1      35.255   0.029  13.570  1.00  0.00    -0.550 OA
ATOM      7  O   UNL     1      36.129   1.365  15.211  1.00  0.00    -0.550 OA
ENDBRANCH   4   5
ENDBRANCH   3   4
ENDBRANCH   2   3
ENDBRANCH   1   2
BRANCH   1   8
ATOM      8  C   UNL     1      36.664  -6.165  14.476  1.00  0.00     0.000 C 
BRANCH   8   9
ATOM      9  C   UNL     1      36.389  -7.191  13.367  1.00  0.00    -0.000 C 
BRANCH   9  10
ATOM     10  C   UNL     1      37.105  -6.799  12.065  1.00  0.00    -0.000 C 
BRANCH  10  11
ATOM     11  C   UNL     1      36.369  -7.294  10.811  1.00  0.00    -0.000 C 
BRANCH  11  12
ATOM     12  C   UNL     1      35.523  -8.547  11.078  1.00  0.00    -0.003 C 
ATOM     13  C   UNL     1      36.062  -9.749  10.308  1.00  0.00     0.004 C 
ENDBRANCH  11  12
ENDBRANCH  10  11
ENDBRANCH   9  10
ENDBRANCH   8   9
ENDBRANCH   1   8
TORSDOF 9
ENDMDL
MODEL 8
REMARK VINA RESULT:    -2.891      2.405      3.115
REMARK INTER + INTRA:          -4.819
REMARK INTER:                  -4.465
REMARK INTRA:                  -0.353
REMARK UNBOUND:                -0.406
REMARK SMILES CCCCCCCCCCC(=O)[O-]
REMARK SMILES IDX 7 1 8 2 9 3 10 4 11 5 12 6 13 7 6 8 5 9 4 10 3 11 2 12 1 13
REMARK H PARENT
REMARK Flexibility Score: inf
ROOT
ATOM      1  C   UNL     1      18.831  -4.873  12.742  1.00  0.00     0.000 C 
ENDROOT
BRANCH   1   2
ATOM      2  C   UNL     1      18.928  -3.909  13.937  1.00  0.00     0.000 C 
BRANCH   2   3
ATOM      3  C   UNL     1      17.560  -3.584  14.563  1.00  0.00     0.006 C 
BRANCH   3   4
ATOM      4  C   UNL     1      17.648  -2.743  15.848  1.00  0.00     0.053 C 
BRANCH   4   5
ATOM      5  C   UNL     1      18.374  -1.449  15.641  1.00  0.00     0.041 C 
ATOM      6  O   UNL     1      19.553  -1.311  16.061  1.00  0.00    -0.550 OA
ATOM      7  O   UNL     1      17.764  -0.407  14.954  1.00  0.00    -0.550 OA
ENDBRANCH   4   5
ENDBRANCH   3   4
ENDBRANCH   2   3
ENDBRANCH   1   2
BRANCH   1   8
ATOM      8  C   UNL     1      17.428  -4.898  12.116  1.00  0.00     0.000 C 
BRANCH   8   9
ATOM      9  C   UNL     1      16.875  -6.323  11.964  1.00  0.00    -0.000 C 
BRANCH   9  10
ATOM     10  C   UNL     1      16.875  -6.758  10.490  1.00  0.00    -0.000 C 
BRANCH  10  11
ATOM     11  C   UNL     1      17.746  -5.853   9.605  1.00  0.00    -0.000 C 
BRANCH  11  12
ATOM     12  C   UNL     1      18.119  -6.515   8.271  1.00  0.00    -0.003 C 
ATOM     13  C   UNL     1      16.901  -6.641   7.360  1.00  0.00     0.004 C 
ENDBRANCH  11  12
ENDBRANCH  10  11
ENDBRANCH   9  10
ENDBRANCH   8   9
ENDBRANCH   1   8
TORSDOF 9
ENDMDL
MODEL 9
REMARK VINA RESULT:    -2.787     20.912     22.949
REMARK INTER + INTRA:          -4.659
REMARK INTER:                  -4.325
REMARK INTRA:                  -0.334
REMARK UNBOUND:                -0.406
REMARK SMILES CCCCCCCCCCC(=O)[O-]
REMARK SMILES IDX 7 1 8 2 9 3 10 4 11 5 12 6 13 7 6 8 5 9 4 10 3 11 2 12 1 13
REMARK H PARENT
REMARK Flexibility Score: inf
ROOT
ATOM      1  C   UNL     1      35.711  -2.834  -3.944  1.00  0.00     0.000 C 
ENDROOT
BRANCH   1   2
ATOM      2  C   UNL     1      36.885  -3.200  -3.021  1.00  0.00     0.000 C 
BRANCH   2   3
ATOM      3  C   UNL     1      36.906  -4.690  -2.634  1.00  0.00     0.006 C 
BRANCH   3   4
ATOM      4  C   UNL     1      36.353  -5.625  -3.723  1.00  0.00     0.053 C 
BRANCH   4   5
ATOM      5  C   UNL     1      36.091  -7.009  -3.214  1.00  0.00     0.041 C 
ATOM      6  O   UNL     1      35.969  -7.968  -4.022  1.00  0.00    -0.550 OA
ATOM      7  O   UNL     1      36.017  -7.249  -1.848  1.00  0.00    -0.550 OA
ENDBRANCH   4   5
ENDBRANCH   3   4
ENDBRANCH   2   3
ENDBRANCH   1   2
BRANCH   1   8
ATOM      8  C   UNL     1      35.356  -1.340  -3.885  1.00  0.00     0.000 C 
BRANCH   8   9
ATOM      9  C   UNL     1      33.860  -1.079  -4.122  1.00  0.00    -0.000 C 
BRANCH   9  10
ATOM     10  C   UNL     1      33.169  -0.635  -2.824  1.00  0.00    -0.000 C 
BRANCH  10  11
ATOM     11  C   UNL     1      31.696  -1.068  -2.759  1.00  0.00    -0.000 C 
BRANCH  11  12
ATOM     12  C   UNL     1      30.758  -0.079  -3.467  1.00  0.00    -0.003 C 
ATOM     13  C   UNL     1      31.282   1.350  -3.357  1.00  0.00     0.004 C 
ENDBRANCH  11  12
ENDBRANCH  10  11
ENDBRANCH   9  10
ENDBRANCH   8   9
ENDBRANCH   1   8
TORSDOF 9
ENDMDL
