MODEL 1
REMARK VINA RESULT:    -3.233      0.000      0.000
REMARK INTER + INTRA:          -8.055
REMARK INTER:                  -5.690
REMARK INTRA:                  -2.365
REMARK UNBOUND:                -2.365
REMARK SMILES CCCCCCC=CCCCCCCCC(=O)[O-]
REMARK SMILES IDX 10 1 11 2 12 3 13 4 14 5 15 6 16 7 17 8 18 9 9 10 8 11 7 12
REMARK SMILES IDX 6 13 5 14 4 15 3 16 2 17 1 18
REMARK H PARENT
REMARK Flexibility Score: inf
ROOT
ATOM      1  C   UNL     1      58.177  29.390  52.882  1.00  0.00     0.004 C 
ENDROOT
BRANCH   1   2
ATOM      2  C   UNL     1      56.813  29.924  53.369  1.00  0.00     0.000 C 
BRANCH   2   3
ATOM      3  C   UNL     1      55.595  29.090  52.937  1.00  0.00     0.000 C 
BRANCH   3   4
ATOM      4  C   UNL     1      54.834  29.708  51.755  1.00  0.00     0.000 C 
BRANCH   4   5
ATOM      5  C   UNL     1      54.858  28.773  50.537  1.00  0.00     0.006 C 
BRANCH   5   6
ATOM      6  C   UNL     1      53.527  28.036  50.343  1.00  0.00     0.053 C 
BRANCH   6   7
ATOM      7  C   UNL     1      53.682  26.555  50.505  1.00  0.00     0.041 C 
ATOM      8  O   UNL     1      53.423  26.008  51.610  1.00  0.00    -0.550 OA
ATOM      9  O   UNL     1      54.083  25.774  49.428  1.00  0.00    -0.550 OA
ENDBRANCH   6   7
ENDBRANCH   5   6
ENDBRANCH   4   5
ENDBRANCH   3   4
ENDBRANCH   2   3
ENDBRANCH   1   2
BRANCH   1  10
ATOM     10  C   UNL     1      58.796  30.190  51.726  1.00  0.00     0.027 C 
BRANCH  10  11
ATOM     11  C   UNL     1      58.393  29.636  50.380  1.00  0.00    -0.031 C 
ATOM     12  C   UNL     1      59.184  28.879  49.595  1.00  0.00    -0.031 C 
BRANCH  12  13
ATOM     13  C   UNL     1      60.611  28.500  49.911  1.00  0.00     0.027 C 
BRANCH  13  14
ATOM     14  C   UNL     1      60.738  27.074  50.468  1.00  0.00     0.004 C 
BRANCH  14  15
ATOM     15  C   UNL     1      59.603  26.158  49.979  1.00  0.00     0.000 C 
BRANCH  15  16
ATOM     16  C   UNL     1      58.819  25.520  51.136  1.00  0.00    -0.000 C 
BRANCH  16  17
ATOM     17  C   UNL     1      57.401  26.094  51.276  1.00  0.00    -0.003 C 
ATOM     18  C   UNL     1      56.783  25.713  52.618  1.00  0.00     0.004 C 
ENDBRANCH  16  17
ENDBRANCH  15  16
ENDBRANCH  14  15
ENDBRANCH  13  14
ENDBRANCH  12  13
ENDBRANCH  10  11
ENDBRANCH   1  10
TORSDOF 13
ENDMDL
MODEL 2
REMARK VINA RESULT:    -3.099      4.003      6.837
REMARK INTER + INTRA:          -7.819
REMARK INTER:                  -6.541
REMARK INTRA:                  -1.278
REMARK UNBOUND:                -2.365
REMARK SMILES CCCCCCC=CCCCCCCCC(=O)[O-]
REMARK SMILES IDX 10 1 11 2 12 3 13 4 14 5 15 6 16 7 17 8 18 9 9 10 8 11 7 12
REMARK SMILES IDX 6 13 5 14 4 15 3 16 2 17 1 18
REMARK H PARENT
REMARK Flexibility Score: inf
ROOT
ATOM      1  C   UNL     1      60.341  25.929  50.237  1.00  0.00     0.004 C 
ENDROOT
BRANCH   1   2
ATOM      2  C   UNL     1      61.445  26.605  51.078  1.00  0.00     0.000 C 
BRANCH   2   3
ATOM      3  C   UNL     1      62.695  27.033  50.290  1.00  0.00     0.000 C 
BRANCH   3   4
ATOM      4  C   UNL     1      62.568  28.438  49.682  1.00  0.00     0.000 C 
BRANCH   4   5
ATOM      5  C   UNL     1      62.650  29.517  50.772  1.00  0.00     0.006 C 
BRANCH   5   6
ATOM      6  C   UNL     1      61.720  30.703  50.488  1.00  0.00     0.053 C 
BRANCH   6   7
ATOM      7  C   UNL     1      62.468  31.875  49.932  1.00  0.00     0.041 C 
ATOM      8  O   UNL     1      62.092  33.049  50.195  1.00  0.00    -0.550 OA
ATOM      9  O   UNL     1      63.599  31.674  49.151  1.00  0.00    -0.550 OA
ENDBRANCH   6   7
ENDBRANCH   5   6
ENDBRANCH   4   5
ENDBRANCH   3   4
ENDBRANCH   2   3
ENDBRANCH   1   2
BRANCH   1  10
ATOM     10  C   UNL     1      58.982  26.644  50.283  1.00  0.00     0.027 C 
BRANCH  10  11
ATOM     11  C   UNL     1      59.048  28.018  49.660  1.00  0.00    -0.031 C 
ATOM     12  C   UNL     1      58.368  29.093  50.103  1.00  0.00    -0.031 C 
BRANCH  12  13
ATOM     13  C   UNL     1      57.399  29.090  51.261  1.00  0.00     0.027 C 
BRANCH  13  14
ATOM     14  C   UNL     1      55.950  29.357  50.823  1.00  0.00     0.004 C 
BRANCH  14  15
ATOM     15  C   UNL     1      55.102  28.073  50.814  1.00  0.00     0.000 C 
BRANCH  15  16
ATOM     16  C   UNL     1      53.703  28.295  50.219  1.00  0.00    -0.000 C 
BRANCH  16  17
ATOM     17  C   UNL     1      52.955  26.977  49.962  1.00  0.00    -0.003 C 
ATOM     18  C   UNL     1      53.921  25.865  49.566  1.00  0.00     0.004 C 
ENDBRANCH  16  17
ENDBRANCH  15  16
ENDBRANCH  14  15
ENDBRANCH  13  14
ENDBRANCH  12  13
ENDBRANCH  10  11
ENDBRANCH   1  10
TORSDOF 13
ENDMDL
MODEL 3
REMARK VINA RESULT:    -3.094      1.655      3.264
REMARK INTER + INTRA:          -7.811
REMARK INTER:                  -5.157
REMARK INTRA:                  -2.655
REMARK UNBOUND:                -2.365
REMARK SMILES CCCCCCC=CCCCCCCCC(=O)[O-]
REMARK SMILES IDX 10 1 11 2 12 3 13 4 14 5 15 6 16 7 17 8 18 9 9 10 8 11 7 12
REMARK SMILES IDX 6 13 5 14 4 15 3 16 2 17 1 18
REMARK H PARENT
REMARK Flexibility Score: inf
ROOT
ATOM      1  C   UNL     1      58.213  26.876  53.671  1.00  0.00     0.004 C 
ENDROOT
BRANCH   1   2
ATOM      2  C   UNL     1      57.839  26.032  52.434  1.00  0.00     0.000 C 
BRANCH   2   3
ATOM      3  C   UNL     1      56.362  26.112  52.012  1.00  0.00     0.000 C 
BRANCH   3   4
ATOM      4  C   UNL     1      56.174  26.675  50.595  1.00  0.00     0.000 C 
BRANCH   4   5
ATOM      5  C   UNL     1      54.828  27.404  50.469  1.00  0.00     0.006 C 
BRANCH   5   6
ATOM      6  C   UNL     1      54.971  28.922  50.639  1.00  0.00     0.053 C 
BRANCH   6   7
ATOM      7  C   UNL     1      54.432  29.387  51.957  1.00  0.00     0.041 C 
ATOM      8  O   UNL     1      54.530  30.598  52.290  1.00  0.00    -0.550 OA
ATOM      9  O   UNL     1      53.793  28.491  52.804  1.00  0.00    -0.550 OA
ENDBRANCH   6   7
ENDBRANCH   5   6
ENDBRANCH   4   5
ENDBRANCH   3   4
ENDBRANCH   2   3
ENDBRANCH   1   2
BRANCH   1  10
ATOM     10  C   UNL     1      58.991  28.161  53.350  1.00  0.00     0.027 C 
BRANCH  10  11
ATOM     11  C   UNL     1      58.067  29.324  53.077  1.00  0.00    -0.031 C 
ATOM     12  C   UNL     1      58.140  30.122  51.995  1.00  0.00    -0.031 C 
BRANCH  12  13
ATOM     13  C   UNL     1      59.180  30.015  50.906  1.00  0.00     0.027 C 
BRANCH  13  14
ATOM     14  C   UNL     1      58.707  29.169  49.713  1.00  0.00     0.004 C 
BRANCH  14  15
ATOM     15  C   UNL     1      59.524  27.875  49.560  1.00  0.00     0.000 C 
BRANCH  15  16
ATOM     16  C   UNL     1      60.925  27.985  50.179  1.00  0.00    -0.000 C 
BRANCH  16  17
ATOM     17  C   UNL     1      61.487  26.623  50.614  1.00  0.00    -0.003 C 
ATOM     18  C   UNL     1      60.483  25.505  50.352  1.00  0.00     0.004 C 
ENDBRANCH  16  17
ENDBRANCH  15  16
ENDBRANCH  14  15
ENDBRANCH  13  14
ENDBRANCH  12  13
ENDBRANCH  10  11
ENDBRANCH   1  10
TORSDOF 13
ENDMDL
MODEL 4
REMARK VINA RESULT:    -3.063      1.683      3.840
REMARK INTER + INTRA:          -7.755
REMARK INTER:                  -5.292
REMARK INTRA:                  -2.463
REMARK UNBOUND:                -2.365
REMARK SMILES CCCCCCC=CCCCCCCCC(=O)[O-]
REMARK SMILES IDX 10 1 11 2 12 3 13 4 14 5 15 6 16 7 17 8 18 9 9 10 8 11 7 12
REMARK SMILES IDX 6 13 5 14 4 15 3 16 2 17 1 18
REMARK H PARENT
REMARK Flexibility Score: inf
ROOT
ATOM      1  C   UNL     1      60.156  26.252  52.486  1.00  0.00     0.004 C 
ENDROOT
BRANCH   1   2
ATOM      2  C   UNL     1      58.682  26.244  52.944  1.00  0.00     0.000 C 
BRANCH   2   3
ATOM      3  C   UNL     1      57.670  25.792  51.877  1.00  0.00     0.000 C 
BRANCH   3   4
ATOM      4  C   UNL     1      56.348  26.571  51.937  1.00  0.00     0.000 C 
BRANCH   4   5
ATOM      5  C   UNL     1      55.984  27.142  50.558  1.00  0.00     0.006 C 
BRANCH   5   6
ATOM      6  C   UNL     1      55.332  28.527  50.655  1.00  0.00     0.053 C 
BRANCH   6   7
ATOM      7  C   UNL     1      53.856  28.465  50.407  1.00  0.00     0.041 C 
ATOM      8  O   UNL     1      53.290  27.353  50.230  1.00  0.00    -0.550 OA
ATOM      9  O   UNL     1      53.100  29.629  50.404  1.00  0.00    -0.550 OA
ENDBRANCH   6   7
ENDBRANCH   5   6
ENDBRANCH   4   5
ENDBRANCH   3   4
ENDBRANCH   2   3
ENDBRANCH   1   2
BRANCH   1  10
ATOM     10  C   UNL     1      60.353  26.021  50.980  1.00  0.00     0.027 C 
BRANCH  10  11
ATOM     11  C   UNL     1      61.233  27.080  50.359  1.00  0.00    -0.031 C 
ATOM     12  C   UNL     1      60.779  28.168  49.708  1.00  0.00    -0.031 C 
BRANCH  12  13
ATOM     13  C   UNL     1      59.324  28.482  49.453  1.00  0.00     0.027 C 
BRANCH  13  14
ATOM     14  C   UNL     1      58.875  29.795  50.114  1.00  0.00     0.004 C 
BRANCH  14  15
ATOM     15  C   UNL     1      58.600  29.622  51.617  1.00  0.00     0.000 C 
BRANCH  15  16
ATOM     16  C   UNL     1      59.321  30.673  52.474  1.00  0.00    -0.000 C 
BRANCH  16  17
ATOM     17  C   UNL     1      60.774  30.901  52.031  1.00  0.00    -0.003 C 
ATOM     18  C   UNL     1      61.743  30.088  52.885  1.00  0.00     0.004 C 
ENDBRANCH  16  17
ENDBRANCH  15  16
ENDBRANCH  14  15
ENDBRANCH  13  14
ENDBRANCH  12  13
ENDBRANCH  10  11
ENDBRANCH   1  10
TORSDOF 13
ENDMDL
MODEL 5
REMARK VINA RESULT:    -3.009      2.309      3.087
REMARK INTER + INTRA:          -7.661
REMARK INTER:                  -6.648
REMARK INTRA:                  -1.013
REMARK UNBOUND:                -2.365
REMARK SMILES CCCCCCC=CCCCCCCCC(=O)[O-]
REMARK SMILES IDX 10 1 11 2 12 3 13 4 14 5 15 6 16 7 17 8 18 9 9 10 8 11 7 12
REMARK SMILES IDX 6 13 5 14 4 15 3 16 2 17 1 18
REMARK H PARENT
REMARK Flexibility Score: inf
ROOT
ATOM      1  C   UNL     1      58.853  29.651  49.984  1.00  0.00     0.004 C 
ENDROOT
BRANCH   1   2
ATOM      2  C   UNL     1      57.416  29.204  50.323  1.00  0.00     0.000 C 
BRANCH   2   3
ATOM      3  C   UNL     1      56.944  29.548  51.746  1.00  0.00     0.000 C 
BRANCH   3   4
ATOM      4  C   UNL     1      55.441  29.312  51.953  1.00  0.00     0.000 C 
BRANCH   4   5
ATOM      5  C   UNL     1      54.753  28.961  50.625  1.00  0.00     0.006 C 
BRANCH   5   6
ATOM      6  C   UNL     1      53.845  27.731  50.747  1.00  0.00     0.053 C 
BRANCH   6   7
ATOM      7  C   UNL     1      54.456  26.523  50.106  1.00  0.00     0.041 C 
ATOM      8  O   UNL     1      55.652  26.211  50.354  1.00  0.00    -0.550 OA
ATOM      9  O   UNL     1      53.699  25.724  49.260  1.00  0.00    -0.550 OA
ENDBRANCH   6   7
ENDBRANCH   5   6
ENDBRANCH   4   5
ENDBRANCH   3   4
ENDBRANCH   2   3
ENDBRANCH   1   2
BRANCH   1  10
ATOM     10  C   UNL     1      59.808  28.501  49.630  1.00  0.00     0.027 C 
BRANCH  10  11
ATOM     11  C   UNL     1      59.162  27.151  49.832  1.00  0.00    -0.031 C 
ATOM     12  C   UNL     1      59.793  26.065  50.316  1.00  0.00    -0.031 C 
BRANCH  12  13
ATOM     13  C   UNL     1      61.255  26.006  50.691  1.00  0.00     0.027 C 
BRANCH  13  14
ATOM     14  C   UNL     1      61.802  24.570  50.725  1.00  0.00     0.004 C 
BRANCH  14  15
ATOM     15  C   UNL     1      60.722  23.530  50.378  1.00  0.00     0.000 C 
BRANCH  15  16
ATOM     16  C   UNL     1      61.318  22.203  49.884  1.00  0.00    -0.000 C 
BRANCH  16  17
ATOM     17  C   UNL     1      61.211  21.083  50.930  1.00  0.00    -0.003 C 
ATOM     18  C   UNL     1      59.755  20.797  51.283  1.00  0.00     0.004 C 
ENDBRANCH  16  17
ENDBRANCH  15  16
ENDBRANCH  14  15
ENDBRANCH  13  14
ENDBRANCH  12  13
ENDBRANCH  10  11
ENDBRANCH   1  10
TORSDOF 13
ENDMDL
MODEL 6
REMARK VINA RESULT:    -3.002      1.239      3.629
REMARK INTER + INTRA:          -7.649
REMARK INTER:                  -5.595
REMARK INTRA:                  -2.054
REMARK UNBOUND:                -2.365
REMARK SMILES CCCCCCC=CCCCCCCCC(=O)[O-]
REMARK SMILES IDX 10 1 11 2 12 3 13 4 14 5 15 6 16 7 17 8 18 9 9 10 8 11 7 12
REMARK SMILES IDX 6 13 5 14 4 15 3 16 2 17 1 18
REMARK H PARENT
REMARK Flexibility Score: inf
ROOT
ATOM      1  C   UNL     1      59.975  25.589  51.622  1.00  0.00     0.004 C 
ENDROOT
BRANCH   1   2
ATOM      2  C   UNL     1      58.460  25.616  51.330  1.00  0.00     0.000 C 
BRANCH   2   3
ATOM      3  C   UNL     1      57.592  26.223  52.445  1.00  0.00     0.000 C 
BRANCH   3   4
ATOM      4  C   UNL     1      56.122  26.394  52.034  1.00  0.00     0.000 C 
BRANCH   4   5
ATOM      5  C   UNL     1      55.974  26.378  50.506  1.00  0.00     0.006 C 
BRANCH   5   6
ATOM      6  C   UNL     1      54.512  26.506  50.061  1.00  0.00     0.053 C 
BRANCH   6   7
ATOM      7  C   UNL     1      53.862  27.729  50.633  1.00  0.00     0.041 C 
ATOM      8  O   UNL     1      54.188  28.872  50.216  1.00  0.00    -0.550 OA
ATOM      9  O   UNL     1      52.875  27.605  51.602  1.00  0.00    -0.550 OA
ENDBRANCH   6   7
ENDBRANCH   5   6
ENDBRANCH   4   5
ENDBRANCH   3   4
ENDBRANCH   2   3
ENDBRANCH   1   2
BRANCH   1  10
ATOM     10  C   UNL     1      60.860  25.922  50.411  1.00  0.00     0.027 C 
BRANCH  10  11
ATOM     11  C   UNL     1      61.439  27.314  50.503  1.00  0.00    -0.031 C 
ATOM     12  C   UNL     1      60.832  28.427  50.050  1.00  0.00    -0.031 C 
BRANCH  12  13
ATOM     13  C   UNL     1      59.501  28.461  49.338  1.00  0.00     0.027 C 
BRANCH  13  14
ATOM     14  C   UNL     1      58.687  29.724  49.661  1.00  0.00     0.004 C 
BRANCH  14  15
ATOM     15  C   UNL     1      57.692  29.493  50.811  1.00  0.00     0.000 C 
BRANCH  15  16
ATOM     16  C   UNL     1      58.279  29.863  52.182  1.00  0.00    -0.000 C 
BRANCH  16  17
ATOM     17  C   UNL     1      57.300  30.674  53.044  1.00  0.00    -0.003 C 
ATOM     18  C   UNL     1      55.903  30.061  53.013  1.00  0.00     0.004 C 
ENDBRANCH  16  17
ENDBRANCH  15  16
ENDBRANCH  14  15
ENDBRANCH  13  14
ENDBRANCH  12  13
ENDBRANCH  10  11
ENDBRANCH   1  10
TORSDOF 13
ENDMDL
MODEL 7
REMARK VINA RESULT:    -2.986      2.501      5.057
REMARK INTER + INTRA:          -7.620
REMARK INTER:                  -5.525
REMARK INTRA:                  -2.095
REMARK UNBOUND:                -2.365
REMARK SMILES CCCCCCC=CCCCCCCCC(=O)[O-]
REMARK SMILES IDX 10 1 11 2 12 3 13 4 14 5 15 6 16 7 17 8 18 9 9 10 8 11 7 12
REMARK SMILES IDX 6 13 5 14 4 15 3 16 2 17 1 18
REMARK H PARENT
REMARK Flexibility Score: inf
ROOT
ATOM      1  C   UNL     1      56.565  30.164  53.313  1.00  0.00     0.004 C 
ENDROOT
BRANCH   1   2
ATOM      2  C   UNL     1      57.843  30.553  52.539  1.00  0.00     0.000 C 
BRANCH   2   3
ATOM      3  C   UNL     1      58.453  29.432  51.680  1.00  0.00     0.000 C 
BRANCH   3   4
ATOM      4  C   UNL     1      58.407  29.738  50.176  1.00  0.00     0.000 C 
BRANCH   4   5
ATOM      5  C   UNL     1      59.127  28.646  49.372  1.00  0.00     0.006 C 
BRANCH   5   6
ATOM      6  C   UNL     1      60.534  28.358  49.912  1.00  0.00     0.053 C 
BRANCH   6   7
ATOM      7  C   UNL     1      60.686  26.928  50.332  1.00  0.00     0.041 C 
ATOM      8  O   UNL     1      59.813  26.078  50.012  1.00  0.00    -0.550 OA
ATOM      9  O   UNL     1      61.807  26.527  51.048  1.00  0.00    -0.550 OA
ENDBRANCH   6   7
ENDBRANCH   5   6
ENDBRANCH   4   5
ENDBRANCH   3   4
ENDBRANCH   2   3
ENDBRANCH   1   2
BRANCH   1  10
ATOM     10  C   UNL     1      55.274  30.783  52.757  1.00  0.00     0.027 C 
BRANCH  10  11
ATOM     11  C   UNL     1      54.074  29.902  53.011  1.00  0.00    -0.031 C 
ATOM     12  C   UNL     1      53.597  28.989  52.143  1.00  0.00    -0.031 C 
BRANCH  12  13
ATOM     13  C   UNL     1      54.153  28.731  50.763  1.00  0.00     0.027 C 
BRANCH  13  14
ATOM     14  C   UNL     1      53.641  27.416  50.153  1.00  0.00     0.004 C 
BRANCH  14  15
ATOM     15  C   UNL     1      54.758  26.368  50.014  1.00  0.00     0.000 C 
BRANCH  15  16
ATOM     16  C   UNL     1      56.109  26.871  50.547  1.00  0.00    -0.000 C 
BRANCH  16  17
ATOM     17  C   UNL     1      56.660  25.994  51.681  1.00  0.00    -0.003 C 
ATOM     18  C   UNL     1      56.323  26.585  53.047  1.00  0.00     0.004 C 
ENDBRANCH  16  17
ENDBRANCH  15  16
ENDBRANCH  14  15
ENDBRANCH  13  14
ENDBRANCH  12  13
ENDBRANCH  10  11
ENDBRANCH   1  10
TORSDOF 13
ENDMDL
MODEL 8
REMARK VINA RESULT:    -2.973      2.851      5.497
REMARK INTER + INTRA:          -7.597
REMARK INTER:                  -5.535
REMARK INTRA:                  -2.062
REMARK UNBOUND:                -2.365
REMARK SMILES CCCCCCC=CCCCCCCCC(=O)[O-]
REMARK SMILES IDX 10 1 11 2 12 3 13 4 14 5 15 6 16 7 17 8 18 9 9 10 8 11 7 12
REMARK SMILES IDX 6 13 5 14 4 15 3 16 2 17 1 18
REMARK H PARENT
REMARK Flexibility Score: inf
ROOT
ATOM      1  C   UNL     1      57.410  28.165  53.720  1.00  0.00     0.004 C 
ENDROOT
BRANCH   1   2
ATOM      2  C   UNL     1      58.113  29.254  52.881  1.00  0.00     0.000 C 
BRANCH   2   3
ATOM      3  C   UNL     1      57.259  29.863  51.756  1.00  0.00     0.000 C 
BRANCH   3   4
ATOM      4  C   UNL     1      57.520  29.216  50.388  1.00  0.00     0.000 C 
BRANCH   4   5
ATOM      5  C   UNL     1      59.025  29.145  50.092  1.00  0.00     0.006 C 
BRANCH   5   6
ATOM      6  C   UNL     1      59.467  27.743  49.657  1.00  0.00     0.053 C 
BRANCH   6   7
ATOM      7  C   UNL     1      60.892  27.468  50.031  1.00  0.00     0.041 C 
ATOM      8  O   UNL     1      61.183  26.445  50.705  1.00  0.00    -0.550 OA
ATOM      9  O   UNL     1      61.901  28.323  49.608  1.00  0.00    -0.550 OA
ENDBRANCH   6   7
ENDBRANCH   5   6
ENDBRANCH   4   5
ENDBRANCH   3   4
ENDBRANCH   2   3
ENDBRANCH   1   2
BRANCH   1  10
ATOM     10  C   UNL     1      55.917  27.988  53.405  1.00  0.00     0.027 C 
BRANCH  10  11
ATOM     11  C   UNL     1      55.525  26.531  53.340  1.00  0.00    -0.031 C 
ATOM     12  C   UNL     1      55.382  25.826  52.201  1.00  0.00    -0.031 C 
BRANCH  12  13
ATOM     13  C   UNL     1      55.544  26.387  50.809  1.00  0.00     0.027 C 
BRANCH  13  14
ATOM     14  C   UNL     1      54.314  26.138  49.921  1.00  0.00     0.004 C 
BRANCH  14  15
ATOM     15  C   UNL     1      53.266  27.256  50.058  1.00  0.00     0.000 C 
BRANCH  15  16
ATOM     16  C   UNL     1      53.900  28.630  50.321  1.00  0.00    -0.000 C 
BRANCH  16  17
ATOM     17  C   UNL     1      53.118  29.453  51.356  1.00  0.00    -0.003 C 
ATOM     18  C   UNL     1      53.707  30.853  51.503  1.00  0.00     0.004 C 
ENDBRANCH  16  17
ENDBRANCH  15  16
ENDBRANCH  14  15
ENDBRANCH  13  14
ENDBRANCH  12  13
ENDBRANCH  10  11
ENDBRANCH   1  10
TORSDOF 13
ENDMDL
MODEL 9
REMARK VINA RESULT:    -2.970     11.667     13.770
REMARK INTER + INTRA:          -7.592
REMARK INTER:                  -6.005
REMARK INTRA:                  -1.587
REMARK UNBOUND:                -2.365
REMARK SMILES CCCCCCC=CCCCCCCCC(=O)[O-]
REMARK SMILES IDX 10 1 11 2 12 3 13 4 14 5 15 6 16 7 17 8 18 9 9 10 8 11 7 12
REMARK SMILES IDX 6 13 5 14 4 15 3 16 2 17 1 18
REMARK H PARENT
REMARK Flexibility Score: inf
ROOT
ATOM      1  C   UNL     1      61.896  27.717  61.227  1.00  0.00     0.004 C 
ENDROOT
BRANCH   1   2
ATOM      2  C   UNL     1      63.302  27.186  60.879  1.00  0.00     0.000 C 
BRANCH   2   3
ATOM      3  C   UNL     1      63.622  27.122  59.376  1.00  0.00     0.000 C 
BRANCH   3   4
ATOM      4  C   UNL     1      65.059  27.554  59.050  1.00  0.00     0.000 C 
BRANCH   4   5
ATOM      5  C   UNL     1      65.953  27.471  60.296  1.00  0.00     0.006 C 
BRANCH   5   6
ATOM      6  C   UNL     1      66.845  28.709  60.456  1.00  0.00     0.053 C 
BRANCH   6   7
ATOM      7  C   UNL     1      67.623  28.672  61.734  1.00  0.00     0.041 C 
ATOM      8  O   UNL     1      67.134  28.125  62.758  1.00  0.00    -0.550 OA
ATOM      9  O   UNL     1      68.902  29.212  61.788  1.00  0.00    -0.550 OA
ENDBRANCH   6   7
ENDBRANCH   5   6
ENDBRANCH   4   5
ENDBRANCH   3   4
ENDBRANCH   2   3
ENDBRANCH   1   2
BRANCH   1  10
ATOM     10  C   UNL     1      61.784  29.250  61.247  1.00  0.00     0.027 C 
BRANCH  10  11
ATOM     11  C   UNL     1      63.091  29.904  61.624  1.00  0.00    -0.031 C 
ATOM     12  C   UNL     1      63.775  30.758  60.839  1.00  0.00    -0.031 C 
BRANCH  12  13
ATOM     13  C   UNL     1      63.372  31.163  59.441  1.00  0.00     0.027 C 
BRANCH  13  14
ATOM     14  C   UNL     1      62.568  32.472  59.411  1.00  0.00     0.004 C 
BRANCH  14  15
ATOM     15  C   UNL     1      63.470  33.709  59.557  1.00  0.00     0.000 C 
BRANCH  15  16
ATOM     16  C   UNL     1      63.364  34.357  60.946  1.00  0.00    -0.000 C 
BRANCH  16  17
ATOM     17  C   UNL     1      62.282  35.445  61.009  1.00  0.00    -0.003 C 
ATOM     18  C   UNL     1      62.766  36.655  61.803  1.00  0.00     0.004 C 
ENDBRANCH  16  17
ENDBRANCH  15  16
ENDBRANCH  14  15
ENDBRANCH  13  14
ENDBRANCH  12  13
ENDBRANCH  10  11
ENDBRANCH   1  10
TORSDOF 13
ENDMDL
