MODEL 1
REMARK VINA RESULT:    -4.493      0.000      0.000
REMARK INTER + INTRA:          -4.493
REMARK INTER:                  -4.493
REMARK INTRA:                   0.000
REMARK UNBOUND:                 0.000
REMARK SMILES CC1=CC[C@H]2[C@@H](C1)C2(C)C
REMARK SMILES IDX 1 1 2 2 3 3 4 4 5 5 6 6 7 7 8 8 9 9 10 10
REMARK H PARENT
REMARK Flexibility Score: inf
ROOT
ATOM      1  C   UNL     1     -15.035   3.500 -12.237  1.00  0.00     0.039 C 
ATOM      2  C   UNL     1     -14.360   2.168 -12.044  1.00  0.00    -0.077 C 
ATOM      3  C   UNL     1     -15.095   1.044 -12.075  1.00  0.00    -0.028 C 
ATOM      4  C   UNL     1     -14.472  -0.309 -11.883  1.00  0.00     0.031 C 
ATOM      5  C   UNL     1     -13.086  -0.406 -12.555  1.00  0.00     0.003 C 
ATOM      6  C   UNL     1     -12.230   0.881 -12.519  1.00  0.00     0.003 C 
ATOM      7  C   UNL     1     -12.867   2.099 -11.815  1.00  0.00     0.034 C 
ATOM      8  C   UNL     1     -11.803  -0.353 -11.708  1.00  0.00    -0.029 C 
ATOM      9  C   UNL     1     -11.887  -0.341 -10.170  1.00  0.00     0.012 C 
ATOM     10  C   UNL     1     -10.617  -1.125 -12.299  1.00  0.00     0.012 C 
ENDROOT
TORSDOF 0
ENDMDL
MODEL 2
REMARK VINA RESULT:    -4.188      1.195      3.752
REMARK INTER + INTRA:          -4.188
REMARK INTER:                  -4.188
REMARK INTRA:                   0.000
REMARK UNBOUND:                 0.000
REMARK SMILES CC1=CC[C@H]2[C@@H](C1)C2(C)C
REMARK SMILES IDX 1 1 2 2 3 3 4 4 5 5 6 6 7 7 8 8 9 9 10 10
REMARK H PARENT
REMARK Flexibility Score: inf
ROOT
ATOM      1  C   UNL     1     -11.780  -1.125 -10.158  1.00  0.00     0.039 C 
ATOM      2  C   UNL     1     -12.634  -0.264 -11.051  1.00  0.00    -0.077 C 
ATOM      3  C   UNL     1     -13.919  -0.599 -11.259  1.00  0.00    -0.028 C 
ATOM      4  C   UNL     1     -14.812   0.223 -12.144  1.00  0.00     0.031 C 
ATOM      5  C   UNL     1     -14.538   1.734 -11.996  1.00  0.00     0.003 C 
ATOM      6  C   UNL     1     -13.061   2.129 -11.762  1.00  0.00     0.003 C 
ATOM      7  C   UNL     1     -12.049   0.964 -11.708  1.00  0.00     0.034 C 
ATOM      8  C   UNL     1     -13.759   2.495 -13.082  1.00  0.00    -0.029 C 
ATOM      9  C   UNL     1     -13.363   1.789 -14.394  1.00  0.00     0.012 C 
ATOM     10  C   UNL     1     -14.134   3.975 -13.217  1.00  0.00     0.012 C 
ENDROOT
TORSDOF 0
ENDMDL
MODEL 3
REMARK VINA RESULT:    -4.124      8.720      9.391
REMARK INTER + INTRA:          -4.124
REMARK INTER:                  -4.124
REMARK INTRA:                   0.000
REMARK UNBOUND:                 0.000
REMARK SMILES CC1=CC[C@H]2[C@@H](C1)C2(C)C
REMARK SMILES IDX 1 1 2 2 3 3 4 4 5 5 6 6 7 7 8 8 9 9 10 10
REMARK H PARENT
REMARK Flexibility Score: inf
ROOT
ATOM      1  C   UNL     1      -4.736   2.463  -8.376  1.00  0.00     0.039 C 
ATOM      2  C   UNL     1      -4.415   1.315  -9.297  1.00  0.00    -0.077 C 
ATOM      3  C   UNL     1      -4.415   0.061  -8.814  1.00  0.00    -0.028 C 
ATOM      4  C   UNL     1      -4.096  -1.118  -9.688  1.00  0.00     0.031 C 
ATOM      5  C   UNL     1      -4.678  -0.956 -11.108  1.00  0.00     0.003 C 
ATOM      6  C   UNL     1      -4.677   0.483 -11.675  1.00  0.00     0.003 C 
ATOM      7  C   UNL     1      -4.094   1.574 -10.751  1.00  0.00     0.034 C 
ATOM      8  C   UNL     1      -3.762  -0.589 -12.289  1.00  0.00    -0.029 C 
ATOM      9  C   UNL     1      -2.235  -0.514 -12.094  1.00  0.00     0.012 C 
ATOM     10  C   UNL     1      -4.229  -1.124 -13.647  1.00  0.00     0.012 C 
ENDROOT
TORSDOF 0
ENDMDL
MODEL 4
REMARK VINA RESULT:    -4.031     17.687     18.831
REMARK INTER + INTRA:          -4.031
REMARK INTER:                  -4.031
REMARK INTRA:                   0.000
REMARK UNBOUND:                 0.000
REMARK SMILES CC1=CC[C@H]2[C@@H](C1)C2(C)C
REMARK SMILES IDX 1 1 2 2 3 3 4 4 5 5 6 6 7 7 8 8 9 9 10 10
REMARK H PARENT
REMARK Flexibility Score: inf
ROOT
ATOM      1  C   UNL     1      -1.406  10.843 -22.456  1.00  0.00     0.039 C 
ATOM      2  C   UNL     1      -2.471  10.819 -23.520  1.00  0.00    -0.077 C 
ATOM      3  C   UNL     1      -2.386  11.666 -24.559  1.00  0.00    -0.028 C 
ATOM      4  C   UNL     1      -3.424  11.687 -25.644  1.00  0.00     0.031 C 
ATOM      5  C   UNL     1      -3.929  10.268 -25.986  1.00  0.00     0.003 C 
ATOM      6  C   UNL     1      -4.035   9.288 -24.795  1.00  0.00     0.003 C 
ATOM      7  C   UNL     1      -3.627   9.851 -23.416  1.00  0.00     0.034 C 
ATOM      8  C   UNL     1      -5.307   9.792 -25.497  1.00  0.00    -0.029 C 
ATOM      9  C   UNL     1      -6.258  10.769 -24.778  1.00  0.00     0.012 C 
ATOM     10  C   UNL     1      -5.985   8.761 -26.406  1.00  0.00     0.012 C 
ENDROOT
TORSDOF 0
ENDMDL
MODEL 5
REMARK VINA RESULT:    -4.015      9.556     10.493
REMARK INTER + INTRA:          -4.015
REMARK INTER:                  -4.015
REMARK INTRA:                   0.000
REMARK UNBOUND:                 0.000
REMARK SMILES CC1=CC[C@H]2[C@@H](C1)C2(C)C
REMARK SMILES IDX 1 1 2 2 3 3 4 4 5 5 6 6 7 7 8 8 9 9 10 10
REMARK H PARENT
REMARK Flexibility Score: inf
ROOT
ATOM      1  C   UNL     1     -16.374   5.604 -22.134  1.00  0.00     0.039 C 
ATOM      2  C   UNL     1     -16.104   4.166 -21.777  1.00  0.00    -0.077 C 
ATOM      3  C   UNL     1     -15.350   3.883 -20.702  1.00  0.00    -0.028 C 
ATOM      4  C   UNL     1     -15.046   2.467 -20.306  1.00  0.00     0.031 C 
ATOM      5  C   UNL     1     -16.254   1.533 -20.531  1.00  0.00     0.003 C 
ATOM      6  C   UNL     1     -17.125   1.848 -21.769  1.00  0.00     0.003 C 
ATOM      7  C   UNL     1     -16.676   3.053 -22.624  1.00  0.00     0.034 C 
ATOM      8  C   UNL     1     -16.280   0.565 -21.726  1.00  0.00    -0.029 C 
ATOM      9  C   UNL     1     -15.042   0.416 -22.633  1.00  0.00     0.012 C 
ATOM     10  C   UNL     1     -17.082  -0.720 -21.488  1.00  0.00     0.012 C 
ENDROOT
TORSDOF 0
ENDMDL
MODEL 6
REMARK VINA RESULT:    -3.996      7.937     10.268
REMARK INTER + INTRA:          -3.996
REMARK INTER:                  -3.996
REMARK INTRA:                   0.000
REMARK UNBOUND:                 0.000
REMARK SMILES CC1=CC[C@H]2[C@@H](C1)C2(C)C
REMARK SMILES IDX 1 1 2 2 3 3 4 4 5 5 6 6 7 7 8 8 9 9 10 10
REMARK H PARENT
REMARK Flexibility Score: inf
ROOT
ATOM      1  C   UNL     1     -12.996  10.976 -19.859  1.00  0.00     0.039 C 
ATOM      2  C   UNL     1     -13.400  10.408 -18.524  1.00  0.00    -0.077 C 
ATOM      3  C   UNL     1     -14.479  10.904 -17.894  1.00  0.00    -0.028 C 
ATOM      4  C   UNL     1     -14.921  10.377 -16.559  1.00  0.00     0.031 C 
ATOM      5  C   UNL     1     -14.736   8.848 -16.453  1.00  0.00     0.003 C 
ATOM      6  C   UNL     1     -13.494   8.270 -17.170  1.00  0.00     0.003 C 
ATOM      7  C   UNL     1     -12.595   9.293 -17.899  1.00  0.00     0.034 C 
ATOM      8  C   UNL     1     -13.576   8.258 -15.635  1.00  0.00    -0.029 C 
ATOM      9  C   UNL     1     -12.665   9.179 -14.800  1.00  0.00     0.012 C 
ATOM     10  C   UNL     1     -13.863   6.882 -15.022  1.00  0.00     0.012 C 
ENDROOT
TORSDOF 0
ENDMDL
MODEL 7
REMARK VINA RESULT:    -3.969     16.733     17.917
REMARK INTER + INTRA:          -3.969
REMARK INTER:                  -3.969
REMARK INTRA:                   0.000
REMARK UNBOUND:                 0.000
REMARK SMILES CC1=CC[C@H]2[C@@H](C1)C2(C)C
REMARK SMILES IDX 1 1 2 2 3 3 4 4 5 5 6 6 7 7 8 8 9 9 10 10
REMARK H PARENT
REMARK Flexibility Score: inf
ROOT
ATOM      1  C   UNL     1      -0.375   9.499 -16.145  1.00  0.00     0.039 C 
ATOM      2  C   UNL     1       0.060   9.546 -17.586  1.00  0.00    -0.077 C 
ATOM      3  C   UNL     1       1.238  10.110 -17.902  1.00  0.00    -0.028 C 
ATOM      4  C   UNL     1       1.716  10.188 -19.324  1.00  0.00     0.031 C 
ATOM      5  C   UNL     1       1.354   8.919 -20.123  1.00  0.00     0.003 C 
ATOM      6  C   UNL     1      -0.002   8.265 -19.770  1.00  0.00     0.003 C 
ATOM      7  C   UNL     1      -0.823   8.965 -18.665  1.00  0.00     0.034 C 
ATOM      8  C   UNL     1       0.198   8.939 -21.137  1.00  0.00    -0.029 C 
ATOM      9  C   UNL     1      -0.524  10.260 -21.468  1.00  0.00     0.012 C 
ATOM     10  C   UNL     1       0.362   7.965 -22.310  1.00  0.00     0.012 C 
ENDROOT
TORSDOF 0
ENDMDL
MODEL 8
REMARK VINA RESULT:    -3.957     13.211     15.043
REMARK INTER + INTRA:          -3.957
REMARK INTER:                  -3.957
REMARK INTRA:                   0.000
REMARK UNBOUND:                 0.000
REMARK SMILES CC1=CC[C@H]2[C@@H](C1)C2(C)C
REMARK SMILES IDX 1 1 2 2 3 3 4 4 5 5 6 6 7 7 8 8 9 9 10 10
REMARK H PARENT
REMARK Flexibility Score: inf
ROOT
ATOM      1  C   UNL     1     -13.977  17.686 -12.318  1.00  0.00     0.039 C 
ATOM      2  C   UNL     1     -14.158  16.531 -13.268  1.00  0.00    -0.077 C 
ATOM      3  C   UNL     1     -15.231  15.732 -13.140  1.00  0.00    -0.028 C 
ATOM      4  C   UNL     1     -15.455  14.564 -14.057  1.00  0.00     0.031 C 
ATOM      5  C   UNL     1     -15.035  14.882 -15.508  1.00  0.00     0.003 C 
ATOM      6  C   UNL     1     -13.798  15.796 -15.664  1.00  0.00     0.003 C 
ATOM      7  C   UNL     1     -13.138  16.273 -14.352  1.00  0.00     0.034 C 
ATOM      8  C   UNL     1     -13.724  14.318 -16.081  1.00  0.00    -0.029 C 
ATOM      9  C   UNL     1     -12.883  13.319 -15.262  1.00  0.00     0.012 C 
ATOM     10  C   UNL     1     -13.740  14.080 -17.596  1.00  0.00     0.012 C 
ENDROOT
TORSDOF 0
ENDMDL
MODEL 9
REMARK VINA RESULT:    -3.945      7.568      8.290
REMARK INTER + INTRA:          -3.945
REMARK INTER:                  -3.945
REMARK INTRA:                   0.000
REMARK UNBOUND:                 0.000
REMARK SMILES CC1=CC[C@H]2[C@@H](C1)C2(C)C
REMARK SMILES IDX 1 1 2 2 3 3 4 4 5 5 6 6 7 7 8 8 9 9 10 10
REMARK H PARENT
REMARK Flexibility Score: inf
ROOT
ATOM      1  C   UNL     1     -11.561   9.136 -13.536  1.00  0.00     0.039 C 
ATOM      2  C   UNL     1     -10.546   8.672 -12.525  1.00  0.00    -0.077 C 
ATOM      3  C   UNL     1     -10.704   9.002 -11.232  1.00  0.00    -0.028 C 
ATOM      4  C   UNL     1      -9.719   8.569 -10.184  1.00  0.00     0.031 C 
ATOM      5  C   UNL     1      -9.191   7.142 -10.444  1.00  0.00     0.003 C 
ATOM      6  C   UNL     1      -9.001   6.756 -11.929  1.00  0.00     0.003 C 
ATOM      7  C   UNL     1      -9.360   7.845 -12.964  1.00  0.00     0.034 C 
ATOM      8  C   UNL     1      -7.778   6.925 -11.012  1.00  0.00    -0.029 C 
ATOM      9  C   UNL     1      -6.823   8.120 -11.199  1.00  0.00     0.012 C 
ATOM     10  C   UNL     1      -7.115   5.611 -10.585  1.00  0.00     0.012 C 
ENDROOT
TORSDOF 0
ENDMDL
