MODEL 1
REMARK VINA RESULT:    -4.657      0.000      0.000
REMARK INTER + INTRA:          -6.914
REMARK INTER:                  -7.107
REMARK INTRA:                   0.194
REMARK UNBOUND:                 0.194
REMARK SMILES CC1=CCC[C@H](C)C(=O)C[C@@H](C(C)C)C(=O)C1
REMARK SMILES IDX 8 1 9 2 6 3 7 4 5 5 4 6 3 7 2 8 1 9 10 11 11 12 15 13 16 14
REMARK SMILES IDX 17 15 12 17 13 18 14 19
REMARK H PARENT
REMARK Flexibility Score: 70.00
ROOT
ATOM      1  C   UNL     1       7.937  -1.854  47.636  1.00  0.00     0.136 C 
ATOM      2  O   UNL     1       8.362  -2.202  46.546  1.00  0.00    -0.299 OA
ENDROOT
BRANCH   1   3
ATOM      3  C   UNL     1       6.774  -0.846  47.697  1.00  0.00     0.053 C 
ATOM      4  C   UNL     1       6.997   0.329  46.740  1.00  0.00     0.016 C 
BRANCH   3   5
ATOM      5  C   UNL     1       5.543  -1.664  47.356  1.00  0.00     0.015 C 
BRANCH   5   6
ATOM      6  C   UNL     1       5.333  -2.674  46.266  1.00  0.00     0.028 C 
BRANCH   6   7
ATOM      7  C   UNL     1       4.834  -3.974  46.918  1.00  0.00    -0.028 C 
ATOM      8  C   UNL     1       5.540  -4.986  47.549  1.00  0.00    -0.070 CG0
ATOM      9  C   UNL     1       4.698  -6.076  48.173  1.00  0.00     0.039 C 
ATOM     10  G   UNL     1       7.084  -5.149  47.676  1.00  0.00     0.000 G0
ENDBRANCH   6   7
ENDBRANCH   5   6
ENDBRANCH   3   5
ENDBRANCH   1   3
BRANCH   1  11
ATOM     11  C   UNL     1       8.585  -2.426  48.909  1.00  0.00     0.087 C 
BRANCH  11  12
ATOM     12  C   UNL     1       7.752  -3.487  49.734  1.00  0.00     0.066 C 
BRANCH  12  13
ATOM     13  C   UNL     1       7.647  -4.896  49.092  1.00  0.00     0.140 C 
ATOM     14  O   UNL     1       8.054  -5.867  49.716  1.00  0.00    -0.299 OA
BRANCH  13  15
ATOM     15  C   UNL     1       7.082  -5.132  47.685  1.00  0.00     0.106 CG0
ATOM     16  G   UNL     1       5.537  -4.971  47.562  1.00  0.00     0.000 G0
ENDBRANCH  13  15
ENDBRANCH  12  13
BRANCH  12  17
ATOM     17  C   UNL     1       6.346  -2.951  50.187  1.00  0.00    -0.006 C 
ATOM     18  C   UNL     1       5.526  -4.062  50.876  1.00  0.00     0.008 C 
ATOM     19  C   UNL     1       6.431  -1.753  51.151  1.00  0.00     0.008 C 
ENDBRANCH  12  17
ENDBRANCH  11  12
ENDBRANCH   1  11
TORSDOF 1
ENDMDL
MODEL 2
REMARK VINA RESULT:    -4.357      1.670      4.166
REMARK INTER + INTRA:          -6.456
REMARK INTER:                  -6.695
REMARK INTRA:                   0.239
REMARK UNBOUND:                 0.194
REMARK SMILES CC1=CCC[C@H](C)C(=O)C[C@@H](C(C)C)C(=O)C1
REMARK SMILES IDX 8 1 9 2 6 3 7 4 5 5 4 6 3 7 2 8 1 9 10 11 11 12 15 13 16 14
REMARK SMILES IDX 17 15 12 17 13 18 14 19
REMARK H PARENT
REMARK Flexibility Score: 70.00
ROOT
ATOM      1  C   UNL     1       6.200  -3.819  50.169  1.00  0.00     0.136 C 
ATOM      2  O   UNL     1       5.048  -4.085  50.474  1.00  0.00    -0.299 OA
ENDROOT
BRANCH   1   3
ATOM      3  C   UNL     1       7.147  -4.962  49.760  1.00  0.00     0.053 C 
ATOM      4  C   UNL     1       7.093  -6.123  50.759  1.00  0.00     0.016 C 
BRANCH   3   5
ATOM      5  C   UNL     1       6.690  -5.357  48.368  1.00  0.00     0.015 C 
BRANCH   5   6
ATOM      6  C   UNL     1       5.301  -5.494  47.816  1.00  0.00     0.028 C 
BRANCH   6   7
ATOM      7  C   UNL     1       5.208  -4.623  46.552  1.00  0.00    -0.028 C 
ATOM      8  C   UNL     1       5.068  -3.250  46.420  1.00  0.00    -0.070 CG0
ATOM      9  C   UNL     1       5.118  -2.724  45.003  1.00  0.00     0.039 C 
ATOM     10  G   UNL     1       4.845  -2.192  47.542  1.00  0.00     0.000 G0
ENDBRANCH   6   7
ENDBRANCH   5   6
ENDBRANCH   3   5
ENDBRANCH   1   3
BRANCH   1  11
ATOM     11  C   UNL     1       6.666  -2.354  50.213  1.00  0.00     0.087 C 
BRANCH  11  12
ATOM     12  C   UNL     1       7.170  -1.710  48.861  1.00  0.00     0.066 C 
BRANCH  12  13
ATOM     13  C   UNL     1       6.054  -1.305  47.861  1.00  0.00     0.140 C 
ATOM     14  O   UNL     1       6.117  -0.216  47.305  1.00  0.00    -0.299 OA
BRANCH  13  15
ATOM     15  C   UNL     1       4.844  -2.197  47.554  1.00  0.00     0.106 CG0
ATOM     16  G   UNL     1       5.065  -3.236  46.414  1.00  0.00     0.000 G0
ENDBRANCH  13  15
ENDBRANCH  12  13
BRANCH  12  17
ATOM     17  C   UNL     1       8.298  -2.548  48.159  1.00  0.00    -0.006 C 
ATOM     18  C   UNL     1       8.459  -2.134  46.681  1.00  0.00     0.008 C 
ATOM     19  C   UNL     1       9.671  -2.416  48.844  1.00  0.00     0.008 C 
ENDBRANCH  12  17
ENDBRANCH  11  12
ENDBRANCH   1  11
TORSDOF 1
ENDMDL
MODEL 3
REMARK VINA RESULT:    -4.355      1.800      4.085
REMARK INTER + INTRA:          -6.452
REMARK INTER:                  -6.368
REMARK INTRA:                  -0.084
REMARK UNBOUND:                 0.194
REMARK SMILES CC1=CCC[C@H](C)C(=O)C[C@@H](C(C)C)C(=O)C1
REMARK SMILES IDX 8 1 9 2 6 3 7 4 5 5 4 6 3 7 2 8 1 9 10 11 11 12 15 13 16 14
REMARK SMILES IDX 17 15 12 17 13 18 14 19
REMARK H PARENT
REMARK Flexibility Score: 70.00
ROOT
ATOM      1  C   UNL     1       5.519  -3.996  50.126  1.00  0.00     0.136 C 
ATOM      2  O   UNL     1       5.188  -4.419  51.222  1.00  0.00    -0.299 OA
ENDROOT
BRANCH   1   3
ATOM      3  C   UNL     1       4.762  -4.483  48.877  1.00  0.00     0.053 C 
ATOM      4  C   UNL     1       3.555  -5.349  49.253  1.00  0.00     0.016 C 
BRANCH   3   5
ATOM      5  C   UNL     1       4.374  -3.212  48.146  1.00  0.00     0.015 C 
BRANCH   5   6
ATOM      6  C   UNL     1       4.745  -2.746  46.767  1.00  0.00     0.028 C 
BRANCH   6   7
ATOM      7  C   UNL     1       5.568  -1.457  46.911  1.00  0.00    -0.028 C 
ATOM      8  C   UNL     1       6.942  -1.272  46.956  1.00  0.00    -0.070 CG0
ATOM      9  C   UNL     1       7.404   0.167  46.998  1.00  0.00     0.039 C 
ATOM     10  G   UNL     1       8.058  -2.358  46.991  1.00  0.00     0.000 G0
ENDBRANCH   6   7
ENDBRANCH   5   6
ENDBRANCH   3   5
ENDBRANCH   1   3
BRANCH   1  11
ATOM     11  C   UNL     1       6.687  -2.998  50.031  1.00  0.00     0.087 C 
BRANCH  11  12
ATOM     12  C   UNL     1       8.049  -3.530  49.432  1.00  0.00     0.066 C 
BRANCH  12  13
ATOM     13  C   UNL     1       8.699  -2.625  48.351  1.00  0.00     0.140 C 
ATOM     14  O   UNL     1       9.760  -2.067  48.598  1.00  0.00    -0.299 OA
BRANCH  13  15
ATOM     15  C   UNL     1       8.054  -2.364  46.983  1.00  0.00     0.106 CG0
ATOM     16  G   UNL     1       6.945  -1.270  46.977  1.00  0.00     0.000 G0
ENDBRANCH  13  15
ENDBRANCH  12  13
BRANCH  12  17
ATOM     17  C   UNL     1       7.976  -5.028  48.964  1.00  0.00    -0.006 C 
ATOM     18  C   UNL     1       9.051  -5.329  47.898  1.00  0.00     0.008 C 
ATOM     19  C   UNL     1       8.149  -6.036  50.115  1.00  0.00     0.008 C 
ENDBRANCH  12  17
ENDBRANCH  11  12
ENDBRANCH   1  11
TORSDOF 1
ENDMDL
MODEL 4
REMARK VINA RESULT:    -3.961      1.968      4.054
REMARK INTER + INTRA:          -5.852
REMARK INTER:                  -5.994
REMARK INTRA:                   0.143
REMARK UNBOUND:                 0.194
REMARK SMILES CC1=CCC[C@H](C)C(=O)C[C@@H](C(C)C)C(=O)C1
REMARK SMILES IDX 8 1 9 2 6 3 7 4 5 5 4 6 3 7 2 8 1 9 10 11 11 12 15 13 16 14
REMARK SMILES IDX 17 15 12 17 13 18 14 19
REMARK H PARENT
REMARK Flexibility Score: 70.00
ROOT
ATOM      1  C   UNL     1       6.730  -3.403  47.028  1.00  0.00     0.136 C 
ATOM      2  O   UNL     1       7.310  -4.475  47.098  1.00  0.00    -0.299 OA
ENDROOT
BRANCH   1   3
ATOM      3  C   UNL     1       7.560  -2.109  46.946  1.00  0.00     0.053 C 
ATOM      4  C   UNL     1       6.670  -0.863  47.021  1.00  0.00     0.016 C 
BRANCH   3   5
ATOM      5  C   UNL     1       8.538  -2.209  48.101  1.00  0.00     0.015 C 
BRANCH   5   6
ATOM      6  C   UNL     1       8.516  -3.109  49.302  1.00  0.00     0.028 C 
BRANCH   6   7
ATOM      7  C   UNL     1       8.034  -2.281  50.503  1.00  0.00    -0.028 C 
ATOM      8  C   UNL     1       6.750  -1.926  50.888  1.00  0.00    -0.070 CG0
ATOM      9  C   UNL     1       6.645  -1.184  52.201  1.00  0.00     0.039 C 
ATOM     10  G   UNL     1       5.413  -2.176  50.128  1.00  0.00     0.000 G0
ENDBRANCH   6   7
ENDBRANCH   5   6
ENDBRANCH   3   5
ENDBRANCH   1   3
BRANCH   1  11
ATOM     11  C   UNL     1       5.192  -3.383  47.035  1.00  0.00     0.087 C 
BRANCH  11  12
ATOM     12  C   UNL     1       4.463  -3.935  48.324  1.00  0.00     0.066 C 
BRANCH  12  13
ATOM     13  C   UNL     1       5.147  -3.588  49.674  1.00  0.00     0.140 C 
ATOM     14  O   UNL     1       5.464  -4.494  50.433  1.00  0.00    -0.299 OA
BRANCH  13  15
ATOM     15  C   UNL     1       5.419  -2.146  50.126  1.00  0.00     0.106 CG0
ATOM     16  G   UNL     1       6.755  -1.943  50.901  1.00  0.00     0.000 G0
ENDBRANCH  13  15
ENDBRANCH  12  13
BRANCH  12  17
ATOM     17  C   UNL     1       4.112  -5.463  48.230  1.00  0.00    -0.006 C 
ATOM     18  C   UNL     1       2.723  -5.752  48.837  1.00  0.00     0.008 C 
ATOM     19  C   UNL     1       4.124  -6.004  46.788  1.00  0.00     0.008 C 
ENDBRANCH  12  17
ENDBRANCH  11  12
ENDBRANCH   1  11
TORSDOF 1
ENDMDL
MODEL 5
REMARK VINA RESULT:    -3.928      9.427     10.984
REMARK INTER + INTRA:          -5.802
REMARK INTER:                  -5.387
REMARK INTRA:                  -0.415
REMARK UNBOUND:                 0.194
REMARK SMILES CC1=CCC[C@H](C)C(=O)C[C@@H](C(C)C)C(=O)C1
REMARK SMILES IDX 8 1 9 2 6 3 7 4 5 5 4 6 3 7 2 8 1 9 10 11 11 12 15 13 16 14
REMARK SMILES IDX 17 15 12 17 13 18 14 19
REMARK H PARENT
REMARK Flexibility Score: 70.00
ROOT
ATOM      1  C   UNL     1       8.577   5.353  52.770  1.00  0.00     0.136 C 
ATOM      2  O   UNL     1       8.694   6.494  53.185  1.00  0.00    -0.299 OA
ENDROOT
BRANCH   1   3
ATOM      3  C   UNL     1       7.945   4.287  53.683  1.00  0.00     0.053 C 
ATOM      4  C   UNL     1       6.516   3.946  53.245  1.00  0.00     0.016 C 
BRANCH   3   5
ATOM      5  C   UNL     1       8.889   3.103  53.600  1.00  0.00     0.015 C 
BRANCH   5   6
ATOM      6  C   UNL     1       9.937   2.641  54.570  1.00  0.00     0.028 C 
BRANCH   6   7
ATOM      7  C   UNL     1      10.570   3.887  55.210  1.00  0.00    -0.028 C 
ATOM      8  C   UNL     1      11.486   4.790  54.695  1.00  0.00    -0.070 CG0
ATOM      9  C   UNL     1      11.808   5.970  55.584  1.00  0.00     0.039 C 
ATOM     10  G   UNL     1      12.237   4.728  53.331  1.00  0.00     0.000 G0
ENDBRANCH   6   7
ENDBRANCH   5   6
ENDBRANCH   3   5
ENDBRANCH   1   3
BRANCH   1  11
ATOM     11  C   UNL     1       9.077   5.016  51.354  1.00  0.00     0.087 C 
BRANCH  11  12
ATOM     12  C   UNL     1      10.613   4.687  51.184  1.00  0.00     0.066 C 
BRANCH  12  13
ATOM     13  C   UNL     1      11.566   5.437  52.153  1.00  0.00     0.140 C 
ATOM     14  O   UNL     1      11.799   6.623  51.963  1.00  0.00    -0.299 OA
BRANCH  13  15
ATOM     15  C   UNL     1      12.263   4.750  53.335  1.00  0.00     0.106 CG0
ATOM     16  G   UNL     1      11.472   4.786  54.677  1.00  0.00     0.000 G0
ENDBRANCH  13  15
ENDBRANCH  12  13
BRANCH  12  17
ATOM     17  C   UNL     1      11.106   4.788  49.696  1.00  0.00    -0.006 C 
ATOM     18  C   UNL     1      12.093   3.650  49.360  1.00  0.00     0.008 C 
ATOM     19  C   UNL     1       9.960   4.745  48.668  1.00  0.00     0.008 C 
ENDBRANCH  12  17
ENDBRANCH  11  12
ENDBRANCH   1  11
TORSDOF 1
ENDMDL
MODEL 6
REMARK VINA RESULT:    -3.852      1.787      3.572
REMARK INTER + INTRA:          -5.686
REMARK INTER:                  -6.384
REMARK INTRA:                   0.698
REMARK UNBOUND:                 0.194
REMARK SMILES CC1=CCC[C@H](C)C(=O)C[C@@H](C(C)C)C(=O)C1
REMARK SMILES IDX 8 1 9 2 6 3 7 4 5 5 4 6 3 7 2 8 1 9 10 11 11 12 15 13 16 14
REMARK SMILES IDX 17 15 12 17 13 18 14 19
REMARK H PARENT
REMARK Flexibility Score: 70.00
ROOT
ATOM      1  C   UNL     1       8.133  -2.079  47.280  1.00  0.00     0.136 C 
ATOM      2  O   UNL     1       8.415  -2.154  46.094  1.00  0.00    -0.299 OA
ENDROOT
BRANCH   1   3
ATOM      3  C   UNL     1       9.126  -2.627  48.319  1.00  0.00     0.053 C 
ATOM      4  C   UNL     1       8.665  -2.332  49.750  1.00  0.00     0.016 C 
BRANCH   3   5
ATOM      5  C   UNL     1       9.212  -4.112  48.019  1.00  0.00     0.015 C 
BRANCH   5   6
ATOM      6  C   UNL     1       8.147  -5.060  47.550  1.00  0.00     0.028 C 
BRANCH   6   7
ATOM      7  C   UNL     1       7.476  -5.667  48.792  1.00  0.00    -0.028 C 
ATOM      8  C   UNL     1       6.575  -5.110  49.686  1.00  0.00    -0.070 CG0
ATOM      9  C   UNL     1       6.039  -6.049  50.742  1.00  0.00     0.039 C 
ATOM     10  G   UNL     1       6.067  -3.638  49.749  1.00  0.00     0.000 G0
ENDBRANCH   6   7
ENDBRANCH   5   6
ENDBRANCH   3   5
ENDBRANCH   1   3
BRANCH   1  11
ATOM     11  C   UNL     1       6.791  -1.448  47.691  1.00  0.00     0.087 C 
BRANCH  11  12
ATOM     12  C   UNL     1       5.485  -2.311  47.470  1.00  0.00     0.066 C 
BRANCH  12  13
ATOM     13  C   UNL     1       5.078  -3.221  48.660  1.00  0.00     0.140 C 
ATOM     14  O   UNL     1       3.920  -3.604  48.750  1.00  0.00    -0.299 OA
BRANCH  13  15
ATOM     15  C   UNL     1       6.061  -3.644  49.761  1.00  0.00     0.106 CG0
ATOM     16  G   UNL     1       6.561  -5.116  49.664  1.00  0.00     0.000 G0
ENDBRANCH  13  15
ENDBRANCH  12  13
BRANCH  12  17
ATOM     17  C   UNL     1       5.489  -3.102  46.112  1.00  0.00    -0.006 C 
ATOM     18  C   UNL     1       4.782  -4.466  46.263  1.00  0.00     0.008 C 
ATOM     19  C   UNL     1       4.811  -2.338  44.959  1.00  0.00     0.008 C 
ENDBRANCH  12  17
ENDBRANCH  11  12
ENDBRANCH   1  11
TORSDOF 1
ENDMDL
MODEL 7
REMARK VINA RESULT:    -3.851      8.612     10.443
REMARK INTER + INTRA:          -5.684
REMARK INTER:                  -5.612
REMARK INTRA:                  -0.072
REMARK UNBOUND:                 0.194
REMARK SMILES CC1=CCC[C@H](C)C(=O)C[C@@H](C(C)C)C(=O)C1
REMARK SMILES IDX 8 1 9 2 6 3 7 4 5 5 4 6 3 7 2 8 1 9 10 11 11 12 15 13 16 14
REMARK SMILES IDX 17 15 12 17 13 18 14 19
REMARK H PARENT
REMARK Flexibility Score: 70.00
ROOT
ATOM      1  C   UNL     1       7.733   4.158  53.863  1.00  0.00     0.136 C 
ATOM      2  O   UNL     1       6.769   4.741  53.394  1.00  0.00    -0.299 OA
ENDROOT
BRANCH   1   3
ATOM      3  C   UNL     1       7.530   2.767  54.492  1.00  0.00     0.053 C 
ATOM      4  C   UNL     1       6.331   2.039  53.874  1.00  0.00     0.016 C 
BRANCH   3   5
ATOM      5  C   UNL     1       8.845   2.048  54.259  1.00  0.00     0.015 C 
BRANCH   5   6
ATOM      6  C   UNL     1       9.676   1.234  55.208  1.00  0.00     0.028 C 
BRANCH   6   7
ATOM      7  C   UNL     1      10.915   2.065  55.581  1.00  0.00    -0.028 C 
ATOM      8  C   UNL     1      11.775   2.798  54.778  1.00  0.00    -0.070 CG0
ATOM      9  C   UNL     1      12.838   3.584  55.512  1.00  0.00     0.039 C 
ATOM     10  G   UNL     1      11.794   2.895  53.223  1.00  0.00     0.000 G0
ENDBRANCH   6   7
ENDBRANCH   5   6
ENDBRANCH   3   5
ENDBRANCH   1   3
BRANCH   1  11
ATOM     11  C   UNL     1       9.113   4.837  53.819  1.00  0.00     0.087 C 
BRANCH  11  12
ATOM     12  C   UNL     1       9.934   4.727  52.473  1.00  0.00     0.066 C 
BRANCH  12  13
ATOM     13  C   UNL     1      11.406   4.258  52.627  1.00  0.00     0.140 C 
ATOM     14  O   UNL     1      12.309   4.992  52.248  1.00  0.00    -0.299 OA
BRANCH  13  15
ATOM     15  C   UNL     1      11.790   2.891  53.209  1.00  0.00     0.106 CG0
ATOM     16  G   UNL     1      11.792   2.817  54.765  1.00  0.00     0.000 G0
ENDBRANCH  13  15
ENDBRANCH  12  13
BRANCH  12  17
ATOM     17  C   UNL     1       9.827   6.013  51.577  1.00  0.00    -0.006 C 
ATOM     18  C   UNL     1       9.322   5.662  50.161  1.00  0.00     0.008 C 
ATOM     19  C   UNL     1       8.895   7.089  52.163  1.00  0.00     0.008 C 
ENDBRANCH  12  17
ENDBRANCH  11  12
ENDBRANCH   1  11
TORSDOF 1
ENDMDL
MODEL 8
REMARK VINA RESULT:    -3.839      8.963     10.830
REMARK INTER + INTRA:          -5.665
REMARK INTER:                  -5.399
REMARK INTRA:                  -0.266
REMARK UNBOUND:                 0.194
REMARK SMILES CC1=CCC[C@H](C)C(=O)C[C@@H](C(C)C)C(=O)C1
REMARK SMILES IDX 8 1 9 2 6 3 7 4 5 5 4 6 3 7 2 8 1 9 10 11 11 12 15 13 16 14
REMARK SMILES IDX 17 15 12 17 13 18 14 19
REMARK H PARENT
REMARK Flexibility Score: 70.00
ROOT
ATOM      1  C   UNL     1       8.224   5.438  52.918  1.00  0.00     0.136 C 
ATOM      2  O   UNL     1       7.222   5.756  53.539  1.00  0.00    -0.299 OA
ENDROOT
BRANCH   1   3
ATOM      3  C   UNL     1       8.890   6.475  51.996  1.00  0.00     0.053 C 
ATOM      4  C   UNL     1       8.508   7.906  52.389  1.00  0.00     0.016 C 
BRANCH   3   5
ATOM      5  C   UNL     1      10.377   6.202  52.125  1.00  0.00     0.015 C 
BRANCH   5   6
ATOM      6  C   UNL     1      11.376   6.767  53.092  1.00  0.00     0.028 C 
BRANCH   6   7
ATOM      7  C   UNL     1      12.368   5.650  53.453  1.00  0.00    -0.028 C 
ATOM      8  C   UNL     1      12.273   4.639  54.396  1.00  0.00    -0.070 CG0
ATOM      9  C   UNL     1      13.410   3.643  54.400  1.00  0.00     0.039 C 
ATOM     10  G   UNL     1      11.157   4.417  55.460  1.00  0.00     0.000 G0
ENDBRANCH   6   7
ENDBRANCH   5   6
ENDBRANCH   3   5
ENDBRANCH   1   3
BRANCH   1  11
ATOM     11  C   UNL     1       8.777   4.011  53.070  1.00  0.00     0.087 C 
BRANCH  11  12
ATOM     12  C   UNL     1       8.801   3.392  54.524  1.00  0.00     0.066 C 
BRANCH  12  13
ATOM     13  C   UNL     1      10.210   3.223  55.153  1.00  0.00     0.140 C 
ATOM     14  O   UNL     1      10.600   2.102  55.451  1.00  0.00    -0.299 OA
BRANCH  13  15
ATOM     15  C   UNL     1      11.138   4.409  55.453  1.00  0.00     0.106 CG0
ATOM     16  G   UNL     1      12.279   4.628  54.415  1.00  0.00     0.000 G0
ENDBRANCH  13  15
ENDBRANCH  12  13
BRANCH  12  17
ATOM     17  C   UNL     1       7.950   2.077  54.650  1.00  0.00    -0.006 C 
ATOM     18  C   UNL     1       7.595   1.785  56.124  1.00  0.00     0.008 C 
ATOM     19  C   UNL     1       6.640   2.118  53.843  1.00  0.00     0.008 C 
ENDBRANCH  12  17
ENDBRANCH  11  12
ENDBRANCH   1  11
TORSDOF 1
ENDMDL
MODEL 9
REMARK VINA RESULT:    -3.734      1.904      4.548
REMARK INTER + INTRA:          -5.505
REMARK INTER:                  -5.268
REMARK INTRA:                  -0.237
REMARK UNBOUND:                 0.194
REMARK SMILES CC1=CCC[C@H](C)C(=O)C[C@@H](C(C)C)C(=O)C1
REMARK SMILES IDX 8 1 9 2 6 3 7 4 5 5 4 6 3 7 2 8 1 9 10 11 11 12 15 13 16 14
REMARK SMILES IDX 17 15 12 17 13 18 14 19
REMARK H PARENT
REMARK Flexibility Score: 70.00
ROOT
ATOM      1  C   UNL     1       4.385  -5.405  47.314  1.00  0.00     0.136 C 
ATOM      2  O   UNL     1       3.563  -5.810  46.507  1.00  0.00    -0.299 OA
ENDROOT
BRANCH   1   3
ATOM      3  C   UNL     1       3.933  -5.109  48.755  1.00  0.00     0.053 C 
ATOM      4  C   UNL     1       2.422  -5.301  48.923  1.00  0.00     0.016 C 
BRANCH   3   5
ATOM      5  C   UNL     1       4.750  -6.056  49.614  1.00  0.00     0.015 C 
BRANCH   5   6
ATOM      6  C   UNL     1       5.658  -5.762  50.772  1.00  0.00     0.028 C 
BRANCH   6   7
ATOM      7  C   UNL     1       7.108  -5.872  50.275  1.00  0.00    -0.028 C 
ATOM      8  C   UNL     1       7.911  -4.936  49.643  1.00  0.00    -0.070 CG0
ATOM      9  C   UNL     1       9.339  -5.367  49.391  1.00  0.00     0.039 C 
ATOM     10  G   UNL     1       7.521  -3.513  49.144  1.00  0.00     0.000 G0
ENDBRANCH   6   7
ENDBRANCH   5   6
ENDBRANCH   3   5
ENDBRANCH   1   3
BRANCH   1  11
ATOM     11  C   UNL     1       5.840  -5.196  46.858  1.00  0.00     0.087 C 
BRANCH  11  12
ATOM     12  C   UNL     1       6.347  -3.707  46.708  1.00  0.00     0.066 C 
BRANCH  12  13
ATOM     13  C   UNL     1       7.534  -3.312  47.627  1.00  0.00     0.140 C 
ATOM     14  O   UNL     1       8.549  -2.847  47.126  1.00  0.00    -0.299 OA
BRANCH  13  15
ATOM     15  C   UNL     1       7.512  -3.508  49.149  1.00  0.00     0.106 CG0
ATOM     16  G   UNL     1       7.905  -4.936  49.633  1.00  0.00     0.000 G0
ENDBRANCH  13  15
ENDBRANCH  12  13
BRANCH  12  17
ATOM     17  C   UNL     1       5.188  -2.649  46.775  1.00  0.00    -0.006 C 
ATOM     18  C   UNL     1       5.609  -1.416  47.602  1.00  0.00     0.008 C 
ATOM     19  C   UNL     1       4.728  -2.160  45.389  1.00  0.00     0.008 C 
ENDBRANCH  12  17
ENDBRANCH  11  12
ENDBRANCH   1  11
TORSDOF 1
ENDMDL
