MODEL 1
REMARK VINA RESULT:    -4.358      0.000      0.000
REMARK INTER + INTRA:         -11.016
REMARK INTER:                  -8.434
REMARK INTRA:                  -2.582
REMARK UNBOUND:                -2.582
REMARK SMILES CCCCCCCCCCCCCCCCCC(=O)[O-]
REMARK SMILES IDX 10 1 11 2 12 3 13 4 14 5 15 6 16 7 17 8 18 9 19 10 20 11
REMARK SMILES IDX 9 12 8 13 7 14 6 15 5 16 4 17 3 18 2 19 1 20
REMARK H PARENT
REMARK Flexibility Score: inf
ROOT
ATOM      1  C   UNL     1     -10.929   3.056  20.193  1.00  0.00     0.000 C 
ENDROOT
BRANCH   1   2
ATOM      2  C   UNL     1     -11.840   4.269  19.935  1.00  0.00     0.000 C 
BRANCH   2   3
ATOM      3  C   UNL     1     -11.945   4.620  18.441  1.00  0.00     0.000 C 
BRANCH   3   4
ATOM      4  C   UNL     1     -12.865   3.661  17.671  1.00  0.00     0.000 C 
BRANCH   4   5
ATOM      5  C   UNL     1     -12.213   3.213  16.356  1.00  0.00     0.000 C 
BRANCH   5   6
ATOM      6  C   UNL     1     -10.735   3.628  16.248  1.00  0.00     0.000 C 
BRANCH   6   7
ATOM      7  C   UNL     1      -9.817   2.511  15.710  1.00  0.00     0.006 C 
BRANCH   7   8
ATOM      8  C   UNL     1     -10.525   1.151  15.665  1.00  0.00     0.053 C 
BRANCH   8   9
ATOM      9  C   UNL     1     -10.412   0.545  14.301  1.00  0.00     0.041 C 
ATOM     10  O   UNL     1      -9.325   0.604  13.669  1.00  0.00    -0.550 OA
ATOM     11  O   UNL     1     -11.523  -0.043  13.709  1.00  0.00    -0.550 OA
ENDBRANCH   8   9
ENDBRANCH   7   8
ENDBRANCH   6   7
ENDBRANCH   5   6
ENDBRANCH   4   5
ENDBRANCH   3   4
ENDBRANCH   2   3
ENDBRANCH   1   2
BRANCH   1  12
ATOM     12  C   UNL     1      -9.495   3.262  19.673  1.00  0.00     0.000 C 
BRANCH  12  13
ATOM     13  C   UNL     1      -8.742   1.972  19.296  1.00  0.00    -0.000 C 
BRANCH  13  14
ATOM     14  C   UNL     1      -9.680   0.781  19.050  1.00  0.00    -0.000 C 
BRANCH  14  15
ATOM     15  C   UNL     1      -9.095  -0.508  19.646  1.00  0.00    -0.000 C 
BRANCH  15  16
ATOM     16  C   UNL     1      -9.716  -0.872  21.006  1.00  0.00    -0.000 C 
BRANCH  16  17
ATOM     17  C   UNL     1      -8.709  -0.986  22.167  1.00  0.00    -0.000 C 
BRANCH  17  18
ATOM     18  C   UNL     1      -9.135  -0.220  23.437  1.00  0.00    -0.000 C 
BRANCH  18  19
ATOM     19  C   UNL     1     -10.040   0.981  23.120  1.00  0.00    -0.003 C 
ATOM     20  C   UNL     1      -9.372   2.294  23.517  1.00  0.00     0.004 C 
ENDBRANCH  18  19
ENDBRANCH  17  18
ENDBRANCH  16  17
ENDBRANCH  15  16
ENDBRANCH  14  15
ENDBRANCH  13  14
ENDBRANCH  12  13
ENDBRANCH   1  12
TORSDOF 16
ENDMDL
MODEL 2
REMARK VINA RESULT:    -4.277      1.261      1.988
REMARK INTER + INTRA:         -10.859
REMARK INTER:                  -8.520
REMARK INTRA:                  -2.340
REMARK UNBOUND:                -2.582
REMARK SMILES CCCCCCCCCCCCCCCCCC(=O)[O-]
REMARK SMILES IDX 10 1 11 2 12 3 13 4 14 5 15 6 16 7 17 8 18 9 19 10 20 11
REMARK SMILES IDX 9 12 8 13 7 14 6 15 5 16 4 17 3 18 2 19 1 20
REMARK H PARENT
REMARK Flexibility Score: inf
ROOT
ATOM      1  C   UNL     1     -11.475   4.002  20.042  1.00  0.00     0.000 C 
ENDROOT
BRANCH   1   2
ATOM      2  C   UNL     1     -11.990   4.585  18.715  1.00  0.00     0.000 C 
BRANCH   2   3
ATOM      3  C   UNL     1     -12.304   3.497  17.675  1.00  0.00     0.000 C 
BRANCH   3   4
ATOM      4  C   UNL     1     -11.596   3.739  16.333  1.00  0.00     0.000 C 
BRANCH   4   5
ATOM      5  C   UNL     1     -10.112   3.356  16.420  1.00  0.00     0.000 C 
BRANCH   5   6
ATOM      6  C   UNL     1      -9.642   2.505  15.227  1.00  0.00     0.000 C 
BRANCH   6   7
ATOM      7  C   UNL     1      -9.939   1.000  15.387  1.00  0.00     0.006 C 
BRANCH   7   8
ATOM      8  C   UNL     1     -10.510   0.382  14.104  1.00  0.00     0.053 C 
BRANCH   8   9
ATOM      9  C   UNL     1     -11.996   0.237  14.207  1.00  0.00     0.041 C 
ATOM     10  O   UNL     1     -12.608   0.683  15.213  1.00  0.00    -0.550 OA
ATOM     11  O   UNL     1     -12.698  -0.433  13.214  1.00  0.00    -0.550 OA
ENDBRANCH   8   9
ENDBRANCH   7   8
ENDBRANCH   6   7
ENDBRANCH   5   6
ENDBRANCH   4   5
ENDBRANCH   3   4
ENDBRANCH   2   3
ENDBRANCH   1   2
BRANCH   1  12
ATOM     12  C   UNL     1      -9.983   4.294  20.286  1.00  0.00     0.000 C 
BRANCH  12  13
ATOM     13  C   UNL     1      -9.093   3.051  20.469  1.00  0.00    -0.000 C 
BRANCH  13  14
ATOM     14  C   UNL     1      -8.570   2.486  19.140  1.00  0.00    -0.000 C 
BRANCH  14  15
ATOM     15  C   UNL     1      -8.808   0.971  19.058  1.00  0.00    -0.000 C 
BRANCH  15  16
ATOM     16  C   UNL     1     -10.302   0.602  19.038  1.00  0.00    -0.000 C 
BRANCH  16  17
ATOM     17  C   UNL     1     -10.730  -0.418  20.111  1.00  0.00    -0.000 C 
BRANCH  17  18
ATOM     18  C   UNL     1      -9.663  -0.662  21.199  1.00  0.00    -0.000 C 
BRANCH  18  19
ATOM     19  C   UNL     1      -9.956   0.119  22.490  1.00  0.00    -0.003 C 
ATOM     20  C   UNL     1      -9.076  -0.365  23.638  1.00  0.00     0.004 C 
ENDBRANCH  18  19
ENDBRANCH  17  18
ENDBRANCH  16  17
ENDBRANCH  15  16
ENDBRANCH  14  15
ENDBRANCH  13  14
ENDBRANCH  12  13
ENDBRANCH   1  12
TORSDOF 16
ENDMDL
MODEL 3
REMARK VINA RESULT:    -4.274      1.210      2.400
REMARK INTER + INTRA:         -10.854
REMARK INTER:                  -8.035
REMARK INTRA:                  -2.819
REMARK UNBOUND:                -2.582
REMARK SMILES CCCCCCCCCCCCCCCCCC(=O)[O-]
REMARK SMILES IDX 10 1 11 2 12 3 13 4 14 5 15 6 16 7 17 8 18 9 19 10 20 11
REMARK SMILES IDX 9 12 8 13 7 14 6 15 5 16 4 17 3 18 2 19 1 20
REMARK H PARENT
REMARK Flexibility Score: inf
ROOT
ATOM      1  C   UNL     1      -9.124   1.488  18.907  1.00  0.00     0.000 C 
ENDROOT
BRANCH   1   2
ATOM      2  C   UNL     1      -9.223   3.015  19.069  1.00  0.00     0.000 C 
BRANCH   2   3
ATOM      3  C   UNL     1     -10.652   3.540  18.851  1.00  0.00     0.000 C 
BRANCH   3   4
ATOM      4  C   UNL     1     -10.729   4.605  17.746  1.00  0.00     0.000 C 
BRANCH   4   5
ATOM      5  C   UNL     1     -11.208   3.990  16.424  1.00  0.00     0.000 C 
BRANCH   5   6
ATOM      6  C   UNL     1     -12.309   2.933  16.619  1.00  0.00     0.000 C 
BRANCH   6   7
ATOM      7  C   UNL     1     -12.094   1.654  15.784  1.00  0.00     0.006 C 
BRANCH   7   8
ATOM      8  C   UNL     1     -10.632   1.484  15.350  1.00  0.00     0.053 C 
BRANCH   8   9
ATOM      9  C   UNL     1     -10.528   0.492  14.235  1.00  0.00     0.041 C 
ATOM     10  O   UNL     1      -9.401   0.177  13.770  1.00  0.00    -0.550 OA
ATOM     11  O   UNL     1     -11.679  -0.048  13.676  1.00  0.00    -0.550 OA
ENDBRANCH   8   9
ENDBRANCH   7   8
ENDBRANCH   6   7
ENDBRANCH   5   6
ENDBRANCH   4   5
ENDBRANCH   3   4
ENDBRANCH   2   3
ENDBRANCH   1   2
BRANCH   1  12
ATOM     12  C   UNL     1     -10.490   0.785  19.011  1.00  0.00     0.000 C 
BRANCH  12  13
ATOM     13  C   UNL     1     -10.507  -0.489  19.876  1.00  0.00    -0.000 C 
BRANCH  13  14
ATOM     14  C   UNL     1      -9.130  -0.835  20.461  1.00  0.00    -0.000 C 
BRANCH  14  15
ATOM     15  C   UNL     1      -9.127  -0.675  21.988  1.00  0.00    -0.000 C 
BRANCH  15  16
ATOM     16  C   UNL     1     -10.329   0.133  22.505  1.00  0.00    -0.000 C 
BRANCH  16  17
ATOM     17  C   UNL     1      -9.990   1.552  23.003  1.00  0.00    -0.000 C 
BRANCH  17  18
ATOM     18  C   UNL     1     -10.894   2.653  22.407  1.00  0.00    -0.000 C 
BRANCH  18  19
ATOM     19  C   UNL     1     -12.249   2.104  21.934  1.00  0.00    -0.003 C 
ATOM     20  C   UNL     1     -13.232   3.235  21.650  1.00  0.00     0.004 C 
ENDBRANCH  18  19
ENDBRANCH  17  18
ENDBRANCH  16  17
ENDBRANCH  15  16
ENDBRANCH  14  15
ENDBRANCH  13  14
ENDBRANCH  12  13
ENDBRANCH   1  12
TORSDOF 16
ENDMDL
MODEL 4
REMARK VINA RESULT:    -4.229      1.176      2.766
REMARK INTER + INTRA:         -10.767
REMARK INTER:                  -8.329
REMARK INTRA:                  -2.438
REMARK UNBOUND:                -2.582
REMARK SMILES CCCCCCCCCCCCCCCCCC(=O)[O-]
REMARK SMILES IDX 10 1 11 2 12 3 13 4 14 5 15 6 16 7 17 8 18 9 19 10 20 11
REMARK SMILES IDX 9 12 8 13 7 14 6 15 5 16 4 17 3 18 2 19 1 20
REMARK H PARENT
REMARK Flexibility Score: inf
ROOT
ATOM      1  C   UNL     1     -11.433   2.807  21.624  1.00  0.00     0.000 C 
ENDROOT
BRANCH   1   2
ATOM      2  C   UNL     1     -12.164   3.757  20.660  1.00  0.00     0.000 C 
BRANCH   2   3
ATOM      3  C   UNL     1     -12.098   3.282  19.198  1.00  0.00     0.000 C 
BRANCH   3   4
ATOM      4  C   UNL     1     -11.385   4.287  18.281  1.00  0.00     0.000 C 
BRANCH   4   5
ATOM      5  C   UNL     1     -11.252   3.731  16.857  1.00  0.00     0.000 C 
BRANCH   5   6
ATOM      6  C   UNL     1     -12.487   2.928  16.410  1.00  0.00     0.000 C 
BRANCH   6   7
ATOM      7  C   UNL     1     -12.138   1.593  15.720  1.00  0.00     0.006 C 
BRANCH   7   8
ATOM      8  C   UNL     1     -10.639   1.470  15.418  1.00  0.00     0.053 C 
BRANCH   8   9
ATOM      9  C   UNL     1     -10.409   0.535  14.273  1.00  0.00     0.041 C 
ATOM     10  O   UNL     1      -9.298   0.520  13.680  1.00  0.00    -0.550 OA
ATOM     11  O   UNL     1     -11.438  -0.288  13.832  1.00  0.00    -0.550 OA
ENDBRANCH   8   9
ENDBRANCH   7   8
ENDBRANCH   6   7
ENDBRANCH   5   6
ENDBRANCH   4   5
ENDBRANCH   3   4
ENDBRANCH   2   3
ENDBRANCH   1   2
BRANCH   1  12
ATOM     12  C   UNL     1     -12.245   1.539  21.946  1.00  0.00     0.000 C 
BRANCH  12  13
ATOM     13  C   UNL     1     -11.409   0.269  22.188  1.00  0.00    -0.000 C 
BRANCH  13  14
ATOM     14  C   UNL     1      -9.908   0.483  21.941  1.00  0.00    -0.000 C 
BRANCH  14  15
ATOM     15  C   UNL     1      -9.273  -0.766  21.314  1.00  0.00    -0.000 C 
BRANCH  15  16
ATOM     16  C   UNL     1      -9.068  -0.633  19.795  1.00  0.00    -0.000 C 
BRANCH  16  17
ATOM     17  C   UNL     1      -9.695   0.626  19.166  1.00  0.00    -0.000 C 
BRANCH  17  18
ATOM     18  C   UNL     1      -8.660   1.607  18.573  1.00  0.00    -0.000 C 
BRANCH  18  19
ATOM     19  C   UNL     1      -8.431   2.829  19.476  1.00  0.00    -0.003 C 
ATOM     20  C   UNL     1      -7.190   3.606  19.046  1.00  0.00     0.004 C 
ENDBRANCH  18  19
ENDBRANCH  17  18
ENDBRANCH  16  17
ENDBRANCH  15  16
ENDBRANCH  14  15
ENDBRANCH  13  14
ENDBRANCH  12  13
ENDBRANCH   1  12
TORSDOF 16
ENDMDL
MODEL 5
REMARK VINA RESULT:    -4.145      1.492      2.816
REMARK INTER + INTRA:         -10.604
REMARK INTER:                  -7.627
REMARK INTRA:                  -2.977
REMARK UNBOUND:                -2.582
REMARK SMILES CCCCCCCCCCCCCCCCCC(=O)[O-]
REMARK SMILES IDX 10 1 11 2 12 3 13 4 14 5 15 6 16 7 17 8 18 9 19 10 20 11
REMARK SMILES IDX 9 12 8 13 7 14 6 15 5 16 4 17 3 18 2 19 1 20
REMARK H PARENT
REMARK Flexibility Score: inf
ROOT
ATOM      1  C   UNL     1      -7.744   4.835  18.623  1.00  0.00     0.000 C 
ENDROOT
BRANCH   1   2
ATOM      2  C   UNL     1      -8.612   5.178  17.400  1.00  0.00     0.000 C 
BRANCH   2   3
ATOM      3  C   UNL     1      -9.885   5.954  17.779  1.00  0.00     0.000 C 
BRANCH   3   4
ATOM      4  C   UNL     1     -11.170   5.206  17.395  1.00  0.00     0.000 C 
BRANCH   4   5
ATOM      5  C   UNL     1     -10.860   4.025  16.465  1.00  0.00     0.000 C 
BRANCH   5   6
ATOM      6  C   UNL     1     -11.926   2.917  16.527  1.00  0.00     0.000 C 
BRANCH   6   7
ATOM      7  C   UNL     1     -11.335   1.494  16.599  1.00  0.00     0.006 C 
BRANCH   7   8
ATOM      8  C   UNL     1     -10.050   1.357  15.772  1.00  0.00     0.053 C 
BRANCH   8   9
ATOM      9  C   UNL     1     -10.342   0.715  14.452  1.00  0.00     0.041 C 
ATOM     10  O   UNL     1      -9.410   0.486  13.637  1.00  0.00    -0.550 OA
ATOM     11  O   UNL     1     -11.652   0.412  14.102  1.00  0.00    -0.550 OA
ENDBRANCH   8   9
ENDBRANCH   7   8
ENDBRANCH   6   7
ENDBRANCH   5   6
ENDBRANCH   4   5
ENDBRANCH   3   4
ENDBRANCH   2   3
ENDBRANCH   1   2
BRANCH   1  12
ATOM     12  C   UNL     1      -7.502   3.323  18.780  1.00  0.00     0.000 C 
BRANCH  12  13
ATOM     13  C   UNL     1      -8.737   2.502  19.197  1.00  0.00    -0.000 C 
BRANCH  13  14
ATOM     14  C   UNL     1      -9.346   2.969  20.528  1.00  0.00    -0.000 C 
BRANCH  14  15
ATOM     15  C   UNL     1     -10.813   3.383  20.343  1.00  0.00    -0.000 C 
BRANCH  15  16
ATOM     16  C   UNL     1     -11.785   2.194  20.434  1.00  0.00    -0.000 C 
BRANCH  16  17
ATOM     17  C   UNL     1     -11.453   1.170  21.537  1.00  0.00    -0.000 C 
BRANCH  17  18
ATOM     18  C   UNL     1     -11.587  -0.299  21.083  1.00  0.00    -0.000 C 
BRANCH  18  19
ATOM     19  C   UNL     1     -10.737  -0.607  19.841  1.00  0.00    -0.003 C 
ATOM     20  C   UNL     1      -9.301  -0.946  20.227  1.00  0.00     0.004 C 
ENDBRANCH  18  19
ENDBRANCH  17  18
ENDBRANCH  16  17
ENDBRANCH  15  16
ENDBRANCH  14  15
ENDBRANCH  13  14
ENDBRANCH  12  13
ENDBRANCH   1  12
TORSDOF 16
ENDMDL
MODEL 6
REMARK VINA RESULT:    -4.136      1.610      3.040
REMARK INTER + INTRA:         -10.586
REMARK INTER:                  -8.319
REMARK INTRA:                  -2.267
REMARK UNBOUND:                -2.582
REMARK SMILES CCCCCCCCCCCCCCCCCC(=O)[O-]
REMARK SMILES IDX 10 1 11 2 12 3 13 4 14 5 15 6 16 7 17 8 18 9 19 10 20 11
REMARK SMILES IDX 9 12 8 13 7 14 6 15 5 16 4 17 3 18 2 19 1 20
REMARK H PARENT
REMARK Flexibility Score: inf
ROOT
ATOM      1  C   UNL     1     -11.283   0.176  19.355  1.00  0.00     0.000 C 
ENDROOT
BRANCH   1   2
ATOM      2  C   UNL     1     -10.676   1.590  19.363  1.00  0.00     0.000 C 
BRANCH   2   3
ATOM      3  C   UNL     1     -11.613   2.639  18.741  1.00  0.00     0.000 C 
BRANCH   3   4
ATOM      4  C   UNL     1     -11.034   3.267  17.465  1.00  0.00     0.000 C 
BRANCH   4   5
ATOM      5  C   UNL     1      -9.664   2.662  17.128  1.00  0.00     0.000 C 
BRANCH   5   6
ATOM      6  C   UNL     1      -9.514   2.310  15.638  1.00  0.00     0.000 C 
BRANCH   6   7
ATOM      7  C   UNL     1      -9.811   0.829  15.320  1.00  0.00     0.006 C 
BRANCH   7   8
ATOM      8  C   UNL     1     -10.547   0.659  13.984  1.00  0.00     0.053 C 
BRANCH   8   9
ATOM      9  C   UNL     1     -11.987   0.328  14.217  1.00  0.00     0.041 C 
ATOM     10  O   UNL     1     -12.601   0.820  15.200  1.00  0.00    -0.550 OA
ATOM     11  O   UNL     1     -12.639  -0.562  13.372  1.00  0.00    -0.550 OA
ENDBRANCH   8   9
ENDBRANCH   7   8
ENDBRANCH   6   7
ENDBRANCH   5   6
ENDBRANCH   4   5
ENDBRANCH   3   4
ENDBRANCH   2   3
ENDBRANCH   1   2
BRANCH   1  12
ATOM     12  C   UNL     1     -10.601  -0.774  20.357  1.00  0.00     0.000 C 
BRANCH  12  13
ATOM     13  C   UNL     1      -9.338  -0.213  21.036  1.00  0.00    -0.000 C 
BRANCH  13  14
ATOM     14  C   UNL     1      -9.085  -0.819  22.425  1.00  0.00    -0.000 C 
BRANCH  14  15
ATOM     15  C   UNL     1      -9.170   0.258  23.516  1.00  0.00    -0.000 C 
BRANCH  15  16
ATOM     16  C   UNL     1      -9.799   1.569  23.013  1.00  0.00    -0.000 C 
BRANCH  16  17
ATOM     17  C   UNL     1     -11.180   1.896  23.612  1.00  0.00    -0.000 C 
BRANCH  17  18
ATOM     18  C   UNL     1     -12.360   1.568  22.672  1.00  0.00    -0.000 C 
BRANCH  18  19
ATOM     19  C   UNL     1     -13.017   0.220  23.007  1.00  0.00    -0.003 C 
ATOM     20  C   UNL     1     -12.822  -0.136  24.477  1.00  0.00     0.004 C 
ENDBRANCH  18  19
ENDBRANCH  17  18
ENDBRANCH  16  17
ENDBRANCH  15  16
ENDBRANCH  14  15
ENDBRANCH  13  14
ENDBRANCH  12  13
ENDBRANCH   1  12
TORSDOF 16
ENDMDL
MODEL 7
REMARK VINA RESULT:    -4.128      1.887      3.486
REMARK INTER + INTRA:         -10.572
REMARK INTER:                  -8.048
REMARK INTRA:                  -2.524
REMARK UNBOUND:                -2.582
REMARK SMILES CCCCCCCCCCCCCCCCCC(=O)[O-]
REMARK SMILES IDX 10 1 11 2 12 3 13 4 14 5 15 6 16 7 17 8 18 9 19 10 20 11
REMARK SMILES IDX 9 12 8 13 7 14 6 15 5 16 4 17 3 18 2 19 1 20
REMARK H PARENT
REMARK Flexibility Score: inf
ROOT
ATOM      1  C   UNL     1     -11.152   3.614  21.329  1.00  0.00     0.000 C 
ENDROOT
BRANCH   1   2
ATOM      2  C   UNL     1     -12.390   3.203  20.512  1.00  0.00     0.000 C 
BRANCH   2   3
ATOM      3  C   UNL     1     -12.797   4.270  19.482  1.00  0.00     0.000 C 
BRANCH   3   4
ATOM      4  C   UNL     1     -11.609   4.771  18.648  1.00  0.00     0.000 C 
BRANCH   4   5
ATOM      5  C   UNL     1     -11.922   4.699  17.147  1.00  0.00     0.000 C 
BRANCH   5   6
ATOM      6  C   UNL     1     -12.588   3.373  16.738  1.00  0.00     0.000 C 
BRANCH   6   7
ATOM      7  C   UNL     1     -11.644   2.414  15.984  1.00  0.00     0.006 C 
BRANCH   7   8
ATOM      8  C   UNL     1     -12.301   1.056  15.703  1.00  0.00     0.053 C 
BRANCH   8   9
ATOM      9  C   UNL     1     -11.840   0.513  14.387  1.00  0.00     0.041 C 
ATOM     10  O   UNL     1     -10.628   0.597  14.054  1.00  0.00    -0.550 OA
ATOM     11  O   UNL     1     -12.758  -0.045  13.506  1.00  0.00    -0.550 OA
ENDBRANCH   8   9
ENDBRANCH   7   8
ENDBRANCH   6   7
ENDBRANCH   5   6
ENDBRANCH   4   5
ENDBRANCH   3   4
ENDBRANCH   2   3
ENDBRANCH   1   2
BRANCH   1  12
ATOM     12  C   UNL     1     -10.022   2.570  21.269  1.00  0.00     0.000 C 
BRANCH  12  13
ATOM     13  C   UNL     1     -10.372   1.267  20.527  1.00  0.00    -0.000 C 
BRANCH  13  14
ATOM     14  C   UNL     1      -9.835   1.232  19.088  1.00  0.00    -0.000 C 
BRANCH  14  15
ATOM     15  C   UNL     1      -8.505   1.993  18.982  1.00  0.00    -0.000 C 
BRANCH  15  16
ATOM     16  C   UNL     1      -8.534   3.100  17.915  1.00  0.00    -0.000 C 
BRANCH  16  17
ATOM     17  C   UNL     1      -7.903   4.436  18.351  1.00  0.00    -0.000 C 
BRANCH  17  18
ATOM     18  C   UNL     1      -7.257   4.390  19.752  1.00  0.00    -0.000 C 
BRANCH  18  19
ATOM     19  C   UNL     1      -5.766   4.764  19.721  1.00  0.00    -0.003 C 
ATOM     20  C   UNL     1      -5.043   4.046  18.586  1.00  0.00     0.004 C 
ENDBRANCH  18  19
ENDBRANCH  17  18
ENDBRANCH  16  17
ENDBRANCH  15  16
ENDBRANCH  14  15
ENDBRANCH  13  14
ENDBRANCH  12  13
ENDBRANCH   1  12
TORSDOF 16
ENDMDL
MODEL 8
REMARK VINA RESULT:    -4.103      3.385      7.007
REMARK INTER + INTRA:         -10.523
REMARK INTER:                  -8.207
REMARK INTRA:                  -2.316
REMARK UNBOUND:                -2.582
REMARK SMILES CCCCCCCCCCCCCCCCCC(=O)[O-]
REMARK SMILES IDX 10 1 11 2 12 3 13 4 14 5 15 6 16 7 17 8 18 9 19 10 20 11
REMARK SMILES IDX 9 12 8 13 7 14 6 15 5 16 4 17 3 18 2 19 1 20
REMARK H PARENT
REMARK Flexibility Score: inf
ROOT
ATOM      1  C   UNL     1      -8.798   2.068  19.062  1.00  0.00     0.000 C 
ENDROOT
BRANCH   1   2
ATOM      2  C   UNL     1      -9.495   0.758  18.653  1.00  0.00     0.000 C 
BRANCH   2   3
ATOM      3  C   UNL     1      -8.756  -0.489  19.165  1.00  0.00     0.000 C 
BRANCH   3   4
ATOM      4  C   UNL     1      -9.576  -1.281  20.195  1.00  0.00     0.000 C 
BRANCH   4   5
ATOM      5  C   UNL     1      -9.165  -0.908  21.626  1.00  0.00     0.000 C 
BRANCH   5   6
ATOM      6  C   UNL     1     -10.092   0.145  22.260  1.00  0.00     0.000 C 
BRANCH   6   7
ATOM      7  C   UNL     1     -11.524   0.133  21.688  1.00  0.00     0.006 C 
BRANCH   7   8
ATOM      8  C   UNL     1     -12.560   0.629  22.705  1.00  0.00     0.053 C 
BRANCH   8   9
ATOM      9  C   UNL     1     -12.238   2.024  23.142  1.00  0.00     0.041 C 
ATOM     10  O   UNL     1     -11.961   2.264  24.347  1.00  0.00    -0.550 OA
ATOM     11  O   UNL     1     -12.292   3.068  22.227  1.00  0.00    -0.550 OA
ENDBRANCH   8   9
ENDBRANCH   7   8
ENDBRANCH   6   7
ENDBRANCH   5   6
ENDBRANCH   4   5
ENDBRANCH   3   4
ENDBRANCH   2   3
ENDBRANCH   1   2
BRANCH   1  12
ATOM     12  C   UNL     1      -9.782   3.133  19.579  1.00  0.00     0.000 C 
BRANCH  12  13
ATOM     13  C   UNL     1      -9.826   4.437  18.760  1.00  0.00    -0.000 C 
BRANCH  13  14
ATOM     14  C   UNL     1     -11.252   4.851  18.369  1.00  0.00    -0.000 C 
BRANCH  14  15
ATOM     15  C   UNL     1     -12.153   3.620  18.199  1.00  0.00    -0.000 C 
BRANCH  15  16
ATOM     16  C   UNL     1     -12.530   3.354  16.731  1.00  0.00    -0.000 C 
BRANCH  16  17
ATOM     17  C   UNL     1     -11.791   2.170  16.078  1.00  0.00    -0.000 C 
BRANCH  17  18
ATOM     18  C   UNL     1     -10.388   2.531  15.545  1.00  0.00    -0.000 C 
BRANCH  18  19
ATOM     19  C   UNL     1      -9.621   1.299  15.038  1.00  0.00    -0.003 C 
ATOM     20  C   UNL     1     -10.497   0.442  14.129  1.00  0.00     0.004 C 
ENDBRANCH  18  19
ENDBRANCH  17  18
ENDBRANCH  16  17
ENDBRANCH  15  16
ENDBRANCH  14  15
ENDBRANCH  13  14
ENDBRANCH  12  13
ENDBRANCH   1  12
TORSDOF 16
ENDMDL
MODEL 9
REMARK VINA RESULT:    -4.084      2.858      6.022
REMARK INTER + INTRA:         -10.487
REMARK INTER:                  -7.841
REMARK INTRA:                  -2.646
REMARK UNBOUND:                -2.582
REMARK SMILES CCCCCCCCCCCCCCCCCC(=O)[O-]
REMARK SMILES IDX 10 1 11 2 12 3 13 4 14 5 15 6 16 7 17 8 18 9 19 10 20 11
REMARK SMILES IDX 9 12 8 13 7 14 6 15 5 16 4 17 3 18 2 19 1 20
REMARK H PARENT
REMARK Flexibility Score: inf
ROOT
ATOM      1  C   UNL     1     -12.274   2.959  21.438  1.00  0.00     0.000 C 
ENDROOT
BRANCH   1   2
ATOM      2  C   UNL     1     -12.539   1.564  22.030  1.00  0.00     0.000 C 
BRANCH   2   3
ATOM      3  C   UNL     1     -11.542   0.508  21.523  1.00  0.00     0.000 C 
BRANCH   3   4
ATOM      4  C   UNL     1     -11.304   0.599  20.007  1.00  0.00     0.000 C 
BRANCH   4   5
ATOM      5  C   UNL     1     -10.091  -0.244  19.591  1.00  0.00     0.000 C 
BRANCH   5   6
ATOM      6  C   UNL     1      -8.892   0.611  19.144  1.00  0.00     0.000 C 
BRANCH   6   7
ATOM      7  C   UNL     1      -9.150   2.129  19.229  1.00  0.00     0.006 C 
BRANCH   7   8
ATOM      8  C   UNL     1      -7.986   2.948  18.655  1.00  0.00     0.053 C 
BRANCH   8   9
ATOM      9  C   UNL     1      -7.945   4.309  19.275  1.00  0.00     0.041 C 
ATOM     10  O   UNL     1      -7.760   4.437  20.514  1.00  0.00    -0.550 OA
ATOM     11  O   UNL     1      -8.160   5.436  18.491  1.00  0.00    -0.550 OA
ENDBRANCH   8   9
ENDBRANCH   7   8
ENDBRANCH   6   7
ENDBRANCH   5   6
ENDBRANCH   4   5
ENDBRANCH   3   4
ENDBRANCH   2   3
ENDBRANCH   1   2
BRANCH   1  12
ATOM     12  C   UNL     1     -13.541   3.615  20.860  1.00  0.00     0.000 C 
BRANCH  12  13
ATOM     13  C   UNL     1     -13.347   4.344  19.518  1.00  0.00    -0.000 C 
BRANCH  13  14
ATOM     14  C   UNL     1     -11.870   4.575  19.168  1.00  0.00    -0.000 C 
BRANCH  14  15
ATOM     15  C   UNL     1     -11.637   4.441  17.656  1.00  0.00    -0.000 C 
BRANCH  15  16
ATOM     16  C   UNL     1     -12.594   3.436  16.992  1.00  0.00    -0.000 C 
BRANCH  16  17
ATOM     17  C   UNL     1     -11.923   2.150  16.473  1.00  0.00    -0.000 C 
BRANCH  17  18
ATOM     18  C   UNL     1     -10.629   2.404  15.670  1.00  0.00    -0.000 C 
BRANCH  18  19
ATOM     19  C   UNL     1      -9.776   1.135  15.521  1.00  0.00    -0.003 C 
ATOM     20  C   UNL     1      -9.943   0.519  14.136  1.00  0.00     0.004 C 
ENDBRANCH  18  19
ENDBRANCH  17  18
ENDBRANCH  16  17
ENDBRANCH  15  16
ENDBRANCH  14  15
ENDBRANCH  13  14
ENDBRANCH  12  13
ENDBRANCH   1  12
TORSDOF 16
ENDMDL
