MODEL 1
REMARK VINA RESULT:    -3.769      0.000      0.000
REMARK INTER + INTRA:          -8.857
REMARK INTER:                  -7.295
REMARK INTRA:                  -1.562
REMARK UNBOUND:                -1.562
REMARK SMILES CCCCCCCCCCCCCCCCCC(=O)[O-]
REMARK SMILES IDX 10 1 11 2 12 3 13 4 14 5 15 6 16 7 17 8 18 9 19 10 20 11
REMARK SMILES IDX 9 12 8 13 7 14 6 15 5 16 4 17 3 18 2 19 1 20
REMARK H PARENT
REMARK Flexibility Score: inf
ROOT
ATOM      1  C   UNL     1      26.380  -9.288  30.388  1.00  0.00     0.000 C 
ENDROOT
BRANCH   1   2
ATOM      2  C   UNL     1      25.943  -9.457  28.922  1.00  0.00     0.000 C 
BRANCH   2   3
ATOM      3  C   UNL     1      24.490  -9.022  28.681  1.00  0.00     0.000 C 
BRANCH   3   4
ATOM      4  C   UNL     1      24.197  -7.683  29.368  1.00  0.00     0.000 C 
BRANCH   4   5
ATOM      5  C   UNL     1      22.967  -7.789  30.278  1.00  0.00     0.000 C 
BRANCH   5   6
ATOM      6  C   UNL     1      22.479  -9.243  30.376  1.00  0.00     0.000 C 
BRANCH   6   7
ATOM      7  C   UNL     1      22.371  -9.740  31.830  1.00  0.00     0.006 C 
BRANCH   7   8
ATOM      8  C   UNL     1      23.664 -10.363  32.382  1.00  0.00     0.053 C 
BRANCH   8   9
ATOM      9  C   UNL     1      24.203  -9.593  33.549  1.00  0.00     0.041 C 
ATOM     10  O   UNL     1      24.819  -8.510  33.365  1.00  0.00    -0.550 OA
ATOM     11  O   UNL     1      23.996 -10.056  34.842  1.00  0.00    -0.550 OA
ENDBRANCH   8   9
ENDBRANCH   7   8
ENDBRANCH   6   7
ENDBRANCH   5   6
ENDBRANCH   4   5
ENDBRANCH   3   4
ENDBRANCH   2   3
ENDBRANCH   1   2
BRANCH   1  12
ATOM     12  C   UNL     1      27.499 -10.245  30.847  1.00  0.00     0.000 C 
BRANCH  12  13
ATOM     13  C   UNL     1      28.768 -10.240  29.973  1.00  0.00    -0.000 C 
BRANCH  13  14
ATOM     14  C   UNL     1      29.950 -11.045  30.543  1.00  0.00    -0.000 C 
BRANCH  14  15
ATOM     15  C   UNL     1      30.746 -10.263  31.602  1.00  0.00    -0.000 C 
BRANCH  15  16
ATOM     16  C   UNL     1      30.956  -8.792  31.213  1.00  0.00    -0.000 C 
BRANCH  16  17
ATOM     17  C   UNL     1      30.335  -7.818  32.225  1.00  0.00    -0.000 C 
BRANCH  17  18
ATOM     18  C   UNL     1      31.420  -7.106  33.040  1.00  0.00    -0.000 C 
BRANCH  18  19
ATOM     19  C   UNL     1      31.965  -8.017  34.147  1.00  0.00    -0.003 C 
ATOM     20  C   UNL     1      33.025  -7.300  34.978  1.00  0.00     0.004 C 
ENDBRANCH  18  19
ENDBRANCH  17  18
ENDBRANCH  16  17
ENDBRANCH  15  16
ENDBRANCH  14  15
ENDBRANCH  13  14
ENDBRANCH  12  13
ENDBRANCH   1  12
TORSDOF 16
ENDMDL
MODEL 2
REMARK VINA RESULT:    -3.749      1.157      1.544
REMARK INTER + INTRA:          -8.818
REMARK INTER:                  -6.757
REMARK INTRA:                  -2.062
REMARK UNBOUND:                -1.562
REMARK SMILES CCCCCCCCCCCCCCCCCC(=O)[O-]
REMARK SMILES IDX 10 1 11 2 12 3 13 4 14 5 15 6 16 7 17 8 18 9 19 10 20 11
REMARK SMILES IDX 9 12 8 13 7 14 6 15 5 16 4 17 3 18 2 19 1 20
REMARK H PARENT
REMARK Flexibility Score: inf
ROOT
ATOM      1  C   UNL     1      27.342  -9.523  30.593  1.00  0.00     0.000 C 
ENDROOT
BRANCH   1   2
ATOM      2  C   UNL     1      26.872  -9.554  29.127  1.00  0.00     0.000 C 
BRANCH   2   3
ATOM      3  C   UNL     1      25.343  -9.570  28.992  1.00  0.00     0.000 C 
BRANCH   3   4
ATOM      4  C   UNL     1      24.738  -8.238  29.451  1.00  0.00     0.000 C 
BRANCH   4   5
ATOM      5  C   UNL     1      23.934  -8.415  30.745  1.00  0.00     0.000 C 
BRANCH   5   6
ATOM      6  C   UNL     1      23.649  -9.900  31.017  1.00  0.00     0.000 C 
BRANCH   6   7
ATOM      7  C   UNL     1      23.762 -10.266  32.508  1.00  0.00     0.006 C 
BRANCH   7   8
ATOM      8  C   UNL     1      24.382  -9.166  33.384  1.00  0.00     0.053 C 
BRANCH   8   9
ATOM      9  C   UNL     1      24.368  -9.532  34.837  1.00  0.00     0.041 C 
ATOM     10  O   UNL     1      24.299  -8.635  35.717  1.00  0.00    -0.550 OA
ATOM     11  O   UNL     1      24.400 -10.868  35.216  1.00  0.00    -0.550 OA
ENDBRANCH   8   9
ENDBRANCH   7   8
ENDBRANCH   6   7
ENDBRANCH   5   6
ENDBRANCH   4   5
ENDBRANCH   3   4
ENDBRANCH   2   3
ENDBRANCH   1   2
BRANCH   1  12
ATOM     12  C   UNL     1      27.306 -10.884  31.316  1.00  0.00     0.000 C 
BRANCH  12  13
ATOM     13  C   UNL     1      28.348 -11.912  30.834  1.00  0.00    -0.000 C 
BRANCH  13  14
ATOM     14  C   UNL     1      29.594 -12.037  31.729  1.00  0.00    -0.000 C 
BRANCH  14  15
ATOM     15  C   UNL     1      30.908 -11.889  30.941  1.00  0.00    -0.000 C 
BRANCH  15  16
ATOM     16  C   UNL     1      31.385 -10.431  30.861  1.00  0.00    -0.000 C 
BRANCH  16  17
ATOM     17  C   UNL     1      31.044  -9.628  32.125  1.00  0.00    -0.000 C 
BRANCH  17  18
ATOM     18  C   UNL     1      30.649  -8.189  31.771  1.00  0.00    -0.000 C 
BRANCH  18  19
ATOM     19  C   UNL     1      30.966  -7.231  32.926  1.00  0.00    -0.003 C 
ATOM     20  C   UNL     1      31.769  -7.932  34.019  1.00  0.00     0.004 C 
ENDBRANCH  18  19
ENDBRANCH  17  18
ENDBRANCH  16  17
ENDBRANCH  15  16
ENDBRANCH  14  15
ENDBRANCH  13  14
ENDBRANCH  12  13
ENDBRANCH   1  12
TORSDOF 16
ENDMDL
MODEL 3
REMARK VINA RESULT:    -3.626      1.191      2.300
REMARK INTER + INTRA:          -8.579
REMARK INTER:                  -6.437
REMARK INTRA:                  -2.142
REMARK UNBOUND:                -1.562
REMARK SMILES CCCCCCCCCCCCCCCCCC(=O)[O-]
REMARK SMILES IDX 10 1 11 2 12 3 13 4 14 5 15 6 16 7 17 8 18 9 19 10 20 11
REMARK SMILES IDX 9 12 8 13 7 14 6 15 5 16 4 17 3 18 2 19 1 20
REMARK H PARENT
REMARK Flexibility Score: inf
ROOT
ATOM      1  C   UNL     1      25.856  -8.937  29.550  1.00  0.00     0.000 C 
ENDROOT
BRANCH   1   2
ATOM      2  C   UNL     1      24.469  -8.546  29.009  1.00  0.00     0.000 C 
BRANCH   2   3
ATOM      3  C   UNL     1      23.336  -8.851  29.999  1.00  0.00     0.000 C 
BRANCH   3   4
ATOM      4  C   UNL     1      23.111 -10.362  30.127  1.00  0.00     0.000 C 
BRANCH   4   5
ATOM      5  C   UNL     1      23.210 -10.813  31.589  1.00  0.00     0.000 C 
BRANCH   5   6
ATOM      6  C   UNL     1      24.565 -11.482  31.868  1.00  0.00     0.000 C 
BRANCH   6   7
ATOM      7  C   UNL     1      25.435 -10.681  32.853  1.00  0.00     0.006 C 
BRANCH   7   8
ATOM      8  C   UNL     1      24.706  -9.511  33.534  1.00  0.00     0.053 C 
BRANCH   8   9
ATOM      9  C   UNL     1      24.419  -9.793  34.977  1.00  0.00     0.041 C 
ATOM     10  O   UNL     1      24.200 -10.972  35.362  1.00  0.00    -0.550 OA
ATOM     11  O   UNL     1      24.424  -8.757  35.902  1.00  0.00    -0.550 OA
ENDBRANCH   8   9
ENDBRANCH   7   8
ENDBRANCH   6   7
ENDBRANCH   5   6
ENDBRANCH   4   5
ENDBRANCH   3   4
ENDBRANCH   2   3
ENDBRANCH   1   2
BRANCH   1  12
ATOM     12  C   UNL     1      26.540 -10.102  28.807  1.00  0.00     0.000 C 
BRANCH  12  13
ATOM     13  C   UNL     1      27.758 -10.714  29.526  1.00  0.00    -0.000 C 
BRANCH  13  14
ATOM     14  C   UNL     1      28.295  -9.886  30.707  1.00  0.00    -0.000 C 
BRANCH  14  15
ATOM     15  C   UNL     1      29.365 -10.635  31.520  1.00  0.00    -0.000 C 
BRANCH  15  16
ATOM     16  C   UNL     1      30.784 -10.409  30.977  1.00  0.00    -0.000 C 
BRANCH  16  17
ATOM     17  C   UNL     1      31.290  -8.980  31.224  1.00  0.00    -0.000 C 
BRANCH  17  18
ATOM     18  C   UNL     1      31.762  -8.807  32.673  1.00  0.00    -0.000 C 
BRANCH  18  19
ATOM     19  C   UNL     1      31.488  -7.384  33.175  1.00  0.00    -0.003 C 
ATOM     20  C   UNL     1      30.133  -6.879  32.687  1.00  0.00     0.004 C 
ENDBRANCH  18  19
ENDBRANCH  17  18
ENDBRANCH  16  17
ENDBRANCH  15  16
ENDBRANCH  14  15
ENDBRANCH  13  14
ENDBRANCH  12  13
ENDBRANCH   1  12
TORSDOF 16
ENDMDL
MODEL 4
REMARK VINA RESULT:    -3.587      2.315      7.202
REMARK INTER + INTRA:          -8.504
REMARK INTER:                  -6.667
REMARK INTRA:                  -1.838
REMARK UNBOUND:                -1.562
REMARK SMILES CCCCCCCCCCCCCCCCCC(=O)[O-]
REMARK SMILES IDX 10 1 11 2 12 3 13 4 14 5 15 6 16 7 17 8 18 9 19 10 20 11
REMARK SMILES IDX 9 12 8 13 7 14 6 15 5 16 4 17 3 18 2 19 1 20
REMARK H PARENT
REMARK Flexibility Score: inf
ROOT
ATOM      1  C   UNL     1      26.249  -9.080  29.634  1.00  0.00     0.000 C 
ENDROOT
BRANCH   1   2
ATOM      2  C   UNL     1      26.742 -10.020  28.519  1.00  0.00     0.000 C 
BRANCH   2   3
ATOM      3  C   UNL     1      28.066 -10.715  28.868  1.00  0.00     0.000 C 
BRANCH   3   4
ATOM      4  C   UNL     1      28.530 -10.335  30.280  1.00  0.00     0.000 C 
BRANCH   4   5
ATOM      5  C   UNL     1      29.947 -10.853  30.552  1.00  0.00     0.000 C 
BRANCH   5   6
ATOM      6  C   UNL     1      30.603 -10.080  31.707  1.00  0.00     0.000 C 
BRANCH   6   7
ATOM      7  C   UNL     1      31.813  -9.242  31.254  1.00  0.00     0.006 C 
BRANCH   7   8
ATOM      8  C   UNL     1      31.574  -7.724  31.277  1.00  0.00     0.053 C 
BRANCH   8   9
ATOM      9  C   UNL     1      31.152  -7.244  32.632  1.00  0.00     0.041 C 
ATOM     10  O   UNL     1      30.063  -6.630  32.777  1.00  0.00    -0.550 OA
ATOM     11  O   UNL     1      31.949  -7.505  33.741  1.00  0.00    -0.550 OA
ENDBRANCH   8   9
ENDBRANCH   7   8
ENDBRANCH   6   7
ENDBRANCH   5   6
ENDBRANCH   4   5
ENDBRANCH   3   4
ENDBRANCH   2   3
ENDBRANCH   1   2
BRANCH   1  12
ATOM     12  C   UNL     1      24.891  -8.403  29.361  1.00  0.00     0.000 C 
BRANCH  12  13
ATOM     13  C   UNL     1      24.002  -9.111  28.321  1.00  0.00    -0.000 C 
BRANCH  13  14
ATOM     14  C   UNL     1      22.488  -8.910  28.520  1.00  0.00    -0.000 C 
BRANCH  14  15
ATOM     15  C   UNL     1      22.137  -8.407  29.931  1.00  0.00    -0.000 C 
BRANCH  15  16
ATOM     16  C   UNL     1      21.602  -9.525  30.839  1.00  0.00    -0.000 C 
BRANCH  16  17
ATOM     17  C   UNL     1      22.427  -9.689  32.123  1.00  0.00    -0.000 C 
BRANCH  17  18
ATOM     18  C   UNL     1      23.485 -10.787  31.961  1.00  0.00    -0.000 C 
BRANCH  18  19
ATOM     19  C   UNL     1      24.817 -10.367  32.592  1.00  0.00    -0.003 C 
ATOM     20  C   UNL     1      24.755  -8.930  33.105  1.00  0.00     0.004 C 
ENDBRANCH  18  19
ENDBRANCH  17  18
ENDBRANCH  16  17
ENDBRANCH  15  16
ENDBRANCH  14  15
ENDBRANCH  13  14
ENDBRANCH  12  13
ENDBRANCH   1  12
TORSDOF 16
ENDMDL
MODEL 5
REMARK VINA RESULT:    -3.586      2.483      6.793
REMARK INTER + INTRA:          -8.502
REMARK INTER:                  -5.842
REMARK INTRA:                  -2.660
REMARK UNBOUND:                -1.562
REMARK SMILES CCCCCCCCCCCCCCCCCC(=O)[O-]
REMARK SMILES IDX 10 1 11 2 12 3 13 4 14 5 15 6 16 7 17 8 18 9 19 10 20 11
REMARK SMILES IDX 9 12 8 13 7 14 6 15 5 16 4 17 3 18 2 19 1 20
REMARK H PARENT
REMARK Flexibility Score: inf
ROOT
ATOM      1  C   UNL     1      26.233  -9.124  29.411  1.00  0.00     0.000 C 
ENDROOT
BRANCH   1   2
ATOM      2  C   UNL     1      26.954  -9.939  28.322  1.00  0.00     0.000 C 
BRANCH   2   3
ATOM      3  C   UNL     1      27.817 -11.071  28.899  1.00  0.00     0.000 C 
BRANCH   3   4
ATOM      4  C   UNL     1      27.376 -11.425  30.325  1.00  0.00     0.000 C 
BRANCH   4   5
ATOM      5  C   UNL     1      28.569 -11.414  31.289  1.00  0.00     0.000 C 
BRANCH   5   6
ATOM      6  C   UNL     1      29.753 -10.640  30.689  1.00  0.00     0.000 C 
BRANCH   6   7
ATOM      7  C   UNL     1      29.960  -9.263  31.346  1.00  0.00     0.006 C 
BRANCH   7   8
ATOM      8  C   UNL     1      31.221  -9.162  32.219  1.00  0.00     0.053 C 
BRANCH   8   9
ATOM      9  C   UNL     1      31.161  -7.997  33.159  1.00  0.00     0.041 C 
ATOM     10  O   UNL     1      31.804  -8.020  34.241  1.00  0.00    -0.550 OA
ATOM     11  O   UNL     1      30.418  -6.872  32.823  1.00  0.00    -0.550 OA
ENDBRANCH   8   9
ENDBRANCH   7   8
ENDBRANCH   6   7
ENDBRANCH   5   6
ENDBRANCH   4   5
ENDBRANCH   3   4
ENDBRANCH   2   3
ENDBRANCH   1   2
BRANCH   1  12
ATOM     12  C   UNL     1      24.778  -8.739  29.079  1.00  0.00     0.000 C 
BRANCH  12  13
ATOM     13  C   UNL     1      24.138  -9.527  27.919  1.00  0.00    -0.000 C 
BRANCH  13  14
ATOM     14  C   UNL     1      23.127 -10.605  28.349  1.00  0.00    -0.000 C 
BRANCH  14  15
ATOM     15  C   UNL     1      23.807 -11.871  28.900  1.00  0.00    -0.000 C 
BRANCH  15  16
ATOM     16  C   UNL     1      23.656 -12.006  30.423  1.00  0.00    -0.000 C 
BRANCH  16  17
ATOM     17  C   UNL     1      22.500 -11.162  30.979  1.00  0.00    -0.000 C 
BRANCH  17  18
ATOM     18  C   UNL     1      22.951 -10.347  32.196  1.00  0.00    -0.000 C 
BRANCH  18  19
ATOM     19  C   UNL     1      24.464 -10.469  32.412  1.00  0.00    -0.003 C 
ATOM     20  C   UNL     1      25.059  -9.151  32.901  1.00  0.00     0.004 C 
ENDBRANCH  18  19
ENDBRANCH  17  18
ENDBRANCH  16  17
ENDBRANCH  15  16
ENDBRANCH  14  15
ENDBRANCH  13  14
ENDBRANCH  12  13
ENDBRANCH   1  12
TORSDOF 16
ENDMDL
MODEL 6
REMARK VINA RESULT:    -3.548      2.360      6.731
REMARK INTER + INTRA:          -8.429
REMARK INTER:                  -6.473
REMARK INTRA:                  -1.957
REMARK UNBOUND:                -1.562
REMARK SMILES CCCCCCCCCCCCCCCCCC(=O)[O-]
REMARK SMILES IDX 10 1 11 2 12 3 13 4 14 5 15 6 16 7 17 8 18 9 19 10 20 11
REMARK SMILES IDX 9 12 8 13 7 14 6 15 5 16 4 17 3 18 2 19 1 20
REMARK H PARENT
REMARK Flexibility Score: inf
ROOT
ATOM      1  C   UNL     1      23.969  -8.045  30.054  1.00  0.00     0.000 C 
ENDROOT
BRANCH   1   2
ATOM      2  C   UNL     1      24.990  -8.743  29.138  1.00  0.00     0.000 C 
BRANCH   2   3
ATOM      3  C   UNL     1      26.277  -9.142  29.875  1.00  0.00     0.000 C 
BRANCH   3   4
ATOM      4  C   UNL     1      26.811 -10.484  29.359  1.00  0.00     0.000 C 
BRANCH   4   5
ATOM      5  C   UNL     1      28.261 -10.707  29.804  1.00  0.00     0.000 C 
BRANCH   5   6
ATOM      6  C   UNL     1      28.661  -9.706  30.899  1.00  0.00     0.000 C 
BRANCH   6   7
ATOM      7  C   UNL     1      30.124  -9.867  31.350  1.00  0.00     0.006 C 
BRANCH   7   8
ATOM      8  C   UNL     1      30.927  -8.556  31.371  1.00  0.00     0.053 C 
BRANCH   8   9
ATOM      9  C   UNL     1      30.820  -7.855  32.690  1.00  0.00     0.041 C 
ATOM     10  O   UNL     1      31.433  -8.297  33.696  1.00  0.00    -0.550 OA
ATOM     11  O   UNL     1      30.066  -6.692  32.799  1.00  0.00    -0.550 OA
ENDBRANCH   8   9
ENDBRANCH   7   8
ENDBRANCH   6   7
ENDBRANCH   5   6
ENDBRANCH   4   5
ENDBRANCH   3   4
ENDBRANCH   2   3
ENDBRANCH   1   2
BRANCH   1  12
ATOM     12  C   UNL     1      22.694  -8.860  30.346  1.00  0.00     0.000 C 
BRANCH  12  13
ATOM     13  C   UNL     1      22.648  -9.534  31.731  1.00  0.00    -0.000 C 
BRANCH  13  14
ATOM     14  C   UNL     1      23.596 -10.736  31.896  1.00  0.00    -0.000 C 
BRANCH  14  15
ATOM     15  C   UNL     1      24.644 -10.519  33.001  1.00  0.00    -0.000 C 
BRANCH  15  16
ATOM     16  C   UNL     1      24.679  -9.067  33.503  1.00  0.00    -0.000 C 
BRANCH  16  17
ATOM     17  C   UNL     1      24.304  -8.946  34.987  1.00  0.00    -0.000 C 
BRANCH  17  18
ATOM     18  C   UNL     1      23.998 -10.322  35.591  1.00  0.00    -0.000 C 
BRANCH  18  19
ATOM     19  C   UNL     1      22.581 -10.365  36.174  1.00  0.00    -0.003 C 
ATOM     20  C   UNL     1      21.660  -9.380  35.458  1.00  0.00     0.004 C 
ENDBRANCH  18  19
ENDBRANCH  17  18
ENDBRANCH  16  17
ENDBRANCH  15  16
ENDBRANCH  14  15
ENDBRANCH  13  14
ENDBRANCH  12  13
ENDBRANCH   1  12
TORSDOF 16
ENDMDL
MODEL 7
REMARK VINA RESULT:    -3.504      2.272      7.079
REMARK INTER + INTRA:          -8.343
REMARK INTER:                  -6.464
REMARK INTRA:                  -1.880
REMARK UNBOUND:                -1.562
REMARK SMILES CCCCCCCCCCCCCCCCCC(=O)[O-]
REMARK SMILES IDX 10 1 11 2 12 3 13 4 14 5 15 6 16 7 17 8 18 9 19 10 20 11
REMARK SMILES IDX 9 12 8 13 7 14 6 15 5 16 4 17 3 18 2 19 1 20
REMARK H PARENT
REMARK Flexibility Score: inf
ROOT
ATOM      1  C   UNL     1      26.297  -9.264  30.900  1.00  0.00     0.000 C 
ENDROOT
BRANCH   1   2
ATOM      2  C   UNL     1      27.740  -9.799  30.908  1.00  0.00     0.000 C 
BRANCH   2   3
ATOM      3  C   UNL     1      28.145 -10.440  29.573  1.00  0.00     0.000 C 
BRANCH   3   4
ATOM      4  C   UNL     1      29.307 -11.422  29.766  1.00  0.00     0.000 C 
BRANCH   4   5
ATOM      5  C   UNL     1      30.040 -11.156  31.086  1.00  0.00     0.000 C 
BRANCH   5   6
ATOM      6  C   UNL     1      31.549 -10.991  30.854  1.00  0.00     0.000 C 
BRANCH   6   7
ATOM      7  C   UNL     1      32.120  -9.722  31.513  1.00  0.00     0.006 C 
BRANCH   7   8
ATOM      8  C   UNL     1      31.220  -8.482  31.382  1.00  0.00     0.053 C 
BRANCH   8   9
ATOM      9  C   UNL     1      30.882  -7.892  32.716  1.00  0.00     0.041 C 
ATOM     10  O   UNL     1      31.494  -8.267  33.750  1.00  0.00    -0.550 OA
ATOM     11  O   UNL     1      29.911  -6.903  32.812  1.00  0.00    -0.550 OA
ENDBRANCH   8   9
ENDBRANCH   7   8
ENDBRANCH   6   7
ENDBRANCH   5   6
ENDBRANCH   4   5
ENDBRANCH   3   4
ENDBRANCH   2   3
ENDBRANCH   1   2
BRANCH   1  12
ATOM     12  C   UNL     1      25.707  -9.005  29.499  1.00  0.00     0.000 C 
BRANCH  12  13
ATOM     13  C   UNL     1      24.469  -8.087  29.467  1.00  0.00    -0.000 C 
BRANCH  13  14
ATOM     14  C   UNL     1      23.120  -8.823  29.372  1.00  0.00    -0.000 C 
BRANCH  14  15
ATOM     15  C   UNL     1      22.544  -9.188  30.750  1.00  0.00    -0.000 C 
BRANCH  15  16
ATOM     16  C   UNL     1      22.815 -10.651  31.134  1.00  0.00    -0.000 C 
BRANCH  16  17
ATOM     17  C   UNL     1      22.866 -10.863  32.654  1.00  0.00    -0.000 C 
BRANCH  17  18
ATOM     18  C   UNL     1      23.592  -9.703  33.347  1.00  0.00    -0.000 C 
BRANCH  18  19
ATOM     19  C   UNL     1      24.715 -10.220  34.254  1.00  0.00    -0.003 C 
ATOM     20  C   UNL     1      25.288 -11.532  33.727  1.00  0.00     0.004 C 
ENDBRANCH  18  19
ENDBRANCH  17  18
ENDBRANCH  16  17
ENDBRANCH  15  16
ENDBRANCH  14  15
ENDBRANCH  13  14
ENDBRANCH  12  13
ENDBRANCH   1  12
TORSDOF 16
ENDMDL
MODEL 8
REMARK VINA RESULT:    -3.466     15.934     17.918
REMARK INTER + INTRA:          -8.271
REMARK INTER:                  -6.845
REMARK INTRA:                  -1.426
REMARK UNBOUND:                -1.562
REMARK SMILES CCCCCCCCCCCCCCCCCC(=O)[O-]
REMARK SMILES IDX 10 1 11 2 12 3 13 4 14 5 15 6 16 7 17 8 18 9 19 10 20 11
REMARK SMILES IDX 9 12 8 13 7 14 6 15 5 16 4 17 3 18 2 19 1 20
REMARK H PARENT
REMARK Flexibility Score: inf
ROOT
ATOM      1  C   UNL     1      22.178   1.510  41.913  1.00  0.00     0.000 C 
ENDROOT
BRANCH   1   2
ATOM      2  C   UNL     1      22.874   2.879  42.019  1.00  0.00     0.000 C 
BRANCH   2   3
ATOM      3  C   UNL     1      22.163   3.835  42.988  1.00  0.00     0.000 C 
BRANCH   3   4
ATOM      4  C   UNL     1      21.002   3.131  43.700  1.00  0.00     0.000 C 
BRANCH   4   5
ATOM      5  C   UNL     1      19.951   4.142  44.174  1.00  0.00     0.000 C 
BRANCH   5   6
ATOM      6  C   UNL     1      20.618   5.425  44.694  1.00  0.00     0.000 C 
BRANCH   6   7
ATOM      7  C   UNL     1      19.980   5.943  45.996  1.00  0.00     0.006 C 
BRANCH   7   8
ATOM      8  C   UNL     1      20.946   6.010  47.190  1.00  0.00     0.053 C 
BRANCH   8   9
ATOM      9  C   UNL     1      21.644   4.704  47.419  1.00  0.00     0.041 C 
ATOM     10  O   UNL     1      22.902   4.653  47.448  1.00  0.00    -0.550 OA
ATOM     11  O   UNL     1      20.903   3.548  47.632  1.00  0.00    -0.550 OA
ENDBRANCH   8   9
ENDBRANCH   7   8
ENDBRANCH   6   7
ENDBRANCH   5   6
ENDBRANCH   4   5
ENDBRANCH   3   4
ENDBRANCH   2   3
ENDBRANCH   1   2
BRANCH   1  12
ATOM     12  C   UNL     1      22.439   0.748  40.598  1.00  0.00     0.000 C 
BRANCH  12  13
ATOM     13  C   UNL     1      21.313  -0.209  40.159  1.00  0.00    -0.000 C 
BRANCH  13  14
ATOM     14  C   UNL     1      21.612  -1.703  40.381  1.00  0.00    -0.000 C 
BRANCH  14  15
ATOM     15  C   UNL     1      22.904  -1.938  41.181  1.00  0.00    -0.000 C 
BRANCH  15  16
ATOM     16  C   UNL     1      22.642  -2.588  42.548  1.00  0.00    -0.000 C 
BRANCH  16  17
ATOM     17  C   UNL     1      21.187  -2.419  43.013  1.00  0.00    -0.000 C 
BRANCH  17  18
ATOM     18  C   UNL     1      21.051  -1.232  43.974  1.00  0.00    -0.000 C 
BRANCH  18  19
ATOM     19  C   UNL     1      20.798  -1.712  45.408  1.00  0.00    -0.003 C 
ATOM     20  C   UNL     1      22.007  -2.463  45.960  1.00  0.00     0.004 C 
ENDBRANCH  18  19
ENDBRANCH  17  18
ENDBRANCH  16  17
ENDBRANCH  15  16
ENDBRANCH  14  15
ENDBRANCH  13  14
ENDBRANCH  12  13
ENDBRANCH   1  12
TORSDOF 16
ENDMDL
MODEL 9
REMARK VINA RESULT:    -3.459      1.503      2.131
REMARK INTER + INTRA:          -8.256
REMARK INTER:                  -7.010
REMARK INTRA:                  -1.246
REMARK UNBOUND:                -1.562
REMARK SMILES CCCCCCCCCCCCCCCCCC(=O)[O-]
REMARK SMILES IDX 10 1 11 2 12 3 13 4 14 5 15 6 16 7 17 8 18 9 19 10 20 11
REMARK SMILES IDX 9 12 8 13 7 14 6 15 5 16 4 17 3 18 2 19 1 20
REMARK H PARENT
REMARK Flexibility Score: inf
ROOT
ATOM      1  C   UNL     1      27.268  -9.621  30.589  1.00  0.00     0.000 C 
ENDROOT
BRANCH   1   2
ATOM      2  C   UNL     1      26.196  -9.157  29.587  1.00  0.00     0.000 C 
BRANCH   2   3
ATOM      3  C   UNL     1      24.794  -9.678  29.933  1.00  0.00     0.000 C 
BRANCH   3   4
ATOM      4  C   UNL     1      24.070  -8.717  30.884  1.00  0.00     0.000 C 
BRANCH   4   5
ATOM      5  C   UNL     1      23.696  -9.418  32.196  1.00  0.00     0.000 C 
BRANCH   5   6
ATOM      6  C   UNL     1      24.686  -9.057  33.314  1.00  0.00     0.000 C 
BRANCH   6   7
ATOM      7  C   UNL     1      24.695 -10.086  34.459  1.00  0.00     0.006 C 
BRANCH   7   8
ATOM      8  C   UNL     1      23.572 -11.133  34.377  1.00  0.00     0.053 C 
BRANCH   8   9
ATOM      9  C   UNL     1      22.513 -10.902  35.410  1.00  0.00     0.041 C 
ATOM     10  O   UNL     1      22.735 -11.176  36.619  1.00  0.00    -0.550 OA
ATOM     11  O   UNL     1      21.291 -10.354  35.042  1.00  0.00    -0.550 OA
ENDBRANCH   8   9
ENDBRANCH   7   8
ENDBRANCH   6   7
ENDBRANCH   5   6
ENDBRANCH   4   5
ENDBRANCH   3   4
ENDBRANCH   2   3
ENDBRANCH   1   2
BRANCH   1  12
ATOM     12  C   UNL     1      28.210 -10.725  30.069  1.00  0.00     0.000 C 
BRANCH  12  13
ATOM     13  C   UNL     1      29.253 -11.232  31.085  1.00  0.00    -0.000 C 
BRANCH  13  14
ATOM     14  C   UNL     1      30.635 -11.552  30.487  1.00  0.00    -0.000 C 
BRANCH  14  15
ATOM     15  C   UNL     1      31.723 -10.566  30.943  1.00  0.00    -0.000 C 
BRANCH  15  16
ATOM     16  C   UNL     1      31.235  -9.620  32.050  1.00  0.00    -0.000 C 
BRANCH  16  17
ATOM     17  C   UNL     1      31.260  -8.145  31.620  1.00  0.00    -0.000 C 
BRANCH  17  18
ATOM     18  C   UNL     1      31.495  -7.226  32.825  1.00  0.00    -0.000 C 
BRANCH  18  19
ATOM     19  C   UNL     1      31.884  -8.035  34.068  1.00  0.00    -0.003 C 
ATOM     20  C   UNL     1      32.932  -7.299  34.898  1.00  0.00     0.004 C 
ENDBRANCH  18  19
ENDBRANCH  17  18
ENDBRANCH  16  17
ENDBRANCH  15  16
ENDBRANCH  14  15
ENDBRANCH  13  14
ENDBRANCH  12  13
ENDBRANCH   1  12
TORSDOF 16
ENDMDL
