MODEL 1
REMARK VINA RESULT:    -6.605      0.000      0.000
REMARK INTER + INTRA:         -11.209
REMARK INTER:                  -9.694
REMARK INTRA:                  -1.514
REMARK UNBOUND:                -1.514
REMARK SMILES O=c1c(O[C@@H]2O[C@H](CO)[C@@H](O)[C@@H](O)[C@H]2O)c(-c2ccc(O)c(O)c2)oc2cc(O)cc(O)c12
REMARK SMILES IDX 4 1 3 2 16 3 25 4 2 5 26 6 1 7 33 8 27 9 31 10 28 11 30 12
REMARK SMILES IDX 17 13 18 14 19 15 20 16 24 17 22 18 21 19 23 21 32 23 29 25
REMARK SMILES IDX 5 27 14 28 6 29 12 30 7 31 10 32 15 33 13 35 8 37 9 38 11 40
REMARK H PARENT 21 20 23 22 32 24 29 26 15 34 13 36 9 39 11 41
REMARK Flexibility Score: inf
ROOT
ATOM      1  O   UNL     1      -4.379 -39.091 -29.797  1.00  0.00    -0.454 OA
ENDROOT
BRANCH   1   2
ATOM      2  C   UNL     1      -5.404 -38.301 -30.355  1.00  0.00     0.214 A 
ATOM      3  C   UNL     1      -5.632 -38.395 -31.753  1.00  0.00     0.180 A 
ATOM      4  O   UNL     1      -6.586 -37.665 -32.323  1.00  0.00    -0.452 OA
ATOM      5  C   UNL     1      -6.211 -37.420 -29.608  1.00  0.00     0.239 A 
ATOM      6  C   UNL     1      -7.380 -36.843 -31.648  1.00  0.00     0.146 A 
ATOM      7  O   UNL     1      -6.017 -37.271 -28.372  1.00  0.00    -0.285 OA
ATOM      8  C   UNL     1      -7.233 -36.685 -30.250  1.00  0.00     0.111 A 
ATOM      9  C   UNL     1      -8.356 -36.121 -32.339  1.00  0.00     0.094 A 
ATOM     10  C   UNL     1      -8.089 -35.787 -29.565  1.00  0.00     0.134 A 
ATOM     11  C   UNL     1      -9.182 -35.218 -31.664  1.00  0.00     0.123 A 
ATOM     12  C   UNL     1      -9.047 -35.058 -30.281  1.00  0.00     0.093 A 
BRANCH   3  13
ATOM     13  C   UNL     1      -4.781 -39.241 -32.628  1.00  0.00     0.025 A 
ATOM     14  C   UNL     1      -5.355 -40.325 -33.307  1.00  0.00     0.016 A 
ATOM     15  C   UNL     1      -4.625 -41.030 -34.267  1.00  0.00     0.051 A 
ATOM     16  C   UNL     1      -3.310 -40.652 -34.575  1.00  0.00     0.157 A 
ATOM     17  C   UNL     1      -3.432 -38.921 -32.878  1.00  0.00     0.062 A 
ATOM     18  C   UNL     1      -2.706 -39.608 -33.863  1.00  0.00     0.158 A 
BRANCH  16  19
ATOM     19  O   UNL     1      -2.597 -41.315 -35.574  1.00  0.00    -0.504 OA
ATOM     20  H   UNL     1      -2.789 -42.286 -35.810  1.00  0.00     0.293 HD
ENDBRANCH  16  19
BRANCH  18  21
ATOM     21  O   UNL     1      -1.394 -39.231 -34.159  1.00  0.00    -0.504 OA
ATOM     22  H   UNL     1      -0.634 -39.422 -33.520  1.00  0.00     0.293 HD
ENDBRANCH  18  21
ENDBRANCH   3  13
BRANCH  10  23
ATOM     23  O   UNL     1      -7.987 -35.601 -28.189  1.00  0.00    -0.507 OA
ATOM     24  H   UNL     1      -8.406 -34.811 -27.724  1.00  0.00     0.293 HD
ENDBRANCH  10  23
BRANCH  11  25
ATOM     25  O   UNL     1     -10.131 -34.489 -32.372  1.00  0.00    -0.508 OA
ATOM     26  H   UNL     1     -11.099 -34.466 -32.082  1.00  0.00     0.293 HD
ENDBRANCH  11  25
ENDBRANCH   1   2
BRANCH   1  27
ATOM     27  C   UNL     1      -4.441 -40.153 -28.847  1.00  0.00     0.339 C 
ATOM     28  C   UNL     1      -4.896 -41.436 -29.559  1.00  0.00     0.214 C 
ATOM     29  O   UNL     1      -3.206 -40.309 -28.150  1.00  0.00    -0.332 OA
ATOM     30  C   UNL     1      -3.796 -41.919 -30.515  1.00  0.00     0.180 C 
ATOM     31  C   UNL     1      -2.128 -40.843 -28.927  1.00  0.00     0.179 C 
ATOM     32  C   UNL     1      -2.495 -42.116 -29.744  1.00  0.00     0.177 C 
BRANCH  28  33
ATOM     33  O   UNL     1      -5.195 -42.412 -28.590  1.00  0.00    -0.384 OA
ATOM     34  H   UNL     1      -4.813 -42.089 -27.729  1.00  0.00     0.211 HD
ENDBRANCH  28  33
BRANCH  30  35
ATOM     35  O   UNL     1      -4.183 -43.109 -31.148  1.00  0.00    -0.387 OA
ATOM     36  H   UNL     1      -4.888 -42.870 -31.807  1.00  0.00     0.211 HD
ENDBRANCH  30  35
BRANCH  31  37
ATOM     37  C   UNL     1      -1.433 -39.762 -29.779  1.00  0.00     0.191 C 
BRANCH  37  38
ATOM     38  O   UNL     1      -1.470 -38.521 -29.122  1.00  0.00    -0.394 OA
ATOM     39  H   UNL     1      -1.366 -37.819 -29.820  1.00  0.00     0.210 HD
ENDBRANCH  37  38
ENDBRANCH  31  37
BRANCH  32  40
ATOM     40  O   UNL     1      -2.616 -43.216 -28.873  1.00  0.00    -0.387 OA
ATOM     41  H   UNL     1      -3.043 -43.949 -29.394  1.00  0.00     0.211 HD
ENDBRANCH  32  40
ENDBRANCH   1  27
TORSDOF 12
ENDMDL
MODEL 2
REMARK VINA RESULT:    -6.478      4.402      5.960
REMARK INTER + INTRA:         -11.021
REMARK INTER:                  -9.534
REMARK INTRA:                  -1.487
REMARK UNBOUND:                -1.514
REMARK SMILES O=c1c(O[C@@H]2O[C@H](CO)[C@@H](O)[C@@H](O)[C@H]2O)c(-c2ccc(O)c(O)c2)oc2cc(O)cc(O)c12
REMARK SMILES IDX 4 1 3 2 16 3 25 4 2 5 26 6 1 7 33 8 27 9 31 10 28 11 30 12
REMARK SMILES IDX 17 13 18 14 19 15 20 16 24 17 22 18 21 19 23 21 32 23 29 25
REMARK SMILES IDX 5 27 14 28 6 29 12 30 7 31 10 32 15 33 13 35 8 37 9 38 11 40
REMARK H PARENT 21 20 23 22 32 24 29 26 15 34 13 36 9 39 11 41
REMARK Flexibility Score: inf
ROOT
ATOM      1  O   UNL     1      -1.020 -39.240 -32.148  1.00  0.00    -0.454 OA
ENDROOT
BRANCH   1   2
ATOM      2  C   UNL     1      -2.094 -39.978 -32.686  1.00  0.00     0.214 A 
ATOM      3  C   UNL     1      -2.218 -40.042 -34.098  1.00  0.00     0.180 A 
ATOM      4  O   UNL     1      -3.217 -40.723 -34.649  1.00  0.00    -0.452 OA
ATOM      5  C   UNL     1      -3.054 -40.651 -31.903  1.00  0.00     0.239 A 
ATOM      6  C   UNL     1      -4.125 -41.388 -33.945  1.00  0.00     0.146 A 
ATOM      7  O   UNL     1      -3.009 -40.586 -30.646  1.00  0.00    -0.285 OA
ATOM      8  C   UNL     1      -4.083 -41.388 -32.531  1.00  0.00     0.111 A 
ATOM      9  C   UNL     1      -5.137 -42.077 -34.619  1.00  0.00     0.094 A 
ATOM     10  C   UNL     1      -5.078 -42.095 -31.812  1.00  0.00     0.134 A 
ATOM     11  C   UNL     1      -6.131 -42.753 -33.907  1.00  0.00     0.123 A 
ATOM     12  C   UNL     1      -6.095 -42.763 -32.508  1.00  0.00     0.093 A 
BRANCH   3  13
ATOM     13  C   UNL     1      -1.295 -39.303 -34.997  1.00  0.00     0.025 A 
ATOM     14  C   UNL     1      -0.196 -39.971 -35.556  1.00  0.00     0.016 A 
ATOM     15  C   UNL     1       0.586 -39.356 -36.537  1.00  0.00     0.051 A 
ATOM     16  C   UNL     1       0.272 -38.065 -36.987  1.00  0.00     0.157 A 
ATOM     17  C   UNL     1      -1.553 -37.975 -35.389  1.00  0.00     0.062 A 
ATOM     18  C   UNL     1      -0.788 -37.366 -36.396  1.00  0.00     0.158 A 
BRANCH  16  19
ATOM     19  O   UNL     1       1.013 -37.469 -38.007  1.00  0.00    -0.504 OA
ATOM     20  H   UNL     1       1.212 -37.959 -38.877  1.00  0.00     0.293 HD
ENDBRANCH  16  19
BRANCH  18  21
ATOM     21  O   UNL     1      -1.102 -36.077 -36.833  1.00  0.00    -0.504 OA
ATOM     22  H   UNL     1      -1.889 -35.568 -36.454  1.00  0.00     0.293 HD
ENDBRANCH  18  21
ENDBRANCH   3  13
BRANCH  10  23
ATOM     23  O   UNL     1      -5.076 -42.130 -30.421  1.00  0.00    -0.507 OA
ATOM     24  H   UNL     1      -5.886 -42.412 -29.892  1.00  0.00     0.293 HD
ENDBRANCH  10  23
BRANCH  11  25
ATOM     25  O   UNL     1      -7.145 -43.413 -34.593  1.00  0.00    -0.508 OA
ATOM     26  H   UNL     1      -7.164 -44.421 -34.659  1.00  0.00     0.293 HD
ENDBRANCH  11  25
ENDBRANCH   1   2
BRANCH   1  27
ATOM     27  C   UNL     1      -0.065 -39.590 -31.149  1.00  0.00     0.339 C 
ATOM     28  C   UNL     1       0.600 -40.920 -31.534  1.00  0.00     0.214 C 
ATOM     29  O   UNL     1       0.876 -38.540 -30.929  1.00  0.00    -0.332 OA
ATOM     30  C   UNL     1       1.483 -40.722 -32.774  1.00  0.00     0.180 C 
ATOM     31  C   UNL     1       1.815 -38.326 -31.990  1.00  0.00     0.179 C 
ATOM     32  C   UNL     1       2.506 -39.622 -32.505  1.00  0.00     0.177 C 
BRANCH  28  33
ATOM     33  O   UNL     1       1.352 -41.387 -30.440  1.00  0.00    -0.384 OA
ATOM     34  H   UNL     1       1.321 -40.674 -29.745  1.00  0.00     0.211 HD
ENDBRANCH  28  33
BRANCH  30  35
ATOM     35  O   UNL     1       2.123 -41.921 -33.118  1.00  0.00    -0.387 OA
ATOM     36  H   UNL     1       1.871 -42.591 -32.430  1.00  0.00     0.211 HD
ENDBRANCH  30  35
BRANCH  31  37
ATOM     37  C   UNL     1       1.223 -37.468 -33.126  1.00  0.00     0.191 C 
BRANCH  37  38
ATOM     38  O   UNL     1       0.272 -36.567 -32.617  1.00  0.00    -0.394 OA
ATOM     39  H   UNL     1       0.049 -36.868 -31.695  1.00  0.00     0.210 HD
ENDBRANCH  37  38
ENDBRANCH  31  37
BRANCH  32  40
ATOM     40  O   UNL     1       3.446 -40.064 -31.555  1.00  0.00    -0.387 OA
ATOM     41  H   UNL     1       3.500 -41.054 -31.643  1.00  0.00     0.211 HD
ENDBRANCH  32  40
ENDBRANCH   1  27
TORSDOF 12
ENDMDL
MODEL 3
REMARK VINA RESULT:    -6.062      4.354      6.197
REMARK INTER + INTRA:         -10.412
REMARK INTER:                  -8.519
REMARK INTRA:                  -1.892
REMARK UNBOUND:                -1.514
REMARK SMILES O=c1c(O[C@@H]2O[C@H](CO)[C@@H](O)[C@@H](O)[C@H]2O)c(-c2ccc(O)c(O)c2)oc2cc(O)cc(O)c12
REMARK SMILES IDX 4 1 3 2 16 3 25 4 2 5 26 6 1 7 33 8 27 9 31 10 28 11 30 12
REMARK SMILES IDX 17 13 18 14 19 15 20 16 24 17 22 18 21 19 23 21 32 23 29 25
REMARK SMILES IDX 5 27 14 28 6 29 12 30 7 31 10 32 15 33 13 35 8 37 9 38 11 40
REMARK H PARENT 21 20 23 22 32 24 29 26 15 34 13 36 9 39 11 41
REMARK Flexibility Score: inf
ROOT
ATOM      1  O   UNL     1      -1.204 -39.244 -32.602  1.00  0.00    -0.454 OA
ENDROOT
BRANCH   1   2
ATOM      2  C   UNL     1      -2.297 -40.024 -33.031  1.00  0.00     0.214 A 
ATOM      3  C   UNL     1      -2.520 -40.147 -34.427  1.00  0.00     0.180 A 
ATOM      4  O   UNL     1      -3.540 -40.869 -34.878  1.00  0.00    -0.452 OA
ATOM      5  C   UNL     1      -3.182 -40.684 -32.156  1.00  0.00     0.239 A 
ATOM      6  C   UNL     1      -4.381 -41.523 -34.085  1.00  0.00     0.146 A 
ATOM      7  O   UNL     1      -3.050 -40.568 -30.909  1.00  0.00    -0.285 OA
ATOM      8  C   UNL     1      -4.237 -41.466 -32.679  1.00  0.00     0.111 A 
ATOM      9  C   UNL     1      -5.423 -42.258 -34.657  1.00  0.00     0.094 A 
ATOM     10  C   UNL     1      -5.162 -42.163 -31.863  1.00  0.00     0.134 A 
ATOM     11  C   UNL     1      -6.347 -42.925 -33.849  1.00  0.00     0.123 A 
ATOM     12  C   UNL     1      -6.211 -42.878 -32.457  1.00  0.00     0.093 A 
BRANCH   3  13
ATOM     13  C   UNL     1      -1.681 -39.426 -35.419  1.00  0.00     0.025 A 
ATOM     14  C   UNL     1      -1.795 -38.033 -35.535  1.00  0.00     0.016 A 
ATOM     15  C   UNL     1      -0.902 -37.310 -36.329  1.00  0.00     0.051 A 
ATOM     16  C   UNL     1       0.133 -37.969 -37.010  1.00  0.00     0.157 A 
ATOM     17  C   UNL     1      -0.695 -40.091 -36.174  1.00  0.00     0.062 A 
ATOM     18  C   UNL     1       0.222 -39.365 -36.949  1.00  0.00     0.158 A 
BRANCH  16  19
ATOM     19  O   UNL     1       1.063 -37.246 -37.758  1.00  0.00    -0.504 OA
ATOM     20  H   UNL     1       2.041 -37.190 -37.481  1.00  0.00     0.293 HD
ENDBRANCH  16  19
BRANCH  18  21
ATOM     21  O   UNL     1       1.244 -40.028 -37.630  1.00  0.00    -0.504 OA
ATOM     22  H   UNL     1       1.339 -41.034 -37.591  1.00  0.00     0.293 HD
ENDBRANCH  18  21
ENDBRANCH   3  13
BRANCH  10  23
ATOM     23  O   UNL     1      -5.060 -42.142 -30.476  1.00  0.00    -0.507 OA
ATOM     24  H   UNL     1      -5.368 -41.353 -29.928  1.00  0.00     0.293 HD
ENDBRANCH  10  23
BRANCH  11  25
ATOM     25  O   UNL     1      -7.392 -43.631 -34.434  1.00  0.00    -0.508 OA
ATOM     26  H   UNL     1      -7.413 -44.641 -34.425  1.00  0.00     0.293 HD
ENDBRANCH  11  25
ENDBRANCH   1   2
BRANCH   1  27
ATOM     27  C   UNL     1       0.110 -39.630 -32.205  1.00  0.00     0.339 C 
ATOM     28  C   UNL     1       1.132 -38.961 -33.136  1.00  0.00     0.214 C 
ATOM     29  O   UNL     1       0.346 -39.354 -30.825  1.00  0.00    -0.332 OA
ATOM     30  C   UNL     1       1.149 -37.446 -32.887  1.00  0.00     0.180 C 
ATOM     31  C   UNL     1       0.473 -37.966 -30.492  1.00  0.00     0.179 C 
ATOM     32  C   UNL     1       1.441 -37.170 -31.415  1.00  0.00     0.177 C 
BRANCH  28  33
ATOM     33  O   UNL     1       2.398 -39.530 -32.906  1.00  0.00    -0.384 OA
ATOM     34  H   UNL     1       2.814 -39.676 -33.800  1.00  0.00     0.211 HD
ENDBRANCH  28  33
BRANCH  30  35
ATOM     35  O   UNL     1       2.102 -36.824 -33.706  1.00  0.00    -0.387 OA
ATOM     36  H   UNL     1       2.866 -37.453 -33.790  1.00  0.00     0.211 HD
ENDBRANCH  30  35
BRANCH  31  37
ATOM     37  C   UNL     1      -0.898 -37.281 -30.326  1.00  0.00     0.191 C 
BRANCH  37  38
ATOM     38  O   UNL     1      -1.853 -38.199 -29.859  1.00  0.00    -0.394 OA
ATOM     39  H   UNL     1      -1.580 -38.461 -28.938  1.00  0.00     0.210 HD
ENDBRANCH  37  38
ENDBRANCH  31  37
BRANCH  32  40
ATOM     40  O   UNL     1       2.771 -37.522 -31.116  1.00  0.00    -0.387 OA
ATOM     41  H   UNL     1       3.249 -37.605 -31.986  1.00  0.00     0.211 HD
ENDBRANCH  32  40
ENDBRANCH   1  27
TORSDOF 12
ENDMDL
MODEL 4
REMARK VINA RESULT:    -5.981      2.482      6.707
REMARK INTER + INTRA:         -10.293
REMARK INTER:                  -9.289
REMARK INTRA:                  -1.004
REMARK UNBOUND:                -1.514
REMARK SMILES O=c1c(O[C@@H]2O[C@H](CO)[C@@H](O)[C@@H](O)[C@H]2O)c(-c2ccc(O)c(O)c2)oc2cc(O)cc(O)c12
REMARK SMILES IDX 4 1 3 2 16 3 25 4 2 5 26 6 1 7 33 8 27 9 31 10 28 11 30 12
REMARK SMILES IDX 17 13 18 14 19 15 20 16 24 17 22 18 21 19 23 21 32 23 29 25
REMARK SMILES IDX 5 27 14 28 6 29 12 30 7 31 10 32 15 33 13 35 8 37 9 38 11 40
REMARK H PARENT 21 20 23 22 32 24 29 26 15 34 13 36 9 39 11 41
REMARK Flexibility Score: inf
ROOT
ATOM      1  O   UNL     1      -3.548 -38.552 -32.208  1.00  0.00    -0.454 OA
ENDROOT
BRANCH   1   2
ATOM      2  C   UNL     1      -2.711 -38.904 -33.286  1.00  0.00     0.214 A 
ATOM      3  C   UNL     1      -3.018 -40.085 -34.009  1.00  0.00     0.180 A 
ATOM      4  O   UNL     1      -2.255 -40.458 -35.031  1.00  0.00    -0.452 OA
ATOM      5  C   UNL     1      -1.586 -38.155 -33.682  1.00  0.00     0.239 A 
ATOM      6  C   UNL     1      -1.200 -39.766 -35.447  1.00  0.00     0.146 A 
ATOM      7  O   UNL     1      -1.249 -37.124 -33.043  1.00  0.00    -0.285 OA
ATOM      8  C   UNL     1      -0.818 -38.572 -34.793  1.00  0.00     0.111 A 
ATOM      9  C   UNL     1      -0.462 -40.242 -36.534  1.00  0.00     0.094 A 
ATOM     10  C   UNL     1       0.322 -37.869 -35.255  1.00  0.00     0.134 A 
ATOM     11  C   UNL     1       0.675 -39.558 -36.972  1.00  0.00     0.123 A 
ATOM     12  C   UNL     1       1.060 -38.373 -36.334  1.00  0.00     0.093 A 
BRANCH   3  13
ATOM     13  C   UNL     1      -4.141 -40.973 -33.615  1.00  0.00     0.025 A 
ATOM     14  C   UNL     1      -4.691 -41.851 -34.561  1.00  0.00     0.016 A 
ATOM     15  C   UNL     1      -5.625 -42.816 -34.178  1.00  0.00     0.051 A 
ATOM     16  C   UNL     1      -6.015 -42.930 -32.835  1.00  0.00     0.157 A 
ATOM     17  C   UNL     1      -4.601 -41.035 -32.285  1.00  0.00     0.062 A 
ATOM     18  C   UNL     1      -5.516 -42.023 -31.891  1.00  0.00     0.158 A 
BRANCH  16  19
ATOM     19  O   UNL     1      -6.902 -43.930 -32.436  1.00  0.00    -0.504 OA
ATOM     20  H   UNL     1      -7.903 -43.757 -32.368  1.00  0.00     0.293 HD
ENDBRANCH  16  19
BRANCH  18  21
ATOM     21  O   UNL     1      -5.906 -42.126 -30.554  1.00  0.00    -0.504 OA
ATOM     22  H   UNL     1      -5.751 -41.371 -29.899  1.00  0.00     0.293 HD
ENDBRANCH  18  21
ENDBRANCH   3  13
BRANCH  10  23
ATOM     23  O   UNL     1       0.735 -36.687 -34.648  1.00  0.00    -0.507 OA
ATOM     24  H   UNL     1       1.507 -36.659 -34.000  1.00  0.00     0.293 HD
ENDBRANCH  10  23
BRANCH  11  25
ATOM     25  O   UNL     1       1.414 -40.058 -38.039  1.00  0.00    -0.508 OA
ATOM     26  H   UNL     1       1.986 -40.884 -37.941  1.00  0.00     0.293 HD
ENDBRANCH  11  25
ENDBRANCH   1   2
BRANCH   1  27
ATOM     27  C   UNL     1      -4.327 -37.378 -31.985  1.00  0.00     0.339 C 
ATOM     28  C   UNL     1      -5.716 -37.787 -31.471  1.00  0.00     0.214 C 
ATOM     29  O   UNL     1      -3.660 -36.459 -31.121  1.00  0.00    -0.332 OA
ATOM     30  C   UNL     1      -5.596 -38.371 -30.056  1.00  0.00     0.180 C 
ATOM     31  C   UNL     1      -3.572 -36.863 -29.749  1.00  0.00     0.179 C 
ATOM     32  C   UNL     1      -4.915 -37.360 -29.139  1.00  0.00     0.177 C 
BRANCH  28  33
ATOM     33  O   UNL     1      -6.558 -36.661 -31.488  1.00  0.00    -0.384 OA
ATOM     34  H   UNL     1      -7.475 -36.991 -31.694  1.00  0.00     0.211 HD
ENDBRANCH  28  33
BRANCH  30  35
ATOM     35  O   UNL     1      -6.860 -38.719 -29.559  1.00  0.00    -0.387 OA
ATOM     36  H   UNL     1      -7.462 -37.950 -29.738  1.00  0.00     0.211 HD
ENDBRANCH  30  35
BRANCH  31  37
ATOM     37  C   UNL     1      -2.403 -37.838 -29.505  1.00  0.00     0.191 C 
BRANCH  37  38
ATOM     38  O   UNL     1      -1.280 -37.458 -30.258  1.00  0.00    -0.394 OA
ATOM     39  H   UNL     1      -1.559 -37.448 -31.213  1.00  0.00     0.210 HD
ENDBRANCH  37  38
ENDBRANCH  31  37
BRANCH  32  40
ATOM     40  O   UNL     1      -5.767 -36.261 -28.921  1.00  0.00    -0.387 OA
ATOM     41  H   UNL     1      -6.351 -36.186 -29.724  1.00  0.00     0.211 HD
ENDBRANCH  32  40
ENDBRANCH   1  27
TORSDOF 12
ENDMDL
MODEL 5
REMARK VINA RESULT:    -5.700      1.634      2.146
REMARK INTER + INTRA:          -9.880
REMARK INTER:                  -8.191
REMARK INTRA:                  -1.688
REMARK UNBOUND:                -1.514
REMARK SMILES O=c1c(O[C@@H]2O[C@H](CO)[C@@H](O)[C@@H](O)[C@H]2O)c(-c2ccc(O)c(O)c2)oc2cc(O)cc(O)c12
REMARK SMILES IDX 4 1 3 2 16 3 25 4 2 5 26 6 1 7 33 8 27 9 31 10 28 11 30 12
REMARK SMILES IDX 17 13 18 14 19 15 20 16 24 17 22 18 21 19 23 21 32 23 29 25
REMARK SMILES IDX 5 27 14 28 6 29 12 30 7 31 10 32 15 33 13 35 8 37 9 38 11 40
REMARK H PARENT 21 20 23 22 32 24 29 26 15 34 13 36 9 39 11 41
REMARK Flexibility Score: inf
ROOT
ATOM      1  O   UNL     1      -3.301 -38.840 -30.464  1.00  0.00    -0.454 OA
ENDROOT
BRANCH   1   2
ATOM      2  C   UNL     1      -4.497 -38.175 -30.801  1.00  0.00     0.214 A 
ATOM      3  C   UNL     1      -5.313 -38.744 -31.814  1.00  0.00     0.180 A 
ATOM      4  O   UNL     1      -6.448 -38.150 -32.168  1.00  0.00    -0.452 OA
ATOM      5  C   UNL     1      -4.927 -36.977 -30.197  1.00  0.00     0.239 A 
ATOM      6  C   UNL     1      -6.895 -37.034 -31.605  1.00  0.00     0.146 A 
ATOM      7  O   UNL     1      -4.215 -36.413 -29.325  1.00  0.00    -0.285 OA
ATOM      8  C   UNL     1      -6.155 -36.395 -30.584  1.00  0.00     0.111 A 
ATOM      9  C   UNL     1      -8.103 -36.487 -32.047  1.00  0.00     0.094 A 
ATOM     10  C   UNL     1      -6.656 -35.196 -30.017  1.00  0.00     0.134 A 
ATOM     11  C   UNL     1      -8.582 -35.293 -31.502  1.00  0.00     0.123 A 
ATOM     12  C   UNL     1      -7.859 -34.655 -30.488  1.00  0.00     0.093 A 
BRANCH   3  13
ATOM     13  C   UNL     1      -4.901 -39.964 -32.555  1.00  0.00     0.025 A 
ATOM     14  C   UNL     1      -5.356 -41.219 -32.123  1.00  0.00     0.016 A 
ATOM     15  C   UNL     1      -5.131 -42.361 -32.895  1.00  0.00     0.051 A 
ATOM     16  C   UNL     1      -4.459 -42.265 -34.123  1.00  0.00     0.157 A 
ATOM     17  C   UNL     1      -4.151 -39.887 -33.745  1.00  0.00     0.062 A 
ATOM     18  C   UNL     1      -3.950 -41.028 -34.537  1.00  0.00     0.158 A 
BRANCH  16  19
ATOM     19  O   UNL     1      -4.284 -43.392 -34.925  1.00  0.00    -0.504 OA
ATOM     20  H   UNL     1      -3.674 -43.376 -35.740  1.00  0.00     0.293 HD
ENDBRANCH  16  19
BRANCH  18  21
ATOM     21  O   UNL     1      -3.274 -40.926 -35.754  1.00  0.00    -0.504 OA
ATOM     22  H   UNL     1      -2.489 -41.525 -35.974  1.00  0.00     0.293 HD
ENDBRANCH  18  21
ENDBRANCH   3  13
BRANCH  10  23
ATOM     23  O   UNL     1      -5.967 -34.533 -29.005  1.00  0.00    -0.507 OA
ATOM     24  H   UNL     1      -5.920 -33.527 -28.961  1.00  0.00     0.293 HD
ENDBRANCH  10  23
BRANCH  11  25
ATOM     25  O   UNL     1      -9.773 -34.749 -31.971  1.00  0.00    -0.508 OA
ATOM     26  H   UNL     1      -9.812 -34.240 -32.843  1.00  0.00     0.293 HD
ENDBRANCH  11  25
ENDBRANCH   1   2
BRANCH   1  27
ATOM     27  C   UNL     1      -3.017 -39.754 -29.406  1.00  0.00     0.339 C 
ATOM     28  C   UNL     1      -2.212 -40.936 -29.966  1.00  0.00     0.214 C 
ATOM     29  O   UNL     1      -2.369 -39.107 -28.311  1.00  0.00    -0.332 OA
ATOM     30  C   UNL     1      -0.809 -40.464 -30.375  1.00  0.00     0.180 C 
ATOM     31  C   UNL     1      -1.015 -38.704 -28.553  1.00  0.00     0.179 C 
ATOM     32  C   UNL     1      -0.120 -39.810 -29.182  1.00  0.00     0.177 C 
BRANCH  28  33
ATOM     33  O   UNL     1      -2.146 -41.946 -28.989  1.00  0.00    -0.384 OA
ATOM     34  H   UNL     1      -3.050 -42.362 -28.945  1.00  0.00     0.211 HD
ENDBRANCH  28  33
BRANCH  30  35
ATOM     35  O   UNL     1      -0.050 -41.539 -30.858  1.00  0.00    -0.387 OA
ATOM     36  H   UNL     1      -0.693 -42.234 -31.162  1.00  0.00     0.211 HD
ENDBRANCH  30  35
BRANCH  31  37
ATOM     37  C   UNL     1      -0.934 -37.362 -29.307  1.00  0.00     0.191 C 
BRANCH  37  38
ATOM     38  O   UNL     1      -1.539 -36.339 -28.558  1.00  0.00    -0.394 OA
ATOM     39  H   UNL     1      -1.687 -36.697 -27.641  1.00  0.00     0.210 HD
ENDBRANCH  37  38
ENDBRANCH  31  37
BRANCH  32  40
ATOM     40  O   UNL     1       0.181 -40.782 -28.209  1.00  0.00    -0.387 OA
ATOM     41  H   UNL     1       0.842 -41.404 -28.619  1.00  0.00     0.211 HD
ENDBRANCH  32  40
ENDBRANCH   1  27
TORSDOF 12
ENDMDL
MODEL 6
REMARK VINA RESULT:    -5.635      4.443      6.179
REMARK INTER + INTRA:          -9.785
REMARK INTER:                  -8.307
REMARK INTRA:                  -1.478
REMARK UNBOUND:                -1.514
REMARK SMILES O=c1c(O[C@@H]2O[C@H](CO)[C@@H](O)[C@@H](O)[C@H]2O)c(-c2ccc(O)c(O)c2)oc2cc(O)cc(O)c12
REMARK SMILES IDX 4 1 3 2 16 3 25 4 2 5 26 6 1 7 33 8 27 9 31 10 28 11 30 12
REMARK SMILES IDX 17 13 18 14 19 15 20 16 24 17 22 18 21 19 23 21 32 23 29 25
REMARK SMILES IDX 5 27 14 28 6 29 12 30 7 31 10 32 15 33 13 35 8 37 9 38 11 40
REMARK H PARENT 21 20 23 22 32 24 29 26 15 34 13 36 9 39 11 41
REMARK Flexibility Score: inf
ROOT
ATOM      1  O   UNL     1      -1.121 -39.298 -32.673  1.00  0.00    -0.454 OA
ENDROOT
BRANCH   1   2
ATOM      2  C   UNL     1      -2.238 -40.057 -33.079  1.00  0.00     0.214 A 
ATOM      3  C   UNL     1      -2.508 -40.154 -34.469  1.00  0.00     0.180 A 
ATOM      4  O   UNL     1      -3.552 -40.855 -34.898  1.00  0.00    -0.452 OA
ATOM      5  C   UNL     1      -3.103 -40.720 -32.186  1.00  0.00     0.239 A 
ATOM      6  C   UNL     1      -4.375 -41.511 -34.088  1.00  0.00     0.146 A 
ATOM      7  O   UNL     1      -2.928 -40.626 -30.942  1.00  0.00    -0.285 OA
ATOM      8  C   UNL     1      -4.185 -41.479 -32.687  1.00  0.00     0.111 A 
ATOM      9  C   UNL     1      -5.444 -42.223 -34.637  1.00  0.00     0.094 A 
ATOM     10  C   UNL     1      -5.092 -42.178 -31.853  1.00  0.00     0.134 A 
ATOM     11  C   UNL     1      -6.351 -42.892 -33.810  1.00  0.00     0.123 A 
ATOM     12  C   UNL     1      -6.169 -42.869 -32.423  1.00  0.00     0.093 A 
BRANCH   3  13
ATOM     13  C   UNL     1      -1.692 -39.428 -35.476  1.00  0.00     0.025 A 
ATOM     14  C   UNL     1      -1.910 -38.057 -35.681  1.00  0.00     0.016 A 
ATOM     15  C   UNL     1      -1.047 -37.313 -36.489  1.00  0.00     0.051 A 
ATOM     16  C   UNL     1       0.060 -37.926 -37.096  1.00  0.00     0.157 A 
ATOM     17  C   UNL     1      -0.631 -40.055 -36.157  1.00  0.00     0.062 A 
ATOM     18  C   UNL     1       0.255 -39.305 -36.946  1.00  0.00     0.158 A 
BRANCH  16  19
ATOM     19  O   UNL     1       0.957 -37.176 -37.856  1.00  0.00    -0.504 OA
ATOM     20  H   UNL     1       1.749 -37.610 -38.325  1.00  0.00     0.293 HD
ENDBRANCH  16  19
BRANCH  18  21
ATOM     21  O   UNL     1       1.350 -39.923 -37.553  1.00  0.00    -0.504 OA
ATOM     22  H   UNL     1       1.698 -40.816 -37.231  1.00  0.00     0.293 HD
ENDBRANCH  18  21
ENDBRANCH   3  13
BRANCH  10  23
ATOM     23  O   UNL     1      -4.944 -42.181 -30.469  1.00  0.00    -0.507 OA
ATOM     24  H   UNL     1      -4.483 -41.430 -29.978  1.00  0.00     0.293 HD
ENDBRANCH  10  23
BRANCH  11  25
ATOM     25  O   UNL     1      -7.424 -43.575 -34.372  1.00  0.00    -0.508 OA
ATOM     26  H   UNL     1      -8.309 -43.117 -34.539  1.00  0.00     0.293 HD
ENDBRANCH  11  25
ENDBRANCH   1   2
BRANCH   1  27
ATOM     27  C   UNL     1      -1.044 -37.979 -32.136  1.00  0.00     0.339 C 
ATOM     28  C   UNL     1      -0.702 -38.065 -30.641  1.00  0.00     0.214 C 
ATOM     29  O   UNL     1      -0.134 -37.163 -32.871  1.00  0.00    -0.332 OA
ATOM     30  C   UNL     1       0.736 -38.573 -30.465  1.00  0.00     0.180 C 
ATOM     31  C   UNL     1       1.251 -37.491 -32.707  1.00  0.00     0.179 C 
ATOM     32  C   UNL     1       1.698 -37.666 -31.226  1.00  0.00     0.177 C 
BRANCH  28  33
ATOM     33  O   UNL     1      -0.870 -36.794 -30.061  1.00  0.00    -0.384 OA
ATOM     34  H   UNL     1      -0.245 -36.747 -29.287  1.00  0.00     0.211 HD
ENDBRANCH  28  33
BRANCH  30  35
ATOM     35  O   UNL     1       1.075 -38.625 -29.105  1.00  0.00    -0.387 OA
ATOM     36  H   UNL     1       1.133 -39.586 -28.859  1.00  0.00     0.211 HD
ENDBRANCH  30  35
BRANCH  31  37
ATOM     37  C   UNL     1       1.681 -38.666 -33.607  1.00  0.00     0.191 C 
BRANCH  37  38
ATOM     38  O   UNL     1       2.642 -38.244 -34.541  1.00  0.00    -0.394 OA
ATOM     39  H   UNL     1       3.536 -38.440 -34.149  1.00  0.00     0.210 HD
ENDBRANCH  37  38
ENDBRANCH  31  37
BRANCH  32  40
ATOM     40  O   UNL     1       1.763 -36.405 -30.602  1.00  0.00    -0.387 OA
ATOM     41  H   UNL     1       1.534 -36.547 -29.644  1.00  0.00     0.211 HD
ENDBRANCH  32  40
ENDBRANCH   1  27
TORSDOF 12
ENDMDL
MODEL 7
REMARK VINA RESULT:    -5.630      3.445      5.844
REMARK INTER + INTRA:          -9.777
REMARK INTER:                  -8.539
REMARK INTRA:                  -1.239
REMARK UNBOUND:                -1.514
REMARK SMILES O=c1c(O[C@@H]2O[C@H](CO)[C@@H](O)[C@@H](O)[C@H]2O)c(-c2ccc(O)c(O)c2)oc2cc(O)cc(O)c12
REMARK SMILES IDX 4 1 3 2 16 3 25 4 2 5 26 6 1 7 33 8 27 9 31 10 28 11 30 12
REMARK SMILES IDX 17 13 18 14 19 15 20 16 24 17 22 18 21 19 23 21 32 23 29 25
REMARK SMILES IDX 5 27 14 28 6 29 12 30 7 31 10 32 15 33 13 35 8 37 9 38 11 40
REMARK H PARENT 21 20 23 22 32 24 29 26 15 34 13 36 9 39 11 41
REMARK Flexibility Score: inf
ROOT
ATOM      1  O   UNL     1      -1.638 -39.158 -32.511  1.00  0.00    -0.454 OA
ENDROOT
BRANCH   1   2
ATOM      2  C   UNL     1      -2.651 -40.030 -32.960  1.00  0.00     0.214 A 
ATOM      3  C   UNL     1      -2.730 -40.299 -34.351  1.00  0.00     0.180 A 
ATOM      4  O   UNL     1      -3.671 -41.111 -34.820  1.00  0.00    -0.452 OA
ATOM      5  C   UNL     1      -3.591 -40.645 -32.109  1.00  0.00     0.239 A 
ATOM      6  C   UNL     1      -4.559 -41.726 -34.046  1.00  0.00     0.146 A 
ATOM      7  O   UNL     1      -3.586 -40.402 -30.873  1.00  0.00    -0.285 OA
ATOM      8  C   UNL     1      -4.557 -41.525 -32.646  1.00  0.00     0.111 A 
ATOM      9  C   UNL     1      -5.509 -42.564 -34.636  1.00  0.00     0.094 A 
ATOM     10  C   UNL     1      -5.528 -42.185 -31.854  1.00  0.00     0.134 A 
ATOM     11  C   UNL     1      -6.481 -43.195 -33.855  1.00  0.00     0.123 A 
ATOM     12  C   UNL     1      -6.484 -43.006 -32.468  1.00  0.00     0.093 A 
BRANCH   3  13
ATOM     13  C   UNL     1      -1.828 -39.637 -35.327  1.00  0.00     0.025 A 
ATOM     14  C   UNL     1      -2.278 -38.507 -36.026  1.00  0.00     0.016 A 
ATOM     15  C   UNL     1      -1.399 -37.763 -36.816  1.00  0.00     0.051 A 
ATOM     16  C   UNL     1      -0.048 -38.129 -36.910  1.00  0.00     0.157 A 
ATOM     17  C   UNL     1      -0.491 -40.050 -35.494  1.00  0.00     0.062 A 
ATOM     18  C   UNL     1       0.401 -39.287 -36.263  1.00  0.00     0.158 A 
BRANCH  16  19
ATOM     19  O   UNL     1       0.847 -37.356 -37.651  1.00  0.00    -0.504 OA
ATOM     20  H   UNL     1       1.680 -36.954 -37.227  1.00  0.00     0.293 HD
ENDBRANCH  16  19
BRANCH  18  21
ATOM     21  O   UNL     1       1.743 -39.662 -36.358  1.00  0.00    -0.504 OA
ATOM     22  H   UNL     1       2.437 -39.043 -36.756  1.00  0.00     0.293 HD
ENDBRANCH  18  21
ENDBRANCH   3  13
BRANCH  10  23
ATOM     23  O   UNL     1      -5.564 -42.024 -30.472  1.00  0.00    -0.507 OA
ATOM     24  H   UNL     1      -6.403 -41.745 -29.987  1.00  0.00     0.293 HD
ENDBRANCH  10  23
BRANCH  11  25
ATOM     25  O   UNL     1      -7.434 -44.006 -34.460  1.00  0.00    -0.508 OA
ATOM     26  H   UNL     1      -7.865 -44.772 -33.961  1.00  0.00     0.293 HD
ENDBRANCH  11  25
ENDBRANCH   1   2
BRANCH   1  27
ATOM     27  C   UNL     1      -1.493 -37.748 -32.670  1.00  0.00     0.339 C 
ATOM     28  C   UNL     1      -2.801 -37.059 -32.256  1.00  0.00     0.214 C 
ATOM     29  O   UNL     1      -0.354 -37.253 -31.967  1.00  0.00    -0.332 OA
ATOM     30  C   UNL     1      -3.005 -37.196 -30.741  1.00  0.00     0.180 C 
ATOM     31  C   UNL     1      -0.471 -37.248 -30.539  1.00  0.00     0.179 C 
ATOM     32  C   UNL     1      -1.795 -36.627 -30.006  1.00  0.00     0.177 C 
BRANCH  28  33
ATOM     33  O   UNL     1      -2.747 -35.707 -32.644  1.00  0.00    -0.384 OA
ATOM     34  H   UNL     1      -1.824 -35.541 -32.979  1.00  0.00     0.211 HD
ENDBRANCH  28  33
BRANCH  30  35
ATOM     35  O   UNL     1      -4.180 -36.542 -30.342  1.00  0.00    -0.387 OA
ATOM     36  H   UNL     1      -4.285 -35.750 -30.932  1.00  0.00     0.211 HD
ENDBRANCH  30  35
BRANCH  31  37
ATOM     37  C   UNL     1      -0.166 -38.629 -29.926  1.00  0.00     0.191 C 
BRANCH  37  38
ATOM     38  O   UNL     1       0.809 -39.299 -30.684  1.00  0.00    -0.394 OA
ATOM     39  H   UNL     1       0.492 -40.234 -30.806  1.00  0.00     0.210 HD
ENDBRANCH  37  38
ENDBRANCH  31  37
BRANCH  32  40
ATOM     40  O   UNL     1      -1.754 -35.228 -30.162  1.00  0.00    -0.387 OA
ATOM     41  H   UNL     1      -1.219 -34.870 -29.402  1.00  0.00     0.211 HD
ENDBRANCH  32  40
ENDBRANCH   1  27
TORSDOF 12
ENDMDL
MODEL 8
REMARK VINA RESULT:    -5.596      2.298      4.224
REMARK INTER + INTRA:          -9.728
REMARK INTER:                  -8.120
REMARK INTRA:                  -1.609
REMARK UNBOUND:                -1.514
REMARK SMILES O=c1c(O[C@@H]2O[C@H](CO)[C@@H](O)[C@@H](O)[C@H]2O)c(-c2ccc(O)c(O)c2)oc2cc(O)cc(O)c12
REMARK SMILES IDX 4 1 3 2 16 3 25 4 2 5 26 6 1 7 33 8 27 9 31 10 28 11 30 12
REMARK SMILES IDX 17 13 18 14 19 15 20 16 24 17 22 18 21 19 23 21 32 23 29 25
REMARK SMILES IDX 5 27 14 28 6 29 12 30 7 31 10 32 15 33 13 35 8 37 9 38 11 40
REMARK H PARENT 21 20 23 22 32 24 29 26 15 34 13 36 9 39 11 41
REMARK Flexibility Score: inf
ROOT
ATOM      1  O   UNL     1      -2.934 -37.965 -32.071  1.00  0.00    -0.454 OA
ENDROOT
BRANCH   1   2
ATOM      2  C   UNL     1      -4.180 -37.332 -31.891  1.00  0.00     0.214 A 
ATOM      3  C   UNL     1      -5.331 -38.152 -31.756  1.00  0.00     0.180 A 
ATOM      4  O   UNL     1      -6.528 -37.599 -31.588  1.00  0.00    -0.452 OA
ATOM      5  C   UNL     1      -4.351 -35.934 -31.842  1.00  0.00     0.239 A 
ATOM      6  C   UNL     1      -6.723 -36.287 -31.515  1.00  0.00     0.146 A 
ATOM      7  O   UNL     1      -3.365 -35.167 -32.001  1.00  0.00    -0.285 OA
ATOM      8  C   UNL     1      -5.638 -35.389 -31.633  1.00  0.00     0.111 A 
ATOM      9  C   UNL     1      -8.022 -35.803 -31.334  1.00  0.00     0.094 A 
ATOM     10  C   UNL     1      -5.886 -33.996 -31.565  1.00  0.00     0.134 A 
ATOM     11  C   UNL     1      -8.266 -34.428 -31.291  1.00  0.00     0.123 A 
ATOM     12  C   UNL     1      -7.198 -33.531 -31.403  1.00  0.00     0.093 A 
BRANCH   3  13
ATOM     13  C   UNL     1      -5.254 -39.631 -31.869  1.00  0.00     0.025 A 
ATOM     14  C   UNL     1      -5.478 -40.240 -33.113  1.00  0.00     0.016 A 
ATOM     15  C   UNL     1      -5.243 -41.605 -33.289  1.00  0.00     0.051 A 
ATOM     16  C   UNL     1      -4.764 -42.384 -32.225  1.00  0.00     0.157 A 
ATOM     17  C   UNL     1      -4.857 -40.434 -30.782  1.00  0.00     0.062 A 
ATOM     18  C   UNL     1      -4.591 -41.800 -30.964  1.00  0.00     0.158 A 
BRANCH  16  19
ATOM     19  O   UNL     1      -4.471 -43.735 -32.410  1.00  0.00    -0.504 OA
ATOM     20  H   UNL     1      -5.111 -44.466 -32.104  1.00  0.00     0.293 HD
ENDBRANCH  16  19
BRANCH  18  21
ATOM     21  O   UNL     1      -4.121 -42.571 -29.898  1.00  0.00    -0.504 OA
ATOM     22  H   UNL     1      -3.198 -42.983 -29.911  1.00  0.00     0.293 HD
ENDBRANCH  18  21
ENDBRANCH   3  13
BRANCH  10  23
ATOM     23  O   UNL     1      -4.851 -33.072 -31.670  1.00  0.00    -0.507 OA
ATOM     24  H   UNL     1      -4.137 -33.146 -32.379  1.00  0.00     0.293 HD
ENDBRANCH  10  23
BRANCH  11  25
ATOM     25  O   UNL     1      -9.567 -33.963 -31.136  1.00  0.00    -0.508 OA
ATOM     26  H   UNL     1      -9.822 -33.020 -31.395  1.00  0.00     0.293 HD
ENDBRANCH  11  25
ENDBRANCH   1   2
BRANCH   1  27
ATOM     27  C   UNL     1      -2.310 -38.460 -33.255  1.00  0.00     0.339 C 
ATOM     28  C   UNL     1      -1.137 -37.540 -33.625  1.00  0.00     0.214 C 
ATOM     29  O   UNL     1      -1.925 -39.827 -33.115  1.00  0.00    -0.332 OA
ATOM     30  C   UNL     1      -0.017 -37.678 -32.584  1.00  0.00     0.180 C 
ATOM     31  C   UNL     1      -0.821 -40.064 -32.232  1.00  0.00     0.179 C 
ATOM     32  C   UNL     1       0.407 -39.140 -32.477  1.00  0.00     0.177 C 
BRANCH  28  33
ATOM     33  O   UNL     1      -0.682 -37.879 -34.913  1.00  0.00    -0.384 OA
ATOM     34  H   UNL     1      -0.272 -38.784 -34.844  1.00  0.00     0.211 HD
ENDBRANCH  28  33
BRANCH  30  35
ATOM     35  O   UNL     1       1.075 -36.869 -32.927  1.00  0.00    -0.387 OA
ATOM     36  H   UNL     1       1.651 -37.403 -33.536  1.00  0.00     0.211 HD
ENDBRANCH  30  35
BRANCH  31  37
ATOM     37  C   UNL     1      -1.257 -40.106 -30.754  1.00  0.00     0.191 C 
BRANCH  37  38
ATOM     38  O   UNL     1      -1.179 -41.416 -30.255  1.00  0.00    -0.394 OA
ATOM     39  H   UNL     1      -2.092 -41.807 -30.315  1.00  0.00     0.210 HD
ENDBRANCH  37  38
ENDBRANCH  31  37
BRANCH  32  40
ATOM     40  O   UNL     1       1.066 -39.536 -33.657  1.00  0.00    -0.387 OA
ATOM     41  H   UNL     1       2.023 -39.281 -33.551  1.00  0.00     0.211 HD
ENDBRANCH  32  40
ENDBRANCH   1  27
TORSDOF 12
ENDMDL
MODEL 9
REMARK VINA RESULT:    -5.569      2.246      3.673
REMARK INTER + INTRA:          -9.688
REMARK INTER:                  -8.147
REMARK INTRA:                  -1.541
REMARK UNBOUND:                -1.514
REMARK SMILES O=c1c(O[C@@H]2O[C@H](CO)[C@@H](O)[C@@H](O)[C@H]2O)c(-c2ccc(O)c(O)c2)oc2cc(O)cc(O)c12
REMARK SMILES IDX 4 1 3 2 16 3 25 4 2 5 26 6 1 7 33 8 27 9 31 10 28 11 30 12
REMARK SMILES IDX 17 13 18 14 19 15 20 16 24 17 22 18 21 19 23 21 32 23 29 25
REMARK SMILES IDX 5 27 14 28 6 29 12 30 7 31 10 32 15 33 13 35 8 37 9 38 11 40
REMARK H PARENT 21 20 23 22 32 24 29 26 15 34 13 36 9 39 11 41
REMARK Flexibility Score: inf
ROOT
ATOM      1  O   UNL     1      -3.023 -37.737 -32.151  1.00  0.00    -0.454 OA
ENDROOT
BRANCH   1   2
ATOM      2  C   UNL     1      -4.336 -37.247 -31.998  1.00  0.00     0.214 A 
ATOM      3  C   UNL     1      -5.395 -38.190 -31.935  1.00  0.00     0.180 A 
ATOM      4  O   UNL     1      -6.650 -37.774 -31.794  1.00  0.00    -0.452 OA
ATOM      5  C   UNL     1      -4.658 -35.878 -31.909  1.00  0.00     0.239 A 
ATOM      6  C   UNL     1      -6.988 -36.495 -31.685  1.00  0.00     0.146 A 
ATOM      7  O   UNL     1      -3.756 -35.004 -32.005  1.00  0.00    -0.285 OA
ATOM      8  C   UNL     1      -6.003 -35.482 -31.731  1.00  0.00     0.111 A 
ATOM      9  C   UNL     1      -8.337 -36.159 -31.538  1.00  0.00     0.094 A 
ATOM     10  C   UNL     1      -6.402 -34.126 -31.627  1.00  0.00     0.134 A 
ATOM     11  C   UNL     1      -8.730 -34.820 -31.459  1.00  0.00     0.123 A 
ATOM     12  C   UNL     1      -7.762 -33.811 -31.500  1.00  0.00     0.093 A 
BRANCH   3  13
ATOM     13  C   UNL     1      -5.155 -39.647 -32.094  1.00  0.00     0.025 A 
ATOM     14  C   UNL     1      -4.945 -40.439 -30.955  1.00  0.00     0.016 A 
ATOM     15  C   UNL     1      -4.890 -41.831 -31.057  1.00  0.00     0.051 A 
ATOM     16  C   UNL     1      -5.060 -42.457 -32.301  1.00  0.00     0.157 A 
ATOM     17  C   UNL     1      -5.237 -40.275 -33.352  1.00  0.00     0.062 A 
ATOM     18  C   UNL     1      -5.213 -41.675 -33.453  1.00  0.00     0.158 A 
BRANCH  16  19
ATOM     19  O   UNL     1      -5.065 -43.848 -32.400  1.00  0.00    -0.504 OA
ATOM     20  H   UNL     1      -5.182 -44.440 -31.581  1.00  0.00     0.293 HD
ENDBRANCH  16  19
BRANCH  18  21
ATOM     21  O   UNL     1      -5.375 -42.291 -34.696  1.00  0.00    -0.504 OA
ATOM     22  H   UNL     1      -5.412 -41.752 -35.551  1.00  0.00     0.293 HD
ENDBRANCH  18  21
ENDBRANCH   3  13
BRANCH  10  23
ATOM     23  O   UNL     1      -5.470 -33.094 -31.662  1.00  0.00    -0.507 OA
ATOM     24  H   UNL     1      -4.744 -33.052 -32.360  1.00  0.00     0.293 HD
ENDBRANCH  10  23
BRANCH  11  25
ATOM     25  O   UNL     1     -10.078 -34.503 -31.338  1.00  0.00    -0.508 OA
ATOM     26  H   UNL     1     -10.681 -34.453 -32.148  1.00  0.00     0.293 HD
ENDBRANCH  11  25
ENDBRANCH   1   2
BRANCH   1  27
ATOM     27  C   UNL     1      -1.873 -37.579 -31.322  1.00  0.00     0.339 C 
ATOM     28  C   UNL     1      -1.697 -38.841 -30.464  1.00  0.00     0.214 C 
ATOM     29  O   UNL     1      -0.712 -37.257 -32.086  1.00  0.00    -0.332 OA
ATOM     30  C   UNL     1      -1.296 -40.025 -31.355  1.00  0.00     0.180 C 
ATOM     31  C   UNL     1      -0.194 -38.325 -32.890  1.00  0.00     0.179 C 
ATOM     32  C   UNL     1      -0.032 -39.676 -32.135  1.00  0.00     0.177 C 
BRANCH  28  33
ATOM     33  O   UNL     1      -0.724 -38.590 -29.480  1.00  0.00    -0.384 OA
ATOM     34  H   UNL     1      -1.176 -38.685 -28.597  1.00  0.00     0.211 HD
ENDBRANCH  28  33
BRANCH  30  35
ATOM     35  O   UNL     1      -1.098 -41.178 -30.582  1.00  0.00    -0.387 OA
ATOM     36  H   UNL     1      -0.117 -41.304 -30.496  1.00  0.00     0.211 HD
ENDBRANCH  30  35
BRANCH  31  37
ATOM     37  C   UNL     1      -0.951 -38.468 -34.225  1.00  0.00     0.191 C 
BRANCH  37  38
ATOM     38  O   UNL     1      -1.463 -37.226 -34.636  1.00  0.00    -0.394 OA
ATOM     39  H   UNL     1      -1.825 -36.776 -33.825  1.00  0.00     0.210 HD
ENDBRANCH  37  38
ENDBRANCH  31  37
BRANCH  32  40
ATOM     40  O   UNL     1       1.066 -39.596 -31.258  1.00  0.00    -0.387 OA
ATOM     41  H   UNL     1       1.865 -39.901 -31.769  1.00  0.00     0.211 HD
ENDBRANCH  32  40
ENDBRANCH   1  27
TORSDOF 12
ENDMDL
