MODEL 1
REMARK VINA RESULT:    -2.740      0.000      0.000
REMARK INTER + INTRA:          -6.008
REMARK INTER:                  -4.342
REMARK INTRA:                  -1.666
REMARK UNBOUND:                -1.666
REMARK SMILES CCCCCCCCCCCC=O
REMARK SMILES IDX 7 1 6 2 5 3 4 4 3 5 2 6 1 7 8 8 9 9 10 10 11 11 12 12 13 13
REMARK H PARENT
REMARK Flexibility Score: inf
ROOT
ATOM      1  C   UNL     1     114.727 117.475 118.737  1.00  0.00     0.000 C 
ENDROOT
BRANCH   1   2
ATOM      2  C   UNL     1     114.167 116.375 119.650  1.00  0.00     0.000 C 
BRANCH   2   3
ATOM      3  C   UNL     1     115.283 115.442 120.136  1.00  0.00    -0.000 C 
BRANCH   3   4
ATOM      4  C   UNL     1     115.415 115.493 121.665  1.00  0.00    -0.000 C 
BRANCH   4   5
ATOM      5  C   UNL     1     116.829 115.881 122.125  1.00  0.00    -0.000 C 
BRANCH   5   6
ATOM      6  C   UNL     1     116.857 117.209 122.896  1.00  0.00    -0.003 C 
ATOM      7  C   UNL     1     115.444 117.741 123.125  1.00  0.00     0.004 C 
ENDBRANCH   5   6
ENDBRANCH   4   5
ENDBRANCH   3   4
ENDBRANCH   2   3
ENDBRANCH   1   2
BRANCH   1   8
ATOM      8  C   UNL     1     114.794 118.845 119.431  1.00  0.00     0.000 C 
BRANCH   8   9
ATOM      9  C   UNL     1     116.225 119.245 119.816  1.00  0.00     0.000 C 
BRANCH   9  10
ATOM     10  C   UNL     1     117.253 118.520 118.939  1.00  0.00     0.008 C 
BRANCH  10  11
ATOM     11  C   UNL     1     118.533 118.217 119.726  1.00  0.00     0.072 C 
BRANCH  11  12
ATOM     12  C   UNL     1     119.178 116.955 119.236  1.00  0.00     0.224 C 
ATOM     13  O   UNL     1     118.498 115.978 118.967  1.00  0.00    -0.303 OA
ENDBRANCH  11  12
ENDBRANCH  10  11
ENDBRANCH   9  10
ENDBRANCH   8   9
ENDBRANCH   1   8
TORSDOF 10
ENDMDL
MODEL 2
REMARK VINA RESULT:    -2.729      1.810      3.893
REMARK INTER + INTRA:          -5.991
REMARK INTER:                  -4.323
REMARK INTRA:                  -1.668
REMARK UNBOUND:                -1.666
REMARK SMILES CCCCCCCCCCCC=O
REMARK SMILES IDX 7 1 6 2 5 3 4 4 3 5 2 6 1 7 8 8 9 9 10 10 11 11 12 12 13 13
REMARK H PARENT
REMARK Flexibility Score: inf
ROOT
ATOM      1  C   UNL     1     114.947 114.881 119.017  1.00  0.00     0.000 C 
ENDROOT
BRANCH   1   2
ATOM      2  C   UNL     1     113.823 115.774 119.563  1.00  0.00     0.000 C 
BRANCH   2   3
ATOM      3  C   UNL     1     114.389 117.079 120.136  1.00  0.00    -0.000 C 
BRANCH   3   4
ATOM      4  C   UNL     1     115.283 117.789 119.109  1.00  0.00    -0.000 C 
BRANCH   4   5
ATOM      5  C   UNL     1     116.233 118.809 119.755  1.00  0.00    -0.000 C 
BRANCH   5   6
ATOM      6  C   UNL     1     117.686 118.645 119.283  1.00  0.00    -0.003 C 
ATOM      7  C   UNL     1     117.754 117.859 117.977  1.00  0.00     0.004 C 
ENDBRANCH   5   6
ENDBRANCH   4   5
ENDBRANCH   3   4
ENDBRANCH   2   3
ENDBRANCH   1   2
BRANCH   1   8
ATOM      8  C   UNL     1     115.906 114.396 120.117  1.00  0.00     0.000 C 
BRANCH   8   9
ATOM      9  C   UNL     1     117.381 114.626 119.760  1.00  0.00     0.000 C 
BRANCH   9  10
ATOM     10  C   UNL     1     118.111 115.363 120.890  1.00  0.00     0.008 C 
BRANCH  10  11
ATOM     11  C   UNL     1     117.189 115.570 122.097  1.00  0.00     0.072 C 
BRANCH  11  12
ATOM     12  C   UNL     1     117.419 116.913 122.724  1.00  0.00     0.224 C 
ATOM     13  O   UNL     1     116.476 117.587 123.106  1.00  0.00    -0.303 OA
ENDBRANCH  11  12
ENDBRANCH  10  11
ENDBRANCH   9  10
ENDBRANCH   8   9
ENDBRANCH   1   8
TORSDOF 10
ENDMDL
MODEL 3
REMARK VINA RESULT:    -2.719      2.184      4.008
REMARK INTER + INTRA:          -5.974
REMARK INTER:                  -4.604
REMARK INTRA:                  -1.371
REMARK UNBOUND:                -1.666
REMARK SMILES CCCCCCCCCCCC=O
REMARK SMILES IDX 7 1 6 2 5 3 4 4 3 5 2 6 1 7 8 8 9 9 10 10 11 11 12 12 13 13
REMARK H PARENT
REMARK Flexibility Score: inf
ROOT
ATOM      1  C   UNL     1     118.307 118.170 119.185  1.00  0.00     0.000 C 
ENDROOT
BRANCH   1   2
ATOM      2  C   UNL     1     117.394 118.483 120.381  1.00  0.00     0.000 C 
BRANCH   2   3
ATOM      3  C   UNL     1     115.957 118.751 119.919  1.00  0.00    -0.000 C 
BRANCH   3   4
ATOM      4  C   UNL     1     115.190 117.436 119.717  1.00  0.00    -0.000 C 
BRANCH   4   5
ATOM      5  C   UNL     1     115.269 116.510 120.941  1.00  0.00    -0.000 C 
BRANCH   5   6
ATOM      6  C   UNL     1     114.695 115.113 120.664  1.00  0.00    -0.003 C 
ATOM      7  C   UNL     1     114.659 114.820 119.166  1.00  0.00     0.004 C 
ENDBRANCH   5   6
ENDBRANCH   4   5
ENDBRANCH   3   4
ENDBRANCH   2   3
ENDBRANCH   1   2
BRANCH   1   8
ATOM      8  C   UNL     1     119.182 116.928 119.417  1.00  0.00     0.000 C 
BRANCH   8   9
ATOM      9  C   UNL     1     118.494 115.628 118.978  1.00  0.00     0.000 C 
BRANCH   9  10
ATOM     10  C   UNL     1     118.392 114.639 120.145  1.00  0.00     0.008 C 
BRANCH  10  11
ATOM     11  C   UNL     1     117.939 113.257 119.658  1.00  0.00     0.072 C 
BRANCH  11  12
ATOM     12  C   UNL     1     118.355 113.028 118.235  1.00  0.00     0.224 C 
ATOM     13  O   UNL     1     119.174 112.165 117.962  1.00  0.00    -0.303 OA
ENDBRANCH  11  12
ENDBRANCH  10  11
ENDBRANCH   9  10
ENDBRANCH   8   9
ENDBRANCH   1   8
TORSDOF 10
ENDMDL
MODEL 4
REMARK VINA RESULT:    -2.714      2.406      4.434
REMARK INTER + INTRA:          -5.967
REMARK INTER:                  -4.473
REMARK INTRA:                  -1.494
REMARK UNBOUND:                -1.666
REMARK SMILES CCCCCCCCCCCC=O
REMARK SMILES IDX 7 1 6 2 5 3 4 4 3 5 2 6 1 7 8 8 9 9 10 10 11 11 12 12 13 13
REMARK H PARENT
REMARK Flexibility Score: inf
ROOT
ATOM      1  C   UNL     1     118.541 115.742 118.697  1.00  0.00     0.000 C 
ENDROOT
BRANCH   1   2
ATOM      2  C   UNL     1     119.216 116.934 119.390  1.00  0.00     0.000 C 
BRANCH   2   3
ATOM      3  C   UNL     1     118.201 118.047 119.680  1.00  0.00    -0.000 C 
BRANCH   3   4
ATOM      4  C   UNL     1     118.118 118.337 121.186  1.00  0.00    -0.000 C 
BRANCH   4   5
ATOM      5  C   UNL     1     116.969 117.583 121.872  1.00  0.00    -0.000 C 
BRANCH   5   6
ATOM      6  C   UNL     1     117.467 116.507 122.849  1.00  0.00    -0.003 C 
ATOM      7  C   UNL     1     116.382 115.469 123.124  1.00  0.00     0.004 C 
ENDBRANCH   5   6
ENDBRANCH   4   5
ENDBRANCH   3   4
ENDBRANCH   2   3
ENDBRANCH   1   2
BRANCH   1   8
ATOM      8  C   UNL     1     118.370 114.533 119.630  1.00  0.00     0.000 C 
BRANCH   8   9
ATOM      9  C   UNL     1     116.915 114.051 119.715  1.00  0.00     0.000 C 
BRANCH   9  10
ATOM     10  C   UNL     1     115.971 115.030 119.007  1.00  0.00     0.008 C 
BRANCH  10  11
ATOM     11  C   UNL     1     114.733 115.318 119.866  1.00  0.00     0.072 C 
BRANCH  11  12
ATOM     12  C   UNL     1     113.481 114.878 119.167  1.00  0.00     0.224 C 
ATOM     13  O   UNL     1     112.399 114.964 119.725  1.00  0.00    -0.303 OA
ENDBRANCH  11  12
ENDBRANCH  10  11
ENDBRANCH   9  10
ENDBRANCH   8   9
ENDBRANCH   1   8
TORSDOF 10
ENDMDL
MODEL 5
REMARK VINA RESULT:    -2.678      1.890      3.777
REMARK INTER + INTRA:          -5.910
REMARK INTER:                  -4.431
REMARK INTRA:                  -1.478
REMARK UNBOUND:                -1.666
REMARK SMILES CCCCCCCCCCCC=O
REMARK SMILES IDX 7 1 6 2 5 3 4 4 3 5 2 6 1 7 8 8 9 9 10 10 11 11 12 12 13 13
REMARK H PARENT
REMARK Flexibility Score: inf
ROOT
ATOM      1  C   UNL     1     119.273 116.830 119.677  1.00  0.00     0.000 C 
ENDROOT
BRANCH   1   2
ATOM      2  C   UNL     1     118.484 115.920 118.724  1.00  0.00     0.000 C 
BRANCH   2   3
ATOM      3  C   UNL     1     118.450 114.477 119.245  1.00  0.00    -0.000 C 
BRANCH   3   4
ATOM      4  C   UNL     1     117.040 114.099 119.721  1.00  0.00    -0.000 C 
BRANCH   4   5
ATOM      5  C   UNL     1     115.936 114.844 118.955  1.00  0.00    -0.000 C 
BRANCH   5   6
ATOM      6  C   UNL     1     114.589 114.828 119.693  1.00  0.00    -0.003 C 
ATOM      7  C   UNL     1     114.792 114.856 121.206  1.00  0.00     0.004 C 
ENDBRANCH   5   6
ENDBRANCH   4   5
ENDBRANCH   3   4
ENDBRANCH   2   3
ENDBRANCH   1   2
BRANCH   1   8
ATOM      8  C   UNL     1     118.469 118.062 120.122  1.00  0.00     0.000 C 
BRANCH   8   9
ATOM      9  C   UNL     1     117.460 117.741 121.233  1.00  0.00     0.000 C 
BRANCH   9  10
ATOM     10  C   UNL     1     116.050 118.204 120.845  1.00  0.00     0.008 C 
BRANCH  10  11
ATOM     11  C   UNL     1     116.049 118.861 119.460  1.00  0.00     0.072 C 
BRANCH  11  12
ATOM     12  C   UNL     1     114.674 118.847 118.860  1.00  0.00     0.224 C 
ATOM     13  O   UNL     1     114.360 117.987 118.053  1.00  0.00    -0.303 OA
ENDBRANCH  11  12
ENDBRANCH  10  11
ENDBRANCH   9  10
ENDBRANCH   8   9
ENDBRANCH   1   8
TORSDOF 10
ENDMDL
MODEL 6
REMARK VINA RESULT:    -2.677      1.468      3.174
REMARK INTER + INTRA:          -5.908
REMARK INTER:                  -4.298
REMARK INTRA:                  -1.611
REMARK UNBOUND:                -1.666
REMARK SMILES CCCCCCCCCCCC=O
REMARK SMILES IDX 7 1 6 2 5 3 4 4 3 5 2 6 1 7 8 8 9 9 10 10 11 11 12 12 13 13
REMARK H PARENT
REMARK Flexibility Score: inf
ROOT
ATOM      1  C   UNL     1     114.704 117.324 118.655  1.00  0.00     0.000 C 
ENDROOT
BRANCH   1   2
ATOM      2  C   UNL     1     114.763 118.841 118.886  1.00  0.00     0.000 C 
BRANCH   2   3
ATOM      3  C   UNL     1     115.987 119.221 119.730  1.00  0.00    -0.000 C 
BRANCH   3   4
ATOM      4  C   UNL     1     117.224 118.423 119.294  1.00  0.00    -0.000 C 
BRANCH   4   5
ATOM      5  C   UNL     1     117.931 117.737 120.474  1.00  0.00    -0.000 C 
BRANCH   5   6
ATOM      6  C   UNL     1     117.055 117.674 121.733  1.00  0.00    -0.003 C 
ATOM      7  C   UNL     1     117.424 116.473 122.600  1.00  0.00     0.004 C 
ENDBRANCH   5   6
ENDBRANCH   4   5
ENDBRANCH   3   4
ENDBRANCH   2   3
ENDBRANCH   1   2
BRANCH   1   8
ATOM      8  C   UNL     1     114.014 116.576 119.808  1.00  0.00     0.000 C 
BRANCH   8   9
ATOM      9  C   UNL     1     114.600 115.177 120.042  1.00  0.00     0.000 C 
BRANCH   9  10
ATOM     10  C   UNL     1     115.767 114.904 119.085  1.00  0.00     0.008 C 
BRANCH  10  11
ATOM     11  C   UNL     1     116.903 114.164 119.800  1.00  0.00     0.072 C 
BRANCH  11  12
ATOM     12  C   UNL     1     118.154 114.173 118.972  1.00  0.00     0.224 C 
ATOM     13  O   UNL     1     118.679 113.125 118.633  1.00  0.00    -0.303 OA
ENDBRANCH  11  12
ENDBRANCH  10  11
ENDBRANCH   9  10
ENDBRANCH   8   9
ENDBRANCH   1   8
TORSDOF 10
ENDMDL
MODEL 7
REMARK VINA RESULT:    -2.665      1.784      3.687
REMARK INTER + INTRA:          -5.888
REMARK INTER:                  -4.429
REMARK INTRA:                  -1.460
REMARK UNBOUND:                -1.666
REMARK SMILES CCCCCCCCCCCC=O
REMARK SMILES IDX 7 1 6 2 5 3 4 4 3 5 2 6 1 7 8 8 9 9 10 10 11 11 12 12 13 13
REMARK H PARENT
REMARK Flexibility Score: inf
ROOT
ATOM      1  C   UNL     1     114.982 114.740 121.024  1.00  0.00     0.000 C 
ENDROOT
BRANCH   1   2
ATOM      2  C   UNL     1     115.512 115.545 122.220  1.00  0.00     0.000 C 
BRANCH   2   3
ATOM      3  C   UNL     1     116.838 116.233 121.873  1.00  0.00    -0.000 C 
BRANCH   3   4
ATOM      4  C   UNL     1     117.869 115.215 121.364  1.00  0.00    -0.000 C 
BRANCH   4   5
ATOM      5  C   UNL     1     118.472 115.611 120.007  1.00  0.00    -0.000 C 
BRANCH   5   6
ATOM      6  C   UNL     1     118.339 114.500 118.955  1.00  0.00    -0.003 C 
ATOM      7  C   UNL     1     117.983 113.166 119.606  1.00  0.00     0.004 C 
ENDBRANCH   5   6
ENDBRANCH   4   5
ENDBRANCH   3   4
ENDBRANCH   2   3
ENDBRANCH   1   2
BRANCH   1   8
ATOM      8  C   UNL     1     114.100 115.582 120.087  1.00  0.00     0.000 C 
BRANCH   8   9
ATOM      9  C   UNL     1     114.779 115.878 118.742  1.00  0.00     0.000 C 
BRANCH   9  10
ATOM     10  C   UNL     1     114.449 117.295 118.261  1.00  0.00     0.008 C 
BRANCH  10  11
ATOM     11  C   UNL     1     115.011 118.348 119.223  1.00  0.00     0.072 C 
BRANCH  11  12
ATOM     12  C   UNL     1     116.454 118.629 118.927  1.00  0.00     0.224 C 
ATOM     13  O   UNL     1     117.205 119.006 119.813  1.00  0.00    -0.303 OA
ENDBRANCH  11  12
ENDBRANCH  10  11
ENDBRANCH   9  10
ENDBRANCH   8   9
ENDBRANCH   1   8
TORSDOF 10
ENDMDL
MODEL 8
REMARK VINA RESULT:    -2.649      1.946      3.962
REMARK INTER + INTRA:          -5.863
REMARK INTER:                  -4.202
REMARK INTRA:                  -1.661
REMARK UNBOUND:                -1.666
REMARK SMILES CCCCCCCCCCCC=O
REMARK SMILES IDX 7 1 6 2 5 3 4 4 3 5 2 6 1 7 8 8 9 9 10 10 11 11 12 12 13 13
REMARK H PARENT
REMARK Flexibility Score: inf
ROOT
ATOM      1  C   UNL     1     117.901 118.046 118.973  1.00  0.00     0.000 C 
ENDROOT
BRANCH   1   2
ATOM      2  C   UNL     1     119.011 117.263 119.690  1.00  0.00     0.000 C 
BRANCH   2   3
ATOM      3  C   UNL     1     118.510 115.883 120.135  1.00  0.00    -0.000 C 
BRANCH   3   4
ATOM      4  C   UNL     1     117.528 115.298 119.108  1.00  0.00    -0.000 C 
BRANCH   4   5
ATOM      5  C   UNL     1     116.387 114.506 119.765  1.00  0.00    -0.000 C 
BRANCH   5   6
ATOM      6  C   UNL     1     115.035 114.732 119.072  1.00  0.00    -0.003 C 
ATOM      7  C   UNL     1     115.220 115.406 117.714  1.00  0.00     0.004 C 
ENDBRANCH   5   6
ENDBRANCH   4   5
ENDBRANCH   3   4
ENDBRANCH   2   3
ENDBRANCH   1   2
BRANCH   1   8
ATOM      8  C   UNL     1     116.998 118.820 119.948  1.00  0.00     0.000 C 
BRANCH   8   9
ATOM      9  C   UNL     1     115.508 118.509 119.748  1.00  0.00     0.000 C 
BRANCH   9  10
ATOM     10  C   UNL     1     114.893 117.923 121.024  1.00  0.00     0.008 C 
BRANCH  10  11
ATOM     11  C   UNL     1     115.958 117.734 122.111  1.00  0.00     0.072 C 
BRANCH  11  12
ATOM     12  C   UNL     1     115.516 116.721 123.125  1.00  0.00     0.224 C 
ATOM     13  O   UNL     1     115.892 115.562 123.047  1.00  0.00    -0.303 OA
ENDBRANCH  11  12
ENDBRANCH  10  11
ENDBRANCH   9  10
ENDBRANCH   8   9
ENDBRANCH   1   8
TORSDOF 10
ENDMDL
MODEL 9
REMARK VINA RESULT:    -2.644      1.944      4.006
REMARK INTER + INTRA:          -5.855
REMARK INTER:                  -4.276
REMARK INTRA:                  -1.579
REMARK UNBOUND:                -1.666
REMARK SMILES CCCCCCCCCCCC=O
REMARK SMILES IDX 7 1 6 2 5 3 4 4 3 5 2 6 1 7 8 8 9 9 10 10 11 11 12 12 13 13
REMARK H PARENT
REMARK Flexibility Score: inf
ROOT
ATOM      1  C   UNL     1     117.917 115.215 121.157  1.00  0.00     0.000 C 
ENDROOT
BRANCH   1   2
ATOM      2  C   UNL     1     117.137 115.875 122.304  1.00  0.00     0.000 C 
BRANCH   2   3
ATOM      3  C   UNL     1     115.643 115.540 122.216  1.00  0.00    -0.000 C 
BRANCH   3   4
ATOM      4  C   UNL     1     115.336 114.725 120.951  1.00  0.00    -0.000 C 
BRANCH   4   5
ATOM      5  C   UNL     1     114.162 115.302 120.145  1.00  0.00    -0.000 C 
BRANCH   5   6
ATOM      6  C   UNL     1     114.315 115.076 118.633  1.00  0.00    -0.003 C 
ATOM      7  C   UNL     1     115.716 114.576 118.291  1.00  0.00     0.004 C 
ENDBRANCH   5   6
ENDBRANCH   4   5
ENDBRANCH   3   4
ENDBRANCH   2   3
ENDBRANCH   1   2
BRANCH   1   8
ATOM      8  C   UNL     1     118.524 116.241 120.187  1.00  0.00     0.000 C 
BRANCH   8   9
ATOM      9  C   UNL     1     118.035 117.672 120.456  1.00  0.00     0.000 C 
BRANCH   9  10
ATOM     10  C   UNL     1     117.011 118.109 119.402  1.00  0.00     0.008 C 
BRANCH  10  11
ATOM     11  C   UNL     1     115.730 118.631 120.063  1.00  0.00     0.072 C 
BRANCH  11  12
ATOM     12  C   UNL     1     114.689 118.954 119.034  1.00  0.00     0.224 C 
ATOM     13  O   UNL     1     114.655 120.058 118.513  1.00  0.00    -0.303 OA
ENDBRANCH  11  12
ENDBRANCH  10  11
ENDBRANCH   9  10
ENDBRANCH   8   9
ENDBRANCH   1   8
TORSDOF 10
ENDMDL
