MODEL 1
REMARK VINA RESULT:    -3.701      0.000      0.000
REMARK INTER + INTRA:          -4.026
REMARK INTER:                  -4.026
REMARK INTRA:                   0.000
REMARK UNBOUND:                 0.000
REMARK SMILES [NH3+]CC(=O)[O-]
REMARK SMILES IDX 2 1 1 2 3 6 4 7 5 8
REMARK H PARENT 1 3 1 4 1 5
REMARK Flexibility Score: inf
ROOT
ATOM      1  C   UNL     1      13.569  36.259  12.629  1.00  0.00     0.312 C 
ENDROOT
BRANCH   1   2
ATOM      2  N   UNL     1      12.402  36.751  13.359  1.00  0.00    -0.353 N 
ATOM      3  H   UNL     1      12.280  36.187  14.231  1.00  0.00     0.344 HD
ATOM      4  H   UNL     1      11.543  36.654  12.770  1.00  0.00     0.344 HD
ATOM      5  H   UNL     1      12.540  37.754  13.622  1.00  0.00     0.344 HD
ENDBRANCH   1   2
BRANCH   1   6
ATOM      6  C   UNL     1      14.046  34.964  13.210  1.00  0.00     0.096 C 
ATOM      7  O   UNL     1      13.220  34.064  13.515  1.00  0.00    -0.544 OA
ATOM      8  O   UNL     1      15.399  34.771  13.460  1.00  0.00    -0.544 OA
ENDBRANCH   1   6
TORSDOF 2
ENDMDL
MODEL 2
REMARK VINA RESULT:    -3.266     10.389     10.942
REMARK INTER + INTRA:          -3.552
REMARK INTER:                  -3.552
REMARK INTRA:                   0.000
REMARK UNBOUND:                 0.000
REMARK SMILES [NH3+]CC(=O)[O-]
REMARK SMILES IDX 2 1 1 2 3 6 4 7 5 8
REMARK H PARENT 1 3 1 4 1 5
REMARK Flexibility Score: inf
ROOT
ATOM      1  C   UNL     1       4.674  39.688  12.908  1.00  0.00     0.312 C 
ENDROOT
BRANCH   1   2
ATOM      2  N   UNL     1       5.224  39.019  14.085  1.00  0.00    -0.353 N 
ATOM      3  H   UNL     1       4.852  38.042  14.130  1.00  0.00     0.344 HD
ATOM      4  H   UNL     1       4.941  39.529  14.954  1.00  0.00     0.344 HD
ATOM      5  H   UNL     1       6.268  38.981  14.022  1.00  0.00     0.344 HD
ENDBRANCH   1   2
BRANCH   1   6
ATOM      6  C   UNL     1       3.294  39.187  12.614  1.00  0.00     0.096 C 
ATOM      7  O   UNL     1       2.294  39.921  12.831  1.00  0.00    -0.544 OA
ATOM      8  O   UNL     1       3.110  37.891  12.147  1.00  0.00    -0.544 OA
ENDBRANCH   1   6
TORSDOF 2
ENDMDL
MODEL 3
REMARK VINA RESULT:    -3.021      2.209      2.477
REMARK INTER + INTRA:          -3.285
REMARK INTER:                  -3.285
REMARK INTRA:                   0.000
REMARK UNBOUND:                 0.000
REMARK SMILES [NH3+]CC(=O)[O-]
REMARK SMILES IDX 2 1 1 2 3 6 4 7 5 8
REMARK H PARENT 1 3 1 4 1 5
REMARK Flexibility Score: inf
ROOT
ATOM      1  C   UNL     1      13.720  33.075  12.818  1.00  0.00     0.312 C 
ENDROOT
BRANCH   1   2
ATOM      2  N   UNL     1      12.652  32.427  13.577  1.00  0.00    -0.353 N 
ATOM      3  H   UNL     1      12.964  32.302  14.568  1.00  0.00     0.344 HD
ATOM      4  H   UNL     1      12.439  31.488  13.168  1.00  0.00     0.344 HD
ATOM      5  H   UNL     1      11.792  33.022  13.566  1.00  0.00     0.344 HD
ENDBRANCH   1   2
BRANCH   1   6
ATOM      6  C   UNL     1      13.975  34.455  13.338  1.00  0.00     0.096 C 
ATOM      7  O   UNL     1      13.018  35.168  13.740  1.00  0.00    -0.544 OA
ATOM      8  O   UNL     1      15.265  34.973  13.332  1.00  0.00    -0.544 OA
ENDBRANCH   1   6
TORSDOF 2
ENDMDL
MODEL 4
REMARK VINA RESULT:    -2.972      2.063      2.562
REMARK INTER + INTRA:          -3.232
REMARK INTER:                  -3.232
REMARK INTRA:                   0.000
REMARK UNBOUND:                 0.000
REMARK SMILES [NH3+]CC(=O)[O-]
REMARK SMILES IDX 2 1 1 2 3 6 4 7 5 8
REMARK H PARENT 1 3 1 4 1 5
REMARK Flexibility Score: inf
ROOT
ATOM      1  C   UNL     1      13.919  34.348  13.144  1.00  0.00     0.312 C 
ENDROOT
BRANCH   1   2
ATOM      2  N   UNL     1      12.833  34.975  13.893  1.00  0.00    -0.353 N 
ATOM      3  H   UNL     1      12.044  34.294  13.988  1.00  0.00     0.344 HD
ATOM      4  H   UNL     1      12.489  35.823  13.386  1.00  0.00     0.344 HD
ATOM      5  H   UNL     1      13.164  35.244  14.848  1.00  0.00     0.344 HD
ENDBRANCH   1   2
BRANCH   1   6
ATOM      6  C   UNL     1      13.629  32.898  12.908  1.00  0.00     0.096 C 
ATOM      7  O   UNL     1      14.277  32.255  12.040  1.00  0.00    -0.544 OA
ATOM      8  O   UNL     1      12.609  32.269  13.612  1.00  0.00    -0.544 OA
ENDBRANCH   1   6
TORSDOF 2
ENDMDL
MODEL 5
REMARK VINA RESULT:    -2.930     10.281     10.807
REMARK INTER + INTRA:          -3.187
REMARK INTER:                  -3.187
REMARK INTRA:                   0.000
REMARK UNBOUND:                 0.000
REMARK SMILES [NH3+]CC(=O)[O-]
REMARK SMILES IDX 2 1 1 2 3 6 4 7 5 8
REMARK H PARENT 1 3 1 4 1 5
REMARK Flexibility Score: inf
ROOT
ATOM      1  C   UNL     1       2.903  38.422  12.501  1.00  0.00     0.312 C 
ENDROOT
BRANCH   1   2
ATOM      2  N   UNL     1       3.366  37.288  11.704  1.00  0.00    -0.353 N 
ATOM      3  H   UNL     1       2.647  36.528  11.739  1.00  0.00     0.344 HD
ATOM      4  H   UNL     1       4.266  36.920  12.092  1.00  0.00     0.344 HD
ATOM      5  H   UNL     1       3.502  37.580  10.709  1.00  0.00     0.344 HD
ENDBRANCH   1   2
BRANCH   1   6
ATOM      6  C   UNL     1       4.016  39.398  12.727  1.00  0.00     0.096 C 
ATOM      7  O   UNL     1       4.953  39.118  13.520  1.00  0.00    -0.544 OA
ATOM      8  O   UNL     1       3.991  40.637  12.099  1.00  0.00    -0.544 OA
ENDBRANCH   1   6
TORSDOF 2
ENDMDL
MODEL 6
REMARK VINA RESULT:    -2.879     14.877     15.219
REMARK INTER + INTRA:          -3.131
REMARK INTER:                  -3.131
REMARK INTRA:                   0.000
REMARK UNBOUND:                 0.000
REMARK SMILES [NH3+]CC(=O)[O-]
REMARK SMILES IDX 2 1 1 2 3 6 4 7 5 8
REMARK H PARENT 1 3 1 4 1 5
REMARK Flexibility Score: inf
ROOT
ATOM      1  C   UNL     1       6.155  48.964   8.775  1.00  0.00     0.312 C 
ENDROOT
BRANCH   1   2
ATOM      2  N   UNL     1       4.931  48.833   7.988  1.00  0.00    -0.353 N 
ATOM      3  H   UNL     1       5.107  48.188   7.184  1.00  0.00     0.344 HD
ATOM      4  H   UNL     1       4.642  49.767   7.615  1.00  0.00     0.344 HD
ATOM      5  H   UNL     1       4.165  48.435   8.578  1.00  0.00     0.344 HD
ENDBRANCH   1   2
BRANCH   1   6
ATOM      6  C   UNL     1       6.537  47.648   9.380  1.00  0.00     0.096 C 
ATOM      7  O   UNL     1       5.646  46.853   9.780  1.00  0.00    -0.544 OA
ATOM      8  O   UNL     1       7.877  47.323   9.547  1.00  0.00    -0.544 OA
ENDBRANCH   1   6
TORSDOF 2
ENDMDL
MODEL 7
REMARK VINA RESULT:    -2.829     14.928     15.295
REMARK INTER + INTRA:          -3.077
REMARK INTER:                  -3.077
REMARK INTRA:                   0.000
REMARK UNBOUND:                 0.000
REMARK SMILES [NH3+]CC(=O)[O-]
REMARK SMILES IDX 2 1 1 2 3 6 4 7 5 8
REMARK H PARENT 1 3 1 4 1 5
REMARK Flexibility Score: inf
ROOT
ATOM      1  C   UNL     1       5.388  47.019   9.382  1.00  0.00     0.312 C 
ENDROOT
BRANCH   1   2
ATOM      2  N   UNL     1       4.220  47.723   8.857  1.00  0.00    -0.353 N 
ATOM      3  H   UNL     1       3.358  47.176   9.088  1.00  0.00     0.344 HD
ATOM      4  H   UNL     1       4.293  47.816   7.818  1.00  0.00     0.344 HD
ATOM      5  H   UNL     1       4.145  48.671   9.293  1.00  0.00     0.344 HD
ENDBRANCH   1   2
BRANCH   1   6
ATOM      6  C   UNL     1       6.617  47.864   9.249  1.00  0.00     0.096 C 
ATOM      7  O   UNL     1       7.743  47.397   9.564  1.00  0.00    -0.544 OA
ATOM      8  O   UNL     1       6.512  49.183   8.825  1.00  0.00    -0.544 OA
ENDBRANCH   1   6
TORSDOF 2
ENDMDL
MODEL 8
REMARK VINA RESULT:    -2.800     14.981     15.330
REMARK INTER + INTRA:          -3.045
REMARK INTER:                  -3.045
REMARK INTRA:                   0.000
REMARK UNBOUND:                 0.000
REMARK SMILES [NH3+]CC(=O)[O-]
REMARK SMILES IDX 2 1 1 2 3 6 4 7 5 8
REMARK H PARENT 1 3 1 4 1 5
REMARK Flexibility Score: inf
ROOT
ATOM      1  C   UNL     1       5.304  47.063   9.340  1.00  0.00     0.312 C 
ENDROOT
BRANCH   1   2
ATOM      2  N   UNL     1       4.127  47.764   8.829  1.00  0.00    -0.353 N 
ATOM      3  H   UNL     1       3.834  48.491   9.522  1.00  0.00     0.344 HD
ATOM      4  H   UNL     1       3.340  47.090   8.690  1.00  0.00     0.344 HD
ATOM      5  H   UNL     1       4.355  48.234   7.922  1.00  0.00     0.344 HD
ENDBRANCH   1   2
BRANCH   1   6
ATOM      6  C   UNL     1       6.517  47.936   9.253  1.00  0.00     0.096 C 
ATOM      7  O   UNL     1       6.416  49.124   8.848  1.00  0.00    -0.544 OA
ATOM      8  O   UNL     1       7.768  47.422   9.573  1.00  0.00    -0.544 OA
ENDBRANCH   1   6
TORSDOF 2
ENDMDL
MODEL 9
REMARK VINA RESULT:    -2.705     14.796     15.208
REMARK INTER + INTRA:          -2.943
REMARK INTER:                  -2.943
REMARK INTRA:                   0.000
REMARK UNBOUND:                 0.000
REMARK SMILES [NH3+]CC(=O)[O-]
REMARK SMILES IDX 2 1 1 2 3 6 4 7 5 8
REMARK H PARENT 1 3 1 4 1 5
REMARK Flexibility Score: inf
ROOT
ATOM      1  C   UNL     1       6.367  48.214   9.113  1.00  0.00     0.312 C 
ENDROOT
BRANCH   1   2
ATOM      2  N   UNL     1       7.558  47.385   8.941  1.00  0.00    -0.353 N 
ATOM      3  H   UNL     1       8.215  47.862   8.281  1.00  0.00     0.344 HD
ATOM      4  H   UNL     1       7.295  46.455   8.542  1.00  0.00     0.344 HD
ATOM      5  H   UNL     1       8.039  47.253   9.860  1.00  0.00     0.344 HD
ENDBRANCH   1   2
BRANCH   1   6
ATOM      6  C   UNL     1       5.136  47.363   9.171  1.00  0.00     0.096 C 
ATOM      7  O   UNL     1       4.177  47.581   8.385  1.00  0.00    -0.544 OA
ATOM      8  O   UNL     1       5.028  46.362  10.128  1.00  0.00    -0.544 OA
ENDBRANCH   1   6
TORSDOF 2
ENDMDL
