MODEL 1
REMARK VINA RESULT:    -3.755      0.000      0.000
REMARK INTER + INTRA:          -4.362
REMARK INTER:                  -4.633
REMARK INTRA:                   0.271
REMARK UNBOUND:                 0.271
REMARK SMILES C=C1[C@@H]2CC[C@H]3[C@H]2C(C)(C)CCC[C@@]13C
REMARK SMILES IDX 14 1 6 2 7 3 3 4 2 5 1 6 4 7 5 8 15 9 8 10 9 11 10 12 11 13
REMARK SMILES IDX 13 15 12 16
REMARK H PARENT
REMARK Flexibility Score: 80.00
ROOT
ATOM      1  C   UNL     1      50.209  33.517  29.580  1.00  0.00    -0.008 C 
ATOM      2  C   UNL     1      50.520  32.025  29.638  1.00  0.00     0.003 C 
ATOM      3  C   UNL     1      49.374  31.538  28.735  1.00  0.00     0.006 C 
ATOM      4  C   UNL     1      48.286  31.933  29.721  1.00  0.00     0.019 C 
ATOM      5  C   UNL     1      48.702  33.415  29.886  1.00  0.00    -0.068 C 
ATOM      6  C   UNL     1      47.876  34.426  30.167  1.00  0.00     0.009 C 
ATOM      7  C   UNL     1      48.683  31.212  30.999  1.00  0.00     0.008 C 
ATOM      8  C   UNL     1      50.207  31.328  30.987  1.00  0.00     0.005 C 
ATOM      9  C   UNL     1      50.975  34.339  30.635  1.00  0.00     0.016 C 
ENDROOT
BRANCH   3  10
ATOM     10  C   UNL     1      49.894  30.689  27.556  1.00  0.00    -0.032 C 
ATOM     11  C   UNL     1      50.850  29.557  28.007  1.00  0.00     0.011 C 
ATOM     12  C   UNL     1      48.697  30.017  26.838  1.00  0.00     0.011 C 
BRANCH  10  13
ATOM     13  C   UNL     1      50.638  31.699  26.558  1.00  0.00     0.007 CG0
ATOM     14  G   UNL     1      51.336  33.010  27.136  1.00  0.00     0.000 G0
ENDBRANCH  10  13
ENDBRANCH   3  10
BRANCH   1  15
ATOM     15  C   UNL     1      50.540  34.011  28.091  1.00  0.00     0.011 C 
BRANCH  15  16
ATOM     16  C   UNL     1      51.342  33.010  27.139  1.00  0.00     0.001 CG0
ATOM     17  G   UNL     1      50.644  31.704  26.552  1.00  0.00     0.000 G0
ENDBRANCH  15  16
ENDBRANCH   1  15
TORSDOF 0
ENDMDL
MODEL 2
REMARK VINA RESULT:    -3.441     18.635     20.498
REMARK INTER + INTRA:          -3.975
REMARK INTER:                  -4.255
REMARK INTRA:                   0.280
REMARK UNBOUND:                 0.271
REMARK SMILES C=C1[C@@H]2CC[C@H]3[C@H]2C(C)(C)CCC[C@@]13C
REMARK SMILES IDX 14 1 6 2 7 3 3 4 2 5 1 6 4 7 5 8 15 9 8 10 9 11 10 12 11 13
REMARK SMILES IDX 13 15 12 16
REMARK H PARENT
REMARK Flexibility Score: 80.00
ROOT
ATOM      1  C   UNL     1      59.180  43.486  41.588  1.00  0.00    -0.008 C 
ATOM      2  C   UNL     1      57.717  43.786  41.899  1.00  0.00     0.003 C 
ATOM      3  C   UNL     1      57.949  44.859  42.975  1.00  0.00     0.006 C 
ATOM      4  C   UNL     1      58.555  43.883  43.972  1.00  0.00     0.019 C 
ATOM      5  C   UNL     1      59.658  43.320  43.044  1.00  0.00    -0.068 C 
ATOM      6  C   UNL     1      60.844  42.850  43.443  1.00  0.00     0.009 C 
ATOM      7  C   UNL     1      57.492  42.805  44.107  1.00  0.00     0.008 C 
ATOM      8  C   UNL     1      56.958  42.682  42.680  1.00  0.00     0.005 C 
ATOM      9  C   UNL     1      59.372  42.206  40.750  1.00  0.00     0.016 C 
ENDROOT
BRANCH   3  10
ATOM     10  C   UNL     1      57.218  46.176  42.639  1.00  0.00    -0.032 C 
ATOM     11  C   UNL     1      55.724  45.962  42.293  1.00  0.00     0.011 C 
ATOM     12  C   UNL     1      57.271  47.122  43.864  1.00  0.00     0.011 C 
BRANCH  10  13
ATOM     13  C   UNL     1      58.001  46.831  41.403  1.00  0.00     0.007 CG0
ATOM     14  G   UNL     1      58.755  45.892  40.360  1.00  0.00     0.000 G0
ENDBRANCH  10  13
ENDBRANCH   3  10
BRANCH   1  15
ATOM     15  C   UNL     1      59.779  44.775  40.846  1.00  0.00     0.011 C 
BRANCH  15  16
ATOM     16  C   UNL     1      58.750  45.896  40.361  1.00  0.00     0.001 CG0
ATOM     17  G   UNL     1      58.005  46.833  41.412  1.00  0.00     0.000 G0
ENDBRANCH  15  16
ENDBRANCH   1  15
TORSDOF 0
ENDMDL
MODEL 3
REMARK VINA RESULT:    -3.319      1.624      3.311
REMARK INTER + INTRA:          -3.824
REMARK INTER:                  -4.094
REMARK INTRA:                   0.270
REMARK UNBOUND:                 0.271
REMARK SMILES C=C1[C@@H]2CC[C@H]3[C@H]2C(C)(C)CCC[C@@]13C
REMARK SMILES IDX 14 1 6 2 7 3 3 4 2 5 1 6 4 7 5 8 15 9 8 10 9 11 10 12 11 13
REMARK SMILES IDX 13 15 12 16
REMARK H PARENT
REMARK Flexibility Score: 80.00
ROOT
ATOM      1  C   UNL     1      48.924  32.983  29.785  1.00  0.00    -0.008 C 
ATOM      2  C   UNL     1      48.787  32.603  28.314  1.00  0.00     0.003 C 
ATOM      3  C   UNL     1      50.131  31.873  28.161  1.00  0.00     0.006 C 
ATOM      4  C   UNL     1      50.960  33.133  28.350  1.00  0.00     0.019 C 
ATOM      5  C   UNL     1      50.348  33.567  29.703  1.00  0.00    -0.068 C 
ATOM      6  C   UNL     1      50.981  34.258  30.656  1.00  0.00     0.009 C 
ATOM      7  C   UNL     1      50.418  34.079  27.291  1.00  0.00     0.008 C 
ATOM      8  C   UNL     1      48.920  33.773  27.305  1.00  0.00     0.005 C 
ATOM      9  C   UNL     1      47.881  34.021  30.244  1.00  0.00     0.016 C 
ENDROOT
BRANCH   3  10
ATOM     10  C   UNL     1      49.947  30.438  27.623  1.00  0.00    -0.032 C 
ATOM     11  C   UNL     1      49.070  30.382  26.349  1.00  0.00     0.011 C 
ATOM     12  C   UNL     1      51.329  29.845  27.253  1.00  0.00     0.011 C 
BRANCH  10  13
ATOM     13  C   UNL     1      49.283  29.587  28.809  1.00  0.00     0.007 CG0
ATOM     14  G   UNL     1      48.341  30.313  29.870  1.00  0.00     0.000 G0
ENDBRANCH  10  13
ENDBRANCH   3  10
BRANCH   1  15
ATOM     15  C   UNL     1      48.823  31.626  30.634  1.00  0.00     0.011 C 
BRANCH  15  16
ATOM     16  C   UNL     1      48.340  30.309  29.872  1.00  0.00     0.001 CG0
ATOM     17  G   UNL     1      49.280  29.591  28.803  1.00  0.00     0.000 G0
ENDBRANCH  15  16
ENDBRANCH   1  15
TORSDOF 0
ENDMDL
MODEL 4
REMARK VINA RESULT:    -3.231      3.942      6.256
REMARK INTER + INTRA:          -3.715
REMARK INTER:                  -3.976
REMARK INTRA:                   0.261
REMARK UNBOUND:                 0.271
REMARK SMILES C=C1[C@@H]2CC[C@H]3[C@H]2C(C)(C)CCC[C@@]13C
REMARK SMILES IDX 14 1 6 2 7 3 3 4 2 5 1 6 4 7 5 8 15 9 8 10 9 11 10 12 11 13
REMARK SMILES IDX 13 15 12 16
REMARK H PARENT
REMARK Flexibility Score: 80.00
ROOT
ATOM      1  C   UNL     1      55.124  29.998  25.809  1.00  0.00    -0.008 C 
ATOM      2  C   UNL     1      54.153  28.858  25.520  1.00  0.00     0.003 C 
ATOM      3  C   UNL     1      53.584  28.704  26.940  1.00  0.00     0.006 C 
ATOM      4  C   UNL     1      54.894  28.202  27.527  1.00  0.00     0.019 C 
ATOM      5  C   UNL     1      55.780  29.383  27.061  1.00  0.00    -0.068 C 
ATOM      6  C   UNL     1      56.872  29.829  27.688  1.00  0.00     0.009 C 
ATOM      7  C   UNL     1      55.244  27.010  26.652  1.00  0.00     0.008 C 
ATOM      8  C   UNL     1      54.803  27.473  25.264  1.00  0.00     0.005 C 
ATOM      9  C   UNL     1      56.133  30.240  24.668  1.00  0.00     0.016 C 
ENDROOT
BRANCH   3  10
ATOM     10  C   UNL     1      52.045  28.817  26.957  1.00  0.00    -0.032 C 
ATOM     11  C   UNL     1      51.364  27.890  25.921  1.00  0.00     0.011 C 
ATOM     12  C   UNL     1      51.514  28.410  28.354  1.00  0.00     0.011 C 
BRANCH  10  13
ATOM     13  C   UNL     1      51.697  30.354  26.662  1.00  0.00     0.007 CG0
ATOM     14  G   UNL     1      52.684  31.231  25.770  1.00  0.00     0.000 G0
ENDBRANCH  10  13
ENDBRANCH   3  10
BRANCH   1  15
ATOM     15  C   UNL     1      54.243  31.304  26.107  1.00  0.00     0.011 C 
BRANCH  15  16
ATOM     16  C   UNL     1      52.684  31.240  25.770  1.00  0.00     0.001 CG0
ATOM     17  G   UNL     1      51.691  30.363  26.655  1.00  0.00     0.000 G0
ENDBRANCH  15  16
ENDBRANCH   1  15
TORSDOF 0
ENDMDL
MODEL 5
REMARK VINA RESULT:    -3.128      1.519      3.252
REMARK INTER + INTRA:          -3.588
REMARK INTER:                  -3.849
REMARK INTRA:                   0.260
REMARK UNBOUND:                 0.271
REMARK SMILES C=C1[C@@H]2CC[C@H]3[C@H]2C(C)(C)CCC[C@@]13C
REMARK SMILES IDX 14 1 6 2 7 3 3 4 2 5 1 6 4 7 5 8 15 9 8 10 9 11 10 12 11 13
REMARK SMILES IDX 13 15 12 16
REMARK H PARENT
REMARK Flexibility Score: 80.00
ROOT
ATOM      1  C   UNL     1      49.327  32.313  29.490  1.00  0.00    -0.008 C 
ATOM      2  C   UNL     1      49.236  32.206  27.971  1.00  0.00     0.003 C 
ATOM      3  C   UNL     1      50.736  32.033  27.684  1.00  0.00     0.006 C 
ATOM      4  C   UNL     1      51.095  33.440  28.136  1.00  0.00     0.019 C 
ATOM      5  C   UNL     1      50.458  33.359  29.544  1.00  0.00    -0.068 C 
ATOM      6  C   UNL     1      50.875  34.024  30.624  1.00  0.00     0.009 C 
ATOM      7  C   UNL     1      50.198  34.327  27.290  1.00  0.00     0.008 C 
ATOM      8  C   UNL     1      48.898  33.524  27.226  1.00  0.00     0.005 C 
ATOM      9  C   UNL     1      48.024  32.813  30.143  1.00  0.00     0.016 C 
ENDROOT
BRANCH   3  10
ATOM     10  C   UNL     1      51.019  30.759  26.860  1.00  0.00    -0.032 C 
ATOM     11  C   UNL     1      50.139  30.657  25.590  1.00  0.00     0.011 C 
ATOM     12  C   UNL     1      52.496  30.764  26.393  1.00  0.00     0.011 C 
BRANCH  10  13
ATOM     13  C   UNL     1      50.755  29.515  27.837  1.00  0.00     0.007 CG0
ATOM     14  G   UNL     1      49.692  29.649  29.016  1.00  0.00     0.000 G0
ENDBRANCH  10  13
ENDBRANCH   3  10
BRANCH   1  15
ATOM     15  C   UNL     1      49.748  30.867  30.040  1.00  0.00     0.011 C 
BRANCH  15  16
ATOM     16  C   UNL     1      49.692  29.640  29.019  1.00  0.00     0.001 CG0
ATOM     17  G   UNL     1      50.758  29.507  27.842  1.00  0.00     0.000 G0
ENDBRANCH  15  16
ENDBRANCH   1  15
TORSDOF 0
ENDMDL
MODEL 6
REMARK VINA RESULT:    -2.816      1.283      3.991
REMARK INTER + INTRA:          -3.204
REMARK INTER:                  -3.461
REMARK INTRA:                   0.258
REMARK UNBOUND:                 0.271
REMARK SMILES C=C1[C@@H]2CC[C@H]3[C@H]2C(C)(C)CCC[C@@]13C
REMARK SMILES IDX 14 1 6 2 7 3 3 4 2 5 1 6 4 7 5 8 15 9 8 10 9 11 10 12 11 13
REMARK SMILES IDX 13 15 12 16
REMARK H PARENT
REMARK Flexibility Score: 80.00
ROOT
ATOM      1  C   UNL     1      51.045  31.989  26.522  1.00  0.00    -0.008 C 
ATOM      2  C   UNL     1      49.776  31.964  27.369  1.00  0.00     0.003 C 
ATOM      3  C   UNL     1      50.426  31.570  28.705  1.00  0.00     0.006 C 
ATOM      4  C   UNL     1      50.821  30.181  28.227  1.00  0.00     0.019 C 
ATOM      5  C   UNL     1      51.605  30.626  26.969  1.00  0.00    -0.068 C 
ATOM      6  C   UNL     1      52.636  29.972  26.425  1.00  0.00     0.009 C 
ATOM      7  C   UNL     1      49.510  29.582  27.747  1.00  0.00     0.008 C 
ATOM      8  C   UNL     1      48.814  30.778  27.097  1.00  0.00     0.005 C 
ATOM      9  C   UNL     1      50.763  32.048  25.007  1.00  0.00     0.016 C 
ENDROOT
BRANCH   3  10
ATOM     10  C   UNL     1      50.082  32.572  29.827  1.00  0.00    -0.032 C 
ATOM     11  C   UNL     1      48.561  32.836  29.951  1.00  0.00     0.011 C 
ATOM     12  C   UNL     1      50.559  32.006  31.188  1.00  0.00     0.011 C 
BRANCH  10  13
ATOM     13  C   UNL     1      50.869  33.927  29.488  1.00  0.00     0.007 CG0
ATOM     14  G   UNL     1      51.204  34.287  27.972  1.00  0.00     0.000 G0
ENDBRANCH  10  13
ENDBRANCH   3  10
BRANCH   1  15
ATOM     15  C   UNL     1      51.913  33.245  27.011  1.00  0.00     0.011 C 
BRANCH  15  16
ATOM     16  C   UNL     1      51.208  34.302  27.979  1.00  0.00     0.001 CG0
ATOM     17  G   UNL     1      50.855  33.923  29.486  1.00  0.00     0.000 G0
ENDBRANCH  15  16
ENDBRANCH   1  15
TORSDOF 0
ENDMDL
MODEL 7
REMARK VINA RESULT:    -2.800      5.049      7.161
REMARK INTER + INTRA:          -3.184
REMARK INTER:                  -3.415
REMARK INTRA:                   0.231
REMARK UNBOUND:                 0.271
REMARK SMILES C=C1[C@@H]2CC[C@H]3[C@H]2C(C)(C)CCC[C@@]13C
REMARK SMILES IDX 14 1 6 2 7 3 3 4 2 5 1 6 4 7 5 8 15 9 8 10 9 11 10 12 11 13
REMARK SMILES IDX 13 15 12 16
REMARK H PARENT
REMARK Flexibility Score: 80.00
ROOT
ATOM      1  C   UNL     1      55.508  28.925  26.782  1.00  0.00    -0.008 C 
ATOM      2  C   UNL     1      54.323  29.751  26.289  1.00  0.00     0.003 C 
ATOM      3  C   UNL     1      53.783  28.745  25.260  1.00  0.00     0.006 C 
ATOM      4  C   UNL     1      54.988  28.872  24.342  1.00  0.00     0.019 C 
ATOM      5  C   UNL     1      56.071  28.548  25.398  1.00  0.00    -0.068 C 
ATOM      6  C   UNL     1      57.250  27.969  25.149  1.00  0.00     0.009 C 
ATOM      7  C   UNL     1      55.069  30.364  24.063  1.00  0.00     0.008 C 
ATOM      8  C   UNL     1      54.681  30.977  25.409  1.00  0.00     0.005 C 
ATOM      9  C   UNL     1      56.507  29.741  27.627  1.00  0.00     0.016 C 
ENDROOT
BRANCH   3  10
ATOM     10  C   UNL     1      52.297  28.411  25.511  1.00  0.00    -0.032 C 
ATOM     11  C   UNL     1      51.408  29.674  25.621  1.00  0.00     0.011 C 
ATOM     12  C   UNL     1      51.751  27.570  24.330  1.00  0.00     0.011 C 
BRANCH  10  13
ATOM     13  C   UNL     1      52.243  27.556  26.866  1.00  0.00     0.007 CG0
ATOM     14  G   UNL     1      53.369  27.761  27.974  1.00  0.00     0.000 G0
ENDBRANCH  10  13
ENDBRANCH   3  10
BRANCH   1  15
ATOM     15  C   UNL     1      54.910  27.686  27.605  1.00  0.00     0.011 C 
BRANCH  15  16
ATOM     16  C   UNL     1      53.364  27.736  28.000  1.00  0.00     0.001 CG0
ATOM     17  G   UNL     1      52.230  27.555  26.895  1.00  0.00     0.000 G0
ENDBRANCH  15  16
ENDBRANCH   1  15
TORSDOF 0
ENDMDL
MODEL 8
REMARK VINA RESULT:    -2.686      1.306      2.042
REMARK INTER + INTRA:          -3.043
REMARK INTER:                  -3.313
REMARK INTRA:                   0.270
REMARK UNBOUND:                 0.271
REMARK SMILES C=C1[C@@H]2CC[C@H]3[C@H]2C(C)(C)CCC[C@@]13C
REMARK SMILES IDX 14 1 6 2 7 3 3 4 2 5 1 6 4 7 5 8 15 9 8 10 9 11 10 12 11 13
REMARK SMILES IDX 13 15 12 16
REMARK H PARENT
REMARK Flexibility Score: 80.00
ROOT
ATOM      1  C   UNL     1      50.846  33.604  27.709  1.00  0.00    -0.008 C 
ATOM      2  C   UNL     1      50.678  32.684  28.915  1.00  0.00     0.003 C 
ATOM      3  C   UNL     1      49.500  31.854  28.380  1.00  0.00     0.006 C 
ATOM      4  C   UNL     1      48.524  33.020  28.411  1.00  0.00     0.019 C 
ATOM      5  C   UNL     1      49.364  33.999  27.556  1.00  0.00    -0.068 C 
ATOM      6  C   UNL     1      48.874  34.960  26.769  1.00  0.00     0.009 C 
ATOM      7  C   UNL     1      48.596  33.508  29.849  1.00  0.00     0.008 C 
ATOM      8  C   UNL     1      50.079  33.346  30.183  1.00  0.00     0.005 C 
ATOM      9  C   UNL     1      51.758  34.814  27.990  1.00  0.00     0.016 C 
ENDROOT
BRANCH   3  10
ATOM     10  C   UNL     1      49.808  30.342  28.400  1.00  0.00    -0.032 C 
ATOM     11  C   UNL     1      50.331  29.853  29.773  1.00  0.00     0.011 C 
ATOM     12  C   UNL     1      48.514  29.548  28.095  1.00  0.00     0.011 C 
BRANCH  10  13
ATOM     13  C   UNL     1      50.896  30.083  27.251  1.00  0.00     0.007 CG0
ATOM     14  G   UNL     1      51.922  31.238  26.860  1.00  0.00     0.000 G0
ENDBRANCH  10  13
ENDBRANCH   3  10
BRANCH   1  15
ATOM     15  C   UNL     1      51.410  32.706  26.506  1.00  0.00     0.011 C 
BRANCH  15  16
ATOM     16  C   UNL     1      51.926  31.236  26.857  1.00  0.00     0.001 CG0
ATOM     17  G   UNL     1      50.899  30.078  27.240  1.00  0.00     0.000 G0
ENDBRANCH  15  16
ENDBRANCH   1  15
TORSDOF 0
ENDMDL
MODEL 9
REMARK VINA RESULT:    -2.560      4.214      7.000
REMARK INTER + INTRA:          -2.887
REMARK INTER:                  -3.145
REMARK INTRA:                   0.258
REMARK UNBOUND:                 0.271
REMARK SMILES C=C1[C@@H]2CC[C@H]3[C@H]2C(C)(C)CCC[C@@]13C
REMARK SMILES IDX 14 1 6 2 7 3 3 4 2 5 1 6 4 7 5 8 15 9 8 10 9 11 10 12 11 13
REMARK SMILES IDX 13 15 12 16
REMARK H PARENT
REMARK Flexibility Score: 80.00
ROOT
ATOM      1  C   UNL     1      54.519  28.193  26.178  1.00  0.00    -0.008 C 
ATOM      2  C   UNL     1      54.711  29.674  26.488  1.00  0.00     0.003 C 
ATOM      3  C   UNL     1      54.117  30.238  25.186  1.00  0.00     0.006 C 
ATOM      4  C   UNL     1      55.234  29.688  24.313  1.00  0.00     0.019 C 
ATOM      5  C   UNL     1      55.121  28.211  24.760  1.00  0.00    -0.068 C 
ATOM      6  C   UNL     1      55.420  27.147  24.008  1.00  0.00     0.009 C 
ATOM      7  C   UNL     1      56.495  30.251  24.948  1.00  0.00     0.008 C 
ATOM      8  C   UNL     1      56.175  30.184  26.441  1.00  0.00     0.005 C 
ATOM      9  C   UNL     1      55.290  27.266  27.139  1.00  0.00     0.016 C 
ENDROOT
BRANCH   3  10
ATOM     10  C   UNL     1      52.982  31.246  25.463  1.00  0.00    -0.032 C 
ATOM     11  C   UNL     1      53.392  32.351  26.467  1.00  0.00     0.011 C 
ATOM     12  C   UNL     1      52.587  31.951  24.142  1.00  0.00     0.011 C 
BRANCH  10  13
ATOM     13  C   UNL     1      51.744  30.397  26.026  1.00  0.00     0.007 CG0
ATOM     14  G   UNL     1      52.011  29.037  26.813  1.00  0.00     0.000 G0
ENDBRANCH  10  13
ENDBRANCH   3  10
BRANCH   1  15
ATOM     15  C   UNL     1      52.942  27.903  26.215  1.00  0.00     0.011 C 
BRANCH  15  16
ATOM     16  C   UNL     1      51.994  29.038  26.819  1.00  0.00     0.001 CG0
ATOM     17  G   UNL     1      51.732  30.393  26.023  1.00  0.00     0.000 G0
ENDBRANCH  15  16
ENDBRANCH   1  15
TORSDOF 0
ENDMDL
