MODEL 1
REMARK VINA RESULT:    -5.160      0.000      0.000
REMARK INTER + INTRA:         -11.768
REMARK INTER:                  -9.382
REMARK INTRA:                  -2.385
REMARK UNBOUND:                -2.385
REMARK SMILES CCCCCCCCCCCCCCCC(=O)[O-]
REMARK SMILES IDX 9 1 10 2 11 3 12 4 13 5 14 6 15 7 16 8 17 9 18 10 8 11 7 12
REMARK SMILES IDX 6 13 5 14 4 15 3 16 2 17 1 18
REMARK H PARENT
REMARK Flexibility Score: inf
ROOT
ATOM      1  C   UNL     1      10.224   7.804 -12.540  1.00  0.00     0.000 C 
ENDROOT
BRANCH   1   2
ATOM      2  C   UNL     1       9.568   6.536 -11.973  1.00  0.00     0.000 C 
BRANCH   2   3
ATOM      3  C   UNL     1      10.367   5.262 -12.293  1.00  0.00     0.000 C 
BRANCH   3   4
ATOM      4  C   UNL     1      10.842   5.216 -13.754  1.00  0.00     0.000 C 
BRANCH   4   5
ATOM      5  C   UNL     1      12.371   5.096 -13.882  1.00  0.00     0.000 C 
BRANCH   5   6
ATOM      6  C   UNL     1      13.116   5.230 -12.536  1.00  0.00     0.006 C 
BRANCH   6   7
ATOM      7  C   UNL     1      13.879   6.557 -12.428  1.00  0.00     0.053 C 
BRANCH   7   8
ATOM      8  C   UNL     1      13.844   7.068 -11.022  1.00  0.00     0.041 C 
ATOM      9  O   UNL     1      13.025   6.589 -10.194  1.00  0.00    -0.550 OA
ATOM     10  O   UNL     1      14.683   8.107 -10.639  1.00  0.00    -0.550 OA
ENDBRANCH   7   8
ENDBRANCH   6   7
ENDBRANCH   5   6
ENDBRANCH   4   5
ENDBRANCH   3   4
ENDBRANCH   2   3
ENDBRANCH   1   2
BRANCH   1  11
ATOM     11  C   UNL     1       9.202   8.655 -13.308  1.00  0.00     0.000 C 
BRANCH  11  12
ATOM     12  C   UNL     1       7.981   7.845 -13.784  1.00  0.00    -0.000 C 
BRANCH  12  13
ATOM     13  C   UNL     1       7.784   7.795 -15.310  1.00  0.00    -0.000 C 
BRANCH  13  14
ATOM     14  C   UNL     1       9.070   7.422 -16.068  1.00  0.00    -0.000 C 
BRANCH  14  15
ATOM     15  C   UNL     1       9.422   8.438 -17.167  1.00  0.00    -0.000 C 
BRANCH  15  16
ATOM     16  C   UNL     1      10.907   8.845 -17.140  1.00  0.00    -0.000 C 
BRANCH  16  17
ATOM     17  C   UNL     1      11.683   8.156 -16.007  1.00  0.00    -0.003 C 
ATOM     18  C   UNL     1      13.178   8.032 -16.302  1.00  0.00     0.004 C 
ENDBRANCH  16  17
ENDBRANCH  15  16
ENDBRANCH  14  15
ENDBRANCH  13  14
ENDBRANCH  12  13
ENDBRANCH  11  12
ENDBRANCH   1  11
TORSDOF 14
ENDMDL
MODEL 2
REMARK VINA RESULT:    -5.152      2.660      4.828
REMARK INTER + INTRA:         -11.754
REMARK INTER:                  -9.289
REMARK INTRA:                  -2.465
REMARK UNBOUND:                -2.385
REMARK SMILES CCCCCCCCCCCCCCCC(=O)[O-]
REMARK SMILES IDX 9 1 10 2 11 3 12 4 13 5 14 6 15 7 16 8 17 9 18 10 8 11 7 12
REMARK SMILES IDX 6 13 5 14 4 15 3 16 2 17 1 18
REMARK H PARENT
REMARK Flexibility Score: inf
ROOT
ATOM      1  C   UNL     1      10.379   5.980 -10.354  1.00  0.00     0.000 C 
ENDROOT
BRANCH   1   2
ATOM      2  C   UNL     1      10.302   6.394 -11.831  1.00  0.00     0.000 C 
BRANCH   2   3
ATOM      3  C   UNL     1      10.355   5.191 -12.787  1.00  0.00     0.000 C 
BRANCH   3   4
ATOM      4  C   UNL     1      11.675   5.120 -13.572  1.00  0.00     0.000 C 
BRANCH   4   5
ATOM      5  C   UNL     1      11.480   5.314 -15.086  1.00  0.00     0.000 C 
BRANCH   5   6
ATOM      6  C   UNL     1      10.022   5.628 -15.487  1.00  0.00     0.006 C 
BRANCH   6   7
ATOM      7  C   UNL     1       9.848   7.085 -15.938  1.00  0.00     0.053 C 
BRANCH   7   8
ATOM      8  C   UNL     1       8.874   7.794 -15.052  1.00  0.00     0.041 C 
ATOM      9  O   UNL     1       7.775   7.254 -14.758  1.00  0.00    -0.550 OA
ATOM     10  O   UNL     1       9.158   9.073 -14.591  1.00  0.00    -0.550 OA
ENDBRANCH   7   8
ENDBRANCH   6   7
ENDBRANCH   5   6
ENDBRANCH   4   5
ENDBRANCH   3   4
ENDBRANCH   2   3
ENDBRANCH   1   2
BRANCH   1  11
ATOM     11  C   UNL     1      11.564   6.661  -9.653  1.00  0.00     0.000 C 
BRANCH  11  12
ATOM     12  C   UNL     1      12.927   6.081 -10.074  1.00  0.00    -0.000 C 
BRANCH  12  13
ATOM     13  C   UNL     1      13.976   7.121 -10.506  1.00  0.00    -0.000 C 
BRANCH  13  14
ATOM     14  C   UNL     1      13.919   7.441 -12.010  1.00  0.00    -0.000 C 
BRANCH  14  15
ATOM     15  C   UNL     1      13.047   8.670 -12.318  1.00  0.00    -0.000 C 
BRANCH  15  16
ATOM     16  C   UNL     1      12.637   8.744 -13.800  1.00  0.00    -0.000 C 
BRANCH  16  17
ATOM     17  C   UNL     1      13.764   8.295 -14.744  1.00  0.00    -0.003 C 
ATOM     18  C   UNL     1      13.329   8.253 -16.209  1.00  0.00     0.004 C 
ENDBRANCH  16  17
ENDBRANCH  15  16
ENDBRANCH  14  15
ENDBRANCH  13  14
ENDBRANCH  12  13
ENDBRANCH  11  12
ENDBRANCH   1  11
TORSDOF 14
ENDMDL
MODEL 3
REMARK VINA RESULT:    -5.151      2.975      5.605
REMARK INTER + INTRA:         -11.753
REMARK INTER:                  -9.411
REMARK INTRA:                  -2.341
REMARK UNBOUND:                -2.385
REMARK SMILES CCCCCCCCCCCCCCCC(=O)[O-]
REMARK SMILES IDX 9 1 10 2 11 3 12 4 13 5 14 6 15 7 16 8 17 9 18 10 8 11 7 12
REMARK SMILES IDX 6 13 5 14 4 15 3 16 2 17 1 18
REMARK H PARENT
REMARK Flexibility Score: inf
ROOT
ATOM      1  C   UNL     1      10.460   4.908 -12.610  1.00  0.00     0.000 C 
ENDROOT
BRANCH   1   2
ATOM      2  C   UNL     1      11.803   4.689 -13.323  1.00  0.00     0.000 C 
BRANCH   2   3
ATOM      3  C   UNL     1      11.665   4.673 -14.854  1.00  0.00     0.000 C 
BRANCH   3   4
ATOM      4  C   UNL     1      12.158   5.977 -15.503  1.00  0.00     0.000 C 
BRANCH   4   5
ATOM      5  C   UNL     1      11.011   6.946 -15.839  1.00  0.00     0.000 C 
BRANCH   5   6
ATOM      6  C   UNL     1       9.644   6.251 -16.016  1.00  0.00     0.006 C 
BRANCH   6   7
ATOM      7  C   UNL     1       8.534   6.944 -15.216  1.00  0.00     0.053 C 
BRANCH   7   8
ATOM      8  C   UNL     1       8.404   8.375 -15.633  1.00  0.00     0.041 C 
ATOM      9  O   UNL     1       8.427   9.292 -14.771  1.00  0.00    -0.550 OA
ATOM     10  O   UNL     1       8.207   8.693 -16.971  1.00  0.00    -0.550 OA
ENDBRANCH   7   8
ENDBRANCH   6   7
ENDBRANCH   5   6
ENDBRANCH   4   5
ENDBRANCH   3   4
ENDBRANCH   2   3
ENDBRANCH   1   2
BRANCH   1  11
ATOM     11  C   UNL     1      10.471   6.220 -11.811  1.00  0.00     0.000 C 
BRANCH  11  12
ATOM     12  C   UNL     1      10.436   5.997 -10.287  1.00  0.00    -0.000 C 
BRANCH  12  13
ATOM     13  C   UNL     1      11.659   6.530  -9.519  1.00  0.00    -0.000 C 
BRANCH  13  14
ATOM     14  C   UNL     1      12.991   5.978 -10.056  1.00  0.00    -0.000 C 
BRANCH  14  15
ATOM     15  C   UNL     1      13.962   7.093 -10.480  1.00  0.00    -0.000 C 
BRANCH  15  16
ATOM     16  C   UNL     1      14.316   7.028 -11.977  1.00  0.00    -0.000 C 
BRANCH  16  17
ATOM     17  C   UNL     1      13.516   8.039 -12.813  1.00  0.00    -0.003 C 
ATOM     18  C   UNL     1      12.892   9.149 -11.966  1.00  0.00     0.004 C 
ENDBRANCH  16  17
ENDBRANCH  15  16
ENDBRANCH  14  15
ENDBRANCH  13  14
ENDBRANCH  12  13
ENDBRANCH  11  12
ENDBRANCH   1  11
TORSDOF 14
ENDMDL
MODEL 4
REMARK VINA RESULT:    -5.132      1.468      3.336
REMARK INTER + INTRA:         -11.718
REMARK INTER:                  -9.640
REMARK INTRA:                  -2.078
REMARK UNBOUND:                -2.385
REMARK SMILES CCCCCCCCCCCCCCCC(=O)[O-]
REMARK SMILES IDX 9 1 10 2 11 3 12 4 13 5 14 6 15 7 16 8 17 9 18 10 8 11 7 12
REMARK SMILES IDX 6 13 5 14 4 15 3 16 2 17 1 18
REMARK H PARENT
REMARK Flexibility Score: inf
ROOT
ATOM      1  C   UNL     1       8.936   8.973 -15.375  1.00  0.00     0.000 C 
ENDROOT
BRANCH   1   2
ATOM      2  C   UNL     1       8.128   8.191 -14.328  1.00  0.00     0.000 C 
BRANCH   2   3
ATOM      3  C   UNL     1       8.977   7.776 -13.116  1.00  0.00     0.000 C 
BRANCH   3   4
ATOM      4  C   UNL     1       8.215   6.850 -12.153  1.00  0.00     0.000 C 
BRANCH   4   5
ATOM      5  C   UNL     1       9.137   5.849 -11.435  1.00  0.00     0.000 C 
BRANCH   5   6
ATOM      6  C   UNL     1      10.584   6.356 -11.258  1.00  0.00     0.006 C 
BRANCH   6   7
ATOM      7  C   UNL     1      11.100   6.148  -9.828  1.00  0.00     0.053 C 
BRANCH   7   8
ATOM      8  C   UNL     1      12.582   6.341  -9.773  1.00  0.00     0.041 C 
ATOM      9  O   UNL     1      13.264   5.770  -8.881  1.00  0.00    -0.550 OA
ATOM     10  O   UNL     1      13.206   7.191 -10.678  1.00  0.00    -0.550 OA
ENDBRANCH   7   8
ENDBRANCH   6   7
ENDBRANCH   5   6
ENDBRANCH   4   5
ENDBRANCH   3   4
ENDBRANCH   2   3
ENDBRANCH   1   2
BRANCH   1  11
ATOM     11  C   UNL     1       8.687   8.419 -16.786  1.00  0.00     0.000 C 
BRANCH  11  12
ATOM     12  C   UNL     1       9.949   8.432 -17.670  1.00  0.00    -0.000 C 
BRANCH  12  13
ATOM     13  C   UNL     1      11.149   9.200 -17.086  1.00  0.00    -0.000 C 
BRANCH  13  14
ATOM     14  C   UNL     1      12.304   8.276 -16.663  1.00  0.00    -0.000 C 
BRANCH  14  15
ATOM     15  C   UNL     1      12.536   8.281 -15.143  1.00  0.00    -0.000 C 
BRANCH  15  16
ATOM     16  C   UNL     1      12.417   6.876 -14.524  1.00  0.00    -0.000 C 
BRANCH  16  17
ATOM     17  C   UNL     1      11.853   5.845 -15.513  1.00  0.00    -0.003 C 
ATOM     18  C   UNL     1      10.410   5.448 -15.199  1.00  0.00     0.004 C 
ENDBRANCH  16  17
ENDBRANCH  15  16
ENDBRANCH  14  15
ENDBRANCH  13  14
ENDBRANCH  12  13
ENDBRANCH  11  12
ENDBRANCH   1  11
TORSDOF 14
ENDMDL
MODEL 5
REMARK VINA RESULT:    -5.109      1.888      2.693
REMARK INTER + INTRA:         -11.676
REMARK INTER:                  -9.674
REMARK INTRA:                  -2.002
REMARK UNBOUND:                -2.385
REMARK SMILES CCCCCCCCCCCCCCCC(=O)[O-]
REMARK SMILES IDX 9 1 10 2 11 3 12 4 13 5 14 6 15 7 16 8 17 9 18 10 8 11 7 12
REMARK SMILES IDX 6 13 5 14 4 15 3 16 2 17 1 18
REMARK H PARENT
REMARK Flexibility Score: inf
ROOT
ATOM      1  C   UNL     1       9.199   5.896 -11.350  1.00  0.00     0.000 C 
ENDROOT
BRANCH   1   2
ATOM      2  C   UNL     1      10.719   6.061 -11.503  1.00  0.00     0.000 C 
BRANCH   2   3
ATOM      3  C   UNL     1      11.417   6.382 -10.171  1.00  0.00     0.000 C 
BRANCH   3   4
ATOM      4  C   UNL     1      12.949   6.305 -10.276  1.00  0.00     0.000 C 
BRANCH   4   5
ATOM      5  C   UNL     1      13.448   6.285 -11.731  1.00  0.00     0.000 C 
BRANCH   5   6
ATOM      6  C   UNL     1      14.591   7.285 -12.007  1.00  0.00     0.006 C 
BRANCH   6   7
ATOM      7  C   UNL     1      14.253   8.699 -11.517  1.00  0.00     0.053 C 
BRANCH   7   8
ATOM      8  C   UNL     1      13.634   9.500 -12.619  1.00  0.00     0.041 C 
ATOM      9  O   UNL     1      12.381   9.599 -12.704  1.00  0.00    -0.550 OA
ATOM     10  O   UNL     1      14.438  10.097 -13.581  1.00  0.00    -0.550 OA
ENDBRANCH   7   8
ENDBRANCH   6   7
ENDBRANCH   5   6
ENDBRANCH   4   5
ENDBRANCH   3   4
ENDBRANCH   2   3
ENDBRANCH   1   2
BRANCH   1  11
ATOM     11  C   UNL     1       8.446   6.852 -12.286  1.00  0.00     0.000 C 
BRANCH  11  12
ATOM     12  C   UNL     1       9.285   7.292 -13.500  1.00  0.00    -0.000 C 
BRANCH  12  13
ATOM     13  C   UNL     1       8.643   7.022 -14.873  1.00  0.00    -0.000 C 
BRANCH  13  14
ATOM     14  C   UNL     1       9.473   6.065 -15.746  1.00  0.00    -0.000 C 
BRANCH  14  15
ATOM     15  C   UNL     1      10.665   5.460 -14.986  1.00  0.00    -0.000 C 
BRANCH  15  16
ATOM     16  C   UNL     1      12.013   5.772 -15.661  1.00  0.00    -0.000 C 
BRANCH  16  17
ATOM     17  C   UNL     1      12.611   7.107 -15.191  1.00  0.00    -0.003 C 
ATOM     18  C   UNL     1      12.555   8.193 -16.265  1.00  0.00     0.004 C 
ENDBRANCH  16  17
ENDBRANCH  15  16
ENDBRANCH  14  15
ENDBRANCH  13  14
ENDBRANCH  12  13
ENDBRANCH  11  12
ENDBRANCH   1  11
TORSDOF 14
ENDMDL
MODEL 6
REMARK VINA RESULT:    -5.105      2.668      4.687
REMARK INTER + INTRA:         -11.669
REMARK INTER:                  -9.423
REMARK INTRA:                  -2.246
REMARK UNBOUND:                -2.385
REMARK SMILES CCCCCCCCCCCCCCCC(=O)[O-]
REMARK SMILES IDX 9 1 10 2 11 3 12 4 13 5 14 6 15 7 16 8 17 9 18 10 8 11 7 12
REMARK SMILES IDX 6 13 5 14 4 15 3 16 2 17 1 18
REMARK H PARENT
REMARK Flexibility Score: inf
ROOT
ATOM      1  C   UNL     1      13.244   5.552 -12.895  1.00  0.00     0.000 C 
ENDROOT
BRANCH   1   2
ATOM      2  C   UNL     1      12.772   5.900 -11.475  1.00  0.00     0.000 C 
BRANCH   2   3
ATOM      3  C   UNL     1      11.454   6.692 -11.467  1.00  0.00     0.000 C 
BRANCH   3   4
ATOM      4  C   UNL     1      10.357   6.002 -10.639  1.00  0.00     0.000 C 
BRANCH   4   5
ATOM      5  C   UNL     1       8.985   6.021 -11.334  1.00  0.00     0.000 C 
BRANCH   5   6
ATOM      6  C   UNL     1       8.944   6.901 -12.602  1.00  0.00     0.006 C 
BRANCH   6   7
ATOM      7  C   UNL     1       7.748   7.862 -12.601  1.00  0.00     0.053 C 
BRANCH   7   8
ATOM      8  C   UNL     1       8.140   9.185 -13.178  1.00  0.00     0.041 C 
ATOM      9  O   UNL     1       7.437   9.720 -14.076  1.00  0.00    -0.550 OA
ATOM     10  O   UNL     1       9.310   9.807 -12.758  1.00  0.00    -0.550 OA
ENDBRANCH   7   8
ENDBRANCH   6   7
ENDBRANCH   5   6
ENDBRANCH   4   5
ENDBRANCH   3   4
ENDBRANCH   2   3
ENDBRANCH   1   2
BRANCH   1  11
ATOM     11  C   UNL     1      12.068   5.082 -13.765  1.00  0.00     0.000 C 
BRANCH  11  12
ATOM     12  C   UNL     1      12.141   5.610 -15.210  1.00  0.00    -0.000 C 
BRANCH  12  13
ATOM     13  C   UNL     1      11.328   6.889 -15.482  1.00  0.00    -0.000 C 
BRANCH  13  14
ATOM     14  C   UNL     1      12.072   8.170 -15.069  1.00  0.00    -0.000 C 
BRANCH  14  15
ATOM     15  C   UNL     1      13.529   8.191 -15.559  1.00  0.00    -0.000 C 
BRANCH  15  16
ATOM     16  C   UNL     1      14.506   8.693 -14.481  1.00  0.00    -0.000 C 
BRANCH  16  17
ATOM     17  C   UNL     1      13.826   9.611 -13.454  1.00  0.00    -0.003 C 
ATOM     18  C   UNL     1      14.246   9.306 -12.016  1.00  0.00     0.004 C 
ENDBRANCH  16  17
ENDBRANCH  15  16
ENDBRANCH  14  15
ENDBRANCH  13  14
ENDBRANCH  12  13
ENDBRANCH  11  12
ENDBRANCH   1  11
TORSDOF 14
ENDMDL
MODEL 7
REMARK VINA RESULT:    -5.100      3.314      5.527
REMARK INTER + INTRA:         -11.660
REMARK INTER:                  -9.632
REMARK INTRA:                  -2.028
REMARK UNBOUND:                -2.385
REMARK SMILES CCCCCCCCCCCCCCCC(=O)[O-]
REMARK SMILES IDX 9 1 10 2 11 3 12 4 13 5 14 6 15 7 16 8 17 9 18 10 8 11 7 12
REMARK SMILES IDX 6 13 5 14 4 15 3 16 2 17 1 18
REMARK H PARENT
REMARK Flexibility Score: inf
ROOT
ATOM      1  C   UNL     1      10.497   6.402 -11.855  1.00  0.00     0.000 C 
ENDROOT
BRANCH   1   2
ATOM      2  C   UNL     1      10.632   5.166 -12.757  1.00  0.00     0.000 C 
BRANCH   2   3
ATOM      3  C   UNL     1      11.914   5.190 -13.607  1.00  0.00     0.000 C 
BRANCH   3   4
ATOM      4  C   UNL     1      11.628   5.442 -15.096  1.00  0.00     0.000 C 
BRANCH   4   5
ATOM      5  C   UNL     1      12.368   6.673 -15.646  1.00  0.00     0.000 C 
BRANCH   5   6
ATOM      6  C   UNL     1      11.485   7.937 -15.736  1.00  0.00     0.006 C 
BRANCH   6   7
ATOM      7  C   UNL     1      10.017   7.597 -16.025  1.00  0.00     0.053 C 
BRANCH   7   8
ATOM      8  C   UNL     1       9.478   8.483 -17.103  1.00  0.00     0.041 C 
ATOM      9  O   UNL     1       8.239   8.688 -17.196  1.00  0.00    -0.550 OA
ATOM     10  O   UNL     1      10.340   9.045 -18.037  1.00  0.00    -0.550 OA
ENDBRANCH   7   8
ENDBRANCH   6   7
ENDBRANCH   5   6
ENDBRANCH   4   5
ENDBRANCH   3   4
ENDBRANCH   2   3
ENDBRANCH   1   2
BRANCH   1  11
ATOM     11  C   UNL     1      10.431   5.996 -10.375  1.00  0.00     0.000 C 
BRANCH  11  12
ATOM     12  C   UNL     1      11.639   6.495  -9.559  1.00  0.00    -0.000 C 
BRANCH  12  13
ATOM     13  C   UNL     1      13.007   5.969 -10.029  1.00  0.00    -0.000 C 
BRANCH  13  14
ATOM     14  C   UNL     1      14.017   7.095 -10.311  1.00  0.00    -0.000 C 
BRANCH  14  15
ATOM     15  C   UNL     1      13.947   7.598 -11.763  1.00  0.00    -0.000 C 
BRANCH  15  16
ATOM     16  C   UNL     1      13.293   8.987 -11.874  1.00  0.00    -0.000 C 
BRANCH  16  17
ATOM     17  C   UNL     1      13.648   9.700 -13.188  1.00  0.00    -0.003 C 
ATOM     18  C   UNL     1      14.768   9.002 -13.958  1.00  0.00     0.004 C 
ENDBRANCH  16  17
ENDBRANCH  15  16
ENDBRANCH  14  15
ENDBRANCH  13  14
ENDBRANCH  12  13
ENDBRANCH  11  12
ENDBRANCH   1  11
TORSDOF 14
ENDMDL
MODEL 8
REMARK VINA RESULT:    -5.097      2.374      4.403
REMARK INTER + INTRA:         -11.654
REMARK INTER:                 -10.080
REMARK INTRA:                  -1.574
REMARK UNBOUND:                -2.385
REMARK SMILES CCCCCCCCCCCCCCCC(=O)[O-]
REMARK SMILES IDX 9 1 10 2 11 3 12 4 13 5 14 6 15 7 16 8 17 9 18 10 8 11 7 12
REMARK SMILES IDX 6 13 5 14 4 15 3 16 2 17 1 18
REMARK H PARENT
REMARK Flexibility Score: inf
ROOT
ATOM      1  C   UNL     1      11.283   6.930 -11.291  1.00  0.00     0.000 C 
ENDROOT
BRANCH   1   2
ATOM      2  C   UNL     1      10.269   6.020 -10.582  1.00  0.00     0.000 C 
BRANCH   2   3
ATOM      3  C   UNL     1       8.965   5.852 -11.380  1.00  0.00     0.000 C 
BRANCH   3   4
ATOM      4  C   UNL     1       8.867   6.832 -12.561  1.00  0.00     0.000 C 
BRANCH   4   5
ATOM      5  C   UNL     1       7.709   7.833 -12.411  1.00  0.00     0.000 C 
BRANCH   5   6
ATOM      6  C   UNL     1       7.965   9.185 -13.110  1.00  0.00     0.006 C 
BRANCH   6   7
ATOM      7  C   UNL     1       9.445   9.381 -13.466  1.00  0.00     0.053 C 
BRANCH   7   8
ATOM      8  C   UNL     1       9.931  10.706 -12.973  1.00  0.00     0.041 C 
ATOM      9  O   UNL     1       9.170  11.709 -12.993  1.00  0.00    -0.550 OA
ATOM     10  O   UNL     1      11.242  10.847 -12.535  1.00  0.00    -0.550 OA
ENDBRANCH   7   8
ENDBRANCH   6   7
ENDBRANCH   5   6
ENDBRANCH   4   5
ENDBRANCH   3   4
ENDBRANCH   2   3
ENDBRANCH   1   2
BRANCH   1  11
ATOM     11  C   UNL     1      12.641   6.227 -11.440  1.00  0.00     0.000 C 
BRANCH  11  12
ATOM     12  C   UNL     1      13.185   6.269 -12.881  1.00  0.00    -0.000 C 
BRANCH  12  13
ATOM     13  C   UNL     1      12.274   6.971 -13.904  1.00  0.00    -0.000 C 
BRANCH  13  14
ATOM     14  C   UNL     1      13.008   8.053 -14.716  1.00  0.00    -0.000 C 
BRANCH  14  15
ATOM     15  C   UNL     1      12.978   7.776 -16.229  1.00  0.00    -0.000 C 
BRANCH  15  16
ATOM     16  C   UNL     1      12.056   8.748 -16.987  1.00  0.00    -0.000 C 
BRANCH  16  17
ATOM     17  C   UNL     1      10.571   8.381 -16.844  1.00  0.00    -0.003 C 
ATOM     18  C   UNL     1       9.741   8.780 -18.064  1.00  0.00     0.004 C 
ENDBRANCH  16  17
ENDBRANCH  15  16
ENDBRANCH  14  15
ENDBRANCH  13  14
ENDBRANCH  12  13
ENDBRANCH  11  12
ENDBRANCH   1  11
TORSDOF 14
ENDMDL
MODEL 9
REMARK VINA RESULT:    -5.091      2.087      4.684
REMARK INTER + INTRA:         -11.643
REMARK INTER:                  -9.387
REMARK INTRA:                  -2.256
REMARK UNBOUND:                -2.385
REMARK SMILES CCCCCCCCCCCCCCCC(=O)[O-]
REMARK SMILES IDX 9 1 10 2 11 3 12 4 13 5 14 6 15 7 16 8 17 9 18 10 8 11 7 12
REMARK SMILES IDX 6 13 5 14 4 15 3 16 2 17 1 18
REMARK H PARENT
REMARK Flexibility Score: inf
ROOT
ATOM      1  C   UNL     1       8.405   8.899 -12.870  1.00  0.00     0.000 C 
ENDROOT
BRANCH   1   2
ATOM      2  C   UNL     1       8.072   9.400 -14.284  1.00  0.00     0.000 C 
BRANCH   2   3
ATOM      3  C   UNL     1       7.635   8.266 -15.226  1.00  0.00     0.000 C 
BRANCH   3   4
ATOM      4  C   UNL     1       8.770   7.800 -16.153  1.00  0.00     0.000 C 
BRANCH   4   5
ATOM      5  C   UNL     1       9.502   6.556 -15.622  1.00  0.00     0.000 C 
BRANCH   5   6
ATOM      6  C   UNL     1      11.040   6.662 -15.702  1.00  0.00     0.006 C 
BRANCH   6   7
ATOM      7  C   UNL     1      11.585   7.824 -14.861  1.00  0.00     0.053 C 
BRANCH   7   8
ATOM      8  C   UNL     1      12.940   8.230 -15.345  1.00  0.00     0.041 C 
ATOM      9  O   UNL     1      13.202   8.227 -16.577  1.00  0.00    -0.550 OA
ATOM     10  O   UNL     1      13.932   8.567 -14.432  1.00  0.00    -0.550 OA
ENDBRANCH   7   8
ENDBRANCH   6   7
ENDBRANCH   5   6
ENDBRANCH   4   5
ENDBRANCH   3   4
ENDBRANCH   2   3
ENDBRANCH   1   2
BRANCH   1  11
ATOM     11  C   UNL     1       7.529   7.694 -12.495  1.00  0.00     0.000 C 
BRANCH  11  12
ATOM     12  C   UNL     1       8.351   6.456 -12.088  1.00  0.00    -0.000 C 
BRANCH  12  13
ATOM     13  C   UNL     1       9.823   6.734 -11.736  1.00  0.00    -0.000 C 
BRANCH  13  14
ATOM     14  C   UNL     1      10.279   6.015 -10.455  1.00  0.00    -0.000 C 
BRANCH  14  15
ATOM     15  C   UNL     1      11.682   6.452 -10.001  1.00  0.00    -0.000 C 
BRANCH  15  16
ATOM     16  C   UNL     1      12.463   7.174 -11.115  1.00  0.00    -0.000 C 
BRANCH  16  17
ATOM     17  C   UNL     1      13.616   6.324 -11.669  1.00  0.00    -0.003 C 
ATOM     18  C   UNL     1      13.150   5.288 -12.693  1.00  0.00     0.004 C 
ENDBRANCH  16  17
ENDBRANCH  15  16
ENDBRANCH  14  15
ENDBRANCH  13  14
ENDBRANCH  12  13
ENDBRANCH  11  12
ENDBRANCH   1  11
TORSDOF 14
ENDMDL
