MODEL 1
REMARK VINA RESULT:    -3.047      0.000      0.000
REMARK INTER + INTRA:          -2.927
REMARK INTER:                  -3.760
REMARK INTRA:                   0.833
REMARK UNBOUND:                 0.833
REMARK SMILES CC1=CC=CC(C)(C)CC1=O
REMARK SMILES IDX 1 1 2 2 3 3 10 4 11 5 9 6 4 8 5 9 6 10 7 11 8 12
REMARK H PARENT
REMARK Flexibility Score: 80.00
ROOT
ATOM      1  C   UNL     1      11.754  10.339   4.715  1.00  0.00     0.048 C 
ATOM      2  C   UNL     1      11.587   9.334   3.600  1.00  0.00    -0.008 C 
ATOM      3  C   UNL     1      12.000   8.067   3.825  1.00  0.00     0.007 C 
ENDROOT
BRANCH   2   4
ATOM      4  C   UNL     1      10.929   9.817   2.357  1.00  0.00     0.159 C 
ATOM      5  O   UNL     1      10.648  11.043   2.261  1.00  0.00    -0.295 OA
BRANCH   4   6
ATOM      6  C   UNL     1      10.535   8.929   1.213  1.00  0.00     0.091 CG0
ATOM      7  G   UNL     1      11.686   8.044   0.683  1.00  0.00     0.000 G0
ENDBRANCH   4   6
ENDBRANCH   2   4
BRANCH   3   8
ATOM      8  C   UNL     1      11.974   6.890   2.929  1.00  0.00    -0.003 C 
ATOM      9  C   UNL     1      11.873   6.857   1.596  1.00  0.00    -0.020 C 
BRANCH   9  10
ATOM     10  C   UNL     1      11.689   8.049   0.687  1.00  0.00    -0.010 CG0
ATOM     11  C   UNL     1      11.267   7.536  -0.709  1.00  0.00     0.016 C 
ATOM     12  C   UNL     1      13.024   8.814   0.528  1.00  0.00     0.016 C 
ATOM     13  G   UNL     1      10.552   8.942   1.234  1.00  0.00     0.000 G0
ENDBRANCH   9  10
ENDBRANCH   3   8
TORSDOF 0
ENDMDL
MODEL 2
REMARK VINA RESULT:    -2.865      1.672      2.600
REMARK INTER + INTRA:          -2.702
REMARK INTER:                  -3.565
REMARK INTRA:                   0.863
REMARK UNBOUND:                 0.833
REMARK SMILES CC1=CC=CC(C)(C)CC1=O
REMARK SMILES IDX 1 1 2 2 3 3 10 4 11 5 9 6 4 8 5 9 6 10 7 11 8 12
REMARK H PARENT
REMARK Flexibility Score: 80.00
ROOT
ATOM      1  C   UNL     1      11.791   9.055   4.971  1.00  0.00     0.048 C 
ATOM      2  C   UNL     1      11.624   9.366   3.502  1.00  0.00    -0.008 C 
ATOM      3  C   UNL     1      10.883  10.445   3.165  1.00  0.00     0.007 C 
ENDROOT
BRANCH   2   4
ATOM      4  C   UNL     1      12.339   8.480   2.545  1.00  0.00     0.159 C 
ATOM      5  O   UNL     1      12.945   7.469   2.997  1.00  0.00    -0.295 OA
BRANCH   4   6
ATOM      6  C   UNL     1      12.425   8.731   1.069  1.00  0.00     0.091 CG0
ATOM      7  G   UNL     1      11.054   8.948   0.390  1.00  0.00     0.000 G0
ENDBRANCH   4   6
ENDBRANCH   2   4
BRANCH   3   8
ATOM      8  C   UNL     1      10.542  10.978   1.828  1.00  0.00    -0.003 C 
ATOM      9  C   UNL     1      10.573  10.352   0.646  1.00  0.00    -0.020 C 
BRANCH   9  10
ATOM     10  C   UNL     1      11.043   8.938   0.400  1.00  0.00    -0.010 CG0
ATOM     11  C   UNL     1      11.214   8.743  -1.124  1.00  0.00     0.016 C 
ATOM     12  C   UNL     1       9.982   7.927   0.891  1.00  0.00     0.016 C 
ATOM     13  G   UNL     1      12.421   8.730   1.068  1.00  0.00     0.000 G0
ENDBRANCH   9  10
ENDBRANCH   3   8
TORSDOF 0
ENDMDL
MODEL 3
REMARK VINA RESULT:    -2.864     23.532     24.646
REMARK INTER + INTRA:          -2.701
REMARK INTER:                  -3.557
REMARK INTRA:                   0.857
REMARK UNBOUND:                 0.833
REMARK SMILES CC1=CC=CC(C)(C)CC1=O
REMARK SMILES IDX 1 1 2 2 3 3 10 4 11 5 9 6 4 8 5 9 6 10 7 11 8 12
REMARK H PARENT
REMARK Flexibility Score: 80.00
ROOT
ATOM      1  C   UNL     1       1.928  -5.649  14.910  1.00  0.00     0.048 C 
ATOM      2  C   UNL     1       0.726  -5.730  15.821  1.00  0.00    -0.008 C 
ATOM      3  C   UNL     1       0.671  -4.880  16.871  1.00  0.00     0.007 C 
ENDROOT
BRANCH   2   4
ATOM      4  C   UNL     1      -0.329  -6.710  15.451  1.00  0.00     0.159 C 
ATOM      5  O   UNL     1      -0.142  -7.446  14.444  1.00  0.00    -0.295 OA
BRANCH   4   6
ATOM      6  C   UNL     1      -1.634  -6.857  16.178  1.00  0.00     0.091 CG0
ATOM      7  G   UNL     1      -1.486  -6.990  17.711  1.00  0.00     0.000 G0
ENDBRANCH   4   6
ENDBRANCH   2   4
BRANCH   3   8
ATOM      8  C   UNL     1      -0.361  -4.739  17.922  1.00  0.00    -0.003 C 
ATOM      9  C   UNL     1      -1.276  -5.631  18.319  1.00  0.00    -0.020 C 
BRANCH   9  10
ATOM     10  C   UNL     1      -1.507  -6.997  17.718  1.00  0.00    -0.010 CG0
ATOM     11  C   UNL     1      -2.846  -7.545  18.262  1.00  0.00     0.016 C 
ATOM     12  C   UNL     1      -0.386  -7.970  18.148  1.00  0.00     0.016 C 
ATOM     13  G   UNL     1      -1.629  -6.869  16.182  1.00  0.00     0.000 G0
ENDBRANCH   9  10
ENDBRANCH   3   8
TORSDOF 0
ENDMDL
MODEL 4
REMARK VINA RESULT:    -2.823     23.085     24.219
REMARK INTER + INTRA:          -2.650
REMARK INTER:                  -3.746
REMARK INTRA:                   1.095
REMARK UNBOUND:                 0.833
REMARK SMILES CC1=CC=CC(C)(C)CC1=O
REMARK SMILES IDX 1 1 2 2 3 3 10 4 11 5 9 6 4 8 5 9 6 10 7 11 8 12
REMARK H PARENT
REMARK Flexibility Score: 80.00
ROOT
ATOM      1  C   UNL     1       2.229  -5.917  14.506  1.00  0.00     0.048 C 
ATOM      2  C   UNL     1       0.856  -6.240  15.047  1.00  0.00    -0.008 C 
ATOM      3  C   UNL     1       0.229  -7.336  14.563  1.00  0.00     0.007 C 
ENDROOT
BRANCH   2   4
ATOM      4  C   UNL     1       0.329  -5.347  16.112  1.00  0.00     0.159 C 
ATOM      5  O   UNL     1       1.112  -4.507  16.636  1.00  0.00    -0.295 OA
BRANCH   4   6
ATOM      6  C   UNL     1      -1.074  -5.404  16.641  1.00  0.00     0.091 CG0
ATOM      7  G   UNL     1      -1.493  -6.800  17.156  1.00  0.00     0.000 G0
ENDBRANCH   4   6
ENDBRANCH   2   4
BRANCH   3   8
ATOM      8  C   UNL     1      -1.105  -7.884  14.891  1.00  0.00    -0.003 C 
ATOM      9  C   UNL     1      -1.867  -7.642  15.963  1.00  0.00    -0.020 C 
BRANCH   9  10
ATOM     10  C   UNL     1      -1.493  -6.779  17.145  1.00  0.00    -0.010 CG0
ATOM     11  C   UNL     1      -0.290  -7.434  17.862  1.00  0.00     0.016 C 
ATOM     12  C   UNL     1      -2.665  -6.709  18.151  1.00  0.00     0.016 C 
ATOM     13  G   UNL     1      -1.052  -5.385  16.644  1.00  0.00     0.000 G0
ENDBRANCH   9  10
ENDBRANCH   3   8
TORSDOF 0
ENDMDL
MODEL 5
REMARK VINA RESULT:    -2.617      1.716      3.288
REMARK INTER + INTRA:          -2.396
REMARK INTER:                  -3.240
REMARK INTRA:                   0.843
REMARK UNBOUND:                 0.833
REMARK SMILES CC1=CC=CC(C)(C)CC1=O
REMARK SMILES IDX 1 1 2 2 3 3 10 4 11 5 9 6 4 8 5 9 6 10 7 11 8 12
REMARK H PARENT
REMARK Flexibility Score: 80.00
ROOT
ATOM      1  C   UNL     1       9.602   5.733   0.382  1.00  0.00     0.048 C 
ATOM      2  C   UNL     1      10.607   6.840   0.599  1.00  0.00    -0.008 C 
ATOM      3  C   UNL     1      11.896   6.490   0.807  1.00  0.00     0.007 C 
ENDROOT
BRANCH   2   4
ATOM      4  C   UNL     1      10.097   8.233   0.513  1.00  0.00     0.159 C 
ATOM      5  O   UNL     1       8.859   8.413   0.344  1.00  0.00    -0.295 OA
BRANCH   4   6
ATOM      6  C   UNL     1      10.967   9.454   0.571  1.00  0.00     0.091 CG0
ATOM      7  G   UNL     1      11.929   9.480   1.781  1.00  0.00     0.000 G0
ENDBRANCH   4   6
ENDBRANCH   2   4
BRANCH   3   8
ATOM      8  C   UNL     1      13.079   7.342   1.058  1.00  0.00    -0.003 C 
ATOM      9  C   UNL     1      13.121   8.605   1.496  1.00  0.00    -0.020 C 
BRANCH   9  10
ATOM     10  C   UNL     1      11.930   9.490   1.778  1.00  0.00    -0.010 CG0
ATOM     11  C   UNL     1      12.431  10.944   1.931  1.00  0.00     0.016 C 
ATOM     12  C   UNL     1      11.257   9.078   3.108  1.00  0.00     0.016 C 
ATOM     13  G   UNL     1      10.958   9.441   0.577  1.00  0.00     0.000 G0
ENDBRANCH   9  10
ENDBRANCH   3   8
TORSDOF 0
ENDMDL
MODEL 6
REMARK VINA RESULT:    -2.571     24.108     25.148
REMARK INTER + INTRA:          -2.339
REMARK INTER:                  -3.188
REMARK INTRA:                   0.848
REMARK UNBOUND:                 0.833
REMARK SMILES CC1=CC=CC(C)(C)CC1=O
REMARK SMILES IDX 1 1 2 2 3 3 10 4 11 5 9 6 4 8 5 9 6 10 7 11 8 12
REMARK H PARENT
REMARK Flexibility Score: 80.00
ROOT
ATOM      1  C   UNL     1       1.125  -4.477  16.547  1.00  0.00     0.048 C 
ATOM      2  C   UNL     1       0.046  -5.527  16.666  1.00  0.00    -0.008 C 
ATOM      3  C   UNL     1      -0.100  -6.400  15.645  1.00  0.00     0.007 C 
ENDROOT
BRANCH   2   4
ATOM      4  C   UNL     1      -0.736  -5.542  17.931  1.00  0.00     0.159 C 
ATOM      5  O   UNL     1      -0.527  -4.632  18.780  1.00  0.00    -0.295 OA
BRANCH   4   6
ATOM      6  C   UNL     1      -1.738  -6.600  18.288  1.00  0.00     0.091 CG0
ATOM      7  G   UNL     1      -2.809  -6.841  17.200  1.00  0.00     0.000 G0
ENDBRANCH   4   6
ENDBRANCH   2   4
BRANCH   3   8
ATOM      8  C   UNL     1      -1.065  -7.510  15.480  1.00  0.00    -0.003 C 
ATOM      9  C   UNL     1      -2.231  -7.703  16.105  1.00  0.00    -0.020 C 
BRANCH   9  10
ATOM     10  C   UNL     1      -2.807  -6.838  17.201  1.00  0.00    -0.010 CG0
ATOM     11  C   UNL     1      -3.980  -7.603  17.857  1.00  0.00     0.016 C 
ATOM     12  C   UNL     1      -3.370  -5.525  16.609  1.00  0.00     0.016 C 
ATOM     13  G   UNL     1      -1.730  -6.592  18.282  1.00  0.00     0.000 G0
ENDBRANCH   9  10
ENDBRANCH   3   8
TORSDOF 0
ENDMDL
MODEL 7
REMARK VINA RESULT:    -2.526      1.917      2.964
REMARK INTER + INTRA:          -2.285
REMARK INTER:                  -3.380
REMARK INTRA:                   1.095
REMARK UNBOUND:                 0.833
REMARK SMILES CC1=CC=CC(C)(C)CC1=O
REMARK SMILES IDX 1 1 2 2 3 3 10 4 11 5 9 6 4 8 5 9 6 10 7 11 8 12
REMARK H PARENT
REMARK Flexibility Score: 80.00
ROOT
ATOM      1  C   UNL     1      11.950   6.914   3.205  1.00  0.00     0.048 C 
ATOM      2  C   UNL     1      11.400   8.117   2.476  1.00  0.00    -0.008 C 
ATOM      3  C   UNL     1      11.584   9.333   3.036  1.00  0.00     0.007 C 
ENDROOT
BRANCH   2   4
ATOM      4  C   UNL     1      10.743   7.863   1.166  1.00  0.00     0.159 C 
ATOM      5  O   UNL     1      10.852   6.717   0.649  1.00  0.00    -0.295 OA
BRANCH   4   6
ATOM      6  C   UNL     1       9.984   8.899   0.390  1.00  0.00     0.091 CG0
ATOM      7  G   UNL     1      10.805  10.170   0.074  1.00  0.00     0.000 G0
ENDBRANCH   4   6
ENDBRANCH   2   4
BRANCH   3   8
ATOM      8  C   UNL     1      11.153  10.667   2.564  1.00  0.00    -0.003 C 
ATOM      9  C   UNL     1      10.783  11.039   1.334  1.00  0.00    -0.020 C 
BRANCH   9  10
ATOM     10  C   UNL     1      10.789  10.167   0.101  1.00  0.00    -0.010 CG0
ATOM     11  C   UNL     1      12.253   9.775  -0.208  1.00  0.00     0.016 C 
ATOM     12  C   UNL     1      10.241  10.950  -1.114  1.00  0.00     0.016 C 
ATOM     13  G   UNL     1       9.995   8.872   0.383  1.00  0.00     0.000 G0
ENDBRANCH   9  10
ENDBRANCH   3   8
TORSDOF 0
ENDMDL
MODEL 8
REMARK VINA RESULT:    -2.437      2.068      3.788
REMARK INTER + INTRA:          -2.175
REMARK INTER:                  -3.306
REMARK INTRA:                   1.131
REMARK UNBOUND:                 0.833
REMARK SMILES CC1=CC=CC(C)(C)CC1=O
REMARK SMILES IDX 1 1 2 2 3 3 10 4 11 5 9 6 4 8 5 9 6 10 7 11 8 12
REMARK H PARENT
REMARK Flexibility Score: 80.00
ROOT
ATOM      1  C   UNL     1      10.072   5.424   0.236  1.00  0.00     0.048 C 
ATOM      2  C   UNL     1      10.467   6.864   0.465  1.00  0.00    -0.008 C 
ATOM      3  C   UNL     1       9.480   7.784   0.546  1.00  0.00     0.007 C 
ENDROOT
BRANCH   2   4
ATOM      4  C   UNL     1      11.918   7.141   0.634  1.00  0.00     0.159 C 
ATOM      5  O   UNL     1      12.707   6.164   0.758  1.00  0.00    -0.295 OA
BRANCH   4   6
ATOM      6  C   UNL     1      12.509   8.518   0.710  1.00  0.00     0.091 CG0
ATOM      7  G   UNL     1      11.875   9.412   1.799  1.00  0.00     0.000 G0
ENDBRANCH   4   6
ENDBRANCH   2   4
BRANCH   3   8
ATOM      8  C   UNL     1       9.564   9.247   0.750  1.00  0.00    -0.003 C 
ATOM      9  C   UNL     1      10.577   9.963   1.252  1.00  0.00    -0.020 C 
BRANCH   9  10
ATOM     10  C   UNL     1      11.871   9.412   1.800  1.00  0.00    -0.010 CG0
ATOM     11  C   UNL     1      11.543   8.533   3.029  1.00  0.00     0.016 C 
ATOM     12  C   UNL     1      12.789  10.564   2.272  1.00  0.00     0.016 C 
ATOM     13  G   UNL     1      12.540   8.515   0.733  1.00  0.00     0.000 G0
ENDBRANCH   9  10
ENDBRANCH   3   8
TORSDOF 0
ENDMDL
MODEL 9
REMARK VINA RESULT:    -2.095      1.685      2.784
REMARK INTER + INTRA:          -1.752
REMARK INTER:                  -2.609
REMARK INTRA:                   0.857
REMARK UNBOUND:                 0.833
REMARK SMILES CC1=CC=CC(C)(C)CC1=O
REMARK SMILES IDX 1 1 2 2 3 3 10 4 11 5 9 6 4 8 5 9 6 10 7 11 8 12
REMARK H PARENT
REMARK Flexibility Score: 80.00
ROOT
ATOM      1  C   UNL     1      10.781  11.019   2.622  1.00  0.00     0.048 C 
ATOM      2  C   UNL     1      11.104   9.981   1.573  1.00  0.00    -0.008 C 
ATOM      3  C   UNL     1      10.802  10.268   0.287  1.00  0.00     0.007 C 
ENDROOT
BRANCH   2   4
ATOM      4  C   UNL     1      11.780   8.743   2.043  1.00  0.00     0.159 C 
ATOM      5  O   UNL     1      12.006   8.612   3.278  1.00  0.00    -0.295 OA
BRANCH   4   6
ATOM      6  C   UNL     1      12.253   7.646   1.136  1.00  0.00     0.091 CG0
ATOM      7  G   UNL     1      11.191   7.174   0.117  1.00  0.00     0.000 G0
ENDBRANCH   4   6
ENDBRANCH   2   4
BRANCH   3   8
ATOM      8  C   UNL     1      10.989   9.453  -0.933  1.00  0.00    -0.003 C 
ATOM      9  C   UNL     1      11.133   8.127  -1.037  1.00  0.00    -0.020 C 
BRANCH   9  10
ATOM     10  C   UNL     1      11.206   7.146   0.109  1.00  0.00    -0.010 CG0
ATOM     11  C   UNL     1      11.684   5.785  -0.448  1.00  0.00     0.016 C 
ATOM     12  C   UNL     1       9.805   6.939   0.729  1.00  0.00     0.016 C 
ATOM     13  G   UNL     1      12.248   7.636   1.139  1.00  0.00     0.000 G0
ENDBRANCH   9  10
ENDBRANCH   3   8
TORSDOF 0
ENDMDL
