MODEL 1
REMARK VINA RESULT:    -6.368      0.000      0.000
REMARK INTER + INTRA:          -6.368
REMARK INTER:                  -6.368
REMARK INTRA:                   0.000
REMARK UNBOUND:                 0.000
REMARK SMILES C=C1CCC[C@@]2(C)CC(=O)C(=C(C)C)C[C@@H]12
REMARK SMILES IDX 13 1 12 2 11 3 15 4 16 5 2 6 1 7 3 8 4 9 5 10 6 11 8 12 9 13
REMARK SMILES IDX 10 14 7 15 14 16
REMARK H PARENT
REMARK Flexibility Score: inf
ROOT
ATOM      1  C   UNL     1      29.963  43.661  86.515  1.00  0.00     0.039 C 
ATOM      2  C   UNL     1      30.415  43.609  85.073  1.00  0.00    -0.070 C 
ATOM      3  C   UNL     1      31.700  43.285  84.745  1.00  0.00    -0.006 C 
ATOM      4  C   UNL     1      32.726  42.939  85.818  1.00  0.00     0.047 C 
ATOM      5  C   UNL     1      33.804  41.931  85.339  1.00  0.00     0.025 C 
ATOM      6  C   UNL     1      33.344  40.472  85.283  1.00  0.00    -0.073 C 
ATOM      7  C   UNL     1      32.072  40.065  85.461  1.00  0.00     0.008 C 
ATOM      8  C   UNL     1      34.403  39.465  84.913  1.00  0.00     0.031 C 
ATOM      9  C   UNL     1      35.000  39.833  83.554  1.00  0.00     0.005 C 
ATOM     10  C   UNL     1      35.504  41.287  83.533  1.00  0.00     0.008 C 
ATOM     11  C   UNL     1      34.438  42.341  83.969  1.00  0.00    -0.018 C 
ATOM     12  C   UNL     1      33.324  42.460  82.896  1.00  0.00     0.088 C 
ATOM     13  C   UNL     1      32.207  43.359  83.344  1.00  0.00     0.159 C 
ATOM     14  O   UNL     1      31.723  44.179  82.517  1.00  0.00    -0.295 OA
ATOM     15  C   UNL     1      35.173  43.702  84.094  1.00  0.00     0.012 C 
ATOM     16  C   UNL     1      29.371  43.888  84.017  1.00  0.00     0.039 C 
ENDROOT
TORSDOF 0
ENDMDL
MODEL 2
REMARK VINA RESULT:    -6.138      2.282      3.282
REMARK INTER + INTRA:          -6.138
REMARK INTER:                  -6.138
REMARK INTRA:                   0.000
REMARK UNBOUND:                 0.000
REMARK SMILES C=C1CCC[C@@]2(C)CC(=O)C(=C(C)C)C[C@@H]12
REMARK SMILES IDX 13 1 12 2 11 3 15 4 16 5 2 6 1 7 3 8 4 9 5 10 6 11 8 12 9 13
REMARK SMILES IDX 10 14 7 15 14 16
REMARK H PARENT
REMARK Flexibility Score: inf
ROOT
ATOM      1  C   UNL     1      33.626  44.954  86.738  1.00  0.00     0.039 C 
ATOM      2  C   UNL     1      33.089  43.541  86.777  1.00  0.00    -0.070 C 
ATOM      3  C   UNL     1      33.403  42.637  85.804  1.00  0.00    -0.006 C 
ATOM      4  C   UNL     1      34.330  43.007  84.651  1.00  0.00     0.047 C 
ATOM      5  C   UNL     1      35.154  41.808  84.112  1.00  0.00     0.025 C 
ATOM      6  C   UNL     1      36.355  41.411  84.973  1.00  0.00    -0.073 C 
ATOM      7  C   UNL     1      36.620  41.917  86.193  1.00  0.00     0.008 C 
ATOM      8  C   UNL     1      37.224  40.311  84.418  1.00  0.00     0.031 C 
ATOM      9  C   UNL     1      36.372  39.064  84.176  1.00  0.00     0.005 C 
ATOM     10  C   UNL     1      35.146  39.378  83.300  1.00  0.00     0.008 C 
ATOM     11  C   UNL     1      34.264  40.553  83.828  1.00  0.00    -0.018 C 
ATOM     12  C   UNL     1      33.526  40.135  85.126  1.00  0.00     0.088 C 
ATOM     13  C   UNL     1      32.780  41.283  85.743  1.00  0.00     0.159 C 
ATOM     14  O   UNL     1      31.619  41.078  86.191  1.00  0.00    -0.295 OA
ATOM     15  C   UNL     1      33.218  40.864  82.725  1.00  0.00     0.012 C 
ATOM     16  C   UNL     1      32.226  43.168  87.960  1.00  0.00     0.039 C 
ENDROOT
TORSDOF 0
ENDMDL
MODEL 3
REMARK VINA RESULT:    -6.116      1.976      3.153
REMARK INTER + INTRA:          -6.116
REMARK INTER:                  -6.116
REMARK INTRA:                   0.000
REMARK UNBOUND:                 0.000
REMARK SMILES C=C1CCC[C@@]2(C)CC(=O)C(=C(C)C)C[C@@H]12
REMARK SMILES IDX 13 1 12 2 11 3 15 4 16 5 2 6 1 7 3 8 4 9 5 10 6 11 8 12 9 13
REMARK SMILES IDX 10 14 7 15 14 16
REMARK H PARENT
REMARK Flexibility Score: inf
ROOT
ATOM      1  C   UNL     1      34.574  46.206  82.890  1.00  0.00     0.039 C 
ATOM      2  C   UNL     1      33.446  45.235  83.156  1.00  0.00    -0.070 C 
ATOM      3  C   UNL     1      33.667  43.889  83.205  1.00  0.00    -0.006 C 
ATOM      4  C   UNL     1      35.066  43.311  83.019  1.00  0.00     0.047 C 
ATOM      5  C   UNL     1      35.296  41.989  83.798  1.00  0.00     0.025 C 
ATOM      6  C   UNL     1      35.547  42.159  85.298  1.00  0.00    -0.073 C 
ATOM      7  C   UNL     1      35.420  43.323  85.966  1.00  0.00     0.008 C 
ATOM      8  C   UNL     1      35.868  40.896  86.056  1.00  0.00     0.031 C 
ATOM      9  C   UNL     1      34.731  39.890  85.870  1.00  0.00     0.005 C 
ATOM     10  C   UNL     1      34.427  39.650  84.381  1.00  0.00     0.008 C 
ATOM     11  C   UNL     1      34.148  40.952  83.565  1.00  0.00    -0.018 C 
ATOM     12  C   UNL     1      32.792  41.574  83.986  1.00  0.00     0.088 C 
ATOM     13  C   UNL     1      32.555  42.903  83.327  1.00  0.00     0.159 C 
ATOM     14  O   UNL     1      31.406  43.155  82.873  1.00  0.00    -0.295 OA
ATOM     15  C   UNL     1      34.079  40.542  82.070  1.00  0.00     0.012 C 
ATOM     16  C   UNL     1      32.078  45.825  83.404  1.00  0.00     0.039 C 
ENDROOT
TORSDOF 0
ENDMDL
MODEL 4
REMARK VINA RESULT:    -6.102      2.897      4.652
REMARK INTER + INTRA:          -6.102
REMARK INTER:                  -6.102
REMARK INTRA:                   0.000
REMARK UNBOUND:                 0.000
REMARK SMILES C=C1CCC[C@@]2(C)CC(=O)C(=C(C)C)C[C@@H]12
REMARK SMILES IDX 13 1 12 2 11 3 15 4 16 5 2 6 1 7 3 8 4 9 5 10 6 11 8 12 9 13
REMARK SMILES IDX 10 14 7 15 14 16
REMARK H PARENT
REMARK Flexibility Score: inf
ROOT
ATOM      1  C   UNL     1      32.496  41.008  82.776  1.00  0.00     0.039 C 
ATOM      2  C   UNL     1      33.169  40.807  84.115  1.00  0.00    -0.070 C 
ATOM      3  C   UNL     1      34.442  41.246  84.342  1.00  0.00    -0.006 C 
ATOM      4  C   UNL     1      35.229  41.978  83.261  1.00  0.00     0.047 C 
ATOM      5  C   UNL     1      36.241  43.009  83.826  1.00  0.00     0.025 C 
ATOM      6  C   UNL     1      35.625  44.328  84.296  1.00  0.00    -0.073 C 
ATOM      7  C   UNL     1      34.301  44.561  84.390  1.00  0.00     0.008 C 
ATOM      8  C   UNL     1      36.601  45.380  84.759  1.00  0.00     0.031 C 
ATOM      9  C   UNL     1      37.453  44.815  85.897  1.00  0.00     0.005 C 
ATOM     10  C   UNL     1      38.125  43.490  85.496  1.00  0.00     0.008 C 
ATOM     11  C   UNL     1      37.136  42.406  84.959  1.00  0.00    -0.018 C 
ATOM     12  C   UNL     1      36.236  41.879  86.106  1.00  0.00     0.088 C 
ATOM     13  C   UNL     1      35.177  40.940  85.603  1.00  0.00     0.159 C 
ATOM     14  O   UNL     1      34.938  39.892  86.261  1.00  0.00    -0.295 OA
ATOM     15  C   UNL     1      37.999  41.240  84.411  1.00  0.00     0.012 C 
ATOM     16  C   UNL     1      32.354  40.140  85.198  1.00  0.00     0.039 C 
ENDROOT
TORSDOF 0
ENDMDL
MODEL 5
REMARK VINA RESULT:    -6.070      1.835      3.688
REMARK INTER + INTRA:          -6.070
REMARK INTER:                  -6.070
REMARK INTRA:                   0.000
REMARK UNBOUND:                 0.000
REMARK SMILES C=C1CCC[C@@]2(C)CC(=O)C(=C(C)C)C[C@@H]12
REMARK SMILES IDX 13 1 12 2 11 3 15 4 16 5 2 6 1 7 3 8 4 9 5 10 6 11 8 12 9 13
REMARK SMILES IDX 10 14 7 15 14 16
REMARK H PARENT
REMARK Flexibility Score: inf
ROOT
ATOM      1  C   UNL     1      31.358  43.770  82.846  1.00  0.00     0.039 C 
ATOM      2  C   UNL     1      31.957  43.197  84.110  1.00  0.00    -0.070 C 
ATOM      3  C   UNL     1      33.136  42.509  84.087  1.00  0.00    -0.006 C 
ATOM      4  C   UNL     1      33.910  42.311  82.788  1.00  0.00     0.047 C 
ATOM      5  C   UNL     1      35.445  42.218  82.993  1.00  0.00     0.025 C 
ATOM      6  C   UNL     1      36.147  43.557  83.228  1.00  0.00    -0.073 C 
ATOM      7  C   UNL     1      35.511  44.730  83.420  1.00  0.00     0.008 C 
ATOM      8  C   UNL     1      37.650  43.500  83.333  1.00  0.00     0.031 C 
ATOM      9  C   UNL     1      38.044  42.547  84.462  1.00  0.00     0.005 C 
ATOM     10  C   UNL     1      37.389  41.165  84.289  1.00  0.00     0.008 C 
ATOM     11  C   UNL     1      35.836  41.207  84.120  1.00  0.00    -0.018 C 
ATOM     12  C   UNL     1      35.159  41.626  85.451  1.00  0.00     0.088 C 
ATOM     13  C   UNL     1      33.678  41.816  85.292  1.00  0.00     0.159 C 
ATOM     14  O   UNL     1      32.912  41.369  86.188  1.00  0.00    -0.295 OA
ATOM     15  C   UNL     1      35.383  39.771  83.747  1.00  0.00     0.012 C 
ATOM     16  C   UNL     1      31.214  43.458  85.399  1.00  0.00     0.039 C 
ENDROOT
TORSDOF 0
ENDMDL
MODEL 6
REMARK VINA RESULT:    -6.013      2.037      4.872
REMARK INTER + INTRA:          -6.013
REMARK INTER:                  -6.013
REMARK INTRA:                   0.000
REMARK UNBOUND:                 0.000
REMARK SMILES C=C1CCC[C@@]2(C)CC(=O)C(=C(C)C)C[C@@H]12
REMARK SMILES IDX 13 1 12 2 11 3 15 4 16 5 2 6 1 7 3 8 4 9 5 10 6 11 8 12 9 13
REMARK SMILES IDX 10 14 7 15 14 16
REMARK H PARENT
REMARK Flexibility Score: inf
ROOT
ATOM      1  C   UNL     1      35.823  38.236  83.311  1.00  0.00     0.039 C 
ATOM      2  C   UNL     1      36.152  39.487  84.094  1.00  0.00    -0.070 C 
ATOM      3  C   UNL     1      35.438  40.638  83.922  1.00  0.00    -0.006 C 
ATOM      4  C   UNL     1      34.263  40.702  82.952  1.00  0.00     0.047 C 
ATOM      5  C   UNL     1      33.162  41.706  83.382  1.00  0.00     0.025 C 
ATOM      6  C   UNL     1      32.237  41.212  84.496  1.00  0.00    -0.073 C 
ATOM      7  C   UNL     1      32.425  40.076  85.197  1.00  0.00     0.008 C 
ATOM      8  C   UNL     1      31.101  42.133  84.862  1.00  0.00     0.031 C 
ATOM      9  C   UNL     1      31.664  43.494  85.273  1.00  0.00     0.005 C 
ATOM     10  C   UNL     1      32.596  44.070  84.192  1.00  0.00     0.008 C 
ATOM     11  C   UNL     1      33.746  43.107  83.758  1.00  0.00    -0.018 C 
ATOM     12  C   UNL     1      34.780  42.949  84.903  1.00  0.00     0.088 C 
ATOM     13  C   UNL     1      35.826  41.921  84.576  1.00  0.00     0.159 C 
ATOM     14  O   UNL     1      37.029  42.174  84.856  1.00  0.00    -0.295 OA
ATOM     15  C   UNL     1      34.439  43.757  82.531  1.00  0.00     0.012 C 
ATOM     16  C   UNL     1      37.274  39.390  85.100  1.00  0.00     0.039 C 
ENDROOT
TORSDOF 0
ENDMDL
MODEL 7
REMARK VINA RESULT:    -6.010      1.408      1.755
REMARK INTER + INTRA:          -6.010
REMARK INTER:                  -6.010
REMARK INTRA:                   0.000
REMARK UNBOUND:                 0.000
REMARK SMILES C=C1CCC[C@@]2(C)CC(=O)C(=C(C)C)C[C@@H]12
REMARK SMILES IDX 13 1 12 2 11 3 15 4 16 5 2 6 1 7 3 8 4 9 5 10 6 11 8 12 9 13
REMARK SMILES IDX 10 14 7 15 14 16
REMARK H PARENT
REMARK Flexibility Score: inf
ROOT
ATOM      1  C   UNL     1      31.231  44.075  85.654  1.00  0.00     0.039 C 
ATOM      2  C   UNL     1      32.172  44.011  84.472  1.00  0.00    -0.070 C 
ATOM      3  C   UNL     1      33.386  43.394  84.565  1.00  0.00    -0.006 C 
ATOM      4  C   UNL     1      33.833  42.722  85.858  1.00  0.00     0.047 C 
ATOM      5  C   UNL     1      34.773  41.509  85.629  1.00  0.00     0.025 C 
ATOM      6  C   UNL     1      34.072  40.224  85.184  1.00  0.00    -0.073 C 
ATOM      7  C   UNL     1      32.772  40.144  84.839  1.00  0.00     0.008 C 
ATOM      8  C   UNL     1      34.954  39.008  85.049  1.00  0.00     0.031 C 
ATOM      9  C   UNL     1      36.083  39.307  84.061  1.00  0.00     0.005 C 
ATOM     10  C   UNL     1      36.852  40.582  84.451  1.00  0.00     0.008 C 
ATOM     11  C   UNL     1      35.949  41.840  84.652  1.00  0.00    -0.018 C 
ATOM     12  C   UNL     1      35.374  42.316  83.292  1.00  0.00     0.088 C 
ATOM     13  C   UNL     1      34.387  43.436  83.460  1.00  0.00     0.159 C 
ATOM     14  O   UNL     1      34.436  44.409  82.659  1.00  0.00    -0.295 OA
ATOM     15  C   UNL     1      36.851  42.955  85.242  1.00  0.00     0.012 C 
ATOM     16  C   UNL     1      31.688  44.622  83.178  1.00  0.00     0.039 C 
ENDROOT
TORSDOF 0
ENDMDL
MODEL 8
REMARK VINA RESULT:    -5.997      2.501      4.760
REMARK INTER + INTRA:          -5.997
REMARK INTER:                  -5.997
REMARK INTRA:                   0.000
REMARK UNBOUND:                 0.000
REMARK SMILES C=C1CCC[C@@]2(C)CC(=O)C(=C(C)C)C[C@@H]12
REMARK SMILES IDX 13 1 12 2 11 3 15 4 16 5 2 6 1 7 3 8 4 9 5 10 6 11 8 12 9 13
REMARK SMILES IDX 10 14 7 15 14 16
REMARK H PARENT
REMARK Flexibility Score: inf
ROOT
ATOM      1  C   UNL     1      37.544  43.534  87.836  1.00  0.00     0.039 C 
ATOM      2  C   UNL     1      37.286  43.344  86.358  1.00  0.00    -0.070 C 
ATOM      3  C   UNL     1      36.361  42.444  85.911  1.00  0.00    -0.006 C 
ATOM      4  C   UNL     1      35.534  41.612  86.884  1.00  0.00     0.047 C 
ATOM      5  C   UNL     1      34.125  41.251  86.344  1.00  0.00     0.025 C 
ATOM      6  C   UNL     1      33.098  42.383  86.412  1.00  0.00    -0.073 C 
ATOM      7  C   UNL     1      33.386  43.656  86.747  1.00  0.00     0.008 C 
ATOM      8  C   UNL     1      31.698  42.025  85.983  1.00  0.00     0.031 C 
ATOM      9  C   UNL     1      31.728  41.490  84.550  1.00  0.00     0.005 C 
ATOM     10  C   UNL     1      32.730  40.331  84.401  1.00  0.00     0.008 C 
ATOM     11  C   UNL     1      34.174  40.663  84.895  1.00  0.00    -0.018 C 
ATOM     12  C   UNL     1      34.849  41.685  83.943  1.00  0.00     0.088 C 
ATOM     13  C   UNL     1      36.184  42.138  84.462  1.00  0.00     0.159 C 
ATOM     14  O   UNL     1      37.144  42.240  83.651  1.00  0.00    -0.295 OA
ATOM     15  C   UNL     1      34.976  39.336  84.871  1.00  0.00     0.012 C 
ATOM     16  C   UNL     1      38.064  44.223  85.407  1.00  0.00     0.039 C 
ENDROOT
TORSDOF 0
ENDMDL
MODEL 9
REMARK VINA RESULT:    -5.771      1.936      3.535
REMARK INTER + INTRA:          -5.771
REMARK INTER:                  -5.771
REMARK INTRA:                   0.000
REMARK UNBOUND:                 0.000
REMARK SMILES C=C1CCC[C@@]2(C)CC(=O)C(=C(C)C)C[C@@H]12
REMARK SMILES IDX 13 1 12 2 11 3 15 4 16 5 2 6 1 7 3 8 4 9 5 10 6 11 8 12 9 13
REMARK SMILES IDX 10 14 7 15 14 16
REMARK H PARENT
REMARK Flexibility Score: inf
ROOT
ATOM      1  C   UNL     1      34.151  46.067  82.849  1.00  0.00     0.039 C 
ATOM      2  C   UNL     1      33.817  45.462  84.193  1.00  0.00    -0.070 C 
ATOM      3  C   UNL     1      33.506  44.139  84.317  1.00  0.00    -0.006 C 
ATOM      4  C   UNL     1      33.506  43.211  83.107  1.00  0.00     0.047 C 
ATOM      5  C   UNL     1      33.875  41.744  83.454  1.00  0.00     0.025 C 
ATOM      6  C   UNL     1      35.368  41.489  83.672  1.00  0.00    -0.073 C 
ATOM      7  C   UNL     1      36.306  42.454  83.736  1.00  0.00     0.008 C 
ATOM      8  C   UNL     1      35.759  40.053  83.915  1.00  0.00     0.031 C 
ATOM      9  C   UNL     1      34.998  39.519  85.129  1.00  0.00     0.005 C 
ATOM     10  C   UNL     1      33.480  39.723  84.979  1.00  0.00     0.008 C 
ATOM     11  C   UNL     1      33.058  41.195  84.670  1.00  0.00    -0.018 C 
ATOM     12  C   UNL     1      33.299  42.098  85.908  1.00  0.00     0.088 C 
ATOM     13  C   UNL     1      33.040  43.547  85.605  1.00  0.00     0.159 C 
ATOM     14  O   UNL     1      32.415  44.238  86.453  1.00  0.00    -0.295 OA
ATOM     15  C   UNL     1      31.542  41.172  84.343  1.00  0.00     0.012 C 
ATOM     16  C   UNL     1      33.887  46.377  85.393  1.00  0.00     0.039 C 
ENDROOT
TORSDOF 0
ENDMDL
