MODEL 1
REMARK VINA RESULT:    -3.335      0.000      0.000
REMARK INTER + INTRA:          -4.036
REMARK INTER:                  -4.017
REMARK INTRA:                  -0.019
REMARK UNBOUND:                -0.019
REMARK SMILES CCCCCO
REMARK SMILES IDX 4 1 3 2 2 3 1 4 5 5 6 6
REMARK H PARENT 6 7
REMARK Flexibility Score: inf
ROOT
ATOM      1  C   UNL     1      15.637  -4.984  17.247  1.00  0.00     0.028 C 
ENDROOT
BRANCH   1   2
ATOM      2  C   UNL     1      16.250  -4.570  18.594  1.00  0.00     0.002 C 
BRANCH   2   3
ATOM      3  C   UNL     1      17.782  -4.467  18.539  1.00  0.00    -0.003 C 
ATOM      4  C   UNL     1      18.452  -4.928  19.832  1.00  0.00     0.004 C 
ENDBRANCH   2   3
ENDBRANCH   1   2
BRANCH   1   5
ATOM      5  C   UNL     1      14.297  -5.702  17.427  1.00  0.00     0.156 C 
BRANCH   5   6
ATOM      6  O   UNL     1      13.839  -5.576  18.747  1.00  0.00    -0.396 OA
ATOM      7  H   UNL     1      13.472  -6.460  19.011  1.00  0.00     0.210 HD
ENDBRANCH   5   6
ENDBRANCH   1   5
TORSDOF 4
ENDMDL
MODEL 2
REMARK VINA RESULT:    -3.327      4.992      6.095
REMARK INTER + INTRA:          -4.026
REMARK INTER:                  -4.017
REMARK INTRA:                  -0.009
REMARK UNBOUND:                -0.019
REMARK SMILES CCCCCO
REMARK SMILES IDX 4 1 3 2 2 3 1 4 5 5 6 6
REMARK H PARENT 6 7
REMARK Flexibility Score: inf
ROOT
ATOM      1  C   UNL     1      21.146  -4.183  17.415  1.00  0.00     0.028 C 
ENDROOT
BRANCH   1   2
ATOM      2  C   UNL     1      20.898  -4.686  18.845  1.00  0.00     0.002 C 
BRANCH   2   3
ATOM      3  C   UNL     1      19.684  -4.014  19.505  1.00  0.00    -0.003 C 
ATOM      4  C   UNL     1      18.607  -5.015  19.919  1.00  0.00     0.004 C 
ENDBRANCH   2   3
ENDBRANCH   1   2
BRANCH   1   5
ATOM      5  C   UNL     1      22.434  -4.762  16.821  1.00  0.00     0.156 C 
BRANCH   5   6
ATOM      6  O   UNL     1      23.253  -3.738  16.320  1.00  0.00    -0.396 OA
ATOM      7  H   UNL     1      22.840  -2.879  16.594  1.00  0.00     0.210 HD
ENDBRANCH   5   6
ENDBRANCH   1   5
TORSDOF 4
ENDMDL
MODEL 3
REMARK VINA RESULT:    -3.316      1.596      1.865
REMARK INTER + INTRA:          -4.013
REMARK INTER:                  -4.004
REMARK INTRA:                  -0.009
REMARK UNBOUND:                -0.019
REMARK SMILES CCCCCO
REMARK SMILES IDX 4 1 3 2 2 3 1 4 5 5 6 6
REMARK H PARENT 6 7
REMARK Flexibility Score: inf
ROOT
ATOM      1  C   UNL     1      15.609  -4.897  18.173  1.00  0.00     0.028 C 
ENDROOT
BRANCH   1   2
ATOM      2  C   UNL     1      15.866  -3.600  17.391  1.00  0.00     0.002 C 
BRANCH   2   3
ATOM      3  C   UNL     1      17.353  -3.218  17.354  1.00  0.00    -0.003 C 
ATOM      4  C   UNL     1      17.619  -1.822  17.916  1.00  0.00     0.004 C 
ENDBRANCH   2   3
ENDBRANCH   1   2
BRANCH   1   5
ATOM      5  C   UNL     1      14.341  -5.611  17.695  1.00  0.00     0.156 C 
BRANCH   5   6
ATOM      6  O   UNL     1      13.493  -5.894  18.777  1.00  0.00    -0.396 OA
ATOM      7  H   UNL     1      13.492  -6.880  18.892  1.00  0.00     0.210 HD
ENDBRANCH   5   6
ENDBRANCH   1   5
TORSDOF 4
ENDMDL
MODEL 4
REMARK VINA RESULT:    -3.279      7.843      8.445
REMARK INTER + INTRA:          -3.969
REMARK INTER:                  -3.904
REMARK INTRA:                  -0.065
REMARK UNBOUND:                -0.019
REMARK SMILES CCCCCO
REMARK SMILES IDX 4 1 3 2 2 3 1 4 5 5 6 6
REMARK H PARENT 6 7
REMARK Flexibility Score: inf
ROOT
ATOM      1  C   UNL     1      22.072  -3.213  21.815  1.00  0.00     0.028 C 
ENDROOT
BRANCH   1   2
ATOM      2  C   UNL     1      20.970  -2.988  22.862  1.00  0.00     0.002 C 
BRANCH   2   3
ATOM      3  C   UNL     1      21.179  -1.699  23.671  1.00  0.00    -0.003 C 
ATOM      4  C   UNL     1      20.063  -0.678  23.454  1.00  0.00     0.004 C 
ENDBRANCH   2   3
ENDBRANCH   1   2
BRANCH   1   5
ATOM      5  C   UNL     1      23.085  -2.065  21.796  1.00  0.00     0.156 C 
BRANCH   5   6
ATOM      6  O   UNL     1      24.393  -2.556  21.930  1.00  0.00    -0.396 OA
ATOM      7  H   UNL     1      24.947  -2.088  21.253  1.00  0.00     0.210 HD
ENDBRANCH   5   6
ENDBRANCH   1   5
TORSDOF 4
ENDMDL
MODEL 5
REMARK VINA RESULT:    -3.260      6.122      6.485
REMARK INTER + INTRA:          -3.945
REMARK INTER:                  -3.879
REMARK INTRA:                  -0.066
REMARK UNBOUND:                -0.019
REMARK SMILES CCCCCO
REMARK SMILES IDX 4 1 3 2 2 3 1 4 5 5 6 6
REMARK H PARENT 6 7
REMARK Flexibility Score: inf
ROOT
ATOM      1  C   UNL     1      21.266  -4.481  17.419  1.00  0.00     0.028 C 
ENDROOT
BRANCH   1   2
ATOM      2  C   UNL     1      21.383  -4.525  18.951  1.00  0.00     0.002 C 
BRANCH   2   3
ATOM      3  C   UNL     1      21.010  -3.188  19.609  1.00  0.00    -0.003 C 
ATOM      4  C   UNL     1      20.395  -2.195  18.623  1.00  0.00     0.004 C 
ENDBRANCH   2   3
ENDBRANCH   1   2
BRANCH   1   5
ATOM      5  C   UNL     1      22.569  -4.905  16.735  1.00  0.00     0.156 C 
BRANCH   5   6
ATOM      6  O   UNL     1      23.282  -3.783  16.286  1.00  0.00    -0.396 OA
ATOM      7  H   UNL     1      22.615  -3.149  15.912  1.00  0.00     0.210 HD
ENDBRANCH   5   6
ENDBRANCH   1   5
TORSDOF 4
ENDMDL
MODEL 6
REMARK VINA RESULT:    -3.195      5.244      6.047
REMARK INTER + INTRA:          -3.867
REMARK INTER:                  -3.779
REMARK INTRA:                  -0.088
REMARK UNBOUND:                -0.019
REMARK SMILES CCCCCO
REMARK SMILES IDX 4 1 3 2 2 3 1 4 5 5 6 6
REMARK H PARENT 6 7
REMARK Flexibility Score: inf
ROOT
ATOM      1  C   UNL     1      21.386  -4.557  18.336  1.00  0.00     0.028 C 
ENDROOT
BRANCH   1   2
ATOM      2  C   UNL     1      19.875  -4.337  18.164  1.00  0.00     0.002 C 
BRANCH   2   3
ATOM      3  C   UNL     1      19.549  -3.022  17.440  1.00  0.00    -0.003 C 
ATOM      4  C   UNL     1      19.968  -1.788  18.239  1.00  0.00     0.004 C 
ENDBRANCH   2   3
ENDBRANCH   1   2
BRANCH   1   5
ATOM      5  C   UNL     1      22.071  -4.881  17.006  1.00  0.00     0.156 C 
BRANCH   5   6
ATOM      6  O   UNL     1      22.859  -3.802  16.577  1.00  0.00    -0.396 OA
ATOM      7  H   UNL     1      22.968  -3.897  15.595  1.00  0.00     0.210 HD
ENDBRANCH   5   6
ENDBRANCH   1   5
TORSDOF 4
ENDMDL
MODEL 7
REMARK VINA RESULT:    -3.163      7.044      7.698
REMARK INTER + INTRA:          -3.829
REMARK INTER:                  -3.789
REMARK INTRA:                  -0.040
REMARK UNBOUND:                -0.019
REMARK SMILES CCCCCO
REMARK SMILES IDX 4 1 3 2 2 3 1 4 5 5 6 6
REMARK H PARENT 6 7
REMARK Flexibility Score: inf
ROOT
ATOM      1  C   UNL     1      18.255  -9.820  14.308  1.00  0.00     0.028 C 
ENDROOT
BRANCH   1   2
ATOM      2  C   UNL     1      17.304 -10.134  13.143  1.00  0.00     0.002 C 
BRANCH   2   3
ATOM      3  C   UNL     1      17.881 -11.178  12.175  1.00  0.00    -0.003 C 
ATOM      4  C   UNL     1      19.240 -11.713  12.625  1.00  0.00     0.004 C 
ENDBRANCH   2   3
ENDBRANCH   1   2
BRANCH   1   5
ATOM      5  C   UNL     1      18.736  -8.367  14.277  1.00  0.00     0.156 C 
BRANCH   5   6
ATOM      6  O   UNL     1      17.872  -7.542  15.014  1.00  0.00    -0.396 OA
ATOM      7  H   UNL     1      17.246  -8.141  15.499  1.00  0.00     0.210 HD
ENDBRANCH   5   6
ENDBRANCH   1   5
TORSDOF 4
ENDMDL
MODEL 8
REMARK VINA RESULT:    -3.122      8.441      9.219
REMARK INTER + INTRA:          -3.780
REMARK INTER:                  -3.769
REMARK INTRA:                  -0.010
REMARK UNBOUND:                -0.019
REMARK SMILES CCCCCO
REMARK SMILES IDX 4 1 3 2 2 3 1 4 5 5 6 6
REMARK H PARENT 6 7
REMARK Flexibility Score: inf
ROOT
ATOM      1  C   UNL     1       9.229 -11.347  15.878  1.00  0.00     0.028 C 
ENDROOT
BRANCH   1   2
ATOM      2  C   UNL     1      10.084 -10.943  14.667  1.00  0.00     0.002 C 
BRANCH   2   3
ATOM      3  C   UNL     1      11.161 -11.985  14.331  1.00  0.00    -0.003 C 
ATOM      4  C   UNL     1      12.572 -11.398  14.339  1.00  0.00     0.004 C 
ENDBRANCH   2   3
ENDBRANCH   1   2
BRANCH   1   5
ATOM      5  C   UNL     1       8.087 -10.358  16.127  1.00  0.00     0.156 C 
BRANCH   5   6
ATOM      6  O   UNL     1       8.583  -9.052  16.267  1.00  0.00    -0.396 OA
ATOM      7  H   UNL     1       9.433  -9.120  16.773  1.00  0.00     0.210 HD
ENDBRANCH   5   6
ENDBRANCH   1   5
TORSDOF 4
ENDMDL
MODEL 9
REMARK VINA RESULT:    -3.118      7.937      8.973
REMARK INTER + INTRA:          -3.775
REMARK INTER:                  -3.690
REMARK INTRA:                  -0.086
REMARK UNBOUND:                -0.019
REMARK SMILES CCCCCO
REMARK SMILES IDX 4 1 3 2 2 3 1 4 5 5 6 6
REMARK H PARENT 6 7
REMARK Flexibility Score: inf
ROOT
ATOM      1  C   UNL     1      22.613  -0.974  21.987  1.00  0.00     0.028 C 
ENDROOT
BRANCH   1   2
ATOM      2  C   UNL     1      21.835  -0.905  23.310  1.00  0.00     0.002 C 
BRANCH   2   3
ATOM      3  C   UNL     1      20.672  -1.907  23.365  1.00  0.00    -0.003 C 
ATOM      4  C   UNL     1      21.104  -3.332  23.022  1.00  0.00     0.004 C 
ENDBRANCH   2   3
ENDBRANCH   1   2
BRANCH   1   5
ATOM      5  C   UNL     1      24.108  -1.215  22.214  1.00  0.00     0.156 C 
BRANCH   5   6
ATOM      6  O   UNL     1      24.444  -2.548  21.931  1.00  0.00    -0.396 OA
ATOM      7  H   UNL     1      24.686  -2.585  20.969  1.00  0.00     0.210 HD
ENDBRANCH   5   6
ENDBRANCH   1   5
TORSDOF 4
ENDMDL
