MODEL 1
REMARK VINA RESULT:    -7.504      0.000      0.000
REMARK INTER + INTRA:          -7.504
REMARK INTER:                  -7.504
REMARK INTRA:                   0.000
REMARK UNBOUND:                 0.000
REMARK SMILES C[C@H]1C(=O)CC[C@@H]2[C@@]3(C)CC[C@@]4(C)[C@@H]5CC(C)(C)CC[C@]5(C)CC[C@@]4(C)[C@@H]3CC[C@]21C
REMARK SMILES IDX 1 1 2 2 3 3 4 4 5 5 6 6 7 7 30 8 29 9 28 10 27 11 8 12 10 13
REMARK SMILES IDX 11 14 12 15 25 16 24 17 23 18 21 19 14 20 15 21 16 22 19 23
REMARK SMILES IDX 20 24 17 25 18 26 22 27 26 28 13 29 9 30 31 31
REMARK H PARENT
REMARK Flexibility Score: inf
ROOT
ATOM      1  C   UNL     1     104.124  89.052  79.869  1.00  0.00     0.016 C 
ATOM      2  C   UNL     1     103.385  90.369  80.184  1.00  0.00     0.059 C 
ATOM      3  C   UNL     1     102.912  91.006  78.883  1.00  0.00     0.136 C 
ATOM      4  O   UNL     1     103.707  91.668  78.231  1.00  0.00    -0.299 OA
ATOM      5  C   UNL     1     101.520  90.782  78.316  1.00  0.00     0.076 C 
ATOM      6  C   UNL     1     100.429  90.441  79.357  1.00  0.00     0.012 C 
ATOM      7  C   UNL     1     100.998  89.543  80.477  1.00  0.00     0.002 C 
ATOM      8  C   UNL     1     102.198  90.261  81.209  1.00  0.00    -0.020 C 
ATOM      9  C   UNL     1     102.605  89.523  82.530  1.00  0.00     0.008 C 
ATOM     10  C   UNL     1     102.194  88.046  82.660  1.00  0.00     0.005 C 
ATOM     11  C   UNL     1     100.787  87.631  82.092  1.00  0.00     0.002 C 
ATOM     12  C   UNL     1      99.977  88.806  81.434  1.00  0.00    -0.026 C 
ATOM     13  C   UNL     1      98.840  88.149  80.606  1.00  0.00     0.008 C 
ATOM     14  C   UNL     1      97.960  87.201  81.431  1.00  0.00     0.008 C 
ATOM     15  C   UNL     1      98.687  85.990  82.119  1.00  0.00    -0.024 C 
ATOM     16  C   UNL     1      99.978  86.543  82.943  1.00  0.00    -0.024 C 
ATOM     17  C   UNL     1     101.012  85.390  83.266  1.00  0.00     0.008 C 
ATOM     18  C   UNL     1     100.502  83.966  83.111  1.00  0.00     0.007 C 
ATOM     19  C   UNL     1      99.966  83.658  81.682  1.00  0.00    -0.029 C 
ATOM     20  C   UNL     1      99.157  84.877  81.070  1.00  0.00     0.002 C 
ATOM     21  C   UNL     1      98.182  84.444  79.908  1.00  0.00     0.011 C 
ATOM     22  C   UNL     1      97.453  83.065  79.989  1.00  0.00    -0.035 C 
ATOM     23  C   UNL     1      98.402  81.966  80.506  1.00  0.00     0.007 C 
ATOM     24  C   UNL     1      99.110  82.365  81.801  1.00  0.00     0.007 C 
ATOM     25  C   UNL     1      96.172  83.129  80.854  1.00  0.00     0.011 C 
ATOM     26  C   UNL     1      97.005  82.674  78.558  1.00  0.00     0.011 C 
ATOM     27  C   UNL     1     101.187  83.348  80.765  1.00  0.00     0.011 C 
ATOM     28  C   UNL     1      99.550  87.163  84.306  1.00  0.00     0.012 C 
ATOM     29  C   UNL     1      97.576  85.389  83.041  1.00  0.00     0.012 C 
ATOM     30  C   UNL     1      99.357  89.817  82.442  1.00  0.00     0.012 C 
ATOM     31  C   UNL     1     101.879  91.738  81.629  1.00  0.00     0.012 C 
ENDROOT
TORSDOF 0
ENDMDL
MODEL 2
REMARK VINA RESULT:    -7.202      2.720      7.393
REMARK INTER + INTRA:          -7.202
REMARK INTER:                  -7.202
REMARK INTRA:                   0.000
REMARK UNBOUND:                 0.000
REMARK SMILES C[C@H]1C(=O)CC[C@@H]2[C@@]3(C)CC[C@@]4(C)[C@@H]5CC(C)(C)CC[C@]5(C)CC[C@@]4(C)[C@@H]3CC[C@]21C
REMARK SMILES IDX 1 1 2 2 3 3 4 4 5 5 6 6 7 7 30 8 29 9 28 10 27 11 8 12 10 13
REMARK SMILES IDX 11 14 12 15 25 16 24 17 23 18 21 19 14 20 15 21 16 22 19 23
REMARK SMILES IDX 20 24 17 25 18 26 22 27 26 28 13 29 9 30 31 31
REMARK H PARENT
REMARK Flexibility Score: inf
ROOT
ATOM      1  C   UNL     1      96.116  84.212  79.758  1.00  0.00     0.016 C 
ATOM      2  C   UNL     1      96.772  83.233  80.752  1.00  0.00     0.059 C 
ATOM      3  C   UNL     1      97.354  82.051  79.988  1.00  0.00     0.136 C 
ATOM      4  O   UNL     1      96.609  81.139  79.661  1.00  0.00    -0.299 OA
ATOM      5  C   UNL     1      98.805  81.997  79.537  1.00  0.00     0.076 C 
ATOM      6  C   UNL     1      99.794  82.826  80.389  1.00  0.00     0.012 C 
ATOM      7  C   UNL     1      99.143  84.145  80.859  1.00  0.00     0.002 C 
ATOM      8  C   UNL     1      97.849  83.853  81.715  1.00  0.00    -0.020 C 
ATOM      9  C   UNL     1      97.334  85.135  82.455  1.00  0.00     0.008 C 
ATOM     10  C   UNL     1      97.780  86.494  81.891  1.00  0.00     0.005 C 
ATOM     11  C   UNL     1      99.252  86.608  81.347  1.00  0.00     0.002 C 
ATOM     12  C   UNL     1     100.085  85.277  81.438  1.00  0.00    -0.026 C 
ATOM     13  C   UNL     1     101.324  85.468  80.523  1.00  0.00     0.008 C 
ATOM     14  C   UNL     1     102.145  86.716  80.869  1.00  0.00     0.008 C 
ATOM     15  C   UNL     1     101.394  88.095  80.795  1.00  0.00    -0.024 C 
ATOM     16  C   UNL     1     100.005  87.988  81.640  1.00  0.00    -0.024 C 
ATOM     17  C   UNL     1      98.985  89.131  81.245  1.00  0.00     0.008 C 
ATOM     18  C   UNL     1      99.557  90.307  80.471  1.00  0.00     0.007 C 
ATOM     19  C   UNL     1     100.249  89.888  79.140  1.00  0.00    -0.029 C 
ATOM     20  C   UNL     1     101.073  88.542  79.292  1.00  0.00     0.002 C 
ATOM     21  C   UNL     1     102.178  88.372  78.179  1.00  0.00     0.011 C 
ATOM     22  C   UNL     1     102.943  89.628  77.654  1.00  0.00    -0.035 C 
ATOM     23  C   UNL     1     101.984  90.820  77.464  1.00  0.00     0.007 C 
ATOM     24  C   UNL     1     101.133  91.091  78.704  1.00  0.00     0.007 C 
ATOM     25  C   UNL     1     104.124  90.022  78.572  1.00  0.00     0.011 C 
ATOM     26  C   UNL     1     103.550  89.279  76.272  1.00  0.00     0.011 C 
ATOM     27  C   UNL     1      99.141  89.685  78.064  1.00  0.00     0.011 C 
ATOM     28  C   UNL     1     100.268  88.123  83.169  1.00  0.00     0.012 C 
ATOM     29  C   UNL     1     102.423  89.092  81.419  1.00  0.00     0.012 C 
ATOM     30  C   UNL     1     100.561  84.901  82.871  1.00  0.00     0.012 C 
ATOM     31  C   UNL     1      98.072  82.777  82.835  1.00  0.00     0.012 C 
ENDROOT
TORSDOF 0
ENDMDL
MODEL 3
REMARK VINA RESULT:    -7.074      5.178      8.933
REMARK INTER + INTRA:          -7.074
REMARK INTER:                  -7.074
REMARK INTRA:                   0.000
REMARK UNBOUND:                 0.000
REMARK SMILES C[C@H]1C(=O)CC[C@@H]2[C@@]3(C)CC[C@@]4(C)[C@@H]5CC(C)(C)CC[C@]5(C)CC[C@@]4(C)[C@@H]3CC[C@]21C
REMARK SMILES IDX 1 1 2 2 3 3 4 4 5 5 6 6 7 7 30 8 29 9 28 10 27 11 8 12 10 13
REMARK SMILES IDX 11 14 12 15 25 16 24 17 23 18 21 19 14 20 15 21 16 22 19 23
REMARK SMILES IDX 20 24 17 25 18 26 22 27 26 28 13 29 9 30 31 31
REMARK H PARENT
REMARK Flexibility Score: inf
ROOT
ATOM      1  C   UNL     1      90.071  83.499  81.999  1.00  0.00     0.016 C 
ATOM      2  C   UNL     1      89.845  84.932  82.521  1.00  0.00     0.059 C 
ATOM      3  C   UNL     1      89.863  84.923  84.045  1.00  0.00     0.136 C 
ATOM      4  O   UNL     1      88.847  84.600  84.642  1.00  0.00    -0.299 OA
ATOM      5  C   UNL     1      91.117  85.213  84.854  1.00  0.00     0.076 C 
ATOM      6  C   UNL     1      92.163  86.111  84.154  1.00  0.00     0.012 C 
ATOM      7  C   UNL     1      92.232  85.801  82.643  1.00  0.00     0.002 C 
ATOM      8  C   UNL     1      90.825  86.027  81.964  1.00  0.00    -0.020 C 
ATOM      9  C   UNL     1      90.920  86.015  80.400  1.00  0.00     0.008 C 
ATOM     10  C   UNL     1      92.142  85.317  79.779  1.00  0.00     0.005 C 
ATOM     11  C   UNL     1      93.525  85.488  80.511  1.00  0.00     0.002 C 
ATOM     12  C   UNL     1      93.466  86.354  81.823  1.00  0.00    -0.026 C 
ATOM     13  C   UNL     1      94.788  86.084  82.590  1.00  0.00     0.008 C 
ATOM     14  C   UNL     1      96.042  86.352  81.748  1.00  0.00     0.008 C 
ATOM     15  C   UNL     1      96.188  85.522  80.421  1.00  0.00    -0.024 C 
ATOM     16  C   UNL     1      94.807  85.639  79.567  1.00  0.00    -0.024 C 
ATOM     17  C   UNL     1      94.684  84.493  78.483  1.00  0.00     0.008 C 
ATOM     18  C   UNL     1      95.960  83.735  78.157  1.00  0.00     0.007 C 
ATOM     19  C   UNL     1      96.609  83.061  79.403  1.00  0.00    -0.029 C 
ATOM     20  C   UNL     1      96.521  83.980  80.693  1.00  0.00     0.002 C 
ATOM     21  C   UNL     1      97.587  83.598  81.791  1.00  0.00     0.011 C 
ATOM     22  C   UNL     1      99.004  83.108  81.352  1.00  0.00    -0.035 C 
ATOM     23  C   UNL     1      98.909  82.146  80.152  1.00  0.00     0.007 C 
ATOM     24  C   UNL     1      98.073  82.717  79.007  1.00  0.00     0.007 C 
ATOM     25  C   UNL     1      99.958  84.284  81.033  1.00  0.00     0.011 C 
ATOM     26  C   UNL     1      99.633  82.333  82.537  1.00  0.00     0.011 C 
ATOM     27  C   UNL     1      95.854  81.727  79.679  1.00  0.00     0.011 C 
ATOM     28  C   UNL     1      94.734  86.995  78.804  1.00  0.00     0.012 C 
ATOM     29  C   UNL     1      97.411  86.194  79.717  1.00  0.00     0.012 C 
ATOM     30  C   UNL     1      93.314  87.884  81.587  1.00  0.00     0.012 C 
ATOM     31  C   UNL     1      90.166  87.401  82.337  1.00  0.00     0.012 C 
ENDROOT
TORSDOF 0
ENDMDL
MODEL 4
REMARK VINA RESULT:    -6.870      4.236      6.713
REMARK INTER + INTRA:          -6.870
REMARK INTER:                  -6.870
REMARK INTRA:                   0.000
REMARK UNBOUND:                 0.000
REMARK SMILES C[C@H]1C(=O)CC[C@@H]2[C@@]3(C)CC[C@@]4(C)[C@@H]5CC(C)(C)CC[C@]5(C)CC[C@@]4(C)[C@@H]3CC[C@]21C
REMARK SMILES IDX 1 1 2 2 3 3 4 4 5 5 6 6 7 7 30 8 29 9 28 10 27 11 8 12 10 13
REMARK SMILES IDX 11 14 12 15 25 16 24 17 23 18 21 19 14 20 15 21 16 22 19 23
REMARK SMILES IDX 20 24 17 25 18 26 22 27 26 28 13 29 9 30 31 31
REMARK H PARENT
REMARK Flexibility Score: inf
ROOT
ATOM      1  C   UNL     1      97.404  88.793  84.112  1.00  0.00     0.016 C 
ATOM      2  C   UNL     1      97.715  87.758  85.213  1.00  0.00     0.059 C 
ATOM      3  C   UNL     1      96.596  87.768  86.247  1.00  0.00     0.136 C 
ATOM      4  O   UNL     1      96.610  88.624  87.119  1.00  0.00    -0.299 OA
ATOM      5  C   UNL     1      95.414  86.814  86.189  1.00  0.00     0.076 C 
ATOM      6  C   UNL     1      95.683  85.470  85.472  1.00  0.00     0.012 C 
ATOM      7  C   UNL     1      96.619  85.671  84.260  1.00  0.00     0.002 C 
ATOM      8  C   UNL     1      97.996  86.294  84.717  1.00  0.00    -0.020 C 
ATOM      9  C   UNL     1      99.072  86.236  83.579  1.00  0.00     0.008 C 
ATOM     10  C   UNL     1      98.557  86.093  82.137  1.00  0.00     0.005 C 
ATOM     11  C   UNL     1      97.312  85.161  81.899  1.00  0.00     0.002 C 
ATOM     12  C   UNL     1      96.734  84.500  83.203  1.00  0.00    -0.026 C 
ATOM     13  C   UNL     1      95.324  83.962  82.838  1.00  0.00     0.008 C 
ATOM     14  C   UNL     1      95.331  83.012  81.634  1.00  0.00     0.008 C 
ATOM     15  C   UNL     1      95.885  83.593  80.283  1.00  0.00    -0.024 C 
ATOM     16  C   UNL     1      97.332  84.288  80.558  1.00  0.00    -0.024 C 
ATOM     17  C   UNL     1      97.738  85.285  79.398  1.00  0.00     0.008 C 
ATOM     18  C   UNL     1      96.955  85.164  78.102  1.00  0.00     0.007 C 
ATOM     19  C   UNL     1      95.420  85.349  78.292  1.00  0.00    -0.029 C 
ATOM     20  C   UNL     1      94.894  84.662  79.621  1.00  0.00     0.002 C 
ATOM     21  C   UNL     1      93.345  84.367  79.586  1.00  0.00     0.011 C 
ATOM     22  C   UNL     1      92.671  83.944  78.242  1.00  0.00    -0.035 C 
ATOM     23  C   UNL     1      93.217  84.774  77.064  1.00  0.00     0.007 C 
ATOM     24  C   UNL     1      94.745  84.781  77.011  1.00  0.00     0.007 C 
ATOM     25  C   UNL     1      92.825  82.431  77.960  1.00  0.00     0.011 C 
ATOM     26  C   UNL     1      91.151  84.223  78.359  1.00  0.00     0.011 C 
ATOM     27  C   UNL     1      95.122  86.877  78.359  1.00  0.00     0.011 C 
ATOM     28  C   UNL     1      98.459  83.218  80.652  1.00  0.00     0.012 C 
ATOM     29  C   UNL     1      95.969  82.332  79.364  1.00  0.00     0.012 C 
ATOM     30  C   UNL     1      97.591  83.336  83.780  1.00  0.00     0.012 C 
ATOM     31  C   UNL     1      98.636  85.556  85.944  1.00  0.00     0.012 C 
ENDROOT
TORSDOF 0
ENDMDL
MODEL 5
REMARK VINA RESULT:    -6.783      1.829      4.058
REMARK INTER + INTRA:          -6.783
REMARK INTER:                  -6.783
REMARK INTRA:                   0.000
REMARK UNBOUND:                 0.000
REMARK SMILES C[C@H]1C(=O)CC[C@@H]2[C@@]3(C)CC[C@@]4(C)[C@@H]5CC(C)(C)CC[C@]5(C)CC[C@@]4(C)[C@@H]3CC[C@]21C
REMARK SMILES IDX 1 1 2 2 3 3 4 4 5 5 6 6 7 7 30 8 29 9 28 10 27 11 8 12 10 13
REMARK SMILES IDX 11 14 12 15 25 16 24 17 23 18 21 19 14 20 15 21 16 22 19 23
REMARK SMILES IDX 20 24 17 25 18 26 22 27 26 28 13 29 9 30 31 31
REMARK H PARENT
REMARK Flexibility Score: inf
ROOT
ATOM      1  C   UNL     1     100.372  90.057  79.254  1.00  0.00     0.016 C 
ATOM      2  C   UNL     1     101.872  89.927  79.586  1.00  0.00     0.059 C 
ATOM      3  C   UNL     1     102.259  90.994  80.603  1.00  0.00     0.136 C 
ATOM      4  O   UNL     1     102.498  92.125  80.204  1.00  0.00    -0.299 OA
ATOM      5  C   UNL     1     102.275  90.736  82.101  1.00  0.00     0.076 C 
ATOM      6  C   UNL     1     102.512  89.265  82.516  1.00  0.00     0.012 C 
ATOM      7  C   UNL     1     101.811  88.298  81.537  1.00  0.00     0.002 C 
ATOM      8  C   UNL     1     102.347  88.508  80.067  1.00  0.00    -0.020 C 
ATOM      9  C   UNL     1     101.889  87.358  79.106  1.00  0.00     0.008 C 
ATOM     10  C   UNL     1     100.657  86.541  79.532  1.00  0.00     0.005 C 
ATOM     11  C   UNL     1     100.499  86.208  81.062  1.00  0.00     0.002 C 
ATOM     12  C   UNL     1     101.640  86.788  81.976  1.00  0.00    -0.026 C 
ATOM     13  C   UNL     1     101.119  86.706  83.436  1.00  0.00     0.008 C 
ATOM     14  C   UNL     1     100.680  85.294  83.844  1.00  0.00     0.008 C 
ATOM     15  C   UNL     1      99.536  84.639  82.989  1.00  0.00    -0.024 C 
ATOM     16  C   UNL     1      99.919  84.759  81.410  1.00  0.00    -0.024 C 
ATOM     17  C   UNL     1      98.654  84.564  80.480  1.00  0.00     0.008 C 
ATOM     18  C   UNL     1      97.426  83.951  81.132  1.00  0.00     0.007 C 
ATOM     19  C   UNL     1      96.917  84.759  82.363  1.00  0.00    -0.029 C 
ATOM     20  C   UNL     1      98.109  85.317  83.247  1.00  0.00     0.002 C 
ATOM     21  C   UNL     1      97.669  85.660  84.722  1.00  0.00     0.011 C 
ATOM     22  C   UNL     1      96.600  84.771  85.434  1.00  0.00    -0.035 C 
ATOM     23  C   UNL     1      95.459  84.398  84.468  1.00  0.00     0.007 C 
ATOM     24  C   UNL     1      95.972  83.811  83.154  1.00  0.00     0.007 C 
ATOM     25  C   UNL     1      97.219  83.500  86.062  1.00  0.00     0.011 C 
ATOM     26  C   UNL     1      95.991  85.592  86.599  1.00  0.00     0.011 C 
ATOM     27  C   UNL     1      96.072  85.958  81.837  1.00  0.00     0.011 C 
ATOM     28  C   UNL     1     100.955  83.671  81.001  1.00  0.00     0.012 C 
ATOM     29  C   UNL     1      99.506  83.166  83.508  1.00  0.00     0.012 C 
ATOM     30  C   UNL     1     103.000  86.040  81.875  1.00  0.00     0.012 C 
ATOM     31  C   UNL     1     103.912  88.541  79.973  1.00  0.00     0.012 C 
ENDROOT
TORSDOF 0
ENDMDL
MODEL 6
REMARK VINA RESULT:    -6.735      2.652      7.294
REMARK INTER + INTRA:          -6.735
REMARK INTER:                  -6.735
REMARK INTRA:                   0.000
REMARK UNBOUND:                 0.000
REMARK SMILES C[C@H]1C(=O)CC[C@@H]2[C@@]3(C)CC[C@@]4(C)[C@@H]5CC(C)(C)CC[C@]5(C)CC[C@@]4(C)[C@@H]3CC[C@]21C
REMARK SMILES IDX 1 1 2 2 3 3 4 4 5 5 6 6 7 7 30 8 29 9 28 10 27 11 8 12 10 13
REMARK SMILES IDX 11 14 12 15 25 16 24 17 23 18 21 19 14 20 15 21 16 22 19 23
REMARK SMILES IDX 20 24 17 25 18 26 22 27 26 28 13 29 9 30 31 31
REMARK H PARENT
REMARK Flexibility Score: inf
ROOT
ATOM      1  C   UNL     1      95.624  86.701  82.126  1.00  0.00     0.016 C 
ATOM      2  C   UNL     1      95.872  85.276  81.589  1.00  0.00     0.059 C 
ATOM      3  C   UNL     1      95.226  85.134  80.216  1.00  0.00     0.136 C 
ATOM      4  O   UNL     1      94.029  84.895  80.153  1.00  0.00    -0.299 OA
ATOM      5  C   UNL     1      95.989  85.364  78.921  1.00  0.00     0.076 C 
ATOM      6  C   UNL     1      97.514  85.119  78.999  1.00  0.00     0.012 C 
ATOM      7  C   UNL     1      98.077  85.582  80.360  1.00  0.00     0.002 C 
ATOM      8  C   UNL     1      97.373  84.812  81.545  1.00  0.00    -0.020 C 
ATOM      9  C   UNL     1      98.114  85.029  82.908  1.00  0.00     0.008 C 
ATOM     10  C   UNL     1      99.020  86.267  83.021  1.00  0.00     0.005 C 
ATOM     11  C   UNL     1      99.862  86.670  81.754  1.00  0.00     0.002 C 
ATOM     12  C   UNL     1      99.644  85.741  80.505  1.00  0.00    -0.026 C 
ATOM     13  C   UNL     1     100.224  86.502  79.282  1.00  0.00     0.008 C 
ATOM     14  C   UNL     1     101.687  86.923  79.470  1.00  0.00     0.008 C 
ATOM     15  C   UNL     1     101.996  87.862  80.692  1.00  0.00    -0.024 C 
ATOM     16  C   UNL     1     101.338  87.218  82.036  1.00  0.00    -0.024 C 
ATOM     17  C   UNL     1     101.190  88.288  83.191  1.00  0.00     0.008 C 
ATOM     18  C   UNL     1     101.983  89.574  83.024  1.00  0.00     0.007 C 
ATOM     19  C   UNL     1     101.648  90.335  81.707  1.00  0.00    -0.029 C 
ATOM     20  C   UNL     1     101.441  89.348  80.483  1.00  0.00     0.002 C 
ATOM     21  C   UNL     1     101.628  90.057  79.086  1.00  0.00     0.011 C 
ATOM     22  C   UNL     1     102.702  91.181  78.930  1.00  0.00    -0.035 C 
ATOM     23  C   UNL     1     102.708  92.113  80.157  1.00  0.00     0.007 C 
ATOM     24  C   UNL     1     102.806  91.347  81.476  1.00  0.00     0.007 C 
ATOM     25  C   UNL     1     104.116  90.609  78.674  1.00  0.00     0.011 C 
ATOM     26  C   UNL     1     102.332  92.029  77.687  1.00  0.00     0.011 C 
ATOM     27  C   UNL     1     100.336  91.143  81.936  1.00  0.00     0.011 C 
ATOM     28  C   UNL     1     102.223  86.065  82.596  1.00  0.00     0.012 C 
ATOM     29  C   UNL     1     103.558  87.897  80.724  1.00  0.00     0.012 C 
ATOM     30  C   UNL     1     100.320  84.343  80.605  1.00  0.00     0.012 C 
ATOM     31  C   UNL     1      97.320  83.259  81.334  1.00  0.00     0.012 C 
ENDROOT
TORSDOF 0
ENDMDL
MODEL 7
REMARK VINA RESULT:    -6.677      1.847      3.146
REMARK INTER + INTRA:          -6.677
REMARK INTER:                  -6.677
REMARK INTRA:                   0.000
REMARK UNBOUND:                 0.000
REMARK SMILES C[C@H]1C(=O)CC[C@@H]2[C@@]3(C)CC[C@@]4(C)[C@@H]5CC(C)(C)CC[C@]5(C)CC[C@@]4(C)[C@@H]3CC[C@]21C
REMARK SMILES IDX 1 1 2 2 3 3 4 4 5 5 6 6 7 7 30 8 29 9 28 10 27 11 8 12 10 13
REMARK SMILES IDX 11 14 12 15 25 16 24 17 23 18 21 19 14 20 15 21 16 22 19 23
REMARK SMILES IDX 20 24 17 25 18 26 22 27 26 28 13 29 9 30 31 31
REMARK H PARENT
REMARK Flexibility Score: inf
ROOT
ATOM      1  C   UNL     1     102.255  88.387  77.980  1.00  0.00     0.016 C 
ATOM      2  C   UNL     1     102.973  88.860  79.260  1.00  0.00     0.059 C 
ATOM      3  C   UNL     1     102.621  90.318  79.528  1.00  0.00     0.136 C 
ATOM      4  O   UNL     1     103.230  91.190  78.926  1.00  0.00    -0.299 OA
ATOM      5  C   UNL     1     101.484  90.733  80.447  1.00  0.00     0.076 C 
ATOM      6  C   UNL     1     101.126  89.718  81.558  1.00  0.00     0.012 C 
ATOM      7  C   UNL     1     101.259  88.269  81.042  1.00  0.00     0.002 C 
ATOM      8  C   UNL     1     102.731  87.988  80.545  1.00  0.00    -0.020 C 
ATOM      9  C   UNL     1     102.984  86.461  80.297  1.00  0.00     0.008 C 
ATOM     10  C   UNL     1     101.747  85.576  80.068  1.00  0.00     0.005 C 
ATOM     11  C   UNL     1     100.462  85.889  80.920  1.00  0.00     0.002 C 
ATOM     12  C   UNL     1     100.611  87.109  81.901  1.00  0.00    -0.026 C 
ATOM     13  C   UNL     1      99.175  87.500  82.340  1.00  0.00     0.008 C 
ATOM     14  C   UNL     1      98.388  86.332  82.948  1.00  0.00     0.008 C 
ATOM     15  C   UNL     1      98.182  85.072  82.033  1.00  0.00    -0.024 C 
ATOM     16  C   UNL     1      99.622  84.622  81.417  1.00  0.00    -0.024 C 
ATOM     17  C   UNL     1      99.456  83.687  80.151  1.00  0.00     0.008 C 
ATOM     18  C   UNL     1      98.082  83.074  79.942  1.00  0.00     0.007 C 
ATOM     19  C   UNL     1      96.947  84.135  79.828  1.00  0.00    -0.029 C 
ATOM     20  C   UNL     1      97.149  85.339  80.840  1.00  0.00     0.002 C 
ATOM     21  C   UNL     1      95.813  86.125  81.132  1.00  0.00     0.011 C 
ATOM     22  C   UNL     1      94.461  85.347  81.201  1.00  0.00    -0.035 C 
ATOM     23  C   UNL     1      94.378  84.282  80.090  1.00  0.00     0.007 C 
ATOM     24  C   UNL     1      95.609  83.376  80.054  1.00  0.00     0.007 C 
ATOM     25  C   UNL     1      94.224  84.706  82.589  1.00  0.00     0.011 C 
ATOM     26  C   UNL     1      93.311  86.361  80.977  1.00  0.00     0.011 C 
ATOM     27  C   UNL     1      96.950  84.690  78.372  1.00  0.00     0.011 C 
ATOM     28  C   UNL     1     100.454  83.824  82.464  1.00  0.00     0.012 C 
ATOM     29  C   UNL     1      97.573  84.019  83.014  1.00  0.00     0.012 C 
ATOM     30  C   UNL     1     101.474  86.828  83.165  1.00  0.00     0.012 C 
ATOM     31  C   UNL     1     103.831  88.440  81.567  1.00  0.00     0.012 C 
ENDROOT
TORSDOF 0
ENDMDL
MODEL 8
REMARK VINA RESULT:    -6.653      3.781      6.586
REMARK INTER + INTRA:          -6.653
REMARK INTER:                  -6.653
REMARK INTRA:                   0.000
REMARK UNBOUND:                 0.000
REMARK SMILES C[C@H]1C(=O)CC[C@@H]2[C@@]3(C)CC[C@@]4(C)[C@@H]5CC(C)(C)CC[C@]5(C)CC[C@@]4(C)[C@@H]3CC[C@]21C
REMARK SMILES IDX 1 1 2 2 3 3 4 4 5 5 6 6 7 7 30 8 29 9 28 10 27 11 8 12 10 13
REMARK SMILES IDX 11 14 12 15 25 16 24 17 23 18 21 19 14 20 15 21 16 22 19 23
REMARK SMILES IDX 20 24 17 25 18 26 22 27 26 28 13 29 9 30 31 31
REMARK H PARENT
REMARK Flexibility Score: inf
ROOT
ATOM      1  C   UNL     1      98.123  84.467  85.187  1.00  0.00     0.016 C 
ATOM      2  C   UNL     1      99.514  84.642  84.544  1.00  0.00     0.059 C 
ATOM      3  C   UNL     1     100.156  83.274  84.352  1.00  0.00     0.136 C 
ATOM      4  O   UNL     1     100.718  82.750  85.303  1.00  0.00    -0.299 OA
ATOM      5  C   UNL     1     100.053  82.492  83.052  1.00  0.00     0.076 C 
ATOM      6  C   UNL     1      99.850  83.348  81.780  1.00  0.00     0.012 C 
ATOM      7  C   UNL     1      98.934  84.556  82.070  1.00  0.00     0.002 C 
ATOM      8  C   UNL     1      99.552  85.463  83.205  1.00  0.00    -0.020 C 
ATOM      9  C   UNL     1      98.816  86.842  83.319  1.00  0.00     0.008 C 
ATOM     10  C   UNL     1      97.391  86.923  82.746  1.00  0.00     0.005 C 
ATOM     11  C   UNL     1      97.099  86.142  81.412  1.00  0.00     0.002 C 
ATOM     12  C   UNL     1      98.329  85.346  80.840  1.00  0.00    -0.026 C 
ATOM     13  C   UNL     1      97.762  84.354  79.789  1.00  0.00     0.008 C 
ATOM     14  C   UNL     1      96.929  85.039  78.698  1.00  0.00     0.008 C 
ATOM     15  C   UNL     1      95.673  85.851  79.180  1.00  0.00    -0.024 C 
ATOM     16  C   UNL     1      96.121  86.865  80.373  1.00  0.00    -0.024 C 
ATOM     17  C   UNL     1      94.882  87.364  81.219  1.00  0.00     0.008 C 
ATOM     18  C   UNL     1      93.511  87.148  80.599  1.00  0.00     0.007 C 
ATOM     19  C   UNL     1      93.215  85.655  80.270  1.00  0.00    -0.029 C 
ATOM     20  C   UNL     1      94.489  84.905  79.696  1.00  0.00     0.002 C 
ATOM     21  C   UNL     1      94.120  83.607  78.879  1.00  0.00     0.011 C 
ATOM     22  C   UNL     1      92.822  83.587  78.011  1.00  0.00    -0.035 C 
ATOM     23  C   UNL     1      91.652  84.265  78.750  1.00  0.00     0.007 C 
ATOM     24  C   UNL     1      92.016  85.651  79.279  1.00  0.00     0.007 C 
ATOM     25  C   UNL     1      93.036  84.233  76.621  1.00  0.00     0.011 C 
ATOM     26  C   UNL     1      92.435  82.108  77.759  1.00  0.00     0.011 C 
ATOM     27  C   UNL     1      92.761  84.952  81.583  1.00  0.00     0.011 C 
ATOM     28  C   UNL     1      96.819  88.133  79.798  1.00  0.00     0.012 C 
ATOM     29  C   UNL     1      95.211  86.589  77.882  1.00  0.00     0.012 C 
ATOM     30  C   UNL     1      99.424  86.228  80.174  1.00  0.00     0.012 C 
ATOM     31  C   UNL     1     101.065  85.808  82.974  1.00  0.00     0.012 C 
ENDROOT
TORSDOF 0
ENDMDL
MODEL 9
REMARK VINA RESULT:    -6.479      5.239      8.866
REMARK INTER + INTRA:          -6.479
REMARK INTER:                  -6.479
REMARK INTRA:                   0.000
REMARK UNBOUND:                 0.000
REMARK SMILES C[C@H]1C(=O)CC[C@@H]2[C@@]3(C)CC[C@@]4(C)[C@@H]5CC(C)(C)CC[C@]5(C)CC[C@@]4(C)[C@@H]3CC[C@]21C
REMARK SMILES IDX 1 1 2 2 3 3 4 4 5 5 6 6 7 7 30 8 29 9 28 10 27 11 8 12 10 13
REMARK SMILES IDX 11 14 12 15 25 16 24 17 23 18 21 19 14 20 15 21 16 22 19 23
REMARK SMILES IDX 20 24 17 25 18 26 22 27 26 28 13 29 9 30 31 31
REMARK H PARENT
REMARK Flexibility Score: inf
ROOT
ATOM      1  C   UNL     1      90.563  86.959  81.451  1.00  0.00     0.016 C 
ATOM      2  C   UNL     1      89.915  86.236  82.649  1.00  0.00     0.059 C 
ATOM      3  C   UNL     1      89.194  84.987  82.157  1.00  0.00     0.136 C 
ATOM      4  O   UNL     1      88.072  85.104  81.687  1.00  0.00    -0.299 OA
ATOM      5  C   UNL     1      89.845  83.613  82.144  1.00  0.00     0.076 C 
ATOM      6  C   UNL     1      90.963  83.401  83.191  1.00  0.00     0.012 C 
ATOM      7  C   UNL     1      91.797  84.687  83.374  1.00  0.00     0.002 C 
ATOM      8  C   UNL     1      90.879  85.884  83.840  1.00  0.00    -0.020 C 
ATOM      9  C   UNL     1      91.720  87.115  84.322  1.00  0.00     0.008 C 
ATOM     10  C   UNL     1      93.174  87.205  83.827  1.00  0.00     0.005 C 
ATOM     11  C   UNL     1      93.990  85.864  83.722  1.00  0.00     0.002 C 
ATOM     12  C   UNL     1      93.183  84.576  84.128  1.00  0.00    -0.026 C 
ATOM     13  C   UNL     1      93.992  83.363  83.595  1.00  0.00     0.008 C 
ATOM     14  C   UNL     1      95.445  83.341  84.085  1.00  0.00     0.008 C 
ATOM     15  C   UNL     1      96.329  84.587  83.715  1.00  0.00    -0.024 C 
ATOM     16  C   UNL     1      95.534  85.945  84.133  1.00  0.00    -0.024 C 
ATOM     17  C   UNL     1      96.112  87.219  83.393  1.00  0.00     0.008 C 
ATOM     18  C   UNL     1      97.477  87.059  82.745  1.00  0.00     0.007 C 
ATOM     19  C   UNL     1      97.528  85.909  81.695  1.00  0.00    -0.029 C 
ATOM     20  C   UNL     1      96.700  84.639  82.159  1.00  0.00     0.002 C 
ATOM     21  C   UNL     1      97.142  83.316  81.422  1.00  0.00     0.011 C 
ATOM     22  C   UNL     1      98.646  83.102  81.062  1.00  0.00    -0.035 C 
ATOM     23  C   UNL     1      99.280  84.403  80.532  1.00  0.00     0.007 C 
ATOM     24  C   UNL     1      99.032  85.594  81.458  1.00  0.00     0.007 C 
ATOM     25  C   UNL     1      99.461  82.545  82.253  1.00  0.00     0.011 C 
ATOM     26  C   UNL     1      98.724  82.040  79.935  1.00  0.00     0.011 C 
ATOM     27  C   UNL     1      96.929  86.446  80.362  1.00  0.00     0.011 C 
ATOM     28  C   UNL     1      95.651  86.216  85.662  1.00  0.00     0.012 C 
ATOM     29  C   UNL     1      97.633  84.353  84.545  1.00  0.00     0.012 C 
ATOM     30  C   UNL     1      92.953  84.406  85.657  1.00  0.00     0.012 C 
ATOM     31  C   UNL     1      89.938  85.518  85.040  1.00  0.00     0.012 C 
ENDROOT
TORSDOF 0
ENDMDL
