MODEL 1
REMARK VINA RESULT:    -4.017      0.000      0.000
REMARK INTER + INTRA:          -8.131
REMARK INTER:                  -7.070
REMARK INTRA:                  -1.061
REMARK UNBOUND:                -1.061
REMARK SMILES CCCCCCCCCCCCCCC(=O)[O-]
REMARK SMILES IDX 9 1 10 2 11 3 12 4 13 5 14 6 15 7 16 8 17 9 8 10 7 11 6 12
REMARK SMILES IDX 5 13 4 14 3 15 2 16 1 17
REMARK H PARENT
REMARK Flexibility Score: inf
ROOT
ATOM      1  C   UNL     1     -16.569  -2.057  -3.960  1.00  0.00     0.000 C 
ENDROOT
BRANCH   1   2
ATOM      2  C   UNL     1     -17.124  -0.777  -3.311  1.00  0.00     0.000 C 
BRANCH   2   3
ATOM      3  C   UNL     1     -16.933  -0.754  -1.786  1.00  0.00     0.000 C 
BRANCH   3   4
ATOM      4  C   UNL     1     -16.896   0.675  -1.218  1.00  0.00     0.000 C 
BRANCH   4   5
ATOM      5  C   UNL     1     -16.380   0.720   0.230  1.00  0.00     0.006 C 
BRANCH   5   6
ATOM      6  C   UNL     1     -16.162  -0.677   0.825  1.00  0.00     0.053 C 
BRANCH   6   7
ATOM      7  C   UNL     1     -15.405  -0.583   2.112  1.00  0.00     0.041 C 
ATOM      8  O   UNL     1     -14.177  -0.305   2.105  1.00  0.00    -0.550 OA
ATOM      9  O   UNL     1     -16.067  -0.750   3.321  1.00  0.00    -0.550 OA
ENDBRANCH   6   7
ENDBRANCH   5   6
ENDBRANCH   4   5
ENDBRANCH   3   4
ENDBRANCH   2   3
ENDBRANCH   1   2
BRANCH   1  10
ATOM     10  C   UNL     1     -16.818  -3.311  -3.106  1.00  0.00     0.000 C 
BRANCH  10  11
ATOM     11  C   UNL     1     -15.637  -3.630  -2.170  1.00  0.00    -0.000 C 
BRANCH  11  12
ATOM     12  C   UNL     1     -14.887  -4.908  -2.579  1.00  0.00    -0.000 C 
BRANCH  12  13
ATOM     13  C   UNL     1     -13.461  -4.625  -3.082  1.00  0.00    -0.000 C 
BRANCH  13  14
ATOM     14  C   UNL     1     -13.432  -4.203  -4.560  1.00  0.00    -0.000 C 
BRANCH  14  15
ATOM     15  C   UNL     1     -14.308  -5.104  -5.449  1.00  0.00    -0.000 C 
BRANCH  15  16
ATOM     16  C   UNL     1     -14.863  -4.358  -6.673  1.00  0.00    -0.003 C 
ATOM     17  C   UNL     1     -16.386  -4.446  -6.776  1.00  0.00     0.004 C 
ENDBRANCH  15  16
ENDBRANCH  14  15
ENDBRANCH  13  14
ENDBRANCH  12  13
ENDBRANCH  11  12
ENDBRANCH  10  11
ENDBRANCH   1  10
TORSDOF 13
ENDMDL
MODEL 2
REMARK VINA RESULT:    -3.592      0.999      2.153
REMARK INTER + INTRA:          -7.383
REMARK INTER:                  -6.548
REMARK INTRA:                  -0.834
REMARK UNBOUND:                -1.061
REMARK SMILES CCCCCCCCCCCCCCC(=O)[O-]
REMARK SMILES IDX 9 1 10 2 11 3 12 4 13 5 14 6 15 7 16 8 17 9 8 10 7 11 6 12
REMARK SMILES IDX 5 13 4 14 3 15 2 16 1 17
REMARK H PARENT
REMARK Flexibility Score: inf
ROOT
ATOM      1  C   UNL     1     -15.985  -2.521  -1.627  1.00  0.00     0.000 C 
ENDROOT
BRANCH   1   2
ATOM      2  C   UNL     1     -17.125  -1.603  -2.101  1.00  0.00     0.000 C 
BRANCH   2   3
ATOM      3  C   UNL     1     -16.664  -0.153  -2.328  1.00  0.00     0.000 C 
BRANCH   3   4
ATOM      4  C   UNL     1     -16.867   0.731  -1.086  1.00  0.00     0.000 C 
BRANCH   4   5
ATOM      5  C   UNL     1     -15.954   0.324   0.082  1.00  0.00     0.006 C 
BRANCH   5   6
ATOM      6  C   UNL     1     -16.737  -0.221   1.284  1.00  0.00     0.053 C 
BRANCH   6   7
ATOM      7  C   UNL     1     -15.817  -0.472   2.436  1.00  0.00     0.041 C 
ATOM      8  O   UNL     1     -14.573  -0.544   2.249  1.00  0.00    -0.550 OA
ATOM      9  O   UNL     1     -16.326  -0.571   3.724  1.00  0.00    -0.550 OA
ENDBRANCH   6   7
ENDBRANCH   5   6
ENDBRANCH   4   5
ENDBRANCH   3   4
ENDBRANCH   2   3
ENDBRANCH   1   2
BRANCH   1  10
ATOM     10  C   UNL     1     -15.701  -3.669  -2.609  1.00  0.00     0.000 C 
BRANCH  10  11
ATOM     11  C   UNL     1     -16.824  -3.848  -3.647  1.00  0.00    -0.000 C 
BRANCH  11  12
ATOM     12  C   UNL     1     -16.315  -3.742  -5.094  1.00  0.00    -0.000 C 
BRANCH  12  13
ATOM     13  C   UNL     1     -15.938  -5.108  -5.693  1.00  0.00    -0.000 C 
BRANCH  13  14
ATOM     14  C   UNL     1     -14.705  -5.029  -6.609  1.00  0.00    -0.000 C 
BRANCH  14  15
ATOM     15  C   UNL     1     -13.546  -4.240  -5.974  1.00  0.00    -0.000 C 
BRANCH  15  16
ATOM     16  C   UNL     1     -12.654  -5.122  -5.086  1.00  0.00    -0.003 C 
ATOM     17  C   UNL     1     -12.682  -4.700  -3.617  1.00  0.00     0.004 C 
ENDBRANCH  15  16
ENDBRANCH  14  15
ENDBRANCH  13  14
ENDBRANCH  12  13
ENDBRANCH  11  12
ENDBRANCH  10  11
ENDBRANCH   1  10
TORSDOF 13
ENDMDL
MODEL 3
REMARK VINA RESULT:    -2.764      1.178      2.246
REMARK INTER + INTRA:          -5.926
REMARK INTER:                  -5.552
REMARK INTRA:                  -0.374
REMARK UNBOUND:                -1.061
REMARK SMILES CCCCCCCCCCCCCCC(=O)[O-]
REMARK SMILES IDX 9 1 10 2 11 3 12 4 13 5 14 6 15 7 16 8 17 9 8 10 7 11 6 12
REMARK SMILES IDX 5 13 4 14 3 15 2 16 1 17
REMARK H PARENT
REMARK Flexibility Score: inf
ROOT
ATOM      1  C   UNL     1     -15.881  -4.702  -2.887  1.00  0.00     0.000 C 
ENDROOT
BRANCH   1   2
ATOM      2  C   UNL     1     -16.964  -3.645  -2.610  1.00  0.00     0.000 C 
BRANCH   2   3
ATOM      3  C   UNL     1     -16.394  -2.219  -2.531  1.00  0.00     0.000 C 
BRANCH   3   4
ATOM      4  C   UNL     1     -17.106  -1.357  -1.474  1.00  0.00     0.000 C 
BRANCH   4   5
ATOM      5  C   UNL     1     -16.265  -1.174  -0.200  1.00  0.00     0.006 C 
BRANCH   5   6
ATOM      6  C   UNL     1     -17.119  -0.856   1.034  1.00  0.00     0.053 C 
BRANCH   6   7
ATOM      7  C   UNL     1     -16.246  -0.510   2.197  1.00  0.00     0.041 C 
ATOM      8  O   UNL     1     -16.751  -0.329   3.337  1.00  0.00    -0.550 OA
ATOM      9  O   UNL     1     -14.868  -0.438   2.036  1.00  0.00    -0.550 OA
ENDBRANCH   6   7
ENDBRANCH   5   6
ENDBRANCH   4   5
ENDBRANCH   3   4
ENDBRANCH   2   3
ENDBRANCH   1   2
BRANCH   1  10
ATOM     10  C   UNL     1     -14.465  -4.203  -2.553  1.00  0.00     0.000 C 
BRANCH  10  11
ATOM     11  C   UNL     1     -13.842  -3.387  -3.702  1.00  0.00    -0.000 C 
BRANCH  11  12
ATOM     12  C   UNL     1     -12.912  -4.230  -4.589  1.00  0.00    -0.000 C 
BRANCH  12  13
ATOM     13  C   UNL     1     -13.681  -5.117  -5.583  1.00  0.00    -0.000 C 
BRANCH  13  14
ATOM     14  C   UNL     1     -13.480  -4.677  -7.042  1.00  0.00    -0.000 C 
BRANCH  14  15
ATOM     15  C   UNL     1     -14.704  -4.977  -7.924  1.00  0.00    -0.000 C 
BRANCH  15  16
ATOM     16  C   UNL     1     -16.028  -4.610  -7.235  1.00  0.00    -0.003 C 
ATOM     17  C   UNL     1     -17.111  -4.186  -8.227  1.00  0.00     0.004 C 
ENDBRANCH  15  16
ENDBRANCH  14  15
ENDBRANCH  13  14
ENDBRANCH  12  13
ENDBRANCH  11  12
ENDBRANCH  10  11
ENDBRANCH   1  10
TORSDOF 13
ENDMDL
MODEL 4
REMARK VINA RESULT:    -2.571      1.336      2.860
REMARK INTER + INTRA:          -5.586
REMARK INTER:                  -4.923
REMARK INTRA:                  -0.664
REMARK UNBOUND:                -1.061
REMARK SMILES CCCCCCCCCCCCCCC(=O)[O-]
REMARK SMILES IDX 9 1 10 2 11 3 12 4 13 5 14 6 15 7 16 8 17 9 8 10 7 11 6 12
REMARK SMILES IDX 5 13 4 14 3 15 2 16 1 17
REMARK H PARENT
REMARK Flexibility Score: inf
ROOT
ATOM      1  C   UNL     1     -17.124  -0.369  -2.672  1.00  0.00     0.000 C 
ENDROOT
BRANCH   1   2
ATOM      2  C   UNL     1     -17.068  -0.034  -1.171  1.00  0.00     0.000 C 
BRANCH   2   3
ATOM      3  C   UNL     1     -16.620   1.411  -0.901  1.00  0.00     0.000 C 
BRANCH   3   4
ATOM      4  C   UNL     1     -15.730   1.530   0.348  1.00  0.00     0.000 C 
BRANCH   4   5
ATOM      5  C   UNL     1     -15.785   0.273   1.232  1.00  0.00     0.006 C 
BRANCH   5   6
ATOM      6  C   UNL     1     -17.032   0.231   2.125  1.00  0.00     0.053 C 
BRANCH   6   7
ATOM      7  C   UNL     1     -16.718  -0.439   3.425  1.00  0.00     0.041 C 
ATOM      8  O   UNL     1     -16.045  -1.503   3.443  1.00  0.00    -0.550 OA
ATOM      9  O   UNL     1     -17.124   0.138   4.621  1.00  0.00    -0.550 OA
ENDBRANCH   6   7
ENDBRANCH   5   6
ENDBRANCH   4   5
ENDBRANCH   3   4
ENDBRANCH   2   3
ENDBRANCH   1   2
BRANCH   1  10
ATOM     10  C   UNL     1     -16.589  -1.776  -2.986  1.00  0.00     0.000 C 
BRANCH  10  11
ATOM     11  C   UNL     1     -16.871  -2.203  -4.438  1.00  0.00    -0.000 C 
BRANCH  11  12
ATOM     12  C   UNL     1     -16.326  -3.604  -4.759  1.00  0.00    -0.000 C 
BRANCH  12  13
ATOM     13  C   UNL     1     -14.882  -3.573  -5.290  1.00  0.00    -0.000 C 
BRANCH  13  14
ATOM     14  C   UNL     1     -13.866  -4.095  -4.262  1.00  0.00    -0.000 C 
BRANCH  14  15
ATOM     15  C   UNL     1     -14.511  -5.008  -3.204  1.00  0.00    -0.000 C 
BRANCH  15  16
ATOM     16  C   UNL     1     -14.417  -4.420  -1.787  1.00  0.00    -0.003 C 
ATOM     17  C   UNL     1     -13.117  -4.798  -1.076  1.00  0.00     0.004 C 
ENDBRANCH  15  16
ENDBRANCH  14  15
ENDBRANCH  13  14
ENDBRANCH  12  13
ENDBRANCH  11  12
ENDBRANCH  10  11
ENDBRANCH   1  10
TORSDOF 13
ENDMDL
MODEL 5
REMARK VINA RESULT:    -1.993      4.285      8.378
REMARK INTER + INTRA:          -4.568
REMARK INTER:                  -4.041
REMARK INTRA:                  -0.527
REMARK UNBOUND:                -1.061
REMARK SMILES CCCCCCCCCCCCCCC(=O)[O-]
REMARK SMILES IDX 9 1 10 2 11 3 12 4 13 5 14 6 15 7 16 8 17 9 8 10 7 11 6 12
REMARK SMILES IDX 5 13 4 14 3 15 2 16 1 17
REMARK H PARENT
REMARK Flexibility Score: inf
ROOT
ATOM      1  C   UNL     1     -15.794  -1.940  -3.594  1.00  0.00     0.000 C 
ENDROOT
BRANCH   1   2
ATOM      2  C   UNL     1     -16.387  -3.223  -4.204  1.00  0.00     0.000 C 
BRANCH   2   3
ATOM      3  C   UNL     1     -15.478  -4.447  -4.009  1.00  0.00     0.000 C 
BRANCH   3   4
ATOM      4  C   UNL     1     -14.030  -4.184  -4.459  1.00  0.00     0.000 C 
BRANCH   4   5
ATOM      5  C   UNL     1     -13.626  -5.038  -5.672  1.00  0.00     0.006 C 
BRANCH   5   6
ATOM      6  C   UNL     1     -14.731  -5.119  -6.733  1.00  0.00     0.053 C 
BRANCH   6   7
ATOM      7  C   UNL     1     -14.153  -4.946  -8.102  1.00  0.00     0.041 C 
ATOM      8  O   UNL     1     -14.911  -4.879  -9.105  1.00  0.00    -0.550 OA
ATOM      9  O   UNL     1     -12.781  -4.804  -8.264  1.00  0.00    -0.550 OA
ENDBRANCH   6   7
ENDBRANCH   5   6
ENDBRANCH   4   5
ENDBRANCH   3   4
ENDBRANCH   2   3
ENDBRANCH   1   2
BRANCH   1  10
ATOM     10  C   UNL     1     -16.796  -1.192  -2.698  1.00  0.00     0.000 C 
BRANCH  10  11
ATOM     11  C   UNL     1     -16.153   0.000  -1.965  1.00  0.00    -0.000 C 
BRANCH  11  12
ATOM     12  C   UNL     1     -17.017   0.514  -0.802  1.00  0.00    -0.000 C 
BRANCH  12  13
ATOM     13  C   UNL     1     -16.944  -0.393   0.439  1.00  0.00    -0.000 C 
BRANCH  13  14
ATOM     14  C   UNL     1     -16.067   0.203   1.552  1.00  0.00    -0.000 C 
BRANCH  14  15
ATOM     15  C   UNL     1     -15.995  -0.701   2.795  1.00  0.00    -0.000 C 
BRANCH  15  16
ATOM     16  C   UNL     1     -17.065  -0.349   3.840  1.00  0.00    -0.003 C 
ATOM     17  C   UNL     1     -17.125   1.148   4.142  1.00  0.00     0.004 C 
ENDBRANCH  15  16
ENDBRANCH  14  15
ENDBRANCH  13  14
ENDBRANCH  12  13
ENDBRANCH  11  12
ENDBRANCH  10  11
ENDBRANCH   1  10
TORSDOF 13
ENDMDL
MODEL 6
REMARK VINA RESULT:    -1.671      3.029      7.481
REMARK INTER + INTRA:          -4.002
REMARK INTER:                  -4.490
REMARK INTRA:                   0.488
REMARK UNBOUND:                -1.061
REMARK SMILES CCCCCCCCCCCCCCC(=O)[O-]
REMARK SMILES IDX 9 1 10 2 11 3 12 4 13 5 14 6 15 7 16 8 17 9 8 10 7 11 6 12
REMARK SMILES IDX 5 13 4 14 3 15 2 16 1 17
REMARK H PARENT
REMARK Flexibility Score: inf
ROOT
ATOM      1  C   UNL     1     -16.653  -0.396  -2.316  1.00  0.00     0.000 C 
ENDROOT
BRANCH   1   2
ATOM      2  C   UNL     1     -17.000  -1.861  -2.634  1.00  0.00     0.000 C 
BRANCH   2   3
ATOM      3  C   UNL     1     -16.896  -2.183  -4.134  1.00  0.00     0.000 C 
BRANCH   3   4
ATOM      4  C   UNL     1     -16.500  -3.646  -4.397  1.00  0.00     0.000 C 
BRANCH   4   5
ATOM      5  C   UNL     1     -15.431  -3.778  -5.494  1.00  0.00     0.006 C 
BRANCH   5   6
ATOM      6  C   UNL     1     -14.563  -5.033  -5.328  1.00  0.00     0.053 C 
BRANCH   6   7
ATOM      7  C   UNL     1     -13.301  -4.701  -4.596  1.00  0.00     0.041 C 
ATOM      8  O   UNL     1     -12.247  -4.446  -5.236  1.00  0.00    -0.550 OA
ATOM      9  O   UNL     1     -13.302  -4.619  -3.210  1.00  0.00    -0.550 OA
ENDBRANCH   6   7
ENDBRANCH   5   6
ENDBRANCH   4   5
ENDBRANCH   3   4
ENDBRANCH   2   3
ENDBRANCH   1   2
BRANCH   1  10
ATOM     10  C   UNL     1     -17.102   0.027  -0.907  1.00  0.00     0.000 C 
BRANCH  10  11
ATOM     11  C   UNL     1     -16.428   1.331  -0.441  1.00  0.00    -0.000 C 
BRANCH  11  12
ATOM     12  C   UNL     1     -15.226   1.079   0.484  1.00  0.00    -0.000 C 
BRANCH  12  13
ATOM     13  C   UNL     1     -15.291  -0.292   1.180  1.00  0.00    -0.000 C 
BRANCH  13  14
ATOM     14  C   UNL     1     -16.734  -0.742   1.461  1.00  0.00    -0.000 C 
BRANCH  14  15
ATOM     15  C   UNL     1     -17.096  -0.669   2.955  1.00  0.00    -0.000 C 
BRANCH  15  16
ATOM     16  C   UNL     1     -17.110   0.774   3.485  1.00  0.00    -0.003 C 
ATOM     17  C   UNL     1     -16.780   0.857   4.975  1.00  0.00     0.004 C 
ENDBRANCH  15  16
ENDBRANCH  14  15
ENDBRANCH  13  14
ENDBRANCH  12  13
ENDBRANCH  11  12
ENDBRANCH  10  11
ENDBRANCH   1  10
TORSDOF 13
ENDMDL
MODEL 7
REMARK VINA RESULT:    -1.545      3.725      7.795
REMARK INTER + INTRA:          -3.780
REMARK INTER:                  -3.692
REMARK INTRA:                  -0.088
REMARK UNBOUND:                -1.061
REMARK SMILES CCCCCCCCCCCCCCC(=O)[O-]
REMARK SMILES IDX 9 1 10 2 11 3 12 4 13 5 14 6 15 7 16 8 17 9 8 10 7 11 6 12
REMARK SMILES IDX 5 13 4 14 3 15 2 16 1 17
REMARK H PARENT
REMARK Flexibility Score: inf
ROOT
ATOM      1  C   UNL     1     -16.081  -2.784  -3.379  1.00  0.00     0.000 C 
ENDROOT
BRANCH   1   2
ATOM      2  C   UNL     1     -16.905  -3.642  -4.356  1.00  0.00     0.000 C 
BRANCH   2   3
ATOM      3  C   UNL     1     -16.432  -3.504  -5.812  1.00  0.00     0.000 C 
BRANCH   3   4
ATOM      4  C   UNL     1     -16.214  -4.867  -6.492  1.00  0.00     0.000 C 
BRANCH   4   5
ATOM      5  C   UNL     1     -14.762  -5.067  -6.957  1.00  0.00     0.006 C 
BRANCH   5   6
ATOM      6  C   UNL     1     -13.756  -5.008  -5.801  1.00  0.00     0.053 C 
BRANCH   6   7
ATOM      7  C   UNL     1     -12.356  -4.996  -6.328  1.00  0.00     0.041 C 
ATOM      8  O   UNL     1     -11.381  -5.093  -5.538  1.00  0.00    -0.550 OA
ATOM      9  O   UNL     1     -12.129  -4.931  -7.697  1.00  0.00    -0.550 OA
ENDBRANCH   6   7
ENDBRANCH   5   6
ENDBRANCH   4   5
ENDBRANCH   3   4
ENDBRANCH   2   3
ENDBRANCH   1   2
BRANCH   1  10
ATOM     10  C   UNL     1     -16.508  -2.976  -1.915  1.00  0.00     0.000 C 
BRANCH  10  11
ATOM     11  C   UNL     1     -17.111  -1.698  -1.303  1.00  0.00    -0.000 C 
BRANCH  11  12
ATOM     12  C   UNL     1     -16.426  -0.419  -1.814  1.00  0.00    -0.000 C 
BRANCH  12  13
ATOM     13  C   UNL     1     -16.754   0.814  -0.954  1.00  0.00    -0.000 C 
BRANCH  13  14
ATOM     14  C   UNL     1     -16.117   0.741   0.444  1.00  0.00    -0.000 C 
BRANCH  14  15
ATOM     15  C   UNL     1     -16.674  -0.418   1.288  1.00  0.00    -0.000 C 
BRANCH  15  16
ATOM     16  C   UNL     1     -17.110   0.034   2.691  1.00  0.00    -0.003 C 
ATOM     17  C   UNL     1     -17.091  -1.106   3.710  1.00  0.00     0.004 C 
ENDBRANCH  15  16
ENDBRANCH  14  15
ENDBRANCH  13  14
ENDBRANCH  12  13
ENDBRANCH  11  12
ENDBRANCH  10  11
ENDBRANCH   1  10
TORSDOF 13
ENDMDL
