MODEL 1
REMARK VINA RESULT:    -3.585      0.000      0.000
REMARK INTER + INTRA:          -7.043
REMARK INTER:                  -5.785
REMARK INTRA:                  -1.258
REMARK UNBOUND:                -1.258
REMARK SMILES CCCCCCCCCCCCO
REMARK SMILES IDX 7 1 6 2 5 3 4 4 3 5 2 6 1 7 8 8 9 9 10 10 11 11 12 12 13 13
REMARK H PARENT 13 14
REMARK Flexibility Score: inf
ROOT
ATOM      1  C   UNL     1     161.172 178.036 185.726  1.00  0.00     0.000 C 
ENDROOT
BRANCH   1   2
ATOM      2  C   UNL     1     160.503 178.256 187.093  1.00  0.00    -0.000 C 
BRANCH   2   3
ATOM      3  C   UNL     1     161.142 177.415 188.208  1.00  0.00    -0.000 C 
BRANCH   3   4
ATOM      4  C   UNL     1     161.518 176.018 187.693  1.00  0.00    -0.000 C 
BRANCH   4   5
ATOM      5  C   UNL     1     160.297 175.098 187.527  1.00  0.00    -0.000 C 
BRANCH   5   6
ATOM      6  C   UNL     1     160.374 174.235 186.259  1.00  0.00    -0.003 C 
ATOM      7  C   UNL     1     161.783 174.245 185.672  1.00  0.00     0.004 C 
ENDBRANCH   5   6
ENDBRANCH   4   5
ENDBRANCH   3   4
ENDBRANCH   2   3
ENDBRANCH   1   2
BRANCH   1   8
ATOM      8  C   UNL     1     160.158 177.722 184.615  1.00  0.00     0.000 C 
BRANCH   8   9
ATOM      9  C   UNL     1     160.846 177.058 183.416  1.00  0.00     0.000 C 
BRANCH   9  10
ATOM     10  C   UNL     1     162.362 177.283 183.457  1.00  0.00     0.002 C 
BRANCH  10  11
ATOM     11  C   UNL     1     162.840 178.038 182.209  1.00  0.00     0.028 C 
BRANCH  11  12
ATOM     12  C   UNL     1     161.702 178.258 181.208  1.00  0.00     0.156 C 
BRANCH  12  13
ATOM     13  O   UNL     1     161.445 179.625 181.032  1.00  0.00    -0.396 OA
ATOM     14  H   UNL     1     162.300 180.040 180.743  1.00  0.00     0.210 HD
ENDBRANCH  12  13
ENDBRANCH  11  12
ENDBRANCH  10  11
ENDBRANCH   9  10
ENDBRANCH   8   9
ENDBRANCH   1   8
TORSDOF 11
ENDMDL
MODEL 2
REMARK VINA RESULT:    -3.550      2.501      3.949
REMARK INTER + INTRA:          -6.987
REMARK INTER:                  -5.536
REMARK INTRA:                  -1.451
REMARK UNBOUND:                -1.258
REMARK SMILES CCCCCCCCCCCCO
REMARK SMILES IDX 7 1 6 2 5 3 4 4 3 5 2 6 1 7 8 8 9 9 10 10 11 11 12 12 13 13
REMARK H PARENT 13 14
REMARK Flexibility Score: inf
ROOT
ATOM      1  C   UNL     1     160.781 178.465 186.417  1.00  0.00     0.000 C 
ENDROOT
BRANCH   1   2
ATOM      2  C   UNL     1     160.223 177.806 185.145  1.00  0.00    -0.000 C 
BRANCH   2   3
ATOM      3  C   UNL     1     161.320 177.178 184.271  1.00  0.00    -0.000 C 
BRANCH   3   4
ATOM      4  C   UNL     1     161.064 175.678 184.064  1.00  0.00    -0.000 C 
BRANCH   4   5
ATOM      5  C   UNL     1     161.650 174.815 185.193  1.00  0.00    -0.000 C 
BRANCH   5   6
ATOM      6  C   UNL     1     160.567 174.198 186.090  1.00  0.00    -0.003 C 
ATOM      7  C   UNL     1     161.157 173.723 187.415  1.00  0.00     0.004 C 
ENDBRANCH   5   6
ENDBRANCH   4   5
ENDBRANCH   3   4
ENDBRANCH   2   3
ENDBRANCH   1   2
BRANCH   1   8
ATOM      8  C   UNL     1     160.732 177.532 187.637  1.00  0.00     0.000 C 
BRANCH   8   9
ATOM      9  C   UNL     1     162.139 177.283 188.194  1.00  0.00     0.000 C 
BRANCH   9  10
ATOM     10  C   UNL     1     163.188 178.090 187.421  1.00  0.00     0.002 C 
BRANCH  10  11
ATOM     11  C   UNL     1     164.277 177.172 186.849  1.00  0.00     0.028 C 
BRANCH  11  12
ATOM     12  C   UNL     1     165.597 177.920 186.637  1.00  0.00     0.156 C 
BRANCH  12  13
ATOM     13  O   UNL     1     165.559 178.682 185.460  1.00  0.00    -0.396 OA
ATOM     14  H   UNL     1     165.239 178.078 184.741  1.00  0.00     0.210 HD
ENDBRANCH  12  13
ENDBRANCH  11  12
ENDBRANCH  10  11
ENDBRANCH   9  10
ENDBRANCH   8   9
ENDBRANCH   1   8
TORSDOF 11
ENDMDL
MODEL 3
REMARK VINA RESULT:    -3.525      1.726      2.562
REMARK INTER + INTRA:          -6.947
REMARK INTER:                  -5.774
REMARK INTRA:                  -1.173
REMARK UNBOUND:                -1.258
REMARK SMILES CCCCCCCCCCCCO
REMARK SMILES IDX 7 1 6 2 5 3 4 4 3 5 2 6 1 7 8 8 9 9 10 10 11 11 12 12 13 13
REMARK H PARENT 13 14
REMARK Flexibility Score: inf
ROOT
ATOM      1  C   UNL     1     160.311 177.914 185.131  1.00  0.00     0.000 C 
ENDROOT
BRANCH   1   2
ATOM      2  C   UNL     1     160.489 178.310 186.606  1.00  0.00    -0.000 C 
BRANCH   2   3
ATOM      3  C   UNL     1     160.979 177.145 187.478  1.00  0.00    -0.000 C 
BRANCH   3   4
ATOM      4  C   UNL     1     162.264 177.525 188.228  1.00  0.00    -0.000 C 
BRANCH   4   5
ATOM      5  C   UNL     1     163.535 177.229 187.415  1.00  0.00    -0.000 C 
BRANCH   5   6
ATOM      6  C   UNL     1     164.181 178.499 186.843  1.00  0.00    -0.003 C 
ATOM      7  C   UNL     1     165.418 178.161 186.016  1.00  0.00     0.004 C 
ENDBRANCH   5   6
ENDBRANCH   4   5
ENDBRANCH   3   4
ENDBRANCH   2   3
ENDBRANCH   1   2
BRANCH   1   8
ATOM      8  C   UNL     1     160.889 176.526 184.817  1.00  0.00     0.000 C 
BRANCH   8   9
ATOM      9  C   UNL     1     161.615 176.527 183.466  1.00  0.00     0.000 C 
BRANCH   9  10
ATOM     10  C   UNL     1     162.928 177.314 183.547  1.00  0.00     0.002 C 
BRANCH  10  11
ATOM     11  C   UNL     1     163.203 178.060 182.234  1.00  0.00     0.028 C 
BRANCH  11  12
ATOM     12  C   UNL     1     161.946 178.161 181.365  1.00  0.00     0.156 C 
BRANCH  12  13
ATOM     13  O   UNL     1     161.628 179.500 181.095  1.00  0.00    -0.396 OA
ATOM     14  H   UNL     1     162.167 180.051 181.720  1.00  0.00     0.210 HD
ENDBRANCH  12  13
ENDBRANCH  11  12
ENDBRANCH  10  11
ENDBRANCH   9  10
ENDBRANCH   8   9
ENDBRANCH   1   8
TORSDOF 11
ENDMDL
MODEL 4
REMARK VINA RESULT:    -3.521      2.913      4.086
REMARK INTER + INTRA:          -6.940
REMARK INTER:                  -6.142
REMARK INTRA:                  -0.798
REMARK UNBOUND:                -1.258
REMARK SMILES CCCCCCCCCCCCO
REMARK SMILES IDX 7 1 6 2 5 3 4 4 3 5 2 6 1 7 8 8 9 9 10 10 11 11 12 12 13 13
REMARK H PARENT 13 14
REMARK Flexibility Score: inf
ROOT
ATOM      1  C   UNL     1     160.615 176.391 186.597  1.00  0.00     0.000 C 
ENDROOT
BRANCH   1   2
ATOM      2  C   UNL     1     160.267 175.222 187.534  1.00  0.00    -0.000 C 
BRANCH   2   3
ATOM      3  C   UNL     1     160.060 173.899 186.781  1.00  0.00    -0.000 C 
BRANCH   3   4
ATOM      4  C   UNL     1     161.385 173.134 186.645  1.00  0.00    -0.000 C 
BRANCH   4   5
ATOM      5  C   UNL     1     162.356 173.418 187.803  1.00  0.00    -0.000 C 
BRANCH   5   6
ATOM      6  C   UNL     1     162.945 172.136 188.408  1.00  0.00    -0.003 C 
ATOM      7  C   UNL     1     161.844 171.149 188.784  1.00  0.00     0.004 C 
ENDBRANCH   5   6
ENDBRANCH   4   5
ENDBRANCH   3   4
ENDBRANCH   2   3
ENDBRANCH   1   2
BRANCH   1   8
ATOM      8  C   UNL     1     160.872 177.702 187.356  1.00  0.00     0.000 C 
BRANCH   8   9
ATOM      9  C   UNL     1     162.053 177.552 188.323  1.00  0.00     0.000 C 
BRANCH   9  10
ATOM     10  C   UNL     1     163.362 177.312 187.562  1.00  0.00     0.002 C 
BRANCH  10  11
ATOM     11  C   UNL     1     163.785 178.567 186.786  1.00  0.00     0.028 C 
BRANCH  11  12
ATOM     12  C   UNL     1     164.384 178.215 185.421  1.00  0.00     0.156 C 
BRANCH  12  13
ATOM     13  O   UNL     1     165.730 178.602 185.348  1.00  0.00    -0.396 OA
ATOM     14  H   UNL     1     165.737 179.590 185.257  1.00  0.00     0.210 HD
ENDBRANCH  12  13
ENDBRANCH  11  12
ENDBRANCH  10  11
ENDBRANCH   9  10
ENDBRANCH   8   9
ENDBRANCH   1   8
TORSDOF 11
ENDMDL
MODEL 5
REMARK VINA RESULT:    -3.517     11.605     12.415
REMARK INTER + INTRA:          -6.933
REMARK INTER:                  -6.224
REMARK INTRA:                  -0.710
REMARK UNBOUND:                -1.258
REMARK SMILES CCCCCCCCCCCCO
REMARK SMILES IDX 7 1 6 2 5 3 4 4 3 5 2 6 1 7 8 8 9 9 10 10 11 11 12 12 13 13
REMARK H PARENT 13 14
REMARK Flexibility Score: inf
ROOT
ATOM      1  C   UNL     1     172.382 178.306 187.132  1.00  0.00     0.000 C 
ENDROOT
BRANCH   1   2
ATOM      2  C   UNL     1     171.937 179.711 187.569  1.00  0.00    -0.000 C 
BRANCH   2   3
ATOM      3  C   UNL     1     170.411 179.887 187.538  1.00  0.00    -0.000 C 
BRANCH   3   4
ATOM      4  C   UNL     1     169.787 179.054 186.409  1.00  0.00    -0.000 C 
BRANCH   4   5
ATOM      5  C   UNL     1     168.636 178.160 186.899  1.00  0.00    -0.000 C 
BRANCH   5   6
ATOM      6  C   UNL     1     168.501 178.155 188.429  1.00  0.00    -0.003 C 
ATOM      7  C   UNL     1     168.814 176.776 189.003  1.00  0.00     0.004 C 
ENDBRANCH   5   6
ENDBRANCH   4   5
ENDBRANCH   3   4
ENDBRANCH   2   3
ENDBRANCH   1   2
BRANCH   1   8
ATOM      8  C   UNL     1     173.692 177.864 187.802  1.00  0.00     0.000 C 
BRANCH   8   9
ATOM      9  C   UNL     1     174.490 179.076 188.297  1.00  0.00     0.000 C 
BRANCH   9  10
ATOM     10  C   UNL     1     175.645 179.402 187.342  1.00  0.00     0.002 C 
BRANCH  10  11
ATOM     11  C   UNL     1     175.845 178.277 186.317  1.00  0.00     0.028 C 
BRANCH  11  12
ATOM     12  C   UNL     1     177.077 177.427 186.640  1.00  0.00     0.156 C 
BRANCH  12  13
ATOM     13  O   UNL     1     177.310 176.477 185.635  1.00  0.00    -0.396 OA
ATOM     14  H   UNL     1     178.253 176.184 185.734  1.00  0.00     0.210 HD
ENDBRANCH  12  13
ENDBRANCH  11  12
ENDBRANCH  10  11
ENDBRANCH   9  10
ENDBRANCH   8   9
ENDBRANCH   1   8
TORSDOF 11
ENDMDL
MODEL 6
REMARK VINA RESULT:    -3.512      1.929      2.595
REMARK INTER + INTRA:          -6.926
REMARK INTER:                  -5.799
REMARK INTRA:                  -1.127
REMARK UNBOUND:                -1.258
REMARK SMILES CCCCCCCCCCCCO
REMARK SMILES IDX 7 1 6 2 5 3 4 4 3 5 2 6 1 7 8 8 9 9 10 10 11 11 12 12 13 13
REMARK H PARENT 13 14
REMARK Flexibility Score: inf
ROOT
ATOM      1  C   UNL     1     162.676 177.626 188.264  1.00  0.00     0.000 C 
ENDROOT
BRANCH   1   2
ATOM      2  C   UNL     1     161.150 177.701 188.090  1.00  0.00    -0.000 C 
BRANCH   2   3
ATOM      3  C   UNL     1     160.712 177.556 186.625  1.00  0.00    -0.000 C 
BRANCH   3   4
ATOM      4  C   UNL     1     160.682 176.078 186.207  1.00  0.00    -0.000 C 
BRANCH   4   5
ATOM      5  C   UNL     1     160.290 175.143 187.362  1.00  0.00    -0.000 C 
BRANCH   5   6
ATOM      6  C   UNL     1     161.070 173.820 187.344  1.00  0.00    -0.003 C 
ATOM      7  C   UNL     1     162.548 174.050 187.647  1.00  0.00     0.004 C 
ENDBRANCH   5   6
ENDBRANCH   4   5
ENDBRANCH   3   4
ENDBRANCH   2   3
ENDBRANCH   1   2
BRANCH   1   8
ATOM      8  C   UNL     1     163.437 178.322 187.125  1.00  0.00     0.000 C 
BRANCH   8   9
ATOM      9  C   UNL     1     164.433 177.362 186.464  1.00  0.00     0.000 C 
BRANCH   9  10
ATOM     10  C   UNL     1     164.667 177.736 184.995  1.00  0.00     0.002 C 
BRANCH  10  11
ATOM     11  C   UNL     1     163.475 177.315 184.124  1.00  0.00     0.028 C 
BRANCH  11  12
ATOM     12  C   UNL     1     163.697 177.670 182.651  1.00  0.00     0.156 C 
BRANCH  12  13
ATOM     13  O   UNL     1     163.482 179.037 182.425  1.00  0.00    -0.396 OA
ATOM     14  H   UNL     1     162.498 179.168 182.387  1.00  0.00     0.210 HD
ENDBRANCH  12  13
ENDBRANCH  11  12
ENDBRANCH  10  11
ENDBRANCH   9  10
ENDBRANCH   8   9
ENDBRANCH   1   8
TORSDOF 11
ENDMDL
MODEL 7
REMARK VINA RESULT:    -3.484      2.687      4.134
REMARK INTER + INTRA:          -6.880
REMARK INTER:                  -5.329
REMARK INTRA:                  -1.551
REMARK UNBOUND:                -1.258
REMARK SMILES CCCCCCCCCCCCO
REMARK SMILES IDX 7 1 6 2 5 3 4 4 3 5 2 6 1 7 8 8 9 9 10 10 11 11 12 12 13 13
REMARK H PARENT 13 14
REMARK Flexibility Score: inf
ROOT
ATOM      1  C   UNL     1     160.967 176.966 187.962  1.00  0.00     0.000 C 
ENDROOT
BRANCH   1   2
ATOM      2  C   UNL     1     160.494 175.562 187.551  1.00  0.00    -0.000 C 
BRANCH   2   3
ATOM      3  C   UNL     1     161.524 174.819 186.686  1.00  0.00    -0.000 C 
BRANCH   3   4
ATOM      4  C   UNL     1     161.022 174.672 185.242  1.00  0.00    -0.000 C 
BRANCH   4   5
ATOM      5  C   UNL     1     161.559 175.772 184.313  1.00  0.00    -0.000 C 
BRANCH   5   6
ATOM      6  C   UNL     1     160.440 176.612 183.680  1.00  0.00    -0.003 C 
ATOM      7  C   UNL     1     160.156 177.862 184.509  1.00  0.00     0.004 C 
ENDBRANCH   5   6
ENDBRANCH   4   5
ENDBRANCH   3   4
ENDBRANCH   2   3
ENDBRANCH   1   2
BRANCH   1   8
ATOM      8  C   UNL     1     162.495 177.115 187.907  1.00  0.00     0.000 C 
BRANCH   8   9
ATOM      9  C   UNL     1     162.893 178.440 187.245  1.00  0.00     0.000 C 
BRANCH   9  10
ATOM     10  C   UNL     1     163.707 178.195 185.968  1.00  0.00     0.002 C 
BRANCH  10  11
ATOM     11  C   UNL     1     164.657 177.002 186.142  1.00  0.00     0.028 C 
BRANCH  11  12
ATOM     12  C   UNL     1     166.107 177.381 185.826  1.00  0.00     0.156 C 
BRANCH  12  13
ATOM     13  O   UNL     1     166.186 178.688 185.322  1.00  0.00    -0.396 OA
ATOM     14  H   UNL     1     165.920 178.641 184.367  1.00  0.00     0.210 HD
ENDBRANCH  12  13
ENDBRANCH  11  12
ENDBRANCH  10  11
ENDBRANCH   9  10
ENDBRANCH   8   9
ENDBRANCH   1   8
TORSDOF 11
ENDMDL
MODEL 8
REMARK VINA RESULT:    -3.430      3.628      4.905
REMARK INTER + INTRA:          -6.793
REMARK INTER:                  -5.561
REMARK INTRA:                  -1.232
REMARK UNBOUND:                -1.258
REMARK SMILES CCCCCCCCCCCCO
REMARK SMILES IDX 7 1 6 2 5 3 4 4 3 5 2 6 1 7 8 8 9 9 10 10 11 11 12 12 13 13
REMARK H PARENT 13 14
REMARK Flexibility Score: inf
ROOT
ATOM      1  C   UNL     1     160.873 177.326 186.319  1.00  0.00     0.000 C 
ENDROOT
BRANCH   1   2
ATOM      2  C   UNL     1     161.045 177.738 187.791  1.00  0.00    -0.000 C 
BRANCH   2   3
ATOM      3  C   UNL     1     162.495 177.598 188.280  1.00  0.00    -0.000 C 
BRANCH   3   4
ATOM      4  C   UNL     1     163.486 177.842 187.132  1.00  0.00    -0.000 C 
BRANCH   4   5
ATOM      5  C   UNL     1     164.442 176.658 186.913  1.00  0.00    -0.000 C 
BRANCH   5   6
ATOM      6  C   UNL     1     163.886 175.338 187.466  1.00  0.00    -0.003 C 
ATOM      7  C   UNL     1     163.947 174.233 186.415  1.00  0.00     0.004 C 
ENDBRANCH   5   6
ENDBRANCH   4   5
ENDBRANCH   3   4
ENDBRANCH   2   3
ENDBRANCH   1   2
BRANCH   1   8
ATOM      8  C   UNL     1     160.561 175.831 186.156  1.00  0.00     0.000 C 
BRANCH   8   9
ATOM      9  C   UNL     1     160.131 175.211 187.491  1.00  0.00     0.000 C 
BRANCH   9  10
ATOM     10  C   UNL     1     160.214 173.681 187.440  1.00  0.00     0.002 C 
BRANCH  10  11
ATOM     11  C   UNL     1     160.285 173.182 185.990  1.00  0.00     0.028 C 
BRANCH  11  12
ATOM     12  C   UNL     1     160.607 171.686 185.920  1.00  0.00     0.156 C 
BRANCH  12  13
ATOM     13  O   UNL     1     159.927 171.075 184.857  1.00  0.00    -0.396 OA
ATOM     14  H   UNL     1     159.230 170.495 185.262  1.00  0.00     0.210 HD
ENDBRANCH  12  13
ENDBRANCH  11  12
ENDBRANCH  10  11
ENDBRANCH   9  10
ENDBRANCH   8   9
ENDBRANCH   1   8
TORSDOF 11
ENDMDL
MODEL 9
REMARK VINA RESULT:    -3.414      1.951      3.383
REMARK INTER + INTRA:          -6.767
REMARK INTER:                  -5.453
REMARK INTRA:                  -1.314
REMARK UNBOUND:                -1.258
REMARK SMILES CCCCCCCCCCCCO
REMARK SMILES IDX 7 1 6 2 5 3 4 4 3 5 2 6 1 7 8 8 9 9 10 10 11 11 12 12 13 13
REMARK H PARENT 13 14
REMARK Flexibility Score: inf
ROOT
ATOM      1  C   UNL     1     162.348 176.619 187.855  1.00  0.00     0.000 C 
ENDROOT
BRANCH   1   2
ATOM      2  C   UNL     1     160.963 176.647 187.188  1.00  0.00    -0.000 C 
BRANCH   2   3
ATOM      3  C   UNL     1     160.569 178.048 186.697  1.00  0.00    -0.000 C 
BRANCH   3   4
ATOM      4  C   UNL     1     160.305 178.044 185.184  1.00  0.00    -0.000 C 
BRANCH   4   5
ATOM      5  C   UNL     1     160.622 176.688 184.531  1.00  0.00    -0.000 C 
BRANCH   5   6
ATOM      6  C   UNL     1     160.606 176.752 182.997  1.00  0.00    -0.003 C 
ATOM      7  C   UNL     1     160.677 175.355 182.388  1.00  0.00     0.004 C 
ENDBRANCH   5   6
ENDBRANCH   4   5
ENDBRANCH   3   4
ENDBRANCH   2   3
ENDBRANCH   1   2
BRANCH   1   8
ATOM      8  C   UNL     1     163.045 177.988 187.830  1.00  0.00     0.000 C 
BRANCH   8   9
ATOM      9  C   UNL     1     164.324 177.938 186.987  1.00  0.00     0.000 C 
BRANCH   9  10
ATOM     10  C   UNL     1     164.034 178.290 185.523  1.00  0.00     0.002 C 
BRANCH  10  11
ATOM     11  C   UNL     1     164.287 177.084 184.607  1.00  0.00     0.028 C 
BRANCH  11  12
ATOM     12  C   UNL     1     164.267 177.482 183.128  1.00  0.00     0.156 C 
BRANCH  12  13
ATOM     13  O   UNL     1     163.616 178.711 182.947  1.00  0.00    -0.396 OA
ATOM     14  H   UNL     1     163.543 178.851 181.967  1.00  0.00     0.210 HD
ENDBRANCH  12  13
ENDBRANCH  11  12
ENDBRANCH  10  11
ENDBRANCH   9  10
ENDBRANCH   8   9
ENDBRANCH   1   8
TORSDOF 11
ENDMDL
