MODEL 1
REMARK VINA RESULT:    -7.361      0.000      0.000
REMARK INTER + INTRA:         -14.229
REMARK INTER:                 -11.019
REMARK INTRA:                  -3.210
REMARK UNBOUND:                -3.210
REMARK SMILES C[C@H]1O[C@H](OC[C@@H]2O[C@H](Oc3c(-c4ccc(O)c(O)c4)oc4cc(O)cc(O)c4c3=O)[C@H](O)[C@@H](O)[C@H]2O)[C@@H](O)[C@@H](O)[C@@H]1O
REMARK SMILES IDX 7 1 36 2 34 3 32 4 9 5 8 6 6 7 5 8 4 9 1 10 2 11 42 12 3 13
REMARK SMILES IDX 40 14 38 15 43 16 41 18 39 20 37 22 35 24 10 26 11 27 12 28
REMARK SMILES IDX 30 29 21 30 29 31 31 32 22 33 27 34 23 35 26 36 24 37 13 38
REMARK SMILES IDX 20 39 14 40 18 41 15 42 16 43 19 44 17 46 28 48 25 50 33 52
REMARK H PARENT 43 17 41 19 39 21 37 23 35 25 19 45 17 47 28 49 25 51 33 53
REMARK Flexibility Score: inf
ROOT
ATOM      1  C   UNL     1     -19.212  29.650  -8.386  1.00  0.00     0.180 C 
ATOM      2  C   UNL     1     -17.938  29.968  -7.405  1.00  0.00     0.177 C 
ATOM      3  C   UNL     1     -17.767  28.872  -6.158  1.00  0.00     0.180 C 
ATOM      4  C   UNL     1     -18.480  27.292  -6.080  1.00  0.00     0.214 C 
ATOM      5  C   UNL     1     -19.010  26.848  -7.561  1.00  0.00     0.339 C 
ATOM      6  O   UNL     1     -19.272  28.054  -8.611  1.00  0.00    -0.332 OA
ENDROOT
BRANCH   1   7
ATOM      7  C   UNL     1     -20.671  30.697  -8.535  1.00  0.00     0.198 C 
BRANCH   7   8
ATOM      8  O   UNL     1     -21.694  31.056  -7.543  1.00  0.00    -0.347 OA
BRANCH   8   9
ATOM      9  C   UNL     1     -22.613  29.987  -7.008  1.00  0.00     0.281 C 
ATOM     10  C   UNL     1     -26.214  29.388  -7.766  1.00  0.00     0.041 C 
ATOM     11  C   UNL     1     -24.829  28.700  -7.594  1.00  0.00     0.150 C 
ATOM     12  C   UNL     1     -24.591  28.256  -6.191  1.00  0.00     0.174 C 
ATOM     13  O   UNL     1     -23.665  29.613  -8.008  1.00  0.00    -0.344 OA
ATOM     14  C   UNL     1     -23.116  27.645  -6.169  1.00  0.00     0.179 C 
ATOM     15  C   UNL     1     -21.935  28.687  -6.334  1.00  0.00     0.202 C 
BRANCH  12  16
ATOM     16  O   UNL     1     -25.582  27.351  -5.735  1.00  0.00    -0.388 OA
ATOM     17  H   UNL     1     -25.876  27.607  -4.830  1.00  0.00     0.211 HD
ENDBRANCH  12  16
BRANCH  14  18
ATOM     18  O   UNL     1     -23.112  26.707  -5.036  1.00  0.00    -0.387 OA
ATOM     19  H   UNL     1     -22.691  25.804  -5.346  1.00  0.00     0.211 HD
ENDBRANCH  14  18
BRANCH  15  20
ATOM     20  O   UNL     1     -21.470  29.152  -4.973  1.00  0.00    -0.385 OA
ATOM     21  H   UNL     1     -22.068  28.771  -4.263  1.00  0.00     0.211 HD
ENDBRANCH  15  20
ENDBRANCH   8   9
ENDBRANCH   7   8
ENDBRANCH   1   7
BRANCH   2  22
ATOM     22  O   UNL     1     -16.764  29.928  -8.135  1.00  0.00    -0.387 OA
ATOM     23  H   UNL     1     -16.136  29.219  -7.719  1.00  0.00     0.211 HD
ENDBRANCH   2  22
BRANCH   3  24
ATOM     24  O   UNL     1     -16.343  28.585  -6.005  1.00  0.00    -0.387 OA
ATOM     25  H   UNL     1     -16.088  27.882  -6.630  1.00  0.00     0.211 HD
ENDBRANCH   3  24
BRANCH   5  26
ATOM     26  O   UNL     1     -20.189  26.029  -7.314  1.00  0.00    -0.454 OA
BRANCH  26  27
ATOM     27  C   UNL     1     -20.516  25.013  -8.263  1.00  0.00     0.214 A 
ATOM     28  C   UNL     1     -20.249  23.649  -7.832  1.00  0.00     0.180 A 
ATOM     29  C   UNL     1     -21.728  25.298  -8.909  1.00  0.00     0.239 A 
ATOM     30  O   UNL     1     -21.420  23.190  -7.539  1.00  0.00    -0.452 OA
ATOM     31  C   UNL     1     -22.898  24.649  -8.365  1.00  0.00     0.111 A 
ATOM     32  O   UNL     1     -21.907  26.258  -9.796  1.00  0.00    -0.285 OA
ATOM     33  C   UNL     1     -22.607  23.810  -7.396  1.00  0.00     0.146 A 
ATOM     34  C   UNL     1     -24.297  24.831  -8.692  1.00  0.00     0.134 A 
ATOM     35  C   UNL     1     -23.510  23.557  -6.329  1.00  0.00     0.094 A 
ATOM     36  C   UNL     1     -25.259  24.339  -7.808  1.00  0.00     0.093 A 
ATOM     37  C   UNL     1     -24.818  24.007  -6.438  1.00  0.00     0.123 A 
BRANCH  28  38
ATOM     38  C   UNL     1     -18.735  22.900  -7.495  1.00  0.00     0.025 A 
ATOM     39  C   UNL     1     -17.778  23.620  -6.672  1.00  0.00     0.062 A 
ATOM     40  C   UNL     1     -18.039  21.827  -8.252  1.00  0.00     0.016 A 
ATOM     41  C   UNL     1     -16.435  23.212  -6.690  1.00  0.00     0.158 A 
ATOM     42  C   UNL     1     -17.109  21.072  -7.658  1.00  0.00     0.051 A 
ATOM     43  C   UNL     1     -16.076  21.819  -7.020  1.00  0.00     0.157 A 
BRANCH  41  44
ATOM     44  O   UNL     1     -15.411  24.110  -6.448  1.00  0.00    -0.504 OA
ATOM     45  H   UNL     1     -15.620  25.038  -5.971  1.00  0.00     0.293 HD
ENDBRANCH  41  44
BRANCH  43  46
ATOM     46  O   UNL     1     -14.796  21.349  -6.869  1.00  0.00    -0.504 OA
ATOM     47  H   UNL     1     -14.046  21.883  -6.347  1.00  0.00     0.293 HD
ENDBRANCH  43  46
ENDBRANCH  28  38
BRANCH  34  48
ATOM     48  O   UNL     1     -24.677  25.250  -9.940  1.00  0.00    -0.507 OA
ATOM     49  H   UNL     1     -24.372  26.106 -10.380  1.00  0.00     0.293 HD
ENDBRANCH  34  48
BRANCH  37  50
ATOM     50  O   UNL     1     -25.648  24.214  -5.273  1.00  0.00    -0.508 OA
ATOM     51  H   UNL     1     -26.300  25.015  -5.125  1.00  0.00     0.293 HD
ENDBRANCH  37  50
ENDBRANCH  26  27
ENDBRANCH   5  26
BRANCH   4  52
ATOM     52  O   UNL     1     -19.401  26.823  -5.030  1.00  0.00    -0.384 OA
ATOM     53  H   UNL     1     -20.131  27.416  -4.565  1.00  0.00     0.211 HD
ENDBRANCH   4  52
TORSDOF 16
ENDMDL
MODEL 2
REMARK VINA RESULT:    -6.869      2.367      6.109
REMARK INTER + INTRA:         -13.492
REMARK INTER:                 -10.186
REMARK INTRA:                  -3.306
REMARK UNBOUND:                -3.210
REMARK SMILES C[C@H]1O[C@H](OC[C@@H]2O[C@H](Oc3c(-c4ccc(O)c(O)c4)oc4cc(O)cc(O)c4c3=O)[C@H](O)[C@@H](O)[C@H]2O)[C@@H](O)[C@@H](O)[C@@H]1O
REMARK SMILES IDX 7 1 36 2 34 3 32 4 9 5 8 6 6 7 5 8 4 9 1 10 2 11 42 12 3 13
REMARK SMILES IDX 40 14 38 15 43 16 41 18 39 20 37 22 35 24 10 26 11 27 12 28
REMARK SMILES IDX 30 29 21 30 29 31 31 32 22 33 27 34 23 35 26 36 24 37 13 38
REMARK SMILES IDX 20 39 14 40 18 41 15 42 16 43 19 44 17 46 28 48 25 50 33 52
REMARK H PARENT 43 17 41 19 39 21 37 23 35 25 19 45 17 47 28 49 25 51 33 53
REMARK Flexibility Score: inf
ROOT
ATOM      1  C   UNL     1     -25.709  21.877  -6.629  1.00  0.00     0.180 C 
ATOM      2  C   UNL     1     -25.377  20.378  -7.203  1.00  0.00     0.177 C 
ATOM      3  C   UNL     1     -24.009  20.316  -8.157  1.00  0.00     0.180 C 
ATOM      4  C   UNL     1     -22.748  21.508  -8.216  1.00  0.00     0.214 C 
ATOM      5  C   UNL     1     -22.863  22.501  -6.923  1.00  0.00     0.339 C 
ATOM      6  O   UNL     1     -24.311  22.557  -6.197  1.00  0.00    -0.332 OA
ENDROOT
BRANCH   1   7
ATOM      7  C   UNL     1     -27.148  22.853  -7.096  1.00  0.00     0.198 C 
BRANCH   7   8
ATOM      8  O   UNL     1     -27.625  24.150  -6.597  1.00  0.00    -0.347 OA
BRANCH   8   9
ATOM      9  C   UNL     1     -27.197  25.416  -7.295  1.00  0.00     0.281 C 
ATOM     10  C   UNL     1     -26.663  26.028 -10.934  1.00  0.00     0.041 C 
ATOM     11  C   UNL     1     -27.298  26.606  -9.637  1.00  0.00     0.150 C 
ATOM     12  C   UNL     1     -26.357  27.492  -8.895  1.00  0.00     0.174 C 
ATOM     13  O   UNL     1     -27.774  25.506  -8.675  1.00  0.00    -0.344 OA
ATOM     14  C   UNL     1     -27.128  27.939  -7.570  1.00  0.00     0.179 C 
ATOM     15  C   UNL     1     -27.353  26.804  -6.487  1.00  0.00     0.202 C 
BRANCH  12  16
ATOM     16  O   UNL     1     -25.911  28.584  -9.681  1.00  0.00    -0.388 OA
ATOM     17  H   UNL     1     -25.286  28.263 -10.373  1.00  0.00     0.211 HD
ENDBRANCH  12  16
BRANCH  14  18
ATOM     18  O   UNL     1     -26.503  29.210  -7.178  1.00  0.00    -0.387 OA
ATOM     19  H   UNL     1     -27.143  29.715  -6.527  1.00  0.00     0.211 HD
ENDBRANCH  14  18
BRANCH  15  20
ATOM     20  O   UNL     1     -26.210  26.809  -5.499  1.00  0.00    -0.385 OA
ATOM     21  H   UNL     1     -25.848  25.879  -5.395  1.00  0.00     0.211 HD
ENDBRANCH  15  20
ENDBRANCH   8   9
ENDBRANCH   7   8
ENDBRANCH   1   7
BRANCH   2  22
ATOM     22  O   UNL     1     -25.165  19.509  -6.147  1.00  0.00    -0.387 OA
ATOM     23  H   UNL     1     -24.543  18.746  -6.463  1.00  0.00     0.211 HD
ENDBRANCH   2  22
BRANCH   3  24
ATOM     24  O   UNL     1     -23.278  19.099  -7.817  1.00  0.00    -0.387 OA
ATOM     25  H   UNL     1     -23.582  18.371  -8.390  1.00  0.00     0.211 HD
ENDBRANCH   3  24
BRANCH   5  26
ATOM     26  O   UNL     1     -22.402  23.799  -7.397  1.00  0.00    -0.454 OA
BRANCH  26  27
ATOM     27  C   UNL     1     -21.733  24.658  -6.473  1.00  0.00     0.214 A 
ATOM     28  C   UNL     1     -20.345  24.956  -6.792  1.00  0.00     0.180 A 
ATOM     29  C   UNL     1     -22.574  25.699  -6.052  1.00  0.00     0.239 A 
ATOM     30  O   UNL     1     -20.395  26.161  -7.258  1.00  0.00    -0.452 OA
ATOM     31  C   UNL     1     -22.424  26.951  -6.756  1.00  0.00     0.111 A 
ATOM     32  O   UNL     1     -23.613  25.558  -5.251  1.00  0.00    -0.285 OA
ATOM     33  C   UNL     1     -21.438  26.929  -7.624  1.00  0.00     0.146 A 
ATOM     34  C   UNL     1     -23.216  28.162  -6.676  1.00  0.00     0.134 A 
ATOM     35  C   UNL     1     -21.473  27.703  -8.816  1.00  0.00     0.094 A 
ATOM     36  C   UNL     1     -23.081  29.115  -7.686  1.00  0.00     0.093 A 
ATOM     37  C   UNL     1     -22.442  28.686  -8.947  1.00  0.00     0.123 A 
BRANCH  28  38
ATOM     38  C   UNL     1     -18.994  23.889  -6.837  1.00  0.00     0.025 A 
ATOM     39  C   UNL     1     -17.767  24.305  -6.181  1.00  0.00     0.062 A 
ATOM     40  C   UNL     1     -18.703  22.797  -7.802  1.00  0.00     0.016 A 
ATOM     41  C   UNL     1     -16.572  23.645  -6.510  1.00  0.00     0.158 A 
ATOM     42  C   UNL     1     -17.864  21.808  -7.475  1.00  0.00     0.051 A 
ATOM     43  C   UNL     1     -16.592  22.257  -7.012  1.00  0.00     0.157 A 
BRANCH  41  44
ATOM     44  O   UNL     1     -15.351  24.289  -6.421  1.00  0.00    -0.504 OA
ATOM     45  H   UNL     1     -14.519  23.792  -5.980  1.00  0.00     0.293 HD
ENDBRANCH  41  44
BRANCH  43  46
ATOM     46  O   UNL     1     -15.440  21.530  -7.169  1.00  0.00    -0.504 OA
ATOM     47  H   UNL     1     -14.836  21.590  -8.036  1.00  0.00     0.293 HD
ENDBRANCH  43  46
ENDBRANCH  28  38
BRANCH  34  48
ATOM     48  O   UNL     1     -23.893  28.483  -5.529  1.00  0.00    -0.507 OA
ATOM     49  H   UNL     1     -23.498  28.460  -4.600  1.00  0.00     0.293 HD
ENDBRANCH  34  48
BRANCH  37  50
ATOM     50  O   UNL     1     -22.848  29.181 -10.243  1.00  0.00    -0.508 OA
ATOM     51  H   UNL     1     -22.205  29.447 -11.022  1.00  0.00     0.293 HD
ENDBRANCH  37  50
ENDBRANCH  26  27
ENDBRANCH   5  26
BRANCH   4  52
ATOM     52  O   UNL     1     -22.335  22.254  -9.416  1.00  0.00    -0.384 OA
ATOM     53  H   UNL     1     -21.482  22.861  -9.480  1.00  0.00     0.211 HD
ENDBRANCH   4  52
TORSDOF 16
ENDMDL
MODEL 3
REMARK VINA RESULT:    -6.856      2.248      5.721
REMARK INTER + INTRA:         -13.472
REMARK INTER:                 -10.070
REMARK INTRA:                  -3.402
REMARK UNBOUND:                -3.210
REMARK SMILES C[C@H]1O[C@H](OC[C@@H]2O[C@H](Oc3c(-c4ccc(O)c(O)c4)oc4cc(O)cc(O)c4c3=O)[C@H](O)[C@@H](O)[C@H]2O)[C@@H](O)[C@@H](O)[C@@H]1O
REMARK SMILES IDX 7 1 36 2 34 3 32 4 9 5 8 6 6 7 5 8 4 9 1 10 2 11 42 12 3 13
REMARK SMILES IDX 40 14 38 15 43 16 41 18 39 20 37 22 35 24 10 26 11 27 12 28
REMARK SMILES IDX 30 29 21 30 29 31 31 32 22 33 27 34 23 35 26 36 24 37 13 38
REMARK SMILES IDX 20 39 14 40 18 41 15 42 16 43 19 44 17 46 28 48 25 50 33 52
REMARK H PARENT 43 17 41 19 39 21 37 23 35 25 19 45 17 47 28 49 25 51 33 53
REMARK Flexibility Score: inf
ROOT
ATOM      1  C   UNL     1     -22.157  21.769  -7.088  1.00  0.00     0.180 C 
ATOM      2  C   UNL     1     -20.947  20.957  -7.839  1.00  0.00     0.177 C 
ATOM      3  C   UNL     1     -19.919  21.945  -8.706  1.00  0.00     0.180 C 
ATOM      4  C   UNL     1     -19.757  23.664  -8.526  1.00  0.00     0.214 C 
ATOM      5  C   UNL     1     -20.440  24.141  -7.120  1.00  0.00     0.339 C 
ATOM      6  O   UNL     1     -21.535  23.128  -6.484  1.00  0.00    -0.332 OA
ENDROOT
BRANCH   1   7
ATOM      7  C   UNL     1     -23.902  21.614  -7.507  1.00  0.00     0.198 C 
BRANCH   7   8
ATOM      8  O   UNL     1     -25.103  22.000  -6.752  1.00  0.00    -0.347 OA
BRANCH   8   9
ATOM      9  C   UNL     1     -25.366  23.459  -6.476  1.00  0.00     0.281 C 
ATOM     10  C   UNL     1     -27.440  25.880  -8.410  1.00  0.00     0.041 C 
ATOM     11  C   UNL     1     -27.106  25.364  -6.981  1.00  0.00     0.150 C 
ATOM     12  C   UNL     1     -25.998  26.135  -6.348  1.00  0.00     0.174 C 
ATOM     13  O   UNL     1     -26.719  23.877  -6.969  1.00  0.00    -0.344 OA
ATOM     14  C   UNL     1     -25.734  25.442  -4.934  1.00  0.00     0.179 C 
ATOM     15  C   UNL     1     -25.076  24.001  -4.984  1.00  0.00     0.202 C 
BRANCH  12  16
ATOM     16  O   UNL     1     -26.290  27.519  -6.250  1.00  0.00    -0.388 OA
ATOM     17  H   UNL     1     -26.045  27.971  -7.092  1.00  0.00     0.211 HD
ENDBRANCH  12  16
BRANCH  14  18
ATOM     18  O   UNL     1     -25.129  26.493  -4.103  1.00  0.00    -0.387 OA
ATOM     19  H   UNL     1     -25.887  27.094  -3.713  1.00  0.00     0.211 HD
ENDBRANCH  14  18
BRANCH  15  20
ATOM     20  O   UNL     1     -23.572  24.124  -4.901  1.00  0.00    -0.385 OA
ATOM     21  H   UNL     1     -23.325  24.769  -4.173  1.00  0.00     0.211 HD
ENDBRANCH  15  20
ENDBRANCH   8   9
ENDBRANCH   7   8
ENDBRANCH   1   7
BRANCH   2  22
ATOM     22  O   UNL     1     -20.170  20.301  -6.900  1.00  0.00    -0.387 OA
ATOM     23  H   UNL     1     -19.275  20.027  -7.340  1.00  0.00     0.211 HD
ENDBRANCH   2  22
BRANCH   3  24
ATOM     24  O   UNL     1     -18.554  21.473  -8.490  1.00  0.00    -0.387 OA
ATOM     25  H   UNL     1     -18.176  21.928  -7.716  1.00  0.00     0.211 HD
ENDBRANCH   3  24
BRANCH   5  26
ATOM     26  O   UNL     1     -20.967  25.472  -7.384  1.00  0.00    -0.454 OA
BRANCH  26  27
ATOM     27  C   UNL     1     -20.574  26.539  -6.521  1.00  0.00     0.214 A 
ATOM     28  C   UNL     1     -19.513  27.394  -7.031  1.00  0.00     0.180 A 
ATOM     29  C   UNL     1     -21.689  27.130  -5.908  1.00  0.00     0.239 A 
ATOM     30  O   UNL     1     -20.138  28.462  -7.403  1.00  0.00    -0.452 OA
ATOM     31  C   UNL     1     -22.196  28.323  -6.543  1.00  0.00     0.111 A 
ATOM     32  O   UNL     1     -22.424  26.568  -4.967  1.00  0.00    -0.285 OA
ATOM     33  C   UNL     1     -21.452  28.715  -7.553  1.00  0.00     0.146 A 
ATOM     34  C   UNL     1     -23.396  29.086  -6.264  1.00  0.00     0.134 A 
ATOM     35  C   UNL     1     -22.006  29.394  -8.672  1.00  0.00     0.094 A 
ATOM     36  C   UNL     1     -23.842  30.001  -7.218  1.00  0.00     0.093 A 
ATOM     37  C   UNL     1     -23.304  29.874  -8.588  1.00  0.00     0.123 A 
BRANCH  28  38
ATOM     38  C   UNL     1     -17.868  26.998  -7.353  1.00  0.00     0.025 A 
ATOM     39  C   UNL     1     -17.337  25.763  -6.804  1.00  0.00     0.062 A 
ATOM     40  C   UNL     1     -16.750  27.902  -7.730  1.00  0.00     0.016 A 
ATOM     41  C   UNL     1     -15.944  25.601  -6.736  1.00  0.00     0.158 A 
ATOM     42  C   UNL     1     -15.665  27.419  -8.345  1.00  0.00     0.051 A 
ATOM     43  C   UNL     1     -15.056  26.321  -7.671  1.00  0.00     0.157 A 
BRANCH  41  44
ATOM     44  O   UNL     1     -15.362  24.806  -5.765  1.00  0.00    -0.504 OA
ATOM     45  H   UNL     1     -14.897  25.254  -4.920  1.00  0.00     0.293 HD
ENDBRANCH  41  44
BRANCH  43  46
ATOM     46  O   UNL     1     -13.715  26.047  -7.747  1.00  0.00    -0.504 OA
ATOM     47  H   UNL     1     -13.259  25.256  -7.211  1.00  0.00     0.293 HD
ENDBRANCH  43  46
ENDBRANCH  28  38
BRANCH  34  48
ATOM     48  O   UNL     1     -23.942  29.098  -5.007  1.00  0.00    -0.507 OA
ATOM     49  H   UNL     1     -24.482  28.346  -4.604  1.00  0.00     0.293 HD
ENDBRANCH  34  48
BRANCH  37  50
ATOM     50  O   UNL     1     -24.090  30.143  -9.770  1.00  0.00    -0.508 OA
ATOM     51  H   UNL     1     -24.127  31.052 -10.283  1.00  0.00     0.293 HD
ENDBRANCH  37  50
ENDBRANCH  26  27
ENDBRANCH   5  26
BRANCH   4  52
ATOM     52  O   UNL     1     -19.989  24.659  -9.587  1.00  0.00    -0.384 OA
ATOM     53  H   UNL     1     -19.687  24.550 -10.585  1.00  0.00     0.211 HD
ENDBRANCH   4  52
TORSDOF 16
ENDMDL
MODEL 4
REMARK VINA RESULT:    -6.797      1.922      5.807
REMARK INTER + INTRA:         -13.385
REMARK INTER:                 -10.335
REMARK INTRA:                  -3.050
REMARK UNBOUND:                -3.210
REMARK SMILES C[C@H]1O[C@H](OC[C@@H]2O[C@H](Oc3c(-c4ccc(O)c(O)c4)oc4cc(O)cc(O)c4c3=O)[C@H](O)[C@@H](O)[C@H]2O)[C@@H](O)[C@@H](O)[C@@H]1O
REMARK SMILES IDX 7 1 36 2 34 3 32 4 9 5 8 6 6 7 5 8 4 9 1 10 2 11 42 12 3 13
REMARK SMILES IDX 40 14 38 15 43 16 41 18 39 20 37 22 35 24 10 26 11 27 12 28
REMARK SMILES IDX 30 29 21 30 29 31 31 32 22 33 27 34 23 35 26 36 24 37 13 38
REMARK SMILES IDX 20 39 14 40 18 41 15 42 16 43 19 44 17 46 28 48 25 50 33 52
REMARK H PARENT 43 17 41 19 39 21 37 23 35 25 19 45 17 47 28 49 25 51 33 53
REMARK Flexibility Score: inf
ROOT
ATOM      1  C   UNL     1     -25.180  23.891  -5.609  1.00  0.00     0.180 C 
ATOM      2  C   UNL     1     -24.978  22.305  -5.970  1.00  0.00     0.177 C 
ATOM      3  C   UNL     1     -23.668  22.008  -6.959  1.00  0.00     0.180 C 
ATOM      4  C   UNL     1     -22.335  23.084  -7.244  1.00  0.00     0.214 C 
ATOM      5  C   UNL     1     -22.317  24.257  -6.106  1.00  0.00     0.339 C 
ATOM      6  O   UNL     1     -23.720  24.522  -5.339  1.00  0.00    -0.332 OA
ENDROOT
BRANCH   1   7
ATOM      7  C   UNL     1     -26.573  24.893  -6.155  1.00  0.00     0.198 C 
BRANCH   7   8
ATOM      8  O   UNL     1     -26.687  26.345  -6.349  1.00  0.00    -0.347 OA
BRANCH   8   9
ATOM      9  C   UNL     1     -25.952  27.000  -7.492  1.00  0.00     0.281 C 
ATOM     10  C   UNL     1     -24.267  25.416 -10.417  1.00  0.00     0.041 C 
ATOM     11  C   UNL     1     -25.218  26.567  -9.979  1.00  0.00     0.150 C 
ATOM     12  C   UNL     1     -24.477  27.822  -9.665  1.00  0.00     0.174 C 
ATOM     13  O   UNL     1     -26.064  26.195  -8.751  1.00  0.00    -0.344 OA
ATOM     14  C   UNL     1     -25.576  28.868  -9.169  1.00  0.00     0.179 C 
ATOM     15  C   UNL     1     -26.225  28.568  -7.755  1.00  0.00     0.202 C 
BRANCH  12  16
ATOM     16  O   UNL     1     -23.713  28.288 -10.765  1.00  0.00    -0.388 OA
ATOM     17  H   UNL     1     -23.187  27.544 -11.143  1.00  0.00     0.211 HD
ENDBRANCH  12  16
BRANCH  14  18
ATOM     18  O   UNL     1     -24.992  30.189  -9.440  1.00  0.00    -0.387 OA
ATOM     19  H   UNL     1     -25.158  30.808  -8.617  1.00  0.00     0.211 HD
ENDBRANCH  14  18
BRANCH  15  20
ATOM     20  O   UNL     1     -25.448  29.284  -6.675  1.00  0.00    -0.385 OA
ATOM     21  H   UNL     1     -25.055  28.615  -6.040  1.00  0.00     0.211 HD
ENDBRANCH  15  20
ENDBRANCH   8   9
ENDBRANCH   7   8
ENDBRANCH   1   7
BRANCH   2  22
ATOM     22  O   UNL     1     -24.772  21.583  -4.808  1.00  0.00    -0.387 OA
ATOM     23  H   UNL     1     -24.843  20.574  -5.025  1.00  0.00     0.211 HD
ENDBRANCH   2  22
BRANCH   3  24
ATOM     24  O   UNL     1     -23.003  20.801  -6.475  1.00  0.00    -0.387 OA
ATOM     25  H   UNL     1     -22.618  20.977  -5.597  1.00  0.00     0.211 HD
ENDBRANCH   3  24
BRANCH   5  26
ATOM     26  O   UNL     1     -21.796  25.437  -6.784  1.00  0.00    -0.454 OA
BRANCH  26  27
ATOM     27  C   UNL     1     -20.965  26.330  -6.043  1.00  0.00     0.214 A 
ATOM     28  C   UNL     1     -19.592  26.438  -6.514  1.00  0.00     0.180 A 
ATOM     29  C   UNL     1     -21.660  27.498  -5.697  1.00  0.00     0.239 A 
ATOM     30  O   UNL     1     -19.573  27.573  -7.131  1.00  0.00    -0.452 OA
ATOM     31  C   UNL     1     -21.463  28.629  -6.573  1.00  0.00     0.111 A 
ATOM     32  O   UNL     1     -22.626  27.568  -4.801  1.00  0.00    -0.285 OA
ATOM     33  C   UNL     1     -20.571  28.395  -7.509  1.00  0.00     0.146 A 
ATOM     34  C   UNL     1     -22.127  29.916  -6.591  1.00  0.00     0.134 A 
ATOM     35  C   UNL     1     -20.648  29.012  -8.787  1.00  0.00     0.094 A 
ATOM     36  C   UNL     1     -22.001  30.716  -7.728  1.00  0.00     0.093 A 
ATOM     37  C   UNL     1     -21.529  30.067  -8.969  1.00  0.00     0.123 A 
BRANCH  28  38
ATOM     38  C   UNL     1     -18.357  25.238  -6.527  1.00  0.00     0.025 A 
ATOM     39  C   UNL     1     -17.008  25.635  -6.162  1.00  0.00     0.062 A 
ATOM     40  C   UNL     1     -18.319  23.950  -7.268  1.00  0.00     0.016 A 
ATOM     41  C   UNL     1     -15.941  24.793  -6.513  1.00  0.00     0.158 A 
ATOM     42  C   UNL     1     -17.518  22.958  -6.863  1.00  0.00     0.051 A 
ATOM     43  C   UNL     1     -16.155  23.344  -6.699  1.00  0.00     0.157 A 
BRANCH  41  44
ATOM     44  O   UNL     1     -14.675  25.299  -6.743  1.00  0.00    -0.504 OA
ATOM     45  H   UNL     1     -14.295  26.080  -6.128  1.00  0.00     0.293 HD
ENDBRANCH  41  44
BRANCH  43  46
ATOM     46  O   UNL     1     -15.107  22.475  -6.863  1.00  0.00    -0.504 OA
ATOM     47  H   UNL     1     -15.239  21.460  -7.134  1.00  0.00     0.293 HD
ENDBRANCH  43  46
ENDBRANCH  28  38
BRANCH  34  48
ATOM     48  O   UNL     1     -22.657  30.448  -5.445  1.00  0.00    -0.507 OA
ATOM     49  H   UNL     1     -23.201  29.934  -4.767  1.00  0.00     0.293 HD
ENDBRANCH  34  48
BRANCH  37  50
ATOM     50  O   UNL     1     -22.010  30.435 -10.281  1.00  0.00    -0.508 OA
ATOM     51  H   UNL     1     -22.911  30.922 -10.485  1.00  0.00     0.293 HD
ENDBRANCH  37  50
ENDBRANCH  26  27
ENDBRANCH   5  26
BRANCH   4  52
ATOM     52  O   UNL     1     -21.935  23.618  -8.556  1.00  0.00    -0.384 OA
ATOM     53  H   UNL     1     -22.133  24.592  -8.891  1.00  0.00     0.211 HD
ENDBRANCH   4  52
TORSDOF 16
ENDMDL
MODEL 5
REMARK VINA RESULT:    -6.704      2.263      3.685
REMARK INTER + INTRA:         -13.244
REMARK INTER:                 -10.015
REMARK INTRA:                  -3.230
REMARK UNBOUND:                -3.210
REMARK SMILES C[C@H]1O[C@H](OC[C@@H]2O[C@H](Oc3c(-c4ccc(O)c(O)c4)oc4cc(O)cc(O)c4c3=O)[C@H](O)[C@@H](O)[C@H]2O)[C@@H](O)[C@@H](O)[C@@H]1O
REMARK SMILES IDX 7 1 36 2 34 3 32 4 9 5 8 6 6 7 5 8 4 9 1 10 2 11 42 12 3 13
REMARK SMILES IDX 40 14 38 15 43 16 41 18 39 20 37 22 35 24 10 26 11 27 12 28
REMARK SMILES IDX 30 29 21 30 29 31 31 32 22 33 27 34 23 35 26 36 24 37 13 38
REMARK SMILES IDX 20 39 14 40 18 41 15 42 16 43 19 44 17 46 28 48 25 50 33 52
REMARK H PARENT 43 17 41 19 39 21 37 23 35 25 19 45 17 47 28 49 25 51 33 53
REMARK Flexibility Score: inf
ROOT
ATOM      1  C   UNL     1     -23.513  28.841  -7.999  1.00  0.00     0.180 C 
ATOM      2  C   UNL     1     -22.955  29.750  -6.755  1.00  0.00     0.177 C 
ATOM      3  C   UNL     1     -22.524  28.855  -5.415  1.00  0.00     0.180 C 
ATOM      4  C   UNL     1     -22.204  27.149  -5.383  1.00  0.00     0.214 C 
ATOM      5  C   UNL     1     -21.978  26.599  -6.906  1.00  0.00     0.339 C 
ATOM      6  O   UNL     1     -22.593  27.519  -8.090  1.00  0.00    -0.332 OA
ENDROOT
BRANCH   1   7
ATOM      7  C   UNL     1     -25.206  28.877  -8.611  1.00  0.00     0.198 C 
BRANCH   7   8
ATOM      8  O   UNL     1     -26.478  28.633  -7.916  1.00  0.00    -0.347 OA
BRANCH   8   9
ATOM      9  C   UNL     1     -26.807  27.241  -7.441  1.00  0.00     0.281 C 
ATOM     10  C   UNL     1     -29.389  24.871  -8.711  1.00  0.00     0.041 C 
ATOM     11  C   UNL     1     -27.907  24.997  -8.256  1.00  0.00     0.150 C 
ATOM     12  C   UNL     1     -27.741  24.733  -6.798  1.00  0.00     0.174 C 
ATOM     13  O   UNL     1     -27.316  26.383  -8.559  1.00  0.00    -0.344 OA
ATOM     14  C   UNL     1     -26.194  24.971  -6.483  1.00  0.00     0.179 C 
ATOM     15  C   UNL     1     -25.700  26.474  -6.551  1.00  0.00     0.202 C 
BRANCH  12  16
ATOM     16  O   UNL     1     -28.198  23.443  -6.428  1.00  0.00    -0.388 OA
ATOM     17  H   UNL     1     -28.973  23.525  -5.824  1.00  0.00     0.211 HD
ENDBRANCH  12  16
BRANCH  14  18
ATOM     18  O   UNL     1     -25.923  24.165  -5.284  1.00  0.00    -0.387 OA
ATOM     19  H   UNL     1     -25.038  24.499  -4.845  1.00  0.00     0.211 HD
ENDBRANCH  14  18
BRANCH  15  20
ATOM     20  O   UNL     1     -25.798  27.105  -5.181  1.00  0.00    -0.385 OA
ATOM     21  H   UNL     1     -26.302  26.497  -4.563  1.00  0.00     0.211 HD
ENDBRANCH  15  20
ENDBRANCH   8   9
ENDBRANCH   7   8
ENDBRANCH   1   7
BRANCH   2  22
ATOM     22  O   UNL     1     -21.825  30.443  -7.151  1.00  0.00    -0.387 OA
ATOM     23  H   UNL     1     -21.090  29.763  -7.409  1.00  0.00     0.211 HD
ENDBRANCH   2  22
BRANCH   3  24
ATOM     24  O   UNL     1     -21.290  29.419  -4.875  1.00  0.00    -0.387 OA
ATOM     25  H   UNL     1     -20.797  29.859  -5.592  1.00  0.00     0.211 HD
ENDBRANCH   3  24
BRANCH   5  26
ATOM     26  O   UNL     1     -22.496  25.238  -6.900  1.00  0.00    -0.454 OA
BRANCH  26  27
ATOM     27  C   UNL     1     -22.233  24.409  -8.033  1.00  0.00     0.214 A 
ATOM     28  C   UNL     1     -21.250  23.358  -7.819  1.00  0.00     0.180 A 
ATOM     29  C   UNL     1     -23.416  24.107  -8.724  1.00  0.00     0.239 A 
ATOM     30  O   UNL     1     -21.970  22.290  -7.711  1.00  0.00    -0.452 OA
ATOM     31  C   UNL     1     -24.024  22.838  -8.400  1.00  0.00     0.111 A 
ATOM     32  O   UNL     1     -24.112  24.964  -9.445  1.00  0.00    -0.285 OA
ATOM     33  C   UNL     1     -23.299  22.126  -7.568  1.00  0.00     0.146 A 
ATOM     34  C   UNL     1     -25.300  22.289  -8.812  1.00  0.00     0.134 A 
ATOM     35  C   UNL     1     -23.891  21.226  -6.641  1.00  0.00     0.094 A 
ATOM     36  C   UNL     1     -25.814  21.197  -8.111  1.00  0.00     0.093 A 
ATOM     37  C   UNL     1     -25.233  20.904  -6.784  1.00  0.00     0.123 A 
BRANCH  28  38
ATOM     38  C   UNL     1     -19.567  23.503  -7.486  1.00  0.00     0.025 A 
ATOM     39  C   UNL     1     -18.678  22.458  -7.963  1.00  0.00     0.062 A 
ATOM     40  C   UNL     1     -18.895  24.284  -6.414  1.00  0.00     0.016 A 
ATOM     41  C   UNL     1     -17.394  22.359  -7.403  1.00  0.00     0.158 A 
ATOM     42  C   UNL     1     -17.610  24.634  -6.535  1.00  0.00     0.051 A 
ATOM     43  C   UNL     1     -16.736  23.544  -6.817  1.00  0.00     0.157 A 
BRANCH  41  44
ATOM     44  O   UNL     1     -16.733  21.146  -7.339  1.00  0.00    -0.504 OA
ATOM     45  H   UNL     1     -15.957  21.001  -6.625  1.00  0.00     0.293 HD
ENDBRANCH  41  44
BRANCH  43  46
ATOM     46  O   UNL     1     -15.421  23.519  -6.428  1.00  0.00    -0.504 OA
ATOM     47  H   UNL     1     -14.804  22.666  -6.543  1.00  0.00     0.293 HD
ENDBRANCH  43  46
ENDBRANCH  28  38
BRANCH  34  48
ATOM     48  O   UNL     1     -25.875  22.662  -9.998  1.00  0.00    -0.507 OA
ATOM     49  H   UNL     1     -26.856  22.865 -10.127  1.00  0.00     0.293 HD
ENDBRANCH  34  48
BRANCH  37  50
ATOM     50  O   UNL     1     -26.014  20.401  -5.677  1.00  0.00    -0.508 OA
ATOM     51  H   UNL     1     -25.629  19.998  -4.795  1.00  0.00     0.293 HD
ENDBRANCH  37  50
ENDBRANCH  26  27
ENDBRANCH   5  26
BRANCH   4  52
ATOM     52  O   UNL     1     -22.929  26.160  -4.569  1.00  0.00    -0.384 OA
ATOM     53  H   UNL     1     -22.845  25.119  -4.676  1.00  0.00     0.211 HD
ENDBRANCH   4  52
TORSDOF 16
ENDMDL
MODEL 6
REMARK VINA RESULT:    -6.576      2.335      6.043
REMARK INTER + INTRA:         -13.054
REMARK INTER:                  -9.666
REMARK INTRA:                  -3.388
REMARK UNBOUND:                -3.210
REMARK SMILES C[C@H]1O[C@H](OC[C@@H]2O[C@H](Oc3c(-c4ccc(O)c(O)c4)oc4cc(O)cc(O)c4c3=O)[C@H](O)[C@@H](O)[C@H]2O)[C@@H](O)[C@@H](O)[C@@H]1O
REMARK SMILES IDX 7 1 36 2 34 3 32 4 9 5 8 6 6 7 5 8 4 9 1 10 2 11 42 12 3 13
REMARK SMILES IDX 40 14 38 15 43 16 41 18 39 20 37 22 35 24 10 26 11 27 12 28
REMARK SMILES IDX 30 29 21 30 29 31 31 32 22 33 27 34 23 35 26 36 24 37 13 38
REMARK SMILES IDX 20 39 14 40 18 41 15 42 16 43 19 44 17 46 28 48 25 50 33 52
REMARK H PARENT 43 17 41 19 39 21 37 23 35 25 19 45 17 47 28 49 25 51 33 53
REMARK Flexibility Score: inf
ROOT
ATOM      1  C   UNL     1     -24.295  21.720  -6.973  1.00  0.00     0.180 C 
ATOM      2  C   UNL     1     -23.117  20.581  -7.011  1.00  0.00     0.177 C 
ATOM      3  C   UNL     1     -21.621  21.182  -7.440  1.00  0.00     0.180 C 
ATOM      4  C   UNL     1     -21.140  22.850  -7.405  1.00  0.00     0.214 C 
ATOM      5  C   UNL     1     -22.201  23.715  -6.511  1.00  0.00     0.339 C 
ATOM      6  O   UNL     1     -23.667  23.053  -6.315  1.00  0.00    -0.332 OA
ENDROOT
BRANCH   1   7
ATOM      7  C   UNL     1     -25.699  21.775  -8.100  1.00  0.00     0.198 C 
BRANCH   7   8
ATOM      8  O   UNL     1     -26.995  22.457  -7.978  1.00  0.00    -0.347 OA
BRANCH   8   9
ATOM      9  C   UNL     1     -27.035  23.962  -7.894  1.00  0.00     0.281 C 
ATOM     10  C   UNL     1     -27.468  26.460 -10.627  1.00  0.00     0.041 C 
ATOM     11  C   UNL     1     -27.920  26.071  -9.191  1.00  0.00     0.150 C 
ATOM     12  C   UNL     1     -27.070  26.703  -8.141  1.00  0.00     0.174 C 
ATOM     13  O   UNL     1     -27.906  24.551  -8.962  1.00  0.00    -0.344 OA
ATOM     14  C   UNL     1     -27.614  26.151  -6.745  1.00  0.00     0.179 C 
ATOM     15  C   UNL     1     -27.327  24.621  -6.450  1.00  0.00     0.202 C 
BRANCH  12  16
ATOM     16  O   UNL     1     -27.073  28.118  -8.226  1.00  0.00    -0.388 OA
ATOM     17  H   UNL     1     -27.735  28.410  -8.896  1.00  0.00     0.211 HD
ENDBRANCH  12  16
BRANCH  14  18
ATOM     18  O   UNL     1     -27.230  27.171  -5.759  1.00  0.00    -0.387 OA
ATOM     19  H   UNL     1     -26.299  27.562  -6.021  1.00  0.00     0.211 HD
ENDBRANCH  14  18
BRANCH  15  20
ATOM     20  O   UNL     1     -26.028  24.484  -5.690  1.00  0.00    -0.385 OA
ATOM     21  H   UNL     1     -25.536  25.358  -5.699  1.00  0.00     0.211 HD
ENDBRANCH  15  20
ENDBRANCH   8   9
ENDBRANCH   7   8
ENDBRANCH   1   7
BRANCH   2  22
ATOM     22  O   UNL     1     -22.974  20.014  -5.757  1.00  0.00    -0.387 OA
ATOM     23  H   UNL     1     -23.006  20.764  -5.046  1.00  0.00     0.211 HD
ENDBRANCH   2  22
BRANCH   3  24
ATOM     24  O   UNL     1     -20.620  20.545  -6.589  1.00  0.00    -0.387 OA
ATOM     25  H   UNL     1     -19.907  20.183  -7.147  1.00  0.00     0.211 HD
ENDBRANCH   3  24
BRANCH   5  26
ATOM     26  O   UNL     1     -22.238  25.031  -7.133  1.00  0.00    -0.454 OA
BRANCH  26  27
ATOM     27  C   UNL     1     -21.928  26.168  -6.327  1.00  0.00     0.214 A 
ATOM     28  C   UNL     1     -20.635  26.782  -6.588  1.00  0.00     0.180 A 
ATOM     29  C   UNL     1     -23.052  26.991  -6.161  1.00  0.00     0.239 A 
ATOM     30  O   UNL     1     -20.935  27.844  -7.260  1.00  0.00    -0.452 OA
ATOM     31  C   UNL     1     -23.144  28.117  -7.061  1.00  0.00     0.111 A 
ATOM     32  O   UNL     1     -24.108  26.694  -5.429  1.00  0.00    -0.285 OA
ATOM     33  C   UNL     1     -22.089  28.235  -7.834  1.00  0.00     0.146 A 
ATOM     34  C   UNL     1     -24.223  29.063  -7.256  1.00  0.00     0.134 A 
ATOM     35  C   UNL     1     -22.177  28.782  -9.143  1.00  0.00     0.094 A 
ATOM     36  C   UNL     1     -24.217  29.855  -8.405  1.00  0.00     0.093 A 
ATOM     37  C   UNL     1     -23.343  29.432  -9.519  1.00  0.00     0.123 A 
BRANCH  28  38
ATOM     38  C   UNL     1     -19.060  26.130  -6.342  1.00  0.00     0.025 A 
ATOM     39  C   UNL     1     -18.199  26.762  -5.357  1.00  0.00     0.062 A 
ATOM     40  C   UNL     1     -18.242  25.299  -7.264  1.00  0.00     0.016 A 
ATOM     41  C   UNL     1     -16.821  26.496  -5.398  1.00  0.00     0.158 A 
ATOM     42  C   UNL     1     -17.252  24.534  -6.791  1.00  0.00     0.051 A 
ATOM     43  C   UNL     1     -16.315  25.236  -5.978  1.00  0.00     0.157 A 
BRANCH  41  44
ATOM     44  O   UNL     1     -15.900  27.422  -4.944  1.00  0.00    -0.504 OA
ATOM     45  H   UNL     1     -16.184  28.140  -4.212  1.00  0.00     0.293 HD
ENDBRANCH  41  44
BRANCH  43  46
ATOM     46  O   UNL     1     -14.998  24.871  -5.870  1.00  0.00    -0.504 OA
ATOM     47  H   UNL     1     -14.217  25.379  -6.373  1.00  0.00     0.293 HD
ENDBRANCH  43  46
ENDBRANCH  28  38
BRANCH  34  48
ATOM     48  O   UNL     1     -25.092  29.355  -6.238  1.00  0.00    -0.507 OA
ATOM     49  H   UNL     1     -24.823  29.532  -5.281  1.00  0.00     0.293 HD
ENDBRANCH  34  48
BRANCH  37  50
ATOM     50  O   UNL     1     -23.703  29.599 -10.908  1.00  0.00    -0.508 OA
ATOM     51  H   UNL     1     -23.569  28.888 -11.662  1.00  0.00     0.293 HD
ENDBRANCH  37  50
ENDBRANCH  26  27
ENDBRANCH   5  26
BRANCH   4  52
ATOM     52  O   UNL     1     -20.673  23.628  -8.565  1.00  0.00    -0.384 OA
ATOM     53  H   UNL     1     -20.144  24.532  -8.505  1.00  0.00     0.211 HD
ENDBRANCH   4  52
TORSDOF 16
ENDMDL
MODEL 7
REMARK VINA RESULT:    -6.553      2.546      7.247
REMARK INTER + INTRA:         -13.019
REMARK INTER:                  -9.800
REMARK INTRA:                  -3.219
REMARK UNBOUND:                -3.210
REMARK SMILES C[C@H]1O[C@H](OC[C@@H]2O[C@H](Oc3c(-c4ccc(O)c(O)c4)oc4cc(O)cc(O)c4c3=O)[C@H](O)[C@@H](O)[C@H]2O)[C@@H](O)[C@@H](O)[C@@H]1O
REMARK SMILES IDX 7 1 36 2 34 3 32 4 9 5 8 6 6 7 5 8 4 9 1 10 2 11 42 12 3 13
REMARK SMILES IDX 40 14 38 15 43 16 41 18 39 20 37 22 35 24 10 26 11 27 12 28
REMARK SMILES IDX 30 29 21 30 29 31 31 32 22 33 27 34 23 35 26 36 24 37 13 38
REMARK SMILES IDX 20 39 14 40 18 41 15 42 16 43 19 44 17 46 28 48 25 50 33 52
REMARK H PARENT 43 17 41 19 39 21 37 23 35 25 19 45 17 47 28 49 25 51 33 53
REMARK Flexibility Score: inf
ROOT
ATOM      1  C   UNL     1     -20.402  24.902  -5.873  1.00  0.00     0.180 C 
ATOM      2  C   UNL     1     -19.101  25.829  -6.237  1.00  0.00     0.177 C 
ATOM      3  C   UNL     1     -19.473  27.166  -7.163  1.00  0.00     0.180 C 
ATOM      4  C   UNL     1     -21.051  27.859  -7.373  1.00  0.00     0.214 C 
ATOM      5  C   UNL     1     -22.065  27.286  -6.226  1.00  0.00     0.339 C 
ATOM      6  O   UNL     1     -21.628  25.891  -5.526  1.00  0.00    -0.332 OA
ENDROOT
BRANCH   1   7
ATOM      7  C   UNL     1     -20.662  23.225  -6.479  1.00  0.00     0.198 C 
BRANCH   7   8
ATOM      8  O   UNL     1     -21.502  22.727  -7.576  1.00  0.00    -0.347 OA
BRANCH   8   9
ATOM      9  C   UNL     1     -22.921  22.303  -7.289  1.00  0.00     0.281 C 
ATOM     10  C   UNL     1     -24.385  18.875  -7.237  1.00  0.00     0.041 C 
ATOM     11  C   UNL     1     -24.323  20.232  -6.479  1.00  0.00     0.150 C 
ATOM     12  C   UNL     1     -25.400  21.169  -6.910  1.00  0.00     0.174 C 
ATOM     13  O   UNL     1     -22.972  20.944  -6.660  1.00  0.00    -0.344 OA
ATOM     14  C   UNL     1     -25.153  22.522  -6.100  1.00  0.00     0.179 C 
ATOM     15  C   UNL     1     -23.874  23.356  -6.524  1.00  0.00     0.202 C 
BRANCH  12  16
ATOM     16  O   UNL     1     -26.695  20.626  -6.717  1.00  0.00    -0.388 OA
ATOM     17  H   UNL     1     -26.723  20.124  -5.869  1.00  0.00     0.211 HD
ENDBRANCH  12  16
BRANCH  14  18
ATOM     18  O   UNL     1     -26.468  23.177  -6.046  1.00  0.00    -0.387 OA
ATOM     19  H   UNL     1     -26.770  23.410  -7.017  1.00  0.00     0.211 HD
ENDBRANCH  14  18
BRANCH  15  20
ATOM     20  O   UNL     1     -24.254  24.373  -7.576  1.00  0.00    -0.385 OA
ATOM     21  H   UNL     1     -24.451  23.906  -8.442  1.00  0.00     0.211 HD
ENDBRANCH  15  20
ENDBRANCH   8   9
ENDBRANCH   7   8
ENDBRANCH   1   7
BRANCH   2  22
ATOM     22  O   UNL     1     -18.521  26.301  -5.073  1.00  0.00    -0.387 OA
ATOM     23  H   UNL     1     -19.247  26.770  -4.505  1.00  0.00     0.211 HD
ENDBRANCH   2  22
BRANCH   3  24
ATOM     24  O   UNL     1     -18.696  28.295  -6.657  1.00  0.00    -0.387 OA
ATOM     25  H   UNL     1     -17.841  28.330  -7.121  1.00  0.00     0.211 HD
ENDBRANCH   3  24
BRANCH   5  26
ATOM     26  O   UNL     1     -23.371  27.228  -6.867  1.00  0.00    -0.454 OA
BRANCH  26  27
ATOM     27  C   UNL     1     -24.479  27.834  -6.201  1.00  0.00     0.214 A 
ATOM     28  C   UNL     1     -24.735  29.222  -6.554  1.00  0.00     0.180 A 
ATOM     29  C   UNL     1     -25.560  26.944  -6.107  1.00  0.00     0.239 A 
ATOM     30  O   UNL     1     -25.761  29.151  -7.336  1.00  0.00    -0.452 OA
ATOM     31  C   UNL     1     -26.574  27.079  -7.127  1.00  0.00     0.111 A 
ATOM     32  O   UNL     1     -25.603  25.882  -5.326  1.00  0.00    -0.285 OA
ATOM     33  C   UNL     1     -26.354  28.097  -7.928  1.00  0.00     0.146 A 
ATOM     34  C   UNL     1     -27.726  26.246  -7.407  1.00  0.00     0.134 A 
ATOM     35  C   UNL     1     -26.766  28.081  -9.288  1.00  0.00     0.094 A 
ATOM     36  C   UNL     1     -28.368  26.387  -8.638  1.00  0.00     0.093 A 
ATOM     37  C   UNL     1     -27.634  27.086  -9.713  1.00  0.00     0.123 A 
BRANCH  28  38
ATOM     38  C   UNL     1     -23.754  30.608  -6.265  1.00  0.00     0.025 A 
ATOM     39  C   UNL     1     -22.678  30.896  -7.198  1.00  0.00     0.062 A 
ATOM     40  C   UNL     1     -23.520  31.333  -4.989  1.00  0.00     0.016 A 
ATOM     41  C   UNL     1     -21.659  31.775  -6.798  1.00  0.00     0.158 A 
ATOM     42  C   UNL     1     -23.091  32.600  -4.997  1.00  0.00     0.051 A 
ATOM     43  C   UNL     1     -21.915  32.808  -5.775  1.00  0.00     0.157 A 
BRANCH  41  44
ATOM     44  O   UNL     1     -20.379  31.668  -7.312  1.00  0.00    -0.504 OA
ATOM     45  H   UNL     1     -19.582  32.221  -6.873  1.00  0.00     0.293 HD
ENDBRANCH  41  44
BRANCH  43  46
ATOM     46  O   UNL     1     -20.999  33.790  -5.497  1.00  0.00    -0.504 OA
ATOM     47  H   UNL     1     -20.203  33.656  -4.812  1.00  0.00     0.293 HD
ENDBRANCH  43  46
ENDBRANCH  28  38
BRANCH  34  48
ATOM     48  O   UNL     1     -28.323  25.518  -6.412  1.00  0.00    -0.507 OA
ATOM     49  H   UNL     1     -29.185  25.768  -5.950  1.00  0.00     0.293 HD
ENDBRANCH  34  48
BRANCH  37  50
ATOM     50  O   UNL     1     -27.735  26.712 -11.105  1.00  0.00    -0.508 OA
ATOM     51  H   UNL     1     -27.921  27.364 -11.899  1.00  0.00     0.293 HD
ENDBRANCH  37  50
ENDBRANCH  26  27
ENDBRANCH   5  26
BRANCH   4  52
ATOM     52  O   UNL     1     -21.749  28.018  -8.660  1.00  0.00    -0.384 OA
ATOM     53  H   UNL     1     -21.562  28.784  -9.351  1.00  0.00     0.211 HD
ENDBRANCH   4  52
TORSDOF 16
ENDMDL
MODEL 8
REMARK VINA RESULT:    -6.551      2.254      6.371
REMARK INTER + INTRA:         -13.016
REMARK INTER:                 -10.009
REMARK INTRA:                  -3.007
REMARK UNBOUND:                -3.210
REMARK SMILES C[C@H]1O[C@H](OC[C@@H]2O[C@H](Oc3c(-c4ccc(O)c(O)c4)oc4cc(O)cc(O)c4c3=O)[C@H](O)[C@@H](O)[C@H]2O)[C@@H](O)[C@@H](O)[C@@H]1O
REMARK SMILES IDX 7 1 36 2 34 3 32 4 9 5 8 6 6 7 5 8 4 9 1 10 2 11 42 12 3 13
REMARK SMILES IDX 40 14 38 15 43 16 41 18 39 20 37 22 35 24 10 26 11 27 12 28
REMARK SMILES IDX 30 29 21 30 29 31 31 32 22 33 27 34 23 35 26 36 24 37 13 38
REMARK SMILES IDX 20 39 14 40 18 41 15 42 16 43 19 44 17 46 28 48 25 50 33 52
REMARK H PARENT 43 17 41 19 39 21 37 23 35 25 19 45 17 47 28 49 25 51 33 53
REMARK Flexibility Score: inf
ROOT
ATOM      1  C   UNL     1     -22.589  27.846  -6.601  1.00  0.00     0.180 C 
ATOM      2  C   UNL     1     -23.574  27.932  -7.908  1.00  0.00     0.177 C 
ATOM      3  C   UNL     1     -22.784  27.679  -9.356  1.00  0.00     0.180 C 
ATOM      4  C   UNL     1     -21.227  26.936  -9.556  1.00  0.00     0.214 C 
ATOM      5  C   UNL     1     -20.810  26.146  -8.188  1.00  0.00     0.339 C 
ATOM      6  O   UNL     1     -21.568  26.620  -6.836  1.00  0.00    -0.332 OA
ENDROOT
BRANCH   1   7
ATOM      7  C   UNL     1     -22.188  29.239  -5.532  1.00  0.00     0.198 C 
BRANCH   7   8
ATOM      8  O   UNL     1     -21.830  30.625  -5.864  1.00  0.00    -0.347 OA
BRANCH   8   9
ATOM      9  C   UNL     1     -20.393  30.968  -6.166  1.00  0.00     0.281 C 
ATOM     10  C   UNL     1     -18.811  31.796  -9.439  1.00  0.00     0.041 C 
ATOM     11  C   UNL     1     -18.906  32.211  -7.943  1.00  0.00     0.150 C 
ATOM     12  C   UNL     1     -17.870  31.541  -7.105  1.00  0.00     0.174 C 
ATOM     13  O   UNL     1     -20.283  31.901  -7.334  1.00  0.00    -0.344 OA
ATOM     14  C   UNL     1     -18.148  32.011  -5.605  1.00  0.00     0.179 C 
ATOM     15  C   UNL     1     -19.462  31.435  -4.933  1.00  0.00     0.202 C 
BRANCH  12  16
ATOM     16  O   UNL     1     -16.554  31.822  -7.548  1.00  0.00    -0.388 OA
ATOM     17  H   UNL     1     -16.528  31.823  -8.534  1.00  0.00     0.211 HD
ENDBRANCH  12  16
BRANCH  14  18
ATOM     18  O   UNL     1     -16.855  31.873  -4.919  1.00  0.00    -0.387 OA
ATOM     19  H   UNL     1     -16.208  31.324  -5.525  1.00  0.00     0.211 HD
ENDBRANCH  14  18
BRANCH  15  20
ATOM     20  O   UNL     1     -19.138  30.162  -4.187  1.00  0.00    -0.385 OA
ATOM     21  H   UNL     1     -19.967  29.804  -3.751  1.00  0.00     0.211 HD
ENDBRANCH  15  20
ENDBRANCH   8   9
ENDBRANCH   7   8
ENDBRANCH   1   7
BRANCH   2  22
ATOM     22  O   UNL     1     -24.559  26.965  -7.818  1.00  0.00    -0.387 OA
ATOM     23  H   UNL     1     -24.149  26.109  -7.407  1.00  0.00     0.211 HD
ENDBRANCH   2  22
BRANCH   3  24
ATOM     24  O   UNL     1     -23.642  26.849 -10.197  1.00  0.00    -0.387 OA
ATOM     25  H   UNL     1     -23.400  26.981 -11.132  1.00  0.00     0.211 HD
ENDBRANCH   3  24
BRANCH   5  26
ATOM     26  O   UNL     1     -19.360  26.260  -8.109  1.00  0.00    -0.454 OA
BRANCH  26  27
ATOM     27  C   UNL     1     -18.713  25.841  -6.907  1.00  0.00     0.214 A 
ATOM     28  C   UNL     1     -17.894  24.645  -7.025  1.00  0.00     0.180 A 
ATOM     29  C   UNL     1     -18.215  26.941  -6.193  1.00  0.00     0.239 A 
ATOM     30  O   UNL     1     -16.686  25.106  -7.038  1.00  0.00    -0.452 OA
ATOM     31  C   UNL     1     -16.818  27.244  -6.402  1.00  0.00     0.111 A 
ATOM     32  O   UNL     1     -18.953  27.826  -5.551  1.00  0.00    -0.285 OA
ATOM     33  C   UNL     1     -16.217  26.361  -7.166  1.00  0.00     0.146 A 
ATOM     34  C   UNL     1     -16.035  28.374  -5.944  1.00  0.00     0.134 A 
ATOM     35  C   UNL     1     -15.130  26.718  -8.009  1.00  0.00     0.094 A 
ATOM     36  C   UNL     1     -14.799  28.616  -6.545  1.00  0.00     0.093 A 
ATOM     37  C   UNL     1     -14.530  27.957  -7.839  1.00  0.00     0.123 A 
BRANCH  28  38
ATOM     38  C   UNL     1     -18.383  23.030  -7.368  1.00  0.00     0.025 A 
ATOM     39  C   UNL     1     -19.733  22.629  -7.012  1.00  0.00     0.062 A 
ATOM     40  C   UNL     1     -17.537  21.824  -7.570  1.00  0.00     0.016 A 
ATOM     41  C   UNL     1     -20.030  21.259  -6.938  1.00  0.00     0.158 A 
ATOM     42  C   UNL     1     -18.014  20.763  -8.229  1.00  0.00     0.051 A 
ATOM     43  C   UNL     1     -19.256  20.278  -7.725  1.00  0.00     0.157 A 
BRANCH  41  44
ATOM     44  O   UNL     1     -21.018  20.784  -6.095  1.00  0.00    -0.504 OA
ATOM     45  H   UNL     1     -21.433  21.422  -5.350  1.00  0.00     0.293 HD
ENDBRANCH  41  44
BRANCH  43  46
ATOM     46  O   UNL     1     -19.637  18.963  -7.813  1.00  0.00    -0.504 OA
ATOM     47  H   UNL     1     -20.532  18.654  -8.288  1.00  0.00     0.293 HD
ENDBRANCH  43  46
ENDBRANCH  28  38
BRANCH  34  48
ATOM     48  O   UNL     1     -16.372  29.042  -4.796  1.00  0.00    -0.507 OA
ATOM     49  H   UNL     1     -16.296  28.663  -3.863  1.00  0.00     0.293 HD
ENDBRANCH  34  48
BRANCH  37  50
ATOM     50  O   UNL     1     -13.770  28.583  -8.898  1.00  0.00    -0.508 OA
ATOM     51  H   UNL     1     -14.172  29.056  -9.737  1.00  0.00     0.293 HD
ENDBRANCH  37  50
ENDBRANCH  26  27
ENDBRANCH   5  26
BRANCH   4  52
ATOM     52  O   UNL     1     -20.052  27.571 -10.176  1.00  0.00    -0.384 OA
ATOM     53  H   UNL     1     -20.017  27.934 -11.159  1.00  0.00     0.211 HD
ENDBRANCH   4  52
TORSDOF 16
ENDMDL
MODEL 9
REMARK VINA RESULT:    -6.517      2.869      8.784
REMARK INTER + INTRA:         -12.965
REMARK INTER:                 -10.695
REMARK INTRA:                  -2.270
REMARK UNBOUND:                -3.210
REMARK SMILES C[C@H]1O[C@H](OC[C@@H]2O[C@H](Oc3c(-c4ccc(O)c(O)c4)oc4cc(O)cc(O)c4c3=O)[C@H](O)[C@@H](O)[C@H]2O)[C@@H](O)[C@@H](O)[C@@H]1O
REMARK SMILES IDX 7 1 36 2 34 3 32 4 9 5 8 6 6 7 5 8 4 9 1 10 2 11 42 12 3 13
REMARK SMILES IDX 40 14 38 15 43 16 41 18 39 20 37 22 35 24 10 26 11 27 12 28
REMARK SMILES IDX 30 29 21 30 29 31 31 32 22 33 27 34 23 35 26 36 24 37 13 38
REMARK SMILES IDX 20 39 14 40 18 41 15 42 16 43 19 44 17 46 28 48 25 50 33 52
REMARK H PARENT 43 17 41 19 39 21 37 23 35 25 19 45 17 47 28 49 25 51 33 53
REMARK Flexibility Score: inf
ROOT
ATOM      1  C   UNL     1     -23.475  26.699  -8.350  1.00  0.00     0.180 C 
ATOM      2  C   UNL     1     -24.890  26.284  -7.634  1.00  0.00     0.177 C 
ATOM      3  C   UNL     1     -25.474  27.444  -6.587  1.00  0.00     0.180 C 
ATOM      4  C   UNL     1     -24.996  29.113  -6.540  1.00  0.00     0.214 C 
ATOM      5  C   UNL     1     -24.202  29.502  -7.915  1.00  0.00     0.339 C 
ATOM      6  O   UNL     1     -23.563  28.262  -8.739  1.00  0.00    -0.332 OA
ENDROOT
BRANCH   1   7
ATOM      7  C   UNL     1     -21.904  25.867  -8.063  1.00  0.00     0.198 C 
BRANCH   7   8
ATOM      8  O   UNL     1     -21.515  24.886  -7.040  1.00  0.00    -0.347 OA
BRANCH   8   9
ATOM      9  C   UNL     1     -20.054  24.667  -6.741  1.00  0.00     0.281 C 
ATOM     10  C   UNL     1     -17.908  21.723  -7.533  1.00  0.00     0.041 C 
ATOM     11  C   UNL     1     -17.976  23.276  -7.554  1.00  0.00     0.150 C 
ATOM     12  C   UNL     1     -17.454  23.881  -6.296  1.00  0.00     0.174 C 
ATOM     13  O   UNL     1     -19.404  23.799  -7.776  1.00  0.00    -0.344 OA
ATOM     14  C   UNL     1     -17.659  25.457  -6.448  1.00  0.00     0.179 C 
ATOM     15  C   UNL     1     -19.158  25.965  -6.399  1.00  0.00     0.202 C 
BRANCH  12  16
ATOM     16  O   UNL     1     -16.110  23.511  -6.036  1.00  0.00    -0.388 OA
ATOM     17  H   UNL     1     -15.948  22.595  -6.364  1.00  0.00     0.211 HD
ENDBRANCH  12  16
BRANCH  14  18
ATOM     18  O   UNL     1     -16.653  26.058  -5.560  1.00  0.00    -0.387 OA
ATOM     19  H   UNL     1     -17.130  26.715  -4.905  1.00  0.00     0.211 HD
ENDBRANCH  14  18
BRANCH  15  20
ATOM     20  O   UNL     1     -19.527  26.328  -4.979  1.00  0.00    -0.385 OA
ATOM     21  H   UNL     1     -19.197  25.618  -4.351  1.00  0.00     0.211 HD
ENDBRANCH  15  20
ENDBRANCH   8   9
ENDBRANCH   7   8
ENDBRANCH   1   7
BRANCH   2  22
ATOM     22  O   UNL     1     -25.864  26.091  -8.598  1.00  0.00    -0.387 OA
ATOM     23  H   UNL     1     -25.742  25.151  -9.011  1.00  0.00     0.211 HD
ENDBRANCH   2  22
BRANCH   3  24
ATOM     24  O   UNL     1     -26.919  27.534  -6.776  1.00  0.00    -0.387 OA
ATOM     25  H   UNL     1     -27.315  26.653  -6.645  1.00  0.00     0.211 HD
ENDBRANCH   3  24
BRANCH   5  26
ATOM     26  O   UNL     1     -23.220  30.502  -7.518  1.00  0.00    -0.454 OA
BRANCH  26  27
ATOM     27  C   UNL     1     -21.865  30.318  -7.928  1.00  0.00     0.214 A 
ATOM     28  C   UNL     1     -21.363  31.302  -8.876  1.00  0.00     0.180 A 
ATOM     29  C   UNL     1     -21.057  29.940  -6.846  1.00  0.00     0.239 A 
ATOM     30  O   UNL     1     -20.617  32.067  -8.150  1.00  0.00    -0.452 OA
ATOM     31  C   UNL     1     -20.329  31.009  -6.202  1.00  0.00     0.111 A 
ATOM     32  O   UNL     1     -21.091  28.765  -6.248  1.00  0.00    -0.285 OA
ATOM     33  C   UNL     1     -20.478  32.162  -6.814  1.00  0.00     0.146 A 
ATOM     34  C   UNL     1     -19.534  30.993  -4.992  1.00  0.00     0.134 A 
ATOM     35  C   UNL     1     -20.436  33.395  -6.107  1.00  0.00     0.094 A 
ATOM     36  C   UNL     1     -19.206  32.210  -4.393  1.00  0.00     0.093 A 
ATOM     37  C   UNL     1     -19.983  33.399  -4.796  1.00  0.00     0.123 A 
BRANCH  28  38
ATOM     38  C   UNL     1     -21.857  31.586 -10.501  1.00  0.00     0.025 A 
ATOM     39  C   UNL     1     -21.627  30.541 -11.484  1.00  0.00     0.062 A 
ATOM     40  C   UNL     1     -22.085  32.883 -11.191  1.00  0.00     0.016 A 
ATOM     41  C   UNL     1     -21.675  30.877 -12.846  1.00  0.00     0.158 A 
ATOM     42  C   UNL     1     -22.852  32.944 -12.285  1.00  0.00     0.051 A 
ATOM     43  C   UNL     1     -22.473  32.028 -13.310  1.00  0.00     0.157 A 
BRANCH  41  44
ATOM     44  O   UNL     1     -20.940  30.173 -13.783  1.00  0.00    -0.504 OA
ATOM     45  H   UNL     1     -20.239  29.438 -13.465  1.00  0.00     0.293 HD
ENDBRANCH  41  44
BRANCH  43  46
ATOM     46  O   UNL     1     -22.683  32.270 -14.643  1.00  0.00    -0.504 OA
ATOM     47  H   UNL     1     -21.946  32.092 -15.383  1.00  0.00     0.293 HD
ENDBRANCH  43  46
ENDBRANCH  28  38
BRANCH  34  48
ATOM     48  O   UNL     1     -18.912  29.845  -4.577  1.00  0.00    -0.507 OA
ATOM     49  H   UNL     1     -19.296  29.187  -3.914  1.00  0.00     0.293 HD
ENDBRANCH  34  48
BRANCH  37  50
ATOM     50  O   UNL     1     -20.331  34.460  -3.878  1.00  0.00    -0.508 OA
ATOM     51  H   UNL     1     -19.656  35.022  -3.314  1.00  0.00     0.293 HD
ENDBRANCH  37  50
ENDBRANCH  26  27
ENDBRANCH   5  26
BRANCH   4  52
ATOM     52  O   UNL     1     -24.403  29.798  -5.379  1.00  0.00    -0.384 OA
ATOM     53  H   UNL     1     -24.931  30.084  -4.519  1.00  0.00     0.211 HD
ENDBRANCH   4  52
TORSDOF 16
ENDMDL
