MODEL 1
REMARK VINA RESULT:    -8.049      0.000      0.000
REMARK INTER + INTRA:          -8.973
REMARK INTER:                  -8.755
REMARK INTRA:                  -0.219
REMARK UNBOUND:                -0.219
REMARK SMILES CC(=O)[C@H]1CC[C@H]2[C@@H]3CC=C4C[C@H](O)CC[C@]4(C)[C@H]3CC[C@]12C
REMARK SMILES IDX 4 1 5 2 6 3 7 4 22 5 21 6 20 7 19 8 8 9 9 10 10 11 11 12
REMARK SMILES IDX 17 13 16 14 15 15 13 16 12 17 18 18 23 19 2 20 1 21 3 22
REMARK SMILES IDX 14 23
REMARK H PARENT 14 24
REMARK Flexibility Score: inf
ROOT
ATOM      1  C   UNL     1      10.487   9.913  -6.623  1.00  0.00     0.062 C 
ATOM      2  C   UNL     1       9.683  10.920  -5.744  1.00  0.00     0.012 C 
ATOM      3  C   UNL     1       9.016  10.109  -4.623  1.00  0.00     0.005 C 
ATOM      4  C   UNL     1       9.717   8.756  -4.692  1.00  0.00    -0.001 C 
ATOM      5  C   UNL     1       9.970   8.507  -6.187  1.00  0.00    -0.020 C 
ATOM      6  C   UNL     1      11.015   7.361  -6.282  1.00  0.00     0.008 C 
ATOM      7  C   UNL     1      10.552   6.089  -5.528  1.00  0.00     0.005 C 
ATOM      8  C   UNL     1      10.077   6.352  -4.059  1.00  0.00     0.003 C 
ATOM      9  C   UNL     1       9.081   7.547  -3.970  1.00  0.00     0.000 C 
ATOM     10  C   UNL     1       8.807   7.887  -2.499  1.00  0.00     0.031 C 
ATOM     11  C   UNL     1       8.512   6.681  -1.657  1.00  0.00    -0.027 C 
ATOM     12  C   UNL     1       8.944   5.439  -1.947  1.00  0.00    -0.065 C 
ATOM     13  C   UNL     1       9.519   5.069  -3.326  1.00  0.00    -0.008 C 
ATOM     14  C   UNL     1      10.694   4.059  -3.119  1.00  0.00     0.014 C 
ATOM     15  C   UNL     1      10.350   2.895  -2.177  1.00  0.00     0.033 C 
ATOM     16  C   UNL     1       9.889   3.399  -0.803  1.00  0.00     0.118 C 
ATOM     17  C   UNL     1       8.677   4.332  -0.942  1.00  0.00     0.063 C 
ATOM     18  C   UNL     1       8.393   4.387  -4.153  1.00  0.00     0.016 C 
ATOM     19  C   UNL     1       8.677   8.130  -6.984  1.00  0.00     0.012 C 
ENDROOT
BRANCH   1  20
ATOM     20  C   UNL     1      10.427  10.220  -8.119  1.00  0.00     0.133 C 
ATOM     21  C   UNL     1      11.409   9.620  -9.077  1.00  0.00     0.088 C 
ATOM     22  O   UNL     1       9.600  11.020  -8.565  1.00  0.00    -0.300 OA
ENDBRANCH   1  20
BRANCH  16  23
ATOM     23  O   UNL     1      10.947   4.073  -0.166  1.00  0.00    -0.393 OA
ATOM     24  H   UNL     1      11.483   3.388   0.311  1.00  0.00     0.210 HD
ENDBRANCH  16  23
TORSDOF 2
ENDMDL
MODEL 2
REMARK VINA RESULT:    -7.220      1.225      7.121
REMARK INTER + INTRA:          -8.071
REMARK INTER:                  -8.028
REMARK INTRA:                  -0.044
REMARK UNBOUND:                -0.219
REMARK SMILES CC(=O)[C@H]1CC[C@H]2[C@@H]3CC=C4C[C@H](O)CC[C@]4(C)[C@H]3CC[C@]12C
REMARK SMILES IDX 4 1 5 2 6 3 7 4 22 5 21 6 20 7 19 8 8 9 9 10 10 11 11 12
REMARK SMILES IDX 17 13 16 14 15 15 13 16 12 17 18 18 23 19 2 20 1 21 3 22
REMARK SMILES IDX 14 23
REMARK H PARENT 14 24
REMARK Flexibility Score: inf
ROOT
ATOM      1  C   UNL     1      10.332   4.680  -1.479  1.00  0.00     0.062 C 
ATOM      2  C   UNL     1      11.057   3.577  -2.309  1.00  0.00     0.012 C 
ATOM      3  C   UNL     1      11.121   4.073  -3.762  1.00  0.00     0.005 C 
ATOM      4  C   UNL     1      10.749   5.548  -3.654  1.00  0.00    -0.001 C 
ATOM      5  C   UNL     1       9.688   5.619  -2.546  1.00  0.00    -0.020 C 
ATOM      6  C   UNL     1       9.571   7.110  -2.129  1.00  0.00     0.008 C 
ATOM      7  C   UNL     1       9.246   8.027  -3.335  1.00  0.00     0.005 C 
ATOM      8  C   UNL     1      10.186   7.818  -4.571  1.00  0.00     0.003 C 
ATOM      9  C   UNL     1      10.346   6.312  -4.936  1.00  0.00     0.000 C 
ATOM     10  C   UNL     1      11.426   6.152  -6.014  1.00  0.00     0.031 C 
ATOM     11  C   UNL     1      11.280   7.123  -7.149  1.00  0.00    -0.027 C 
ATOM     12  C   UNL     1      10.672   8.320  -7.038  1.00  0.00    -0.065 C 
ATOM     13  C   UNL     1       9.793   8.688  -5.829  1.00  0.00    -0.008 C 
ATOM     14  C   UNL     1      10.024  10.196  -5.488  1.00  0.00     0.014 C 
ATOM     15  C   UNL     1       9.945  11.125  -6.710  1.00  0.00     0.033 C 
ATOM     16  C   UNL     1      10.943  10.710  -7.798  1.00  0.00     0.118 C 
ATOM     17  C   UNL     1      10.705   9.256  -8.233  1.00  0.00     0.063 C 
ATOM     18  C   UNL     1       8.306   8.470  -6.228  1.00  0.00     0.016 C 
ATOM     19  C   UNL     1       8.290   5.066  -2.984  1.00  0.00     0.012 C 
ENDROOT
BRANCH   1  20
ATOM     20  C   UNL     1       9.390   4.125  -0.411  1.00  0.00     0.133 C 
ATOM     21  C   UNL     1       8.545   5.031   0.429  1.00  0.00     0.088 C 
ATOM     22  O   UNL     1       9.349   2.914  -0.176  1.00  0.00    -0.300 OA
ENDBRANCH   1  20
BRANCH  16  23
ATOM     23  O   UNL     1      12.257  10.860  -7.318  1.00  0.00    -0.393 OA
ATOM     24  H   UNL     1      12.768  10.062  -7.613  1.00  0.00     0.210 HD
ENDBRANCH  16  23
TORSDOF 2
ENDMDL
MODEL 3
REMARK VINA RESULT:    -7.177      1.557      6.794
REMARK INTER + INTRA:          -8.025
REMARK INTER:                  -8.062
REMARK INTRA:                   0.038
REMARK UNBOUND:                -0.219
REMARK SMILES CC(=O)[C@H]1CC[C@H]2[C@@H]3CC=C4C[C@H](O)CC[C@]4(C)[C@H]3CC[C@]12C
REMARK SMILES IDX 4 1 5 2 6 3 7 4 22 5 21 6 20 7 19 8 8 9 9 10 10 11 11 12
REMARK SMILES IDX 17 13 16 14 15 15 13 16 12 17 18 18 23 19 2 20 1 21 3 22
REMARK SMILES IDX 14 23
REMARK H PARENT 14 24
REMARK Flexibility Score: inf
ROOT
ATOM      1  C   UNL     1       9.246   4.495  -1.879  1.00  0.00     0.062 C 
ATOM      2  C   UNL     1       8.569   5.256  -0.698  1.00  0.00     0.012 C 
ATOM      3  C   UNL     1       8.297   6.688  -1.181  1.00  0.00     0.005 C 
ATOM      4  C   UNL     1       8.506   6.605  -2.689  1.00  0.00    -0.001 C 
ATOM      5  C   UNL     1       9.663   5.613  -2.883  1.00  0.00    -0.020 C 
ATOM      6  C   UNL     1       9.651   5.195  -4.379  1.00  0.00     0.008 C 
ATOM      7  C   UNL     1       9.741   6.419  -5.326  1.00  0.00     0.005 C 
ATOM      8  C   UNL     1       8.707   7.552  -5.008  1.00  0.00     0.003 C 
ATOM      9  C   UNL     1       8.682   7.914  -3.493  1.00  0.00     0.000 C 
ATOM     10  C   UNL     1       7.522   8.876  -3.207  1.00  0.00     0.031 C 
ATOM     11  C   UNL     1       7.436  10.009  -4.187  1.00  0.00    -0.027 C 
ATOM     12  C   UNL     1       7.911   9.950  -5.446  1.00  0.00    -0.065 C 
ATOM     13  C   UNL     1       8.863   8.835  -5.914  1.00  0.00    -0.008 C 
ATOM     14  C   UNL     1       8.499   8.457  -7.386  1.00  0.00     0.014 C 
ATOM     15  C   UNL     1       8.342   9.670  -8.316  1.00  0.00     0.033 C 
ATOM     16  C   UNL     1       7.290  10.653  -7.787  1.00  0.00     0.118 C 
ATOM     17  C   UNL     1       7.646  11.125  -6.370  1.00  0.00     0.063 C 
ATOM     18  C   UNL     1      10.316   9.389  -5.869  1.00  0.00     0.016 C 
ATOM     19  C   UNL     1      11.061   6.200  -2.495  1.00  0.00     0.012 C 
ENDROOT
BRANCH   1  20
ATOM     20  C   UNL     1      10.351   3.536  -1.438  1.00  0.00     0.133 C 
ATOM     21  C   UNL     1      11.246   2.867  -2.435  1.00  0.00     0.088 C 
ATOM     22  O   UNL     1      10.495   3.246  -0.247  1.00  0.00    -0.300 OA
ENDBRANCH   1  20
BRANCH  16  23
ATOM     23  O   UNL     1       6.024  10.037  -7.787  1.00  0.00    -0.393 OA
ATOM     24  H   UNL     1       6.111   9.194  -7.269  1.00  0.00     0.210 HD
ENDBRANCH  16  23
TORSDOF 2
ENDMDL
MODEL 4
REMARK VINA RESULT:    -5.299     10.741     12.241
REMARK INTER + INTRA:          -5.982
REMARK INTER:                  -5.769
REMARK INTRA:                  -0.213
REMARK UNBOUND:                -0.219
REMARK SMILES CC(=O)[C@H]1CC[C@H]2[C@@H]3CC=C4C[C@H](O)CC[C@]4(C)[C@H]3CC[C@]12C
REMARK SMILES IDX 4 1 5 2 6 3 7 4 22 5 21 6 20 7 19 8 8 9 9 10 10 11 11 12
REMARK SMILES IDX 17 13 16 14 15 15 13 16 12 17 18 18 23 19 2 20 1 21 3 22
REMARK SMILES IDX 14 23
REMARK H PARENT 14 24
REMARK Flexibility Score: inf
ROOT
ATOM      1  C   UNL     1       2.424   8.920  -4.435  1.00  0.00     0.062 C 
ATOM      2  C   UNL     1       2.299   8.724  -2.893  1.00  0.00     0.012 C 
ATOM      3  C   UNL     1       0.819   8.919  -2.531  1.00  0.00     0.005 C 
ATOM      4  C   UNL     1       0.111   8.881  -3.882  1.00  0.00    -0.001 C 
ATOM      5  C   UNL     1       1.072   9.571  -4.862  1.00  0.00    -0.020 C 
ATOM      6  C   UNL     1       0.589   9.210  -6.294  1.00  0.00     0.008 C 
ATOM      7  C   UNL     1      -0.892   9.603  -6.524  1.00  0.00     0.005 C 
ATOM      8  C   UNL     1      -1.871   9.094  -5.411  1.00  0.00     0.003 C 
ATOM      9  C   UNL     1      -1.341   9.403  -3.979  1.00  0.00     0.000 C 
ATOM     10  C   UNL     1      -2.228   8.711  -2.936  1.00  0.00     0.031 C 
ATOM     11  C   UNL     1      -3.695   8.905  -3.184  1.00  0.00    -0.027 C 
ATOM     12  C   UNL     1      -4.225   9.155  -4.397  1.00  0.00    -0.065 C 
ATOM     13  C   UNL     1      -3.363   9.575  -5.600  1.00  0.00    -0.008 C 
ATOM     14  C   UNL     1      -3.946   8.905  -6.887  1.00  0.00     0.014 C 
ATOM     15  C   UNL     1      -5.467   9.069  -7.033  1.00  0.00     0.033 C 
ATOM     16  C   UNL     1      -6.213   8.517  -5.812  1.00  0.00     0.118 C 
ATOM     17  C   UNL     1      -5.737   9.205  -4.524  1.00  0.00     0.063 C 
ATOM     18  C   UNL     1      -3.447  11.121  -5.740  1.00  0.00     0.016 C 
ATOM     19  C   UNL     1       1.135  11.125  -4.686  1.00  0.00     0.012 C 
ENDROOT
BRANCH   1  20
ATOM     20  C   UNL     1       3.692   9.660  -4.859  1.00  0.00     0.133 C 
ATOM     21  C   UNL     1       4.587  10.313  -3.852  1.00  0.00     0.088 C 
ATOM     22  O   UNL     1       3.978   9.786  -6.053  1.00  0.00    -0.300 OA
ENDBRANCH   1  20
BRANCH  16  23
ATOM     23  O   UNL     1      -6.010   7.128  -5.720  1.00  0.00    -0.393 OA
ATOM     24  H   UNL     1      -6.864   6.691  -5.978  1.00  0.00     0.210 HD
ENDBRANCH  16  23
TORSDOF 2
ENDMDL
MODEL 5
REMARK VINA RESULT:    -5.296     14.064     16.012
REMARK INTER + INTRA:          -5.979
REMARK INTER:                  -5.762
REMARK INTRA:                  -0.217
REMARK UNBOUND:                -0.219
REMARK SMILES CC(=O)[C@H]1CC[C@H]2[C@@H]3CC=C4C[C@H](O)CC[C@]4(C)[C@H]3CC[C@]12C
REMARK SMILES IDX 4 1 5 2 6 3 7 4 22 5 21 6 20 7 19 8 8 9 9 10 10 11 11 12
REMARK SMILES IDX 17 13 16 14 15 15 13 16 12 17 18 18 23 19 2 20 1 21 3 22
REMARK SMILES IDX 14 23
REMARK H PARENT 14 24
REMARK Flexibility Score: inf
ROOT
ATOM      1  C   UNL     1      -1.917   0.945  -9.145  1.00  0.00     0.062 C 
ATOM      2  C   UNL     1      -3.401   1.035  -8.674  1.00  0.00     0.012 C 
ATOM      3  C   UNL     1      -3.924  -0.404  -8.551  1.00  0.00     0.005 C 
ATOM      4  C   UNL     1      -2.659  -1.253  -8.621  1.00  0.00    -0.001 C 
ATOM      5  C   UNL     1      -1.741  -0.531  -9.619  1.00  0.00    -0.020 C 
ATOM      6  C   UNL     1      -0.317  -1.119  -9.429  1.00  0.00     0.008 C 
ATOM      7  C   UNL     1      -0.297  -2.660  -9.598  1.00  0.00     0.005 C 
ATOM      8  C   UNL     1      -1.379  -3.411  -8.749  1.00  0.00     0.003 C 
ATOM      9  C   UNL     1      -2.790  -2.768  -8.898  1.00  0.00     0.000 C 
ATOM     10  C   UNL     1      -3.762  -3.411  -7.900  1.00  0.00     0.031 C 
ATOM     11  C   UNL     1      -3.687  -4.909  -7.881  1.00  0.00    -0.027 C 
ATOM     12  C   UNL     1      -2.594  -5.611  -8.238  1.00  0.00    -0.065 C 
ATOM     13  C   UNL     1      -1.417  -4.971  -8.995  1.00  0.00    -0.008 C 
ATOM     14  C   UNL     1      -0.086  -5.594  -8.463  1.00  0.00     0.014 C 
ATOM     15  C   UNL     1      -0.110  -7.129  -8.388  1.00  0.00     0.033 C 
ATOM     16  C   UNL     1      -1.269  -7.633  -7.520  1.00  0.00     0.118 C 
ATOM     17  C   UNL     1      -2.614  -7.117  -8.051  1.00  0.00     0.063 C 
ATOM     18  C   UNL     1      -1.575  -5.304 -10.506  1.00  0.00     0.016 C 
ATOM     19  C   UNL     1      -2.197  -0.683 -11.109  1.00  0.00     0.012 C 
ENDROOT
BRANCH   1  20
ATOM     20  C   UNL     1      -1.526   2.028 -10.150  1.00  0.00     0.133 C 
ATOM     21  C   UNL     1      -0.092   2.367 -10.412  1.00  0.00     0.088 C 
ATOM     22  O   UNL     1      -2.391   2.692 -10.729  1.00  0.00    -0.300 OA
ENDBRANCH   1  20
BRANCH  16  23
ATOM     23  O   UNL     1      -1.083  -7.213  -6.190  1.00  0.00    -0.393 OA
ATOM     24  H   UNL     1      -1.354  -7.969  -5.605  1.00  0.00     0.210 HD
ENDBRANCH  16  23
TORSDOF 2
ENDMDL
MODEL 6
REMARK VINA RESULT:    -5.233      1.444      2.820
REMARK INTER + INTRA:          -5.911
REMARK INTER:                  -5.738
REMARK INTRA:                  -0.172
REMARK UNBOUND:                -0.219
REMARK SMILES CC(=O)[C@H]1CC[C@H]2[C@@H]3CC=C4C[C@H](O)CC[C@]4(C)[C@H]3CC[C@]12C
REMARK SMILES IDX 4 1 5 2 6 3 7 4 22 5 21 6 20 7 19 8 8 9 9 10 10 11 11 12
REMARK SMILES IDX 17 13 16 14 15 15 13 16 12 17 18 18 23 19 2 20 1 21 3 22
REMARK SMILES IDX 14 23
REMARK H PARENT 14 24
REMARK Flexibility Score: inf
ROOT
ATOM      1  C   UNL     1       9.040   8.966  -7.814  1.00  0.00     0.062 C 
ATOM      2  C   UNL     1      10.456   8.684  -8.405  1.00  0.00     0.012 C 
ATOM      3  C   UNL     1      11.259   7.947  -7.322  1.00  0.00     0.005 C 
ATOM      4  C   UNL     1      10.199   7.540  -6.303  1.00  0.00    -0.001 C 
ATOM      5  C   UNL     1       9.189   8.697  -6.284  1.00  0.00    -0.020 C 
ATOM      6  C   UNL     1       7.910   8.168  -5.580  1.00  0.00     0.008 C 
ATOM      7  C   UNL     1       8.214   7.609  -4.167  1.00  0.00     0.005 C 
ATOM      8  C   UNL     1       9.396   6.581  -4.125  1.00  0.00     0.003 C 
ATOM      9  C   UNL     1      10.649   7.098  -4.892  1.00  0.00     0.000 C 
ATOM     10  C   UNL     1      11.695   5.980  -4.992  1.00  0.00     0.031 C 
ATOM     11  C   UNL     1      11.929   5.270  -3.691  1.00  0.00    -0.027 C 
ATOM     12  C   UNL     1      11.018   5.195  -2.702  1.00  0.00    -0.065 C 
ATOM     13  C   UNL     1       9.763   6.085  -2.671  1.00  0.00    -0.008 C 
ATOM     14  C   UNL     1       8.570   5.243  -2.113  1.00  0.00     0.014 C 
ATOM     15  C   UNL     1       8.906   4.474  -0.825  1.00  0.00     0.033 C 
ATOM     16  C   UNL     1      10.112   3.546  -1.022  1.00  0.00     0.118 C 
ATOM     17  C   UNL     1      11.340   4.339  -1.490  1.00  0.00     0.063 C 
ATOM     18  C   UNL     1      10.041   7.281  -1.717  1.00  0.00     0.016 C 
ATOM     19  C   UNL     1       9.720   9.977  -5.555  1.00  0.00     0.012 C 
ENDROOT
BRANCH   1  20
ATOM     20  C   UNL     1       8.472  10.329  -8.208  1.00  0.00     0.133 C 
ATOM     21  C   UNL     1       7.066  10.714  -7.868  1.00  0.00     0.088 C 
ATOM     22  O   UNL     1       9.145  11.125  -8.869  1.00  0.00    -0.300 OA
ENDBRANCH   1  20
BRANCH  16  23
ATOM     23  O   UNL     1       9.794   2.549  -1.962  1.00  0.00    -0.393 OA
ATOM     24  H   UNL     1      10.265   2.782  -2.804  1.00  0.00     0.210 HD
ENDBRANCH  16  23
TORSDOF 2
ENDMDL
MODEL 7
REMARK VINA RESULT:    -5.197     14.197     17.203
REMARK INTER + INTRA:          -5.871
REMARK INTER:                  -5.655
REMARK INTRA:                  -0.216
REMARK UNBOUND:                -0.219
REMARK SMILES CC(=O)[C@H]1CC[C@H]2[C@@H]3CC=C4C[C@H](O)CC[C@]4(C)[C@H]3CC[C@]12C
REMARK SMILES IDX 4 1 5 2 6 3 7 4 22 5 21 6 20 7 19 8 8 9 9 10 10 11 11 12
REMARK SMILES IDX 17 13 16 14 15 15 13 16 12 17 18 18 23 19 2 20 1 21 3 22
REMARK SMILES IDX 14 23
REMARK H PARENT 14 24
REMARK Flexibility Score: inf
ROOT
ATOM      1  C   UNL     1       0.597  -6.934  -7.683  1.00  0.00     0.062 C 
ATOM      2  C   UNL     1       2.025  -6.311  -7.746  1.00  0.00     0.012 C 
ATOM      3  C   UNL     1       1.877  -4.900  -8.334  1.00  0.00     0.005 C 
ATOM      4  C   UNL     1       0.375  -4.640  -8.270  1.00  0.00    -0.001 C 
ATOM      5  C   UNL     1      -0.284  -5.996  -8.564  1.00  0.00    -0.020 C 
ATOM      6  C   UNL     1      -1.769  -5.880  -8.124  1.00  0.00     0.008 C 
ATOM      7  C   UNL     1      -2.489  -4.695  -8.817  1.00  0.00     0.005 C 
ATOM      8  C   UNL     1      -1.723  -3.333  -8.719  1.00  0.00     0.003 C 
ATOM      9  C   UNL     1      -0.219  -3.478  -9.099  1.00  0.00     0.000 C 
ATOM     10  C   UNL     1       0.524  -2.171  -8.793  1.00  0.00     0.031 C 
ATOM     11  C   UNL     1      -0.196  -0.951  -9.289  1.00  0.00    -0.027 C 
ATOM     12  C   UNL     1      -1.529  -0.891  -9.479  1.00  0.00    -0.065 C 
ATOM     13  C   UNL     1      -2.413  -2.150  -9.505  1.00  0.00    -0.008 C 
ATOM     14  C   UNL     1      -3.774  -1.816  -8.813  1.00  0.00     0.014 C 
ATOM     15  C   UNL     1      -4.414  -0.509  -9.308  1.00  0.00     0.033 C 
ATOM     16  C   UNL     1      -3.467   0.685  -9.130  1.00  0.00     0.118 C 
ATOM     17  C   UNL     1      -2.140   0.444  -9.864  1.00  0.00     0.063 C 
ATOM     18  C   UNL     1      -2.669  -2.530 -10.991  1.00  0.00     0.016 C 
ATOM     19  C   UNL     1      -0.194  -6.419 -10.068  1.00  0.00     0.012 C 
ENDROOT
BRANCH   1  20
ATOM     20  C   UNL     1       0.560  -8.421  -8.033  1.00  0.00     0.133 C 
ATOM     21  C   UNL     1       1.743  -9.108  -8.641  1.00  0.00     0.088 C 
ATOM     22  O   UNL     1      -0.472  -9.079  -7.876  1.00  0.00    -0.300 OA
ENDBRANCH   1  20
BRANCH  16  23
ATOM     23  O   UNL     1      -3.228   0.899  -7.760  1.00  0.00    -0.393 OA
ATOM     24  H   UNL     1      -2.748   1.765  -7.680  1.00  0.00     0.210 HD
ENDBRANCH  16  23
TORSDOF 2
ENDMDL
