MODEL 1
REMARK VINA RESULT:    -3.970      0.000      0.000
REMARK INTER + INTRA:          -4.911
REMARK INTER:                  -4.782
REMARK INTRA:                  -0.129
REMARK UNBOUND:                -0.129
REMARK SMILES CC[C@@H](C)[C@H]([NH3+])C(=O)[O-]
REMARK SMILES IDX 3 1 4 2 5 3 6 4 7 8 8 9 9 10 2 11 1 12
REMARK H PARENT 6 5 6 6 6 7
REMARK Flexibility Score: inf
ROOT
ATOM      1  C   UNL     1      24.596  14.256  -4.103  1.00  0.00     0.050 C 
ATOM      2  C   UNL     1      23.925  13.049  -4.787  1.00  0.00     0.014 C 
ENDROOT
BRANCH   1   3
ATOM      3  C   UNL     1      25.872  13.860  -3.297  1.00  0.00     0.230 C 
BRANCH   3   4
ATOM      4  N   UNL     1      25.786  12.512  -2.712  1.00  0.00    -0.350 N 
ATOM      5  H   UNL     1      24.978  12.473  -2.048  1.00  0.00     0.345 HD
ATOM      6  H   UNL     1      25.647  11.784  -3.449  1.00  0.00     0.345 HD
ATOM      7  H   UNL     1      26.651  12.295  -2.169  1.00  0.00     0.345 HD
ENDBRANCH   3   4
BRANCH   3   8
ATOM      8  C   UNL     1      26.191  14.892  -2.242  1.00  0.00     0.099 C 
ATOM      9  O   UNL     1      25.286  15.360  -1.501  1.00  0.00    -0.544 OA
ATOM     10  O   UNL     1      27.491  15.367  -2.115  1.00  0.00    -0.544 OA
ENDBRANCH   3   8
ENDBRANCH   1   3
BRANCH   1  11
ATOM     11  C   UNL     1      24.904  15.380  -5.125  1.00  0.00     0.006 C 
ATOM     12  C   UNL     1      24.240  16.709  -4.762  1.00  0.00     0.004 C 
ENDBRANCH   1  11
TORSDOF 4
ENDMDL
MODEL 2
REMARK VINA RESULT:    -3.643      1.797      2.429
REMARK INTER + INTRA:          -4.518
REMARK INTER:                  -4.411
REMARK INTRA:                  -0.107
REMARK UNBOUND:                -0.129
REMARK SMILES CC[C@@H](C)[C@H]([NH3+])C(=O)[O-]
REMARK SMILES IDX 3 1 4 2 5 3 6 4 7 8 8 9 9 10 2 11 1 12
REMARK H PARENT 6 5 6 6 6 7
REMARK Flexibility Score: inf
ROOT
ATOM      1  C   UNL     1      25.858  14.044  -4.287  1.00  0.00     0.050 C 
ATOM      2  C   UNL     1      25.264  12.625  -4.188  1.00  0.00     0.014 C 
ENDROOT
BRANCH   1   3
ATOM      3  C   UNL     1      26.019  14.729  -2.895  1.00  0.00     0.230 C 
BRANCH   3   4
ATOM      4  N   UNL     1      26.044  13.767  -1.781  1.00  0.00    -0.350 N 
ATOM      5  H   UNL     1      25.895  12.801  -2.153  1.00  0.00     0.345 HD
ATOM      6  H   UNL     1      26.958  13.791  -1.275  1.00  0.00     0.345 HD
ATOM      7  H   UNL     1      25.270  13.968  -1.109  1.00  0.00     0.345 HD
ENDBRANCH   3   4
BRANCH   3   8
ATOM      8  C   UNL     1      24.959  15.782  -2.680  1.00  0.00     0.099 C 
ATOM      9  O   UNL     1      24.216  16.156  -3.627  1.00  0.00    -0.544 OA
ATOM     10  O   UNL     1      24.828  16.383  -1.434  1.00  0.00    -0.544 OA
ENDBRANCH   3   8
ENDBRANCH   1   3
BRANCH   1  11
ATOM     11  C   UNL     1      27.197  14.038  -5.068  1.00  0.00     0.006 C 
ATOM     12  C   UNL     1      28.344  14.674  -4.282  1.00  0.00     0.004 C 
ENDBRANCH   1  11
TORSDOF 4
ENDMDL
MODEL 3
REMARK VINA RESULT:    -3.638      2.263      3.232
REMARK INTER + INTRA:          -4.511
REMARK INTER:                  -4.412
REMARK INTRA:                  -0.099
REMARK UNBOUND:                -0.129
REMARK SMILES CC[C@@H](C)[C@H]([NH3+])C(=O)[O-]
REMARK SMILES IDX 3 1 4 2 5 3 6 4 7 8 8 9 9 10 2 11 1 12
REMARK H PARENT 6 5 6 6 6 7
REMARK Flexibility Score: inf
ROOT
ATOM      1  C   UNL     1      26.888  15.036  -3.689  1.00  0.00     0.050 C 
ATOM      2  C   UNL     1      27.902  14.132  -4.419  1.00  0.00     0.014 C 
ENDROOT
BRANCH   1   3
ATOM      3  C   UNL     1      25.602  14.270  -3.252  1.00  0.00     0.230 C 
BRANCH   3   4
ATOM      4  N   UNL     1      25.877  12.896  -2.802  1.00  0.00    -0.350 N 
ATOM      5  H   UNL     1      26.297  12.350  -3.590  1.00  0.00     0.345 HD
ATOM      6  H   UNL     1      26.543  12.884  -1.997  1.00  0.00     0.345 HD
ATOM      7  H   UNL     1      24.990  12.419  -2.525  1.00  0.00     0.345 HD
ENDBRANCH   3   4
BRANCH   3   8
ATOM      8  C   UNL     1      24.561  14.286  -4.346  1.00  0.00     0.099 C 
ATOM      9  O   UNL     1      23.946  13.234  -4.669  1.00  0.00    -0.544 OA
ATOM     10  O   UNL     1      24.309  15.463  -5.039  1.00  0.00    -0.544 OA
ENDBRANCH   3   8
ENDBRANCH   1   3
BRANCH   1  11
ATOM     11  C   UNL     1      27.547  15.759  -2.487  1.00  0.00     0.006 C 
ATOM     12  C   UNL     1      26.831  17.057  -2.111  1.00  0.00     0.004 C 
ENDBRANCH   1  11
TORSDOF 4
ENDMDL
MODEL 4
REMARK VINA RESULT:    -3.612      1.305      2.408
REMARK INTER + INTRA:          -4.481
REMARK INTER:                  -4.357
REMARK INTRA:                  -0.124
REMARK UNBOUND:                -0.129
REMARK SMILES CC[C@@H](C)[C@H]([NH3+])C(=O)[O-]
REMARK SMILES IDX 3 1 4 2 5 3 6 4 7 8 8 9 9 10 2 11 1 12
REMARK H PARENT 6 5 6 6 6 7
REMARK Flexibility Score: inf
ROOT
ATOM      1  C   UNL     1      25.649  14.192  -4.548  1.00  0.00     0.050 C 
ATOM      2  C   UNL     1      24.529  15.249  -4.464  1.00  0.00     0.014 C 
ENDROOT
BRANCH   1   3
ATOM      3  C   UNL     1      26.614  14.238  -3.323  1.00  0.00     0.230 C 
BRANCH   3   4
ATOM      4  N   UNL     1      25.946  13.908  -2.053  1.00  0.00    -0.350 N 
ATOM      5  H   UNL     1      25.053  14.448  -1.979  1.00  0.00     0.345 HD
ATOM      6  H   UNL     1      25.724  12.888  -1.993  1.00  0.00     0.345 HD
ATOM      7  H   UNL     1      26.547  14.180  -1.244  1.00  0.00     0.345 HD
ENDBRANCH   3   4
BRANCH   3   8
ATOM      8  C   UNL     1      27.319  15.570  -3.235  1.00  0.00     0.099 C 
ATOM      9  O   UNL     1      28.134  15.932  -4.126  1.00  0.00    -0.544 OA
ATOM     10  O   UNL     1      27.105  16.391  -2.135  1.00  0.00    -0.544 OA
ENDBRANCH   3   8
ENDBRANCH   1   3
BRANCH   1  11
ATOM     11  C   UNL     1      25.065  12.771  -4.749  1.00  0.00     0.006 C 
ATOM     12  C   UNL     1      23.538  12.742  -4.671  1.00  0.00     0.004 C 
ENDBRANCH   1  11
TORSDOF 4
ENDMDL
MODEL 5
REMARK VINA RESULT:    -3.495      1.955      2.974
REMARK INTER + INTRA:          -4.339
REMARK INTER:                  -4.210
REMARK INTRA:                  -0.129
REMARK UNBOUND:                -0.129
REMARK SMILES CC[C@@H](C)[C@H]([NH3+])C(=O)[O-]
REMARK SMILES IDX 3 1 4 2 5 3 6 4 7 8 8 9 9 10 2 11 1 12
REMARK H PARENT 6 5 6 6 6 7
REMARK Flexibility Score: inf
ROOT
ATOM      1  C   UNL     1      25.707  13.905  -3.864  1.00  0.00     0.050 C 
ATOM      2  C   UNL     1      27.143  14.091  -4.394  1.00  0.00     0.014 C 
ENDROOT
BRANCH   1   3
ATOM      3  C   UNL     1      24.826  15.180  -4.047  1.00  0.00     0.230 C 
BRANCH   3   4
ATOM      4  N   UNL     1      25.335  16.083  -5.092  1.00  0.00    -0.350 N 
ATOM      5  H   UNL     1      25.319  15.591  -6.015  1.00  0.00     0.345 HD
ATOM      6  H   UNL     1      24.753  16.948  -5.166  1.00  0.00     0.345 HD
ATOM      7  H   UNL     1      26.325  16.349  -4.893  1.00  0.00     0.345 HD
ENDBRANCH   3   4
BRANCH   3   8
ATOM      8  C   UNL     1      24.647  15.910  -2.738  1.00  0.00     0.099 C 
ATOM      9  O   UNL     1      25.415  15.690  -1.763  1.00  0.00    -0.544 OA
ATOM     10  O   UNL     1      23.594  16.804  -2.587  1.00  0.00    -0.544 OA
ENDBRANCH   3   8
ENDBRANCH   1   3
BRANCH   1  11
ATOM     11  C   UNL     1      25.032  12.662  -4.496  1.00  0.00     0.006 C 
ATOM     12  C   UNL     1      23.528  12.844  -4.703  1.00  0.00     0.004 C 
ENDBRANCH   1  11
TORSDOF 4
ENDMDL
MODEL 6
REMARK VINA RESULT:    -3.422      2.421      3.332
REMARK INTER + INTRA:          -4.251
REMARK INTER:                  -4.232
REMARK INTRA:                  -0.019
REMARK UNBOUND:                -0.129
REMARK SMILES CC[C@@H](C)[C@H]([NH3+])C(=O)[O-]
REMARK SMILES IDX 3 1 4 2 5 3 6 4 7 8 8 9 9 10 2 11 1 12
REMARK H PARENT 6 5 6 6 6 7
REMARK Flexibility Score: inf
ROOT
ATOM      1  C   UNL     1      27.488  15.270  -2.644  1.00  0.00     0.050 C 
ATOM      2  C   UNL     1      27.629  16.793  -2.452  1.00  0.00     0.014 C 
ENDROOT
BRANCH   1   3
ATOM      3  C   UNL     1      26.176  14.701  -2.021  1.00  0.00     0.230 C 
BRANCH   3   4
ATOM      4  N   UNL     1      25.812  13.379  -2.557  1.00  0.00    -0.350 N 
ATOM      5  H   UNL     1      26.338  12.637  -2.041  1.00  0.00     0.345 HD
ATOM      6  H   UNL     1      24.788  13.195  -2.455  1.00  0.00     0.345 HD
ATOM      7  H   UNL     1      26.077  13.310  -3.565  1.00  0.00     0.345 HD
ENDBRANCH   3   4
BRANCH   3   8
ATOM      8  C   UNL     1      25.036  15.680  -2.166  1.00  0.00     0.099 C 
ATOM      9  O   UNL     1      24.654  16.378  -1.190  1.00  0.00    -0.544 OA
ATOM     10  O   UNL     1      24.366  15.780  -3.380  1.00  0.00    -0.544 OA
ENDBRANCH   3   8
ENDBRANCH   1   3
BRANCH   1  11
ATOM     11  C   UNL     1      27.614  14.880  -4.139  1.00  0.00     0.006 C 
ATOM     12  C   UNL     1      28.982  14.290  -4.485  1.00  0.00     0.004 C 
ENDBRANCH   1  11
TORSDOF 4
ENDMDL
MODEL 7
REMARK VINA RESULT:    -3.303      2.574      3.588
REMARK INTER + INTRA:          -4.108
REMARK INTER:                  -3.977
REMARK INTRA:                  -0.131
REMARK UNBOUND:                -0.129
REMARK SMILES CC[C@@H](C)[C@H]([NH3+])C(=O)[O-]
REMARK SMILES IDX 3 1 4 2 5 3 6 4 7 8 8 9 9 10 2 11 1 12
REMARK H PARENT 6 5 6 6 6 7
REMARK Flexibility Score: inf
ROOT
ATOM      1  C   UNL     1      25.106  15.816  -2.562  1.00  0.00     0.050 C 
ATOM      2  C   UNL     1      23.881  16.746  -2.452  1.00  0.00     0.014 C 
ENDROOT
BRANCH   1   3
ATOM      3  C   UNL     1      25.261  15.187  -3.981  1.00  0.00     0.230 C 
BRANCH   3   4
ATOM      4  N   UNL     1      24.463  15.880  -5.006  1.00  0.00    -0.350 N 
ATOM      5  H   UNL     1      25.054  16.605  -5.475  1.00  0.00     0.345 HD
ATOM      6  H   UNL     1      24.114  15.215  -5.733  1.00  0.00     0.345 HD
ATOM      7  H   UNL     1      23.653  16.370  -4.567  1.00  0.00     0.345 HD
ENDBRANCH   3   4
BRANCH   3   8
ATOM      8  C   UNL     1      24.949  13.709  -3.959  1.00  0.00     0.099 C 
ATOM      9  O   UNL     1      25.707  12.897  -3.364  1.00  0.00    -0.544 OA
ATOM     10  O   UNL     1      23.838  13.230  -4.641  1.00  0.00    -0.544 OA
ENDBRANCH   3   8
ENDBRANCH   1   3
BRANCH   1  11
ATOM     11  C   UNL     1      26.403  16.544  -2.127  1.00  0.00     0.006 C 
ATOM     12  C   UNL     1      27.664  15.725  -2.405  1.00  0.00     0.004 C 
ENDBRANCH   1  11
TORSDOF 4
ENDMDL
MODEL 8
REMARK VINA RESULT:    -3.245     20.356     21.356
REMARK INTER + INTRA:          -4.038
REMARK INTER:                  -4.080
REMARK INTRA:                   0.043
REMARK UNBOUND:                -0.129
REMARK SMILES CC[C@@H](C)[C@H]([NH3+])C(=O)[O-]
REMARK SMILES IDX 3 1 4 2 5 3 6 4 7 8 8 9 9 10 2 11 1 12
REMARK H PARENT 6 5 6 6 6 7
REMARK Flexibility Score: inf
ROOT
ATOM      1  C   UNL     1      13.219   0.546   8.430  1.00  0.00     0.050 C 
ATOM      2  C   UNL     1      12.280   0.604   9.651  1.00  0.00     0.014 C 
ENDROOT
BRANCH   1   3
ATOM      3  C   UNL     1      14.487   1.440   8.601  1.00  0.00     0.230 C 
BRANCH   3   4
ATOM      4  N   UNL     1      14.341   2.444   9.668  1.00  0.00    -0.350 N 
ATOM      5  H   UNL     1      15.239   2.968   9.777  1.00  0.00     0.345 HD
ATOM      6  H   UNL     1      13.581   3.127   9.447  1.00  0.00     0.345 HD
ATOM      7  H   UNL     1      14.134   1.979  10.580  1.00  0.00     0.345 HD
ENDBRANCH   3   4
BRANCH   3   8
ATOM      8  C   UNL     1      14.876   2.088   7.294  1.00  0.00     0.099 C 
ATOM      9  O   UNL     1      15.246   3.292   7.254  1.00  0.00    -0.544 OA
ATOM     10  O   UNL     1      14.781   1.364   6.112  1.00  0.00    -0.544 OA
ENDBRANCH   3   8
ENDBRANCH   1   3
BRANCH   1  11
ATOM     11  C   UNL     1      13.605  -0.915   8.089  1.00  0.00     0.006 C 
ATOM     12  C   UNL     1      12.507  -1.655   7.324  1.00  0.00     0.004 C 
ENDBRANCH   1  11
TORSDOF 4
ENDMDL
MODEL 9
REMARK VINA RESULT:    -3.212      1.793      2.592
REMARK INTER + INTRA:          -3.998
REMARK INTER:                  -3.863
REMARK INTRA:                  -0.135
REMARK UNBOUND:                -0.129
REMARK SMILES CC[C@@H](C)[C@H]([NH3+])C(=O)[O-]
REMARK SMILES IDX 3 1 4 2 5 3 6 4 7 8 8 9 9 10 2 11 1 12
REMARK H PARENT 6 5 6 6 6 7
REMARK Flexibility Score: inf
ROOT
ATOM      1  C   UNL     1      25.464  16.461  -2.670  1.00  0.00     0.050 C 
ATOM      2  C   UNL     1      24.706  16.466  -1.327  1.00  0.00     0.014 C 
ENDROOT
BRANCH   1   3
ATOM      3  C   UNL     1      26.275  15.148  -2.900  1.00  0.00     0.230 C 
BRANCH   3   4
ATOM      4  N   UNL     1      25.984  14.111  -1.896  1.00  0.00    -0.350 N 
ATOM      5  H   UNL     1      25.257  13.460  -2.269  1.00  0.00     0.345 HD
ATOM      6  H   UNL     1      26.839  13.557  -1.661  1.00  0.00     0.345 HD
ATOM      7  H   UNL     1      25.603  14.545  -1.025  1.00  0.00     0.345 HD
ENDBRANCH   3   4
BRANCH   3   8
ATOM      8  C   UNL     1      27.756  15.429  -2.979  1.00  0.00     0.099 C 
ATOM      9  O   UNL     1      28.275  16.357  -2.302  1.00  0.00    -0.544 OA
ATOM     10  O   UNL     1      28.552  14.687  -3.842  1.00  0.00    -0.544 OA
ENDBRANCH   3   8
ENDBRANCH   1   3
BRANCH   1  11
ATOM     11  C   UNL     1      24.507  16.745  -3.855  1.00  0.00     0.006 C 
ATOM     12  C   UNL     1      24.553  15.655  -4.927  1.00  0.00     0.004 C 
ENDBRANCH   1  11
TORSDOF 4
ENDMDL
