MODEL 1
REMARK VINA RESULT:    -5.197      0.000      0.000
REMARK INTER + INTRA:          -5.937
REMARK INTER:                  -5.653
REMARK INTRA:                  -0.283
REMARK UNBOUND:                -0.283
REMARK SMILES CC(=O)c1cc(C)ccc1O
REMARK SMILES IDX 7 1 6 2 5 3 4 4 10 5 9 6 8 7 2 8 3 9 1 10 11 11
REMARK H PARENT 11 12
REMARK Flexibility Score: inf
ROOT
ATOM      1  C   UNL     1      24.892  44.630  85.885  1.00  0.00     0.044 C 
ATOM      2  C   UNL     1      23.930  43.479  85.875  1.00  0.00    -0.050 A 
ATOM      3  C   UNL     1      22.872  43.434  86.795  1.00  0.00     0.019 A 
ATOM      4  C   UNL     1      21.978  42.344  86.822  1.00  0.00     0.059 A 
ATOM      5  C   UNL     1      22.176  41.281  85.910  1.00  0.00     0.126 A 
ATOM      6  C   UNL     1      23.245  41.325  85.002  1.00  0.00     0.047 A 
ATOM      7  C   UNL     1      24.119  42.411  84.989  1.00  0.00     0.007 A 
ENDROOT
BRANCH   4   8
ATOM      8  C   UNL     1      20.849  42.324  87.796  1.00  0.00     0.163 C 
ATOM      9  O   UNL     1      20.821  41.460  88.715  1.00  0.00    -0.294 OA
ATOM     10  C   UNL     1      19.705  43.291  87.701  1.00  0.00     0.093 C 
ENDBRANCH   4   8
BRANCH   5  11
ATOM     11  O   UNL     1      21.327  40.175  85.908  1.00  0.00    -0.507 OA
ATOM     12  H   UNL     1      21.659  39.247  85.671  1.00  0.00     0.293 HD
ENDBRANCH   5  11
TORSDOF 2
ENDMDL
MODEL 2
REMARK VINA RESULT:    -5.097     10.832     12.576
REMARK INTER + INTRA:          -5.827
REMARK INTER:                  -5.592
REMARK INTRA:                  -0.235
REMARK UNBOUND:                -0.283
REMARK SMILES CC(=O)c1cc(C)ccc1O
REMARK SMILES IDX 7 1 6 2 5 3 4 4 10 5 9 6 8 7 2 8 3 9 1 10 11 11
REMARK H PARENT 11 12
REMARK Flexibility Score: inf
ROOT
ATOM      1  C   UNL     1      31.764  41.303  86.526  1.00  0.00     0.044 C 
ATOM      2  C   UNL     1      32.438  41.074  85.204  1.00  0.00    -0.050 A 
ATOM      3  C   UNL     1      33.715  40.496  85.154  1.00  0.00     0.019 A 
ATOM      4  C   UNL     1      34.377  40.303  83.923  1.00  0.00     0.059 A 
ATOM      5  C   UNL     1      33.734  40.721  82.734  1.00  0.00     0.126 A 
ATOM      6  C   UNL     1      32.463  41.312  82.794  1.00  0.00     0.047 A 
ATOM      7  C   UNL     1      31.823  41.494  84.019  1.00  0.00     0.007 A 
ENDROOT
BRANCH   4   8
ATOM      8  C   UNL     1      35.726  39.670  83.889  1.00  0.00     0.163 C 
ATOM      9  O   UNL     1      35.859  38.484  83.482  1.00  0.00    -0.294 OA
ATOM     10  C   UNL     1      36.952  40.397  84.359  1.00  0.00     0.093 C 
ENDBRANCH   4   8
BRANCH   5  11
ATOM     11  O   UNL     1      34.355  40.565  81.496  1.00  0.00    -0.507 OA
ATOM     12  H   UNL     1      34.046  41.073  80.675  1.00  0.00     0.293 HD
ENDBRANCH   5  11
TORSDOF 2
ENDMDL
MODEL 3
REMARK VINA RESULT:    -5.030     11.943     13.709
REMARK INTER + INTRA:          -5.754
REMARK INTER:                  -5.480
REMARK INTRA:                  -0.274
REMARK UNBOUND:                -0.283
REMARK SMILES CC(=O)c1cc(C)ccc1O
REMARK SMILES IDX 7 1 6 2 5 3 4 4 10 5 9 6 8 7 2 8 3 9 1 10 11 11
REMARK H PARENT 11 12
REMARK Flexibility Score: inf
ROOT
ATOM      1  C   UNL     1      32.224  41.253  82.883  1.00  0.00     0.044 C 
ATOM      2  C   UNL     1      33.379  40.981  83.802  1.00  0.00    -0.050 A 
ATOM      3  C   UNL     1      34.631  41.561  83.552  1.00  0.00     0.019 A 
ATOM      4  C   UNL     1      35.736  41.291  84.386  1.00  0.00     0.059 A 
ATOM      5  C   UNL     1      35.563  40.406  85.477  1.00  0.00     0.126 A 
ATOM      6  C   UNL     1      34.311  39.819  85.712  1.00  0.00     0.047 A 
ATOM      7  C   UNL     1      33.230  40.098  84.877  1.00  0.00     0.007 A 
ENDROOT
BRANCH   4   8
ATOM      8  C   UNL     1      37.056  41.931  84.115  1.00  0.00     0.163 C 
ATOM      9  O   UNL     1      38.124  41.313  84.375  1.00  0.00    -0.294 OA
ATOM     10  C   UNL     1      37.160  43.322  83.563  1.00  0.00     0.093 C 
ENDBRANCH   4   8
BRANCH   5  11
ATOM     11  O   UNL     1      36.629  40.097  86.320  1.00  0.00    -0.507 OA
ATOM     12  H   UNL     1      37.308  39.382  86.084  1.00  0.00     0.293 HD
ENDBRANCH   5  11
TORSDOF 2
ENDMDL
MODEL 4
REMARK VINA RESULT:    -5.020     12.321     13.861
REMARK INTER + INTRA:          -5.743
REMARK INTER:                  -5.437
REMARK INTRA:                  -0.306
REMARK UNBOUND:                -0.283
REMARK SMILES CC(=O)c1cc(C)ccc1O
REMARK SMILES IDX 7 1 6 2 5 3 4 4 10 5 9 6 8 7 2 8 3 9 1 10 11 11
REMARK H PARENT 11 12
REMARK Flexibility Score: inf
ROOT
ATOM      1  C   UNL     1      37.719  43.665  84.204  1.00  0.00     0.044 C 
ATOM      2  C   UNL     1      37.222  42.249  84.211  1.00  0.00    -0.050 A 
ATOM      3  C   UNL     1      35.847  41.983  84.147  1.00  0.00     0.019 A 
ATOM      4  C   UNL     1      35.360  40.660  84.187  1.00  0.00     0.059 A 
ATOM      5  C   UNL     1      36.288  39.599  84.309  1.00  0.00     0.126 A 
ATOM      6  C   UNL     1      37.662  39.873  84.388  1.00  0.00     0.047 A 
ATOM      7  C   UNL     1      38.125  41.188  84.346  1.00  0.00     0.007 A 
ENDROOT
BRANCH   4   8
ATOM      8  C   UNL     1      33.895  40.397  84.099  1.00  0.00     0.163 C 
ATOM      9  O   UNL     1      33.314  39.743  85.008  1.00  0.00    -0.294 OA
ATOM     10  C   UNL     1      33.077  40.862  82.931  1.00  0.00     0.093 C 
ENDBRANCH   4   8
BRANCH   5  11
ATOM     11  O   UNL     1      35.854  38.275  84.367  1.00  0.00    -0.507 OA
ATOM     12  H   UNL     1      34.905  38.013  84.125  1.00  0.00     0.293 HD
ENDBRANCH   5  11
TORSDOF 2
ENDMDL
MODEL 5
REMARK VINA RESULT:    -5.001     11.404     12.809
REMARK INTER + INTRA:          -5.723
REMARK INTER:                  -5.428
REMARK INTRA:                  -0.295
REMARK UNBOUND:                -0.283
REMARK SMILES CC(=O)c1cc(C)ccc1O
REMARK SMILES IDX 7 1 6 2 5 3 4 4 10 5 9 6 8 7 2 8 3 9 1 10 11 11
REMARK H PARENT 11 12
REMARK Flexibility Score: inf
ROOT
ATOM      1  C   UNL     1      33.967  40.604  82.120  1.00  0.00     0.044 C 
ATOM      2  C   UNL     1      34.512  40.481  83.513  1.00  0.00    -0.050 A 
ATOM      3  C   UNL     1      34.135  41.401  84.502  1.00  0.00     0.019 A 
ATOM      4  C   UNL     1      34.663  41.320  85.808  1.00  0.00     0.059 A 
ATOM      5  C   UNL     1      35.597  40.299  86.100  1.00  0.00     0.126 A 
ATOM      6  C   UNL     1      35.981  39.391  85.102  1.00  0.00     0.047 A 
ATOM      7  C   UNL     1      35.448  39.486  83.817  1.00  0.00     0.007 A 
ENDROOT
BRANCH   4   8
ATOM      8  C   UNL     1      34.236  42.297  86.851  1.00  0.00     0.163 C 
ATOM      9  O   UNL     1      35.085  42.783  87.647  1.00  0.00    -0.294 OA
ATOM     10  C   UNL     1      32.801  42.704  87.012  1.00  0.00     0.093 C 
ENDBRANCH   4   8
BRANCH   5  11
ATOM     11  O   UNL     1      36.157  40.188  87.373  1.00  0.00    -0.507 OA
ATOM     12  H   UNL     1      36.804  39.444  87.609  1.00  0.00     0.293 HD
ENDBRANCH   5  11
TORSDOF 2
ENDMDL
MODEL 6
REMARK VINA RESULT:    -4.985     10.882     12.595
REMARK INTER + INTRA:          -5.706
REMARK INTER:                  -5.413
REMARK INTRA:                  -0.293
REMARK UNBOUND:                -0.283
REMARK SMILES CC(=O)c1cc(C)ccc1O
REMARK SMILES IDX 7 1 6 2 5 3 4 4 10 5 9 6 8 7 2 8 3 9 1 10 11 11
REMARK H PARENT 11 12
REMARK Flexibility Score: inf
ROOT
ATOM      1  C   UNL     1      32.067  42.947  82.885  1.00  0.00     0.044 C 
ATOM      2  C   UNL     1      32.783  42.064  83.864  1.00  0.00    -0.050 A 
ATOM      3  C   UNL     1      34.090  42.373  84.268  1.00  0.00     0.019 A 
ATOM      4  C   UNL     1      34.790  41.537  85.163  1.00  0.00     0.059 A 
ATOM      5  C   UNL     1      34.154  40.366  85.636  1.00  0.00     0.126 A 
ATOM      6  C   UNL     1      32.852  40.055  85.216  1.00  0.00     0.047 A 
ATOM      7  C   UNL     1      32.174  40.894  84.332  1.00  0.00     0.007 A 
ENDROOT
BRANCH   4   8
ATOM      8  C   UNL     1      36.173  41.892  85.594  1.00  0.00     0.163 C 
ATOM      9  O   UNL     1      36.419  42.111  86.812  1.00  0.00    -0.294 OA
ATOM     10  C   UNL     1      37.297  42.032  84.610  1.00  0.00     0.093 C 
ENDBRANCH   4   8
BRANCH   5  11
ATOM     11  O   UNL     1      34.812  39.501  86.510  1.00  0.00    -0.507 OA
ATOM     12  H   UNL     1      34.528  38.534  86.620  1.00  0.00     0.293 HD
ENDBRANCH   5  11
TORSDOF 2
ENDMDL
MODEL 7
REMARK VINA RESULT:    -4.859     12.399     14.096
REMARK INTER + INTRA:          -5.569
REMARK INTER:                  -5.265
REMARK INTRA:                  -0.304
REMARK UNBOUND:                -0.283
REMARK SMILES CC(=O)c1cc(C)ccc1O
REMARK SMILES IDX 7 1 6 2 5 3 4 4 10 5 9 6 8 7 2 8 3 9 1 10 11 11
REMARK H PARENT 11 12
REMARK Flexibility Score: inf
ROOT
ATOM      1  C   UNL     1      32.543  40.122  85.111  1.00  0.00     0.044 C 
ATOM      2  C   UNL     1      34.009  40.254  84.820  1.00  0.00    -0.050 A 
ATOM      3  C   UNL     1      34.545  41.493  84.441  1.00  0.00     0.019 A 
ATOM      4  C   UNL     1      35.915  41.628  84.131  1.00  0.00     0.059 A 
ATOM      5  C   UNL     1      36.741  40.481  84.195  1.00  0.00     0.126 A 
ATOM      6  C   UNL     1      36.195  39.242  84.561  1.00  0.00     0.047 A 
ATOM      7  C   UNL     1      34.839  39.127  84.864  1.00  0.00     0.007 A 
ENDROOT
BRANCH   4   8
ATOM      8  C   UNL     1      36.470  42.958  83.747  1.00  0.00     0.163 C 
ATOM      9  O   UNL     1      37.543  43.369  84.266  1.00  0.00    -0.294 OA
ATOM     10  C   UNL     1      35.767  43.855  82.772  1.00  0.00     0.093 C 
ENDBRANCH   4   8
BRANCH   5  11
ATOM     11  O   UNL     1      38.098  40.562  83.884  1.00  0.00    -0.507 OA
ATOM     12  H   UNL     1      38.675  41.332  84.204  1.00  0.00     0.293 HD
ENDBRANCH   5  11
TORSDOF 2
ENDMDL
MODEL 8
REMARK VINA RESULT:    -4.856      9.881     11.374
REMARK INTER + INTRA:          -5.565
REMARK INTER:                  -5.303
REMARK INTRA:                  -0.262
REMARK UNBOUND:                -0.283
REMARK SMILES CC(=O)c1cc(C)ccc1O
REMARK SMILES IDX 7 1 6 2 5 3 4 4 10 5 9 6 8 7 2 8 3 9 1 10 11 11
REMARK H PARENT 11 12
REMARK Flexibility Score: inf
ROOT
ATOM      1  C   UNL     1      35.740  38.961  84.619  1.00  0.00     0.044 C 
ATOM      2  C   UNL     1      34.706  39.903  84.074  1.00  0.00    -0.050 A 
ATOM      3  C   UNL     1      33.836  40.575  84.945  1.00  0.00     0.019 A 
ATOM      4  C   UNL     1      32.837  41.439  84.449  1.00  0.00     0.059 A 
ATOM      5  C   UNL     1      32.716  41.603  83.049  1.00  0.00     0.126 A 
ATOM      6  C   UNL     1      33.580  40.915  82.184  1.00  0.00     0.047 A 
ATOM      7  C   UNL     1      34.562  40.066  82.692  1.00  0.00     0.007 A 
ENDROOT
BRANCH   4   8
ATOM      8  C   UNL     1      31.933  42.159  85.391  1.00  0.00     0.163 C 
ATOM      9  O   UNL     1      30.765  42.473  85.032  1.00  0.00    -0.294 OA
ATOM     10  C   UNL     1      32.382  42.562  86.765  1.00  0.00     0.093 C 
ENDBRANCH   4   8
BRANCH   5  11
ATOM     11  O   UNL     1      31.733  42.434  82.511  1.00  0.00    -0.507 OA
ATOM     12  H   UNL     1      30.997  42.075  81.914  1.00  0.00     0.293 HD
ENDBRANCH   5  11
TORSDOF 2
ENDMDL
MODEL 9
REMARK VINA RESULT:    -4.813     12.643     14.350
REMARK INTER + INTRA:          -5.518
REMARK INTER:                  -5.212
REMARK INTRA:                  -0.305
REMARK UNBOUND:                -0.283
REMARK SMILES CC(=O)c1cc(C)ccc1O
REMARK SMILES IDX 7 1 6 2 5 3 4 4 10 5 9 6 8 7 2 8 3 9 1 10 11 11
REMARK H PARENT 11 12
REMARK Flexibility Score: inf
ROOT
ATOM      1  C   UNL     1      35.261  44.506  82.587  1.00  0.00     0.044 C 
ATOM      2  C   UNL     1      36.003  43.333  83.159  1.00  0.00    -0.050 A 
ATOM      3  C   UNL     1      35.328  42.135  83.431  1.00  0.00     0.019 A 
ATOM      4  C   UNL     1      36.003  41.034  83.998  1.00  0.00     0.059 A 
ATOM      5  C   UNL     1      37.377  41.165  84.306  1.00  0.00     0.126 A 
ATOM      6  C   UNL     1      38.043  42.372  84.045  1.00  0.00     0.047 A 
ATOM      7  C   UNL     1      37.360  43.450  83.483  1.00  0.00     0.007 A 
ENDROOT
BRANCH   4   8
ATOM      8  C   UNL     1      35.271  39.761  84.264  1.00  0.00     0.163 C 
ATOM      9  O   UNL     1      35.761  38.660  83.890  1.00  0.00    -0.294 OA
ATOM     10  C   UNL     1      33.933  39.745  84.942  1.00  0.00     0.093 C 
ENDBRANCH   4   8
BRANCH   5  11
ATOM     11  O   UNL     1      38.083  40.109  84.882  1.00  0.00    -0.507 OA
ATOM     12  H   UNL     1      37.794  39.688  85.758  1.00  0.00     0.293 HD
ENDBRANCH   5  11
TORSDOF 2
ENDMDL
