MODEL 1
REMARK VINA RESULT:    -3.880      0.000      0.000
REMARK INTER + INTRA:         -15.840
REMARK INTER:                 -10.230
REMARK INTRA:                  -5.609
REMARK UNBOUND:                -5.609
REMARK SMILES CCCCCCCCCCCCCCCCCCCCCCCCCCCCCC(=O)[O-]
REMARK SMILES IDX 16 1 17 2 18 3 19 4 20 5 21 6 22 7 23 8 24 9 25 10 26 11
REMARK SMILES IDX 27 12 28 13 29 14 30 15 31 16 32 17 15 18 14 19 13 20 12 21
REMARK SMILES IDX 11 22 10 23 9 24 8 25 7 26 6 27 5 28 4 29 3 30 2 31 1 32
REMARK H PARENT
REMARK Flexibility Score: inf
ROOT
ATOM      1  C   UNL     1      60.722 -12.619  16.701  1.00  0.00     0.000 C 
ENDROOT
BRANCH   1   2
ATOM      2  C   UNL     1      61.324 -14.035  16.758  1.00  0.00     0.000 C 
BRANCH   2   3
ATOM      3  C   UNL     1      60.279 -15.138  16.524  1.00  0.00     0.000 C 
BRANCH   3   4
ATOM      4  C   UNL     1      60.079 -15.547  15.053  1.00  0.00     0.000 C 
BRANCH   4   5
ATOM      5  C   UNL     1      61.022 -16.676  14.584  1.00  0.00     0.000 C 
BRANCH   5   6
ATOM      6  C   UNL     1      62.202 -16.147  13.748  1.00  0.00     0.000 C 
BRANCH   6   7
ATOM      7  C   UNL     1      63.567 -16.594  14.316  1.00  0.00     0.000 C 
BRANCH   7   8
ATOM      8  C   UNL     1      64.270 -15.518  15.164  1.00  0.00     0.000 C 
BRANCH   8   9
ATOM      9  C   UNL     1      64.626 -16.007  16.578  1.00  0.00     0.000 C 
BRANCH   9  10
ATOM     10  C   UNL     1      63.965 -17.350  16.938  1.00  0.00     0.000 C 
BRANCH  10  11
ATOM     11  C   UNL     1      62.970 -17.300  18.113  1.00  0.00     0.000 C 
BRANCH  11  12
ATOM     12  C   UNL     1      63.303 -16.205  19.139  1.00  0.00     0.000 C 
BRANCH  12  13
ATOM     13  C   UNL     1      62.050 -15.778  19.915  1.00  0.00     0.006 C 
BRANCH  13  14
ATOM     14  C   UNL     1      61.055 -16.937  20.033  1.00  0.00     0.053 C 
BRANCH  14  15
ATOM     15  C   UNL     1      60.737 -17.218  21.468  1.00  0.00     0.041 C 
ATOM     16  O   UNL     1      61.670 -17.378  22.303  1.00  0.00    -0.550 OA
ATOM     17  O   UNL     1      59.414 -17.317  21.886  1.00  0.00    -0.550 OA
ENDBRANCH  14  15
ENDBRANCH  13  14
ENDBRANCH  12  13
ENDBRANCH  11  12
ENDBRANCH  10  11
ENDBRANCH   9  10
ENDBRANCH   8   9
ENDBRANCH   7   8
ENDBRANCH   6   7
ENDBRANCH   5   6
ENDBRANCH   4   5
ENDBRANCH   3   4
ENDBRANCH   2   3
ENDBRANCH   1   2
BRANCH   1  18
ATOM     18  C   UNL     1      61.362 -11.738  15.613  1.00  0.00     0.000 C 
BRANCH  18  19
ATOM     19  C   UNL     1      62.129 -12.502  14.518  1.00  0.00     0.000 C 
BRANCH  19  20
ATOM     20  C   UNL     1      63.156 -11.628  13.784  1.00  0.00     0.000 C 
BRANCH  20  21
ATOM     21  C   UNL     1      64.490 -12.372  13.611  1.00  0.00     0.000 C 
BRANCH  21  22
ATOM     22  C   UNL     1      65.627 -11.737  14.428  1.00  0.00     0.000 C 
BRANCH  22  23
ATOM     23  C   UNL     1      65.593 -12.157  15.909  1.00  0.00     0.000 C 
BRANCH  23  24
ATOM     24  C   UNL     1      65.376 -10.965  16.854  1.00  0.00    -0.000 C 
BRANCH  24  25
ATOM     25  C   UNL     1      64.187 -11.178  17.806  1.00  0.00    -0.000 C 
BRANCH  25  26
ATOM     26  C   UNL     1      64.164 -12.584  18.428  1.00  0.00    -0.000 C 
BRANCH  26  27
ATOM     27  C   UNL     1      64.734 -12.673  19.855  1.00  0.00    -0.000 C 
BRANCH  27  28
ATOM     28  C   UNL     1      65.068 -11.296  20.452  1.00  0.00    -0.000 C 
BRANCH  28  29
ATOM     29  C   UNL     1      64.959 -11.266  21.988  1.00  0.00    -0.000 C 
BRANCH  29  30
ATOM     30  C   UNL     1      63.809 -12.102  22.587  1.00  0.00    -0.000 C 
BRANCH  30  31
ATOM     31  C   UNL     1      63.607 -11.943  24.104  1.00  0.00    -0.003 C 
ATOM     32  C   UNL     1      62.435 -11.027  24.456  1.00  0.00     0.004 C 
ENDBRANCH  30  31
ENDBRANCH  29  30
ENDBRANCH  28  29
ENDBRANCH  27  28
ENDBRANCH  26  27
ENDBRANCH  25  26
ENDBRANCH  24  25
ENDBRANCH  23  24
ENDBRANCH  22  23
ENDBRANCH  21  22
ENDBRANCH  20  21
ENDBRANCH  19  20
ENDBRANCH  18  19
ENDBRANCH   1  18
TORSDOF 28
ENDMDL
MODEL 2
REMARK VINA RESULT:    -3.705      1.464      6.142
REMARK INTER + INTRA:         -15.379
REMARK INTER:                  -9.299
REMARK INTRA:                  -6.080
REMARK UNBOUND:                -5.609
REMARK SMILES CCCCCCCCCCCCCCCCCCCCCCCCCCCCCC(=O)[O-]
REMARK SMILES IDX 16 1 17 2 18 3 19 4 20 5 21 6 22 7 23 8 24 9 25 10 26 11
REMARK SMILES IDX 27 12 28 13 29 14 30 15 31 16 32 17 15 18 14 19 13 20 12 21
REMARK SMILES IDX 11 22 10 23 9 24 8 25 7 26 6 27 5 28 4 29 3 30 2 31 1 32
REMARK H PARENT
REMARK Flexibility Score: inf
ROOT
ATOM      1  C   UNL     1      62.239 -11.381  14.777  1.00  0.00     0.000 C 
ENDROOT
BRANCH   1   2
ATOM      2  C   UNL     1      63.264 -12.341  14.147  1.00  0.00     0.000 C 
BRANCH   2   3
ATOM      3  C   UNL     1      64.707 -11.821  14.243  1.00  0.00     0.000 C 
BRANCH   3   4
ATOM      4  C   UNL     1      65.689 -12.750  14.981  1.00  0.00     0.000 C 
BRANCH   4   5
ATOM      5  C   UNL     1      65.849 -12.427  16.482  1.00  0.00     0.000 C 
BRANCH   5   6
ATOM      6  C   UNL     1      65.397 -10.996  16.825  1.00  0.00     0.000 C 
BRANCH   6   7
ATOM      7  C   UNL     1      64.427 -10.962  18.026  1.00  0.00     0.000 C 
BRANCH   7   8
ATOM      8  C   UNL     1      64.417 -12.261  18.853  1.00  0.00     0.000 C 
BRANCH   8   9
ATOM      9  C   UNL     1      64.659 -12.019  20.353  1.00  0.00     0.000 C 
BRANCH   9  10
ATOM     10  C   UNL     1      65.073 -13.293  21.112  1.00  0.00     0.000 C 
BRANCH  10  11
ATOM     11  C   UNL     1      63.913 -14.109  21.711  1.00  0.00     0.000 C 
BRANCH  11  12
ATOM     12  C   UNL     1      64.168 -15.625  21.689  1.00  0.00     0.000 C 
BRANCH  12  13
ATOM     13  C   UNL     1      63.292 -16.346  22.722  1.00  0.00     0.006 C 
BRANCH  13  14
ATOM     14  C   UNL     1      62.223 -17.203  22.036  1.00  0.00     0.053 C 
BRANCH  14  15
ATOM     15  C   UNL     1      60.853 -16.686  22.344  1.00  0.00     0.041 C 
ATOM     16  O   UNL     1      59.897 -16.916  21.554  1.00  0.00    -0.550 OA
ATOM     17  O   UNL     1      60.630 -15.940  23.496  1.00  0.00    -0.550 OA
ENDBRANCH  14  15
ENDBRANCH  13  14
ENDBRANCH  12  13
ENDBRANCH  11  12
ENDBRANCH  10  11
ENDBRANCH   9  10
ENDBRANCH   8   9
ENDBRANCH   7   8
ENDBRANCH   6   7
ENDBRANCH   5   6
ENDBRANCH   4   5
ENDBRANCH   3   4
ENDBRANCH   2   3
ENDBRANCH   1   2
BRANCH   1  18
ATOM     18  C   UNL     1      61.652 -11.911  16.099  1.00  0.00     0.000 C 
BRANCH  18  19
ATOM     19  C   UNL     1      61.958 -13.389  16.405  1.00  0.00     0.000 C 
BRANCH  19  20
ATOM     20  C   UNL     1      60.937 -14.028  17.357  1.00  0.00     0.000 C 
BRANCH  20  21
ATOM     21  C   UNL     1      61.640 -14.745  18.519  1.00  0.00     0.000 C 
BRANCH  21  22
ATOM     22  C   UNL     1      61.497 -16.274  18.441  1.00  0.00     0.000 C 
BRANCH  22  23
ATOM     23  C   UNL     1      62.787 -16.962  17.957  1.00  0.00     0.000 C 
BRANCH  23  24
ATOM     24  C   UNL     1      64.036 -16.094  18.178  1.00  0.00    -0.000 C 
BRANCH  24  25
ATOM     25  C   UNL     1      64.824 -15.856  16.879  1.00  0.00    -0.000 C 
BRANCH  25  26
ATOM     26  C   UNL     1      64.351 -16.751  15.721  1.00  0.00    -0.000 C 
BRANCH  26  27
ATOM     27  C   UNL     1      63.810 -15.995  14.495  1.00  0.00    -0.000 C 
BRANCH  27  28
ATOM     28  C   UNL     1      62.890 -16.862  13.617  1.00  0.00    -0.000 C 
BRANCH  28  29
ATOM     29  C   UNL     1      62.255 -18.033  14.390  1.00  0.00    -0.000 C 
BRANCH  29  30
ATOM     30  C   UNL     1      60.717 -18.123  14.311  1.00  0.00    -0.000 C 
BRANCH  30  31
ATOM     31  C   UNL     1      59.958 -17.196  15.276  1.00  0.00    -0.003 C 
ATOM     32  C   UNL     1      59.641 -15.831  14.665  1.00  0.00     0.004 C 
ENDBRANCH  30  31
ENDBRANCH  29  30
ENDBRANCH  28  29
ENDBRANCH  27  28
ENDBRANCH  26  27
ENDBRANCH  25  26
ENDBRANCH  24  25
ENDBRANCH  23  24
ENDBRANCH  22  23
ENDBRANCH  21  22
ENDBRANCH  20  21
ENDBRANCH  19  20
ENDBRANCH  18  19
ENDBRANCH   1  18
TORSDOF 28
ENDMDL
MODEL 3
REMARK VINA RESULT:    -3.675      9.749     15.932
REMARK INTER + INTRA:         -15.300
REMARK INTER:                 -11.138
REMARK INTRA:                  -4.162
REMARK UNBOUND:                -5.609
REMARK SMILES CCCCCCCCCCCCCCCCCCCCCCCCCCCCCC(=O)[O-]
REMARK SMILES IDX 16 1 17 2 18 3 19 4 20 5 21 6 22 7 23 8 24 9 25 10 26 11
REMARK SMILES IDX 27 12 28 13 29 14 30 15 31 16 32 17 15 18 14 19 13 20 12 21
REMARK SMILES IDX 11 22 10 23 9 24 8 25 7 26 6 27 5 28 4 29 3 30 2 31 1 32
REMARK H PARENT
REMARK Flexibility Score: inf
ROOT
ATOM      1  C   UNL     1      60.920  -3.147  28.374  1.00  0.00     0.000 C 
ENDROOT
BRANCH   1   2
ATOM      2  C   UNL     1      61.675  -2.018  27.649  1.00  0.00     0.000 C 
BRANCH   2   3
ATOM      3  C   UNL     1      63.006  -2.487  27.039  1.00  0.00     0.000 C 
BRANCH   3   4
ATOM      4  C   UNL     1      64.266  -1.841  27.646  1.00  0.00     0.000 C 
BRANCH   4   5
ATOM      5  C   UNL     1      65.492  -2.778  27.686  1.00  0.00     0.000 C 
BRANCH   5   6
ATOM      6  C   UNL     1      65.257  -4.015  28.574  1.00  0.00     0.000 C 
BRANCH   6   7
ATOM      7  C   UNL     1      65.756  -5.315  27.908  1.00  0.00     0.000 C 
BRANCH   7   8
ATOM      8  C   UNL     1      64.938  -5.735  26.673  1.00  0.00     0.000 C 
BRANCH   8   9
ATOM      9  C   UNL     1      63.452  -5.970  26.988  1.00  0.00     0.000 C 
BRANCH   9  10
ATOM     10  C   UNL     1      63.210  -7.203  27.878  1.00  0.00     0.000 C 
BRANCH  10  11
ATOM     11  C   UNL     1      63.738  -8.535  27.314  1.00  0.00     0.000 C 
BRANCH  11  12
ATOM     12  C   UNL     1      63.039  -8.958  26.012  1.00  0.00     0.000 C 
BRANCH  12  13
ATOM     13  C   UNL     1      64.012  -9.684  25.075  1.00  0.00     0.006 C 
BRANCH  13  14
ATOM     14  C   UNL     1      63.257 -10.453  23.985  1.00  0.00     0.053 C 
BRANCH  14  15
ATOM     15  C   UNL     1      61.970 -10.999  24.519  1.00  0.00     0.041 C 
ATOM     16  O   UNL     1      61.951 -12.117  25.104  1.00  0.00    -0.550 OA
ATOM     17  O   UNL     1      60.788 -10.284  24.362  1.00  0.00    -0.550 OA
ENDBRANCH  14  15
ENDBRANCH  13  14
ENDBRANCH  12  13
ENDBRANCH  11  12
ENDBRANCH  10  11
ENDBRANCH   9  10
ENDBRANCH   8   9
ENDBRANCH   7   8
ENDBRANCH   6   7
ENDBRANCH   5   6
ENDBRANCH   4   5
ENDBRANCH   3   4
ENDBRANCH   2   3
ENDBRANCH   1   2
BRANCH   1  18
ATOM     18  C   UNL     1      61.670  -3.671  29.613  1.00  0.00     0.000 C 
BRANCH  18  19
ATOM     19  C   UNL     1      61.618  -2.753  30.848  1.00  0.00     0.000 C 
BRANCH  19  20
ATOM     20  C   UNL     1      60.210  -2.637  31.449  1.00  0.00     0.000 C 
BRANCH  20  21
ATOM     21  C   UNL     1      59.970  -1.234  32.027  1.00  0.00     0.000 C 
BRANCH  21  22
ATOM     22  C   UNL     1      58.791  -0.514  31.353  1.00  0.00     0.000 C 
BRANCH  22  23
ATOM     23  C   UNL     1      59.024  -0.284  29.849  1.00  0.00     0.000 C 
BRANCH  23  24
ATOM     24  C   UNL     1      57.767   0.232  29.130  1.00  0.00    -0.000 C 
BRANCH  24  25
ATOM     25  C   UNL     1      56.471  -0.148  29.866  1.00  0.00    -0.000 C 
BRANCH  25  26
ATOM     26  C   UNL     1      55.410  -0.753  28.932  1.00  0.00    -0.000 C 
BRANCH  26  27
ATOM     27  C   UNL     1      54.253  -1.477  29.644  1.00  0.00    -0.000 C 
BRANCH  27  28
ATOM     28  C   UNL     1      54.470  -1.601  31.162  1.00  0.00    -0.000 C 
BRANCH  28  29
ATOM     29  C   UNL     1      54.834  -3.032  31.600  1.00  0.00    -0.000 C 
BRANCH  29  30
ATOM     30  C   UNL     1      56.341  -3.313  31.763  1.00  0.00    -0.000 C 
BRANCH  30  31
ATOM     31  C   UNL     1      56.929  -4.329  30.769  1.00  0.00    -0.003 C 
ATOM     32  C   UNL     1      57.468  -3.675  29.497  1.00  0.00     0.004 C 
ENDBRANCH  30  31
ENDBRANCH  29  30
ENDBRANCH  28  29
ENDBRANCH  27  28
ENDBRANCH  26  27
ENDBRANCH  25  26
ENDBRANCH  24  25
ENDBRANCH  23  24
ENDBRANCH  22  23
ENDBRANCH  21  22
ENDBRANCH  20  21
ENDBRANCH  19  20
ENDBRANCH  18  19
ENDBRANCH   1  18
TORSDOF 28
ENDMDL
MODEL 4
REMARK VINA RESULT:    -3.644      1.070      1.526
REMARK INTER + INTRA:         -15.218
REMARK INTER:                 -10.144
REMARK INTRA:                  -5.074
REMARK UNBOUND:                -5.609
REMARK SMILES CCCCCCCCCCCCCCCCCCCCCCCCCCCCCC(=O)[O-]
REMARK SMILES IDX 16 1 17 2 18 3 19 4 20 5 21 6 22 7 23 8 24 9 25 10 26 11
REMARK SMILES IDX 27 12 28 13 29 14 30 15 31 16 32 17 15 18 14 19 13 20 12 21
REMARK SMILES IDX 11 22 10 23 9 24 8 25 7 26 6 27 5 28 4 29 3 30 2 31 1 32
REMARK H PARENT
REMARK Flexibility Score: inf
ROOT
ATOM      1  C   UNL     1      61.377 -12.174  16.350  1.00  0.00     0.000 C 
ENDROOT
BRANCH   1   2
ATOM      2  C   UNL     1      61.584 -13.678  16.605  1.00  0.00     0.000 C 
BRANCH   2   3
ATOM      3  C   UNL     1      60.260 -14.450  16.727  1.00  0.00     0.000 C 
BRANCH   3   4
ATOM      4  C   UNL     1      60.301 -15.902  16.215  1.00  0.00     0.000 C 
BRANCH   4   5
ATOM      5  C   UNL     1      60.176 -16.029  14.681  1.00  0.00     0.000 C 
BRANCH   5   6
ATOM      6  C   UNL     1      60.548 -17.435  14.176  1.00  0.00     0.000 C 
BRANCH   6   7
ATOM      7  C   UNL     1      61.952 -17.474  13.536  1.00  0.00     0.000 C 
BRANCH   7   8
ATOM      8  C   UNL     1      62.710 -16.135  13.617  1.00  0.00     0.000 C 
BRANCH   8   9
ATOM      9  C   UNL     1      63.725 -16.090  14.772  1.00  0.00     0.000 C 
BRANCH   9  10
ATOM     10  C   UNL     1      64.115 -17.487  15.289  1.00  0.00     0.000 C 
BRANCH  10  11
ATOM     11  C   UNL     1      63.874 -17.724  16.791  1.00  0.00     0.000 C 
BRANCH  11  12
ATOM     12  C   UNL     1      63.718 -16.421  17.590  1.00  0.00     0.000 C 
BRANCH  12  13
ATOM     13  C   UNL     1      63.579 -16.708  19.091  1.00  0.00     0.006 C 
BRANCH  13  14
ATOM     14  C   UNL     1      62.425 -15.905  19.700  1.00  0.00     0.053 C 
BRANCH  14  15
ATOM     15  C   UNL     1      61.311 -16.814  20.117  1.00  0.00     0.041 C 
ATOM     16  O   UNL     1      61.146 -17.921  19.535  1.00  0.00    -0.550 OA
ATOM     17  O   UNL     1      60.444 -16.436  21.137  1.00  0.00    -0.550 OA
ENDBRANCH  14  15
ENDBRANCH  13  14
ENDBRANCH  12  13
ENDBRANCH  11  12
ENDBRANCH  10  11
ENDBRANCH   9  10
ENDBRANCH   8   9
ENDBRANCH   7   8
ENDBRANCH   6   7
ENDBRANCH   5   6
ENDBRANCH   4   5
ENDBRANCH   3   4
ENDBRANCH   2   3
ENDBRANCH   1   2
BRANCH   1  18
ATOM     18  C   UNL     1      62.135 -11.665  15.109  1.00  0.00     0.000 C 
BRANCH  18  19
ATOM     19  C   UNL     1      62.358 -12.713  14.003  1.00  0.00     0.000 C 
BRANCH  19  20
ATOM     20  C   UNL     1      63.651 -12.479  13.208  1.00  0.00     0.000 C 
BRANCH  20  21
ATOM     21  C   UNL     1      64.741 -11.861  14.096  1.00  0.00     0.000 C 
BRANCH  21  22
ATOM     22  C   UNL     1      65.713 -12.914  14.653  1.00  0.00     0.000 C 
BRANCH  22  23
ATOM     23  C   UNL     1      66.108 -12.634  16.115  1.00  0.00     0.000 C 
BRANCH  23  24
ATOM     24  C   UNL     1      65.144 -13.285  17.120  1.00  0.00    -0.000 C 
BRANCH  24  25
ATOM     25  C   UNL     1      64.625 -12.286  18.168  1.00  0.00    -0.000 C 
BRANCH  25  26
ATOM     26  C   UNL     1      65.666 -11.966  19.254  1.00  0.00    -0.000 C 
BRANCH  26  27
ATOM     27  C   UNL     1      65.540 -12.800  20.542  1.00  0.00    -0.000 C 
BRANCH  27  28
ATOM     28  C   UNL     1      64.166 -12.651  21.218  1.00  0.00    -0.000 C 
BRANCH  28  29
ATOM     29  C   UNL     1      64.173 -11.627  22.368  1.00  0.00    -0.000 C 
BRANCH  29  30
ATOM     30  C   UNL     1      63.406 -12.050  23.638  1.00  0.00    -0.000 C 
BRANCH  30  31
ATOM     31  C   UNL     1      63.318 -10.976  24.736  1.00  0.00    -0.003 C 
ATOM     32  C   UNL     1      62.167  -9.995  24.518  1.00  0.00     0.004 C 
ENDBRANCH  30  31
ENDBRANCH  29  30
ENDBRANCH  28  29
ENDBRANCH  27  28
ENDBRANCH  26  27
ENDBRANCH  25  26
ENDBRANCH  24  25
ENDBRANCH  23  24
ENDBRANCH  22  23
ENDBRANCH  21  22
ENDBRANCH  20  21
ENDBRANCH  19  20
ENDBRANCH  18  19
ENDBRANCH   1  18
TORSDOF 28
ENDMDL
MODEL 5
REMARK VINA RESULT:    -3.583      2.633      5.526
REMARK INTER + INTRA:         -15.058
REMARK INTER:                  -9.888
REMARK INTRA:                  -5.170
REMARK UNBOUND:                -5.609
REMARK SMILES CCCCCCCCCCCCCCCCCCCCCCCCCCCCCC(=O)[O-]
REMARK SMILES IDX 16 1 17 2 18 3 19 4 20 5 21 6 22 7 23 8 24 9 25 10 26 11
REMARK SMILES IDX 27 12 28 13 29 14 30 15 31 16 32 17 15 18 14 19 13 20 12 21
REMARK SMILES IDX 11 22 10 23 9 24 8 25 7 26 6 27 5 28 4 29 3 30 2 31 1 32
REMARK H PARENT
REMARK Flexibility Score: inf
ROOT
ATOM      1  C   UNL     1      63.913 -12.154  18.137  1.00  0.00     0.000 C 
ENDROOT
BRANCH   1   2
ATOM      2  C   UNL     1      64.667 -11.017  17.425  1.00  0.00     0.000 C 
BRANCH   2   3
ATOM      3  C   UNL     1      65.940 -11.501  16.711  1.00  0.00     0.000 C 
BRANCH   3   4
ATOM      4  C   UNL     1      65.832 -11.600  15.178  1.00  0.00     0.000 C 
BRANCH   4   5
ATOM      5  C   UNL     1      66.027 -13.030  14.628  1.00  0.00     0.000 C 
BRANCH   5   6
ATOM      6  C   UNL     1      64.774 -13.906  14.812  1.00  0.00     0.000 C 
BRANCH   6   7
ATOM      7  C   UNL     1      65.123 -15.332  15.287  1.00  0.00     0.000 C 
BRANCH   7   8
ATOM      8  C   UNL     1      63.909 -16.277  15.364  1.00  0.00     0.000 C 
BRANCH   8   9
ATOM      9  C   UNL     1      63.481 -16.817  13.989  1.00  0.00     0.000 C 
BRANCH   9  10
ATOM     10  C   UNL     1      61.954 -16.949  13.840  1.00  0.00     0.000 C 
BRANCH  10  11
ATOM     11  C   UNL     1      61.138 -16.614  15.102  1.00  0.00     0.000 C 
BRANCH  11  12
ATOM     12  C   UNL     1      60.102 -15.502  14.873  1.00  0.00     0.000 C 
BRANCH  12  13
ATOM     13  C   UNL     1      60.519 -14.206  15.581  1.00  0.00     0.006 C 
BRANCH  13  14
ATOM     14  C   UNL     1      61.318 -13.298  14.640  1.00  0.00     0.053 C 
BRANCH  14  15
ATOM     15  C   UNL     1      61.523 -11.948  15.255  1.00  0.00     0.041 C 
ATOM     16  O   UNL     1      60.923 -11.642  16.321  1.00  0.00    -0.550 OA
ATOM     17  O   UNL     1      62.363 -11.023  14.645  1.00  0.00    -0.550 OA
ENDBRANCH  14  15
ENDBRANCH  13  14
ENDBRANCH  12  13
ENDBRANCH  11  12
ENDBRANCH  10  11
ENDBRANCH   9  10
ENDBRANCH   8   9
ENDBRANCH   7   8
ENDBRANCH   6   7
ENDBRANCH   5   6
ENDBRANCH   4   5
ENDBRANCH   3   4
ENDBRANCH   2   3
ENDBRANCH   1   2
BRANCH   1  18
ATOM     18  C   UNL     1      64.814 -13.360  18.466  1.00  0.00     0.000 C 
BRANCH  18  19
ATOM     19  C   UNL     1      64.068 -14.673  18.766  1.00  0.00     0.000 C 
BRANCH  19  20
ATOM     20  C   UNL     1      62.543 -14.534  18.660  1.00  0.00     0.000 C 
BRANCH  20  21
ATOM     21  C   UNL     1      61.867 -15.912  18.585  1.00  0.00     0.000 C 
BRANCH  21  22
ATOM     22  C   UNL     1      62.278 -16.833  19.745  1.00  0.00     0.000 C 
BRANCH  22  23
ATOM     23  C   UNL     1      61.386 -16.649  20.986  1.00  0.00     0.000 C 
BRANCH  23  24
ATOM     24  C   UNL     1      62.200 -16.397  22.265  1.00  0.00    -0.000 C 
BRANCH  24  25
ATOM     25  C   UNL     1      63.703 -16.663  22.067  1.00  0.00    -0.000 C 
BRANCH  25  26
ATOM     26  C   UNL     1      64.563 -15.404  22.272  1.00  0.00    -0.000 C 
BRANCH  26  27
ATOM     27  C   UNL     1      63.806 -14.180  22.817  1.00  0.00    -0.000 C 
BRANCH  27  28
ATOM     28  C   UNL     1      64.149 -12.882  22.065  1.00  0.00    -0.000 C 
BRANCH  28  29
ATOM     29  C   UNL     1      63.852 -11.616  22.890  1.00  0.00    -0.000 C 
BRANCH  29  30
ATOM     30  C   UNL     1      62.988 -11.833  24.149  1.00  0.00    -0.000 C 
BRANCH  30  31
ATOM     31  C   UNL     1      62.054 -10.664  24.510  1.00  0.00    -0.003 C 
ATOM     32  C   UNL     1      62.789  -9.496  25.166  1.00  0.00     0.004 C 
ENDBRANCH  30  31
ENDBRANCH  29  30
ENDBRANCH  28  29
ENDBRANCH  27  28
ENDBRANCH  26  27
ENDBRANCH  25  26
ENDBRANCH  24  25
ENDBRANCH  23  24
ENDBRANCH  22  23
ENDBRANCH  21  22
ENDBRANCH  20  21
ENDBRANCH  19  20
ENDBRANCH  18  19
ENDBRANCH   1  18
TORSDOF 28
ENDMDL
MODEL 6
REMARK VINA RESULT:    -3.557      2.257      6.815
REMARK INTER + INTRA:         -14.988
REMARK INTER:                  -9.947
REMARK INTRA:                  -5.041
REMARK UNBOUND:                -5.609
REMARK SMILES CCCCCCCCCCCCCCCCCCCCCCCCCCCCCC(=O)[O-]
REMARK SMILES IDX 16 1 17 2 18 3 19 4 20 5 21 6 22 7 23 8 24 9 25 10 26 11
REMARK SMILES IDX 27 12 28 13 29 14 30 15 31 16 32 17 15 18 14 19 13 20 12 21
REMARK SMILES IDX 11 22 10 23 9 24 8 25 7 26 6 27 5 28 4 29 3 30 2 31 1 32
REMARK H PARENT
REMARK Flexibility Score: inf
ROOT
ATOM      1  C   UNL     1      62.000 -11.317  14.727  1.00  0.00     0.000 C 
ENDROOT
BRANCH   1   2
ATOM      2  C   UNL     1      63.124 -12.133  14.064  1.00  0.00     0.000 C 
BRANCH   2   3
ATOM      3  C   UNL     1      64.508 -11.485  14.228  1.00  0.00     0.000 C 
BRANCH   3   4
ATOM      4  C   UNL     1      65.651 -12.461  14.567  1.00  0.00     0.000 C 
BRANCH   4   5
ATOM      5  C   UNL     1      65.890 -12.642  16.082  1.00  0.00     0.000 C 
BRANCH   5   6
ATOM      6  C   UNL     1      65.095 -11.629  16.927  1.00  0.00     0.000 C 
BRANCH   6   7
ATOM      7  C   UNL     1      64.317 -12.308  18.074  1.00  0.00     0.000 C 
BRANCH   7   8
ATOM      8  C   UNL     1      64.981 -12.152  19.454  1.00  0.00     0.000 C 
BRANCH   8   9
ATOM      9  C   UNL     1      64.726 -13.351  20.383  1.00  0.00     0.000 C 
BRANCH   9  10
ATOM     10  C   UNL     1      64.133 -12.945  21.745  1.00  0.00     0.000 C 
BRANCH  10  11
ATOM     11  C   UNL     1      64.012 -14.083  22.775  1.00  0.00     0.000 C 
BRANCH  11  12
ATOM     12  C   UNL     1      64.026 -13.584  24.229  1.00  0.00     0.000 C 
BRANCH  12  13
ATOM     13  C   UNL     1      62.626 -13.138  24.671  1.00  0.00     0.006 C 
BRANCH  13  14
ATOM     14  C   UNL     1      62.692 -11.835  25.474  1.00  0.00     0.053 C 
BRANCH  14  15
ATOM     15  C   UNL     1      62.389 -10.658  24.600  1.00  0.00     0.041 C 
ATOM     16  O   UNL     1      63.306 -10.123  23.919  1.00  0.00    -0.550 OA
ATOM     17  O   UNL     1      61.099 -10.141  24.545  1.00  0.00    -0.550 OA
ENDBRANCH  14  15
ENDBRANCH  13  14
ENDBRANCH  12  13
ENDBRANCH  11  12
ENDBRANCH  10  11
ENDBRANCH   9  10
ENDBRANCH   8   9
ENDBRANCH   7   8
ENDBRANCH   6   7
ENDBRANCH   5   6
ENDBRANCH   4   5
ENDBRANCH   3   4
ENDBRANCH   2   3
ENDBRANCH   1   2
BRANCH   1  18
ATOM     18  C   UNL     1      61.429 -11.993  15.988  1.00  0.00     0.000 C 
BRANCH  18  19
ATOM     19  C   UNL     1      61.530 -13.530  16.009  1.00  0.00     0.000 C 
BRANCH  19  20
ATOM     20  C   UNL     1      60.621 -14.176  17.064  1.00  0.00     0.000 C 
BRANCH  20  21
ATOM     21  C   UNL     1      61.434 -14.644  18.281  1.00  0.00     0.000 C 
BRANCH  21  22
ATOM     22  C   UNL     1      61.282 -16.150  18.547  1.00  0.00     0.000 C 
BRANCH  22  23
ATOM     23  C   UNL     1      62.510 -16.956  18.084  1.00  0.00     0.000 C 
BRANCH  23  24
ATOM     24  C   UNL     1      63.834 -16.229  18.372  1.00  0.00    -0.000 C 
BRANCH  24  25
ATOM     25  C   UNL     1      64.656 -15.977  17.096  1.00  0.00    -0.000 C 
BRANCH  25  26
ATOM     26  C   UNL     1      64.000 -16.570  15.837  1.00  0.00    -0.000 C 
BRANCH  26  27
ATOM     27  C   UNL     1      64.102 -15.692  14.577  1.00  0.00    -0.000 C 
BRANCH  27  28
ATOM     28  C   UNL     1      62.889 -15.843  13.643  1.00  0.00    -0.000 C 
BRANCH  28  29
ATOM     29  C   UNL     1      62.663 -17.296  13.186  1.00  0.00    -0.000 C 
BRANCH  29  30
ATOM     30  C   UNL     1      61.260 -17.870  13.470  1.00  0.00    -0.000 C 
BRANCH  30  31
ATOM     31  C   UNL     1      60.305 -16.922  14.217  1.00  0.00    -0.003 C 
ATOM     32  C   UNL     1      59.755 -17.527  15.508  1.00  0.00     0.004 C 
ENDBRANCH  30  31
ENDBRANCH  29  30
ENDBRANCH  28  29
ENDBRANCH  27  28
ENDBRANCH  26  27
ENDBRANCH  25  26
ENDBRANCH  24  25
ENDBRANCH  23  24
ENDBRANCH  22  23
ENDBRANCH  21  22
ENDBRANCH  20  21
ENDBRANCH  19  20
ENDBRANCH  18  19
ENDBRANCH   1  18
TORSDOF 28
ENDMDL
MODEL 7
REMARK VINA RESULT:    -3.535      9.248     14.835
REMARK INTER + INTRA:         -14.931
REMARK INTER:                 -11.698
REMARK INTRA:                  -3.233
REMARK UNBOUND:                -5.609
REMARK SMILES CCCCCCCCCCCCCCCCCCCCCCCCCCCCCC(=O)[O-]
REMARK SMILES IDX 16 1 17 2 18 3 19 4 20 5 21 6 22 7 23 8 24 9 25 10 26 11
REMARK SMILES IDX 27 12 28 13 29 14 30 15 31 16 32 17 15 18 14 19 13 20 12 21
REMARK SMILES IDX 11 22 10 23 9 24 8 25 7 26 6 27 5 28 4 29 3 30 2 31 1 32
REMARK H PARENT
REMARK Flexibility Score: inf
ROOT
ATOM      1  C   UNL     1      62.977  -4.462  28.531  1.00  0.00     0.000 C 
ENDROOT
BRANCH   1   2
ATOM      2  C   UNL     1      63.444  -4.284  27.075  1.00  0.00     0.000 C 
BRANCH   2   3
ATOM      3  C   UNL     1      64.001  -5.580  26.464  1.00  0.00     0.000 C 
BRANCH   3   4
ATOM      4  C   UNL     1      63.639  -6.870  27.225  1.00  0.00     0.000 C 
BRANCH   4   5
ATOM      5  C   UNL     1      63.937  -8.165  26.440  1.00  0.00     0.000 C 
BRANCH   5   6
ATOM      6  C   UNL     1      62.658  -8.828  25.895  1.00  0.00     0.000 C 
BRANCH   6   7
ATOM      7  C   UNL     1      62.966  -9.905  24.833  1.00  0.00     0.000 C 
BRANCH   7   8
ATOM      8  C   UNL     1      61.816 -10.905  24.609  1.00  0.00     0.000 C 
BRANCH   8   9
ATOM      9  C   UNL     1      62.223 -12.361  24.895  1.00  0.00     0.000 C 
BRANCH   9  10
ATOM     10  C   UNL     1      63.546 -12.477  25.675  1.00  0.00     0.000 C 
BRANCH  10  11
ATOM     11  C   UNL     1      63.571 -13.559  26.771  1.00  0.00     0.000 C 
BRANCH  11  12
ATOM     12  C   UNL     1      63.946 -13.005  28.155  1.00  0.00     0.000 C 
BRANCH  12  13
ATOM     13  C   UNL     1      63.789 -11.479  28.199  1.00  0.00     0.006 C 
BRANCH  13  14
ATOM     14  C   UNL     1      64.555 -10.881  29.384  1.00  0.00     0.053 C 
BRANCH  14  15
ATOM     15  C   UNL     1      63.702 -10.872  30.614  1.00  0.00     0.041 C 
ATOM     16  O   UNL     1      63.839 -11.774  31.486  1.00  0.00    -0.550 OA
ATOM     17  O   UNL     1      62.746  -9.878  30.794  1.00  0.00    -0.550 OA
ENDBRANCH  14  15
ENDBRANCH  13  14
ENDBRANCH  12  13
ENDBRANCH  11  12
ENDBRANCH  10  11
ENDBRANCH   9  10
ENDBRANCH   8   9
ENDBRANCH   7   8
ENDBRANCH   6   7
ENDBRANCH   5   6
ENDBRANCH   4   5
ENDBRANCH   3   4
ENDBRANCH   2   3
ENDBRANCH   1   2
BRANCH   1  18
ATOM     18  C   UNL     1      61.615  -3.800  28.810  1.00  0.00     0.000 C 
BRANCH  18  19
ATOM     19  C   UNL     1      61.227  -2.666  27.844  1.00  0.00     0.000 C 
BRANCH  19  20
ATOM     20  C   UNL     1      60.806  -1.379  28.568  1.00  0.00     0.000 C 
BRANCH  20  21
ATOM     21  C   UNL     1      60.631  -1.625  30.074  1.00  0.00     0.000 C 
BRANCH  21  22
ATOM     22  C   UNL     1      59.453  -0.834  30.666  1.00  0.00     0.000 C 
BRANCH  22  23
ATOM     23  C   UNL     1      58.613  -0.131  29.584  1.00  0.00     0.000 C 
BRANCH  23  24
ATOM     24  C   UNL     1      57.285   0.414  30.131  1.00  0.00    -0.000 C 
BRANCH  24  25
ATOM     25  C   UNL     1      56.846  -0.294  31.425  1.00  0.00    -0.000 C 
BRANCH  25  26
ATOM     26  C   UNL     1      55.317  -0.362  31.579  1.00  0.00    -0.000 C 
BRANCH  26  27
ATOM     27  C   UNL     1      54.592  -1.198  30.509  1.00  0.00    -0.000 C 
BRANCH  27  28
ATOM     28  C   UNL     1      55.215  -2.591  30.316  1.00  0.00    -0.000 C 
BRANCH  28  29
ATOM     29  C   UNL     1      55.052  -3.496  31.551  1.00  0.00    -0.000 C 
BRANCH  29  30
ATOM     30  C   UNL     1      56.216  -4.473  31.815  1.00  0.00    -0.000 C 
BRANCH  30  31
ATOM     31  C   UNL     1      57.620  -3.906  31.541  1.00  0.00    -0.003 C 
ATOM     32  C   UNL     1      58.166  -4.305  30.170  1.00  0.00     0.004 C 
ENDBRANCH  30  31
ENDBRANCH  29  30
ENDBRANCH  28  29
ENDBRANCH  27  28
ENDBRANCH  26  27
ENDBRANCH  25  26
ENDBRANCH  24  25
ENDBRANCH  23  24
ENDBRANCH  22  23
ENDBRANCH  21  22
ENDBRANCH  20  21
ENDBRANCH  19  20
ENDBRANCH  18  19
ENDBRANCH   1  18
TORSDOF 28
ENDMDL
MODEL 8
REMARK VINA RESULT:    -3.500      2.510      6.583
REMARK INTER + INTRA:         -14.839
REMARK INTER:                  -9.636
REMARK INTRA:                  -5.203
REMARK UNBOUND:                -5.609
REMARK SMILES CCCCCCCCCCCCCCCCCCCCCCCCCCCCCC(=O)[O-]
REMARK SMILES IDX 16 1 17 2 18 3 19 4 20 5 21 6 22 7 23 8 24 9 25 10 26 11
REMARK SMILES IDX 27 12 28 13 29 14 30 15 31 16 32 17 15 18 14 19 13 20 12 21
REMARK SMILES IDX 11 22 10 23 9 24 8 25 7 26 6 27 5 28 4 29 3 30 2 31 1 32
REMARK H PARENT
REMARK Flexibility Score: inf
ROOT
ATOM      1  C   UNL     1      63.490 -11.500  17.170  1.00  0.00     0.000 C 
ENDROOT
BRANCH   1   2
ATOM      2  C   UNL     1      64.916 -10.929  17.068  1.00  0.00     0.000 C 
BRANCH   2   3
ATOM      3  C   UNL     1      65.991 -11.924  17.536  1.00  0.00     0.000 C 
BRANCH   3   4
ATOM      4  C   UNL     1      65.455 -13.282  18.027  1.00  0.00     0.000 C 
BRANCH   4   5
ATOM      5  C   UNL     1      65.639 -13.517  19.542  1.00  0.00     0.000 C 
BRANCH   5   6
ATOM      6  C   UNL     1      64.827 -12.521  20.392  1.00  0.00     0.000 C 
BRANCH   6   7
ATOM      7  C   UNL     1      64.217 -13.186  21.645  1.00  0.00     0.000 C 
BRANCH   7   8
ATOM      8  C   UNL     1      64.908 -14.501  22.050  1.00  0.00     0.000 C 
BRANCH   8   9
ATOM      9  C   UNL     1      64.068 -15.345  23.024  1.00  0.00     0.000 C 
BRANCH   9  10
ATOM     10  C   UNL     1      63.102 -14.501  23.876  1.00  0.00     0.000 C 
BRANCH  10  11
ATOM     11  C   UNL     1      63.641 -14.073  25.254  1.00  0.00     0.000 C 
BRANCH  11  12
ATOM     12  C   UNL     1      63.200 -12.658  25.660  1.00  0.00     0.000 C 
BRANCH  12  13
ATOM     13  C   UNL     1      64.062 -11.593  24.970  1.00  0.00     0.006 C 
BRANCH  13  14
ATOM     14  C   UNL     1      63.222 -10.743  24.010  1.00  0.00     0.053 C 
BRANCH  14  15
ATOM     15  C   UNL     1      62.190  -9.961  24.761  1.00  0.00     0.041 C 
ATOM     16  O   UNL     1      60.968 -10.085  24.472  1.00  0.00    -0.550 OA
ATOM     17  O   UNL     1      62.574  -9.085  25.771  1.00  0.00    -0.550 OA
ENDBRANCH  14  15
ENDBRANCH  13  14
ENDBRANCH  12  13
ENDBRANCH  11  12
ENDBRANCH  10  11
ENDBRANCH   9  10
ENDBRANCH   8   9
ENDBRANCH   7   8
ENDBRANCH   6   7
ENDBRANCH   5   6
ENDBRANCH   4   5
ENDBRANCH   3   4
ENDBRANCH   2   3
ENDBRANCH   1   2
BRANCH   1  18
ATOM     18  C   UNL     1      62.837 -11.733  15.794  1.00  0.00     0.000 C 
BRANCH  18  19
ATOM     19  C   UNL     1      63.770 -11.538  14.585  1.00  0.00     0.000 C 
BRANCH  19  20
ATOM     20  C   UNL     1      64.295 -12.862  14.012  1.00  0.00     0.000 C 
BRANCH  20  21
ATOM     21  C   UNL     1      63.408 -14.040  14.443  1.00  0.00     0.000 C 
BRANCH  21  22
ATOM     22  C   UNL     1      64.219 -15.194  15.053  1.00  0.00     0.000 C 
BRANCH  22  23
ATOM     23  C   UNL     1      63.698 -16.575  14.614  1.00  0.00     0.000 C 
BRANCH  23  24
ATOM     24  C   UNL     1      62.647 -16.480  13.498  1.00  0.00    -0.000 C 
BRANCH  24  25
ATOM     25  C   UNL     1      61.480 -17.461  13.703  1.00  0.00    -0.000 C 
BRANCH  25  26
ATOM     26  C   UNL     1      60.508 -17.009  14.806  1.00  0.00    -0.000 C 
BRANCH  26  27
ATOM     27  C   UNL     1      60.105 -15.525  14.750  1.00  0.00    -0.000 C 
BRANCH  27  28
ATOM     28  C   UNL     1      60.170 -14.836  16.124  1.00  0.00    -0.000 C 
BRANCH  28  29
ATOM     29  C   UNL     1      61.062 -15.588  17.129  1.00  0.00    -0.000 C 
BRANCH  29  30
ATOM     30  C   UNL     1      61.933 -14.697  18.038  1.00  0.00    -0.000 C 
BRANCH  30  31
ATOM     31  C   UNL     1      62.510 -15.397  19.281  1.00  0.00    -0.003 C 
ATOM     32  C   UNL     1      61.466 -16.210  20.045  1.00  0.00     0.004 C 
ENDBRANCH  30  31
ENDBRANCH  29  30
ENDBRANCH  28  29
ENDBRANCH  27  28
ENDBRANCH  26  27
ENDBRANCH  25  26
ENDBRANCH  24  25
ENDBRANCH  23  24
ENDBRANCH  22  23
ENDBRANCH  21  22
ENDBRANCH  20  21
ENDBRANCH  19  20
ENDBRANCH  18  19
ENDBRANCH   1  18
TORSDOF 28
ENDMDL
MODEL 9
REMARK VINA RESULT:    -3.468      2.537      5.230
REMARK INTER + INTRA:         -14.754
REMARK INTER:                  -9.094
REMARK INTRA:                  -5.660
REMARK UNBOUND:                -5.609
REMARK SMILES CCCCCCCCCCCCCCCCCCCCCCCCCCCCCC(=O)[O-]
REMARK SMILES IDX 16 1 17 2 18 3 19 4 20 5 21 6 22 7 23 8 24 9 25 10 26 11
REMARK SMILES IDX 27 12 28 13 29 14 30 15 31 16 32 17 15 18 14 19 13 20 12 21
REMARK SMILES IDX 11 22 10 23 9 24 8 25 7 26 6 27 5 28 4 29 3 30 2 31 1 32
REMARK H PARENT
REMARK Flexibility Score: inf
ROOT
ATOM      1  C   UNL     1      64.609 -11.310  15.949  1.00  0.00     0.000 C 
ENDROOT
BRANCH   1   2
ATOM      2  C   UNL     1      65.543 -12.498  15.659  1.00  0.00     0.000 C 
BRANCH   2   3
ATOM      3  C   UNL     1      65.114 -13.307  14.424  1.00  0.00     0.000 C 
BRANCH   3   4
ATOM      4  C   UNL     1      64.274 -12.529  13.393  1.00  0.00     0.000 C 
BRANCH   4   5
ATOM      5  C   UNL     1      62.843 -13.077  13.209  1.00  0.00     0.000 C 
BRANCH   5   6
ATOM      6  C   UNL     1      62.564 -14.300  14.103  1.00  0.00     0.000 C 
BRANCH   6   7
ATOM      7  C   UNL     1      61.080 -14.391  14.520  1.00  0.00     0.000 C 
BRANCH   7   8
ATOM      8  C   UNL     1      60.865 -14.453  16.044  1.00  0.00     0.000 C 
BRANCH   8   9
ATOM      9  C   UNL     1      61.595 -13.330  16.799  1.00  0.00     0.000 C 
BRANCH   9  10
ATOM     10  C   UNL     1      62.359 -13.832  18.038  1.00  0.00     0.000 C 
BRANCH  10  11
ATOM     11  C   UNL     1      62.900 -15.270  17.940  1.00  0.00     0.000 C 
BRANCH  11  12
ATOM     12  C   UNL     1      64.363 -15.334  17.474  1.00  0.00     0.000 C 
BRANCH  12  13
ATOM     13  C   UNL     1      64.562 -16.445  16.436  1.00  0.00     0.006 C 
BRANCH  13  14
ATOM     14  C   UNL     1      63.447 -17.492  16.528  1.00  0.00     0.053 C 
BRANCH  14  15
ATOM     15  C   UNL     1      62.845 -17.744  15.181  1.00  0.00     0.041 C 
ATOM     16  O   UNL     1      63.582 -17.800  14.159  1.00  0.00    -0.550 OA
ATOM     17  O   UNL     1      61.469 -17.903  15.049  1.00  0.00    -0.550 OA
ENDBRANCH  14  15
ENDBRANCH  13  14
ENDBRANCH  12  13
ENDBRANCH  11  12
ENDBRANCH  10  11
ENDBRANCH   9  10
ENDBRANCH   8   9
ENDBRANCH   7   8
ENDBRANCH   6   7
ENDBRANCH   5   6
ENDBRANCH   4   5
ENDBRANCH   3   4
ENDBRANCH   2   3
ENDBRANCH   1   2
BRANCH   1  18
ATOM     18  C   UNL     1      64.512 -10.975  17.450  1.00  0.00     0.000 C 
BRANCH  18  19
ATOM     19  C   UNL     1      65.434 -11.801  18.366  1.00  0.00     0.000 C 
BRANCH  19  20
ATOM     20  C   UNL     1      65.361 -11.368  19.837  1.00  0.00     0.000 C 
BRANCH  20  21
ATOM     21  C   UNL     1      65.390 -12.587  20.773  1.00  0.00     0.000 C 
BRANCH  21  22
ATOM     22  C   UNL     1      63.983 -13.039  21.195  1.00  0.00     0.000 C 
BRANCH  22  23
ATOM     23  C   UNL     1      63.970 -14.469  21.765  1.00  0.00     0.000 C 
BRANCH  23  24
ATOM     24  C   UNL     1      64.741 -14.582  23.090  1.00  0.00    -0.000 C 
BRANCH  24  25
ATOM     25  C   UNL     1      63.925 -15.289  24.186  1.00  0.00    -0.000 C 
BRANCH  25  26
ATOM     26  C   UNL     1      62.531 -14.670  24.385  1.00  0.00    -0.000 C 
BRANCH  26  27
ATOM     27  C   UNL     1      62.368 -13.834  25.666  1.00  0.00    -0.000 C 
BRANCH  27  28
ATOM     28  C   UNL     1      63.030 -12.449  25.564  1.00  0.00    -0.000 C 
BRANCH  28  29
ATOM     29  C   UNL     1      62.575 -11.657  24.324  1.00  0.00    -0.000 C 
BRANCH  29  30
ATOM     30  C   UNL     1      63.401 -10.396  24.002  1.00  0.00    -0.000 C 
BRANCH  30  31
ATOM     31  C   UNL     1      64.921 -10.616  23.907  1.00  0.00    -0.003 C 
ATOM     32  C   UNL     1      65.631  -9.530  23.099  1.00  0.00     0.004 C 
ENDBRANCH  30  31
ENDBRANCH  29  30
ENDBRANCH  28  29
ENDBRANCH  27  28
ENDBRANCH  26  27
ENDBRANCH  25  26
ENDBRANCH  24  25
ENDBRANCH  23  24
ENDBRANCH  22  23
ENDBRANCH  21  22
ENDBRANCH  20  21
ENDBRANCH  19  20
ENDBRANCH  18  19
ENDBRANCH   1  18
TORSDOF 28
ENDMDL
