MODEL 1
REMARK VINA RESULT:    -3.099      0.000      0.000
REMARK INTER + INTRA:          -6.891
REMARK INTER:                  -5.273
REMARK INTRA:                  -1.618
REMARK UNBOUND:                -1.618
REMARK SMILES CCCCCCCCCCCCCC(=O)[O-]
REMARK SMILES IDX 8 1 9 2 10 3 11 4 12 5 13 6 14 7 15 8 16 9 7 10 6 11 5 12
REMARK SMILES IDX 4 13 3 14 2 15 1 16
REMARK H PARENT
REMARK Flexibility Score: inf
ROOT
ATOM      1  C   UNL     1      -2.646  12.557  10.723  1.00  0.00     0.000 C 
ENDROOT
BRANCH   1   2
ATOM      2  C   UNL     1      -1.911  13.783  10.169  1.00  0.00     0.000 C 
BRANCH   2   3
ATOM      3  C   UNL     1      -0.454  13.818  10.655  1.00  0.00     0.000 C 
BRANCH   3   4
ATOM      4  C   UNL     1      -0.047  15.212  11.177  1.00  0.00     0.000 C 
BRANCH   4   5
ATOM      5  C   UNL     1      -1.231  16.181  11.336  1.00  0.00     0.006 C 
BRANCH   5   6
ATOM      6  C   UNL     1      -0.965  17.283  12.367  1.00  0.00     0.053 C 
BRANCH   6   7
ATOM      7  C   UNL     1      -2.231  17.655  13.073  1.00  0.00     0.041 C 
ATOM      8  O   UNL     1      -2.676  16.931  14.001  1.00  0.00    -0.550 OA
ATOM      9  O   UNL     1      -2.946  18.777  12.672  1.00  0.00    -0.550 OA
ENDBRANCH   6   7
ENDBRANCH   5   6
ENDBRANCH   4   5
ENDBRANCH   3   4
ENDBRANCH   2   3
ENDBRANCH   1   2
BRANCH   1  10
ATOM     10  C   UNL     1      -1.897  11.963  11.925  1.00  0.00     0.000 C 
BRANCH  10  11
ATOM     11  C   UNL     1      -2.036  10.432  12.023  1.00  0.00    -0.000 C 
BRANCH  11  12
ATOM     12  C   UNL     1      -1.219   9.638  10.985  1.00  0.00    -0.000 C 
BRANCH  12  13
ATOM     13  C   UNL     1       0.222  10.136  10.770  1.00  0.00    -0.000 C 
BRANCH  13  14
ATOM     14  C   UNL     1       0.573  10.406   9.290  1.00  0.00    -0.000 C 
BRANCH  14  15
ATOM     15  C   UNL     1      -0.661  10.364   8.377  1.00  0.00    -0.003 C 
ATOM     16  C   UNL     1      -0.765  11.633   7.535  1.00  0.00     0.004 C 
ENDBRANCH  14  15
ENDBRANCH  13  14
ENDBRANCH  12  13
ENDBRANCH  11  12
ENDBRANCH  10  11
ENDBRANCH   1  10
TORSDOF 12
ENDMDL
MODEL 2
REMARK VINA RESULT:    -2.862      3.284      6.757
REMARK INTER + INTRA:          -6.488
REMARK INTER:                  -5.247
REMARK INTRA:                  -1.241
REMARK UNBOUND:                -1.618
REMARK SMILES CCCCCCCCCCCCCC(=O)[O-]
REMARK SMILES IDX 8 1 9 2 10 3 11 4 12 5 13 6 14 7 15 8 16 9 7 10 6 11 5 12
REMARK SMILES IDX 4 13 3 14 2 15 1 16
REMARK H PARENT
REMARK Flexibility Score: inf
ROOT
ATOM      1  C   UNL     1      -2.624  12.663  10.702  1.00  0.00     0.000 C 
ENDROOT
BRANCH   1   2
ATOM      2  C   UNL     1      -2.073  11.938  11.935  1.00  0.00     0.000 C 
BRANCH   2   3
ATOM      3  C   UNL     1      -1.478  10.574  11.553  1.00  0.00     0.000 C 
BRANCH   3   4
ATOM      4  C   UNL     1       0.063  10.612  11.472  1.00  0.00     0.000 C 
BRANCH   4   5
ATOM      5  C   UNL     1       0.620  10.172  10.107  1.00  0.00     0.006 C 
BRANCH   5   6
ATOM      6  C   UNL     1       0.551  11.280   9.050  1.00  0.00     0.053 C 
BRANCH   6   7
ATOM      7  C   UNL     1      -0.537  10.996   8.065  1.00  0.00     0.041 C 
ATOM      8  O   UNL     1      -1.039  11.930   7.387  1.00  0.00    -0.550 OA
ATOM      9  O   UNL     1      -1.032   9.705   7.930  1.00  0.00    -0.550 OA
ENDBRANCH   6   7
ENDBRANCH   5   6
ENDBRANCH   4   5
ENDBRANCH   3   4
ENDBRANCH   2   3
ENDBRANCH   1   2
BRANCH   1  10
ATOM     10  C   UNL     1      -1.785  13.907  10.375  1.00  0.00     0.000 C 
BRANCH  10  11
ATOM     11  C   UNL     1      -0.655  14.153  11.393  1.00  0.00    -0.000 C 
BRANCH  11  12
ATOM     12  C   UNL     1      -0.822  15.418  12.257  1.00  0.00    -0.000 C 
BRANCH  12  13
ATOM     13  C   UNL     1      -1.456  16.622  11.535  1.00  0.00    -0.000 C 
BRANCH  13  14
ATOM     14  C   UNL     1      -1.261  17.964  12.274  1.00  0.00    -0.000 C 
BRANCH  14  15
ATOM     15  C   UNL     1      -2.593  18.611  12.678  1.00  0.00    -0.003 C 
ATOM     16  C   UNL     1      -3.219  17.885  13.866  1.00  0.00     0.004 C 
ENDBRANCH  14  15
ENDBRANCH  13  14
ENDBRANCH  12  13
ENDBRANCH  11  12
ENDBRANCH  10  11
ENDBRANCH   1  10
TORSDOF 12
ENDMDL
MODEL 3
REMARK VINA RESULT:    -2.846     13.596     15.087
REMARK INTER + INTRA:          -6.461
REMARK INTER:                  -5.221
REMARK INTRA:                  -1.241
REMARK UNBOUND:                -1.618
REMARK SMILES CCCCCCCCCCCCCC(=O)[O-]
REMARK SMILES IDX 8 1 9 2 10 3 11 4 12 5 13 6 14 7 15 8 16 9 7 10 6 11 5 12
REMARK SMILES IDX 4 13 3 14 2 15 1 16
REMARK H PARENT
REMARK Flexibility Score: inf
ROOT
ATOM      1  C   UNL     1     -15.336  11.488   5.614  1.00  0.00     0.000 C 
ENDROOT
BRANCH   1   2
ATOM      2  C   UNL     1     -15.617  10.613   6.841  1.00  0.00     0.000 C 
BRANCH   2   3
ATOM      3  C   UNL     1     -17.127  10.416   7.043  1.00  0.00     0.000 C 
BRANCH   3   4
ATOM      4  C   UNL     1     -17.463   9.891   8.456  1.00  0.00     0.000 C 
BRANCH   4   5
ATOM      5  C   UNL     1     -16.281   9.193   9.151  1.00  0.00     0.006 C 
BRANCH   5   6
ATOM      6  C   UNL     1     -16.413   9.178  10.678  1.00  0.00     0.053 C 
BRANCH   6   7
ATOM      7  C   UNL     1     -15.907  10.459  11.259  1.00  0.00     0.041 C 
ATOM      8  O   UNL     1     -14.689  10.586  11.550  1.00  0.00    -0.550 OA
ATOM      9  O   UNL     1     -16.791  11.497  11.527  1.00  0.00    -0.550 OA
ENDBRANCH   6   7
ENDBRANCH   5   6
ENDBRANCH   4   5
ENDBRANCH   3   4
ENDBRANCH   2   3
ENDBRANCH   1   2
BRANCH   1  10
ATOM     10  C   UNL     1     -15.586  10.708   4.314  1.00  0.00     0.000 C 
BRANCH  10  11
ATOM     11  C   UNL     1     -14.903   9.326   4.303  1.00  0.00    -0.000 C 
BRANCH  11  12
ATOM     12  C   UNL     1     -13.808   9.152   3.233  1.00  0.00    -0.000 C 
BRANCH  12  13
ATOM     13  C   UNL     1     -12.391   9.562   3.677  1.00  0.00    -0.000 C 
BRANCH  13  14
ATOM     14  C   UNL     1     -11.994   9.022   5.068  1.00  0.00    -0.000 C 
BRANCH  14  15
ATOM     15  C   UNL     1     -12.009  10.112   6.148  1.00  0.00    -0.003 C 
ATOM     16  C   UNL     1     -11.709  11.483   5.550  1.00  0.00     0.004 C 
ENDBRANCH  14  15
ENDBRANCH  13  14
ENDBRANCH  12  13
ENDBRANCH  11  12
ENDBRANCH  10  11
ENDBRANCH   1  10
TORSDOF 12
ENDMDL
MODEL 4
REMARK VINA RESULT:    -2.817      1.352      2.963
REMARK INTER + INTRA:          -6.411
REMARK INTER:                  -4.590
REMARK INTRA:                  -1.821
REMARK UNBOUND:                -1.618
REMARK SMILES CCCCCCCCCCCCCC(=O)[O-]
REMARK SMILES IDX 8 1 9 2 10 3 11 4 12 5 13 6 14 7 15 8 16 9 7 10 6 11 5 12
REMARK SMILES IDX 4 13 3 14 2 15 1 16
REMARK H PARENT
REMARK Flexibility Score: inf
ROOT
ATOM      1  C   UNL     1      -1.107  11.762   8.178  1.00  0.00     0.000 C 
ENDROOT
BRANCH   1   2
ATOM      2  C   UNL     1      -1.420  12.606   9.419  1.00  0.00     0.000 C 
BRANCH   2   3
ATOM      3  C   UNL     1      -0.176  12.763  10.307  1.00  0.00     0.000 C 
BRANCH   3   4
ATOM      4  C   UNL     1      -0.526  13.298  11.711  1.00  0.00     0.000 C 
BRANCH   4   5
ATOM      5  C   UNL     1      -1.471  14.512  11.691  1.00  0.00     0.006 C 
BRANCH   5   6
ATOM      6  C   UNL     1      -0.801  15.780  11.150  1.00  0.00     0.053 C 
BRANCH   6   7
ATOM      7  C   UNL     1      -0.976  16.914  12.111  1.00  0.00     0.041 C 
ATOM      8  O   UNL     1      -1.843  17.800  11.894  1.00  0.00    -0.550 OA
ATOM      9  O   UNL     1      -0.146  17.018  13.220  1.00  0.00    -0.550 OA
ENDBRANCH   6   7
ENDBRANCH   5   6
ENDBRANCH   4   5
ENDBRANCH   3   4
ENDBRANCH   2   3
ENDBRANCH   1   2
BRANCH   1  10
ATOM     10  C   UNL     1      -0.113  10.640   8.513  1.00  0.00     0.000 C 
BRANCH  10  11
ATOM     11  C   UNL     1      -0.750   9.238   8.462  1.00  0.00    -0.000 C 
BRANCH  11  12
ATOM     12  C   UNL     1      -1.620   8.875   9.680  1.00  0.00    -0.000 C 
BRANCH  12  13
ATOM     13  C   UNL     1      -0.991   9.192  11.050  1.00  0.00    -0.000 C 
BRANCH  13  14
ATOM     14  C   UNL     1      -1.941   9.934  12.015  1.00  0.00    -0.000 C 
BRANCH  14  15
ATOM     15  C   UNL     1      -3.331  10.167  11.407  1.00  0.00    -0.003 C 
ATOM     16  C   UNL     1      -3.922  11.493  11.878  1.00  0.00     0.004 C 
ENDBRANCH  14  15
ENDBRANCH  13  14
ENDBRANCH  12  13
ENDBRANCH  11  12
ENDBRANCH  10  11
ENDBRANCH   1  10
TORSDOF 12
ENDMDL
MODEL 5
REMARK VINA RESULT:    -2.773     13.357     15.204
REMARK INTER + INTRA:          -6.337
REMARK INTER:                  -5.480
REMARK INTRA:                  -0.857
REMARK UNBOUND:                -1.618
REMARK SMILES CCCCCCCCCCCCCC(=O)[O-]
REMARK SMILES IDX 8 1 9 2 10 3 11 4 12 5 13 6 14 7 15 8 16 9 7 10 6 11 5 12
REMARK SMILES IDX 4 13 3 14 2 15 1 16
REMARK H PARENT
REMARK Flexibility Score: inf
ROOT
ATOM      1  C   UNL     1     -16.289   9.126   7.952  1.00  0.00     0.000 C 
ENDROOT
BRANCH   1   2
ATOM      2  C   UNL     1     -15.779   9.465   6.547  1.00  0.00     0.000 C 
BRANCH   2   3
ATOM      3  C   UNL     1     -15.738  10.985   6.326  1.00  0.00     0.000 C 
BRANCH   3   4
ATOM      4  C   UNL     1     -15.008  11.366   5.021  1.00  0.00     0.000 C 
BRANCH   4   5
ATOM      5  C   UNL     1     -14.201  10.209   4.407  1.00  0.00     0.006 C 
BRANCH   5   6
ATOM      6  C   UNL     1     -12.736  10.577   4.147  1.00  0.00     0.053 C 
BRANCH   6   7
ATOM      7  C   UNL     1     -12.015  10.796   5.439  1.00  0.00     0.041 C 
ATOM      8  O   UNL     1     -12.130   9.967   6.379  1.00  0.00    -0.550 OA
ATOM      9  O   UNL     1     -11.254  11.944   5.623  1.00  0.00    -0.550 OA
ENDBRANCH   6   7
ENDBRANCH   5   6
ENDBRANCH   4   5
ENDBRANCH   3   4
ENDBRANCH   2   3
ENDBRANCH   1   2
BRANCH   1  10
ATOM     10  C   UNL     1     -16.727  10.396   8.698  1.00  0.00     0.000 C 
BRANCH  10  11
ATOM     11  C   UNL     1     -16.255  10.423  10.165  1.00  0.00    -0.000 C 
BRANCH  11  12
ATOM     12  C   UNL     1     -17.203  11.150  11.138  1.00  0.00    -0.000 C 
BRANCH  12  13
ATOM     13  C   UNL     1     -16.534  11.693  12.416  1.00  0.00    -0.000 C 
BRANCH  13  14
ATOM     14  C   UNL     1     -15.808  10.611  13.245  1.00  0.00    -0.000 C 
BRANCH  14  15
ATOM     15  C   UNL     1     -14.365  11.006  13.591  1.00  0.00    -0.003 C 
ATOM     16  C   UNL     1     -13.402  10.598  12.479  1.00  0.00     0.004 C 
ENDBRANCH  14  15
ENDBRANCH  13  14
ENDBRANCH  12  13
ENDBRANCH  11  12
ENDBRANCH  10  11
ENDBRANCH   1  10
TORSDOF 12
ENDMDL
MODEL 6
REMARK VINA RESULT:    -2.724     18.900     20.426
REMARK INTER + INTRA:          -6.252
REMARK INTER:                  -4.993
REMARK INTRA:                  -1.260
REMARK UNBOUND:                -1.618
REMARK SMILES CCCCCCCCCCCCCC(=O)[O-]
REMARK SMILES IDX 8 1 9 2 10 3 11 4 12 5 13 6 14 7 15 8 16 9 7 10 6 11 5 12
REMARK SMILES IDX 4 13 3 14 2 15 1 16
REMARK H PARENT
REMARK Flexibility Score: inf
ROOT
ATOM      1  C   UNL     1     -14.994   9.967  -1.683  1.00  0.00     0.000 C 
ENDROOT
BRANCH   1   2
ATOM      2  C   UNL     1     -16.163  10.629  -2.422  1.00  0.00     0.000 C 
BRANCH   2   3
ATOM      3  C   UNL     1     -16.662  11.870  -1.666  1.00  0.00     0.000 C 
BRANCH   3   4
ATOM      4  C   UNL     1     -17.671  11.509  -0.555  1.00  0.00     0.000 C 
BRANCH   4   5
ATOM      5  C   UNL     1     -18.727  12.599  -0.304  1.00  0.00     0.006 C 
BRANCH   5   6
ATOM      6  C   UNL     1     -18.457  13.883  -1.095  1.00  0.00     0.053 C 
BRANCH   6   7
ATOM      7  C   UNL     1     -18.547  15.077  -0.199  1.00  0.00     0.041 C 
ATOM      8  O   UNL     1     -18.457  16.238  -0.677  1.00  0.00    -0.550 OA
ATOM      9  O   UNL     1     -18.680  14.907   1.174  1.00  0.00    -0.550 OA
ENDBRANCH   6   7
ENDBRANCH   5   6
ENDBRANCH   4   5
ENDBRANCH   3   4
ENDBRANCH   2   3
ENDBRANCH   1   2
BRANCH   1  10
ATOM     10  C   UNL     1     -13.875   9.579  -2.660  1.00  0.00     0.000 C 
BRANCH  10  11
ATOM     11  C   UNL     1     -13.037  10.787  -3.122  1.00  0.00    -0.000 C 
BRANCH  11  12
ATOM     12  C   UNL     1     -12.763  10.846  -4.638  1.00  0.00    -0.000 C 
BRANCH  12  13
ATOM     13  C   UNL     1     -13.949  11.326  -5.496  1.00  0.00    -0.000 C 
BRANCH  13  14
ATOM     14  C   UNL     1     -14.608  12.622  -4.977  1.00  0.00    -0.000 C 
BRANCH  14  15
ATOM     15  C   UNL     1     -15.955  12.908  -5.655  1.00  0.00    -0.003 C 
ATOM     16  C   UNL     1     -16.840  13.784  -4.773  1.00  0.00     0.004 C 
ENDBRANCH  14  15
ENDBRANCH  13  14
ENDBRANCH  12  13
ENDBRANCH  11  12
ENDBRANCH  10  11
ENDBRANCH   1  10
TORSDOF 12
ENDMDL
MODEL 7
REMARK VINA RESULT:    -2.684     15.330     16.904
REMARK INTER + INTRA:          -6.184
REMARK INTER:                  -5.511
REMARK INTRA:                  -0.673
REMARK UNBOUND:                -1.618
REMARK SMILES CCCCCCCCCCCCCC(=O)[O-]
REMARK SMILES IDX 8 1 9 2 10 3 11 4 12 5 13 6 14 7 15 8 16 9 7 10 6 11 5 12
REMARK SMILES IDX 4 13 3 14 2 15 1 16
REMARK H PARENT
REMARK Flexibility Score: inf
ROOT
ATOM      1  C   UNL     1     -16.298   8.962   1.774  1.00  0.00     0.000 C 
ENDROOT
BRANCH   1   2
ATOM      2  C   UNL     1     -16.401   9.964   2.930  1.00  0.00     0.000 C 
BRANCH   2   3
ATOM      3  C   UNL     1     -15.229   9.798   3.910  1.00  0.00     0.000 C 
BRANCH   3   4
ATOM      4  C   UNL     1     -14.072   8.976   3.301  1.00  0.00     0.000 C 
BRANCH   4   5
ATOM      5  C   UNL     1     -12.696   9.649   3.444  1.00  0.00     0.006 C 
BRANCH   5   6
ATOM      6  C   UNL     1     -11.940   9.199   4.699  1.00  0.00     0.053 C 
BRANCH   6   7
ATOM      7  C   UNL     1     -12.053  10.231   5.776  1.00  0.00     0.041 C 
ATOM      8  O   UNL     1     -12.578   9.940   6.882  1.00  0.00    -0.550 OA
ATOM      9  O   UNL     1     -11.621  11.531   5.540  1.00  0.00    -0.550 OA
ENDBRANCH   6   7
ENDBRANCH   5   6
ENDBRANCH   4   5
ENDBRANCH   3   4
ENDBRANCH   2   3
ENDBRANCH   1   2
BRANCH   1  10
ATOM     10  C   UNL     1     -16.342   9.682   0.418  1.00  0.00     0.000 C 
BRANCH  10  11
ATOM     11  C   UNL     1     -15.672   8.875  -0.711  1.00  0.00    -0.000 C 
BRANCH  11  12
ATOM     12  C   UNL     1     -14.245   9.328  -1.075  1.00  0.00    -0.000 C 
BRANCH  12  13
ATOM     13  C   UNL     1     -13.902   9.259  -2.575  1.00  0.00    -0.000 C 
BRANCH  13  14
ATOM     14  C   UNL     1     -13.929  10.632  -3.284  1.00  0.00    -0.000 C 
BRANCH  14  15
ATOM     15  C   UNL     1     -12.709  10.848  -4.191  1.00  0.00    -0.003 C 
ATOM     16  C   UNL     1     -12.747   9.912  -5.395  1.00  0.00     0.004 C 
ENDBRANCH  14  15
ENDBRANCH  13  14
ENDBRANCH  12  13
ENDBRANCH  11  12
ENDBRANCH  10  11
ENDBRANCH   1  10
TORSDOF 12
ENDMDL
MODEL 8
REMARK VINA RESULT:    -2.649     14.064     15.393
REMARK INTER + INTRA:          -6.126
REMARK INTER:                  -5.025
REMARK INTRA:                  -1.101
REMARK UNBOUND:                -1.618
REMARK SMILES CCCCCCCCCCCCCC(=O)[O-]
REMARK SMILES IDX 8 1 9 2 10 3 11 4 12 5 13 6 14 7 15 8 16 9 7 10 6 11 5 12
REMARK SMILES IDX 4 13 3 14 2 15 1 16
REMARK H PARENT
REMARK Flexibility Score: inf
ROOT
ATOM      1  C   UNL     1     -17.142   9.015   7.064  1.00  0.00     0.000 C 
ENDROOT
BRANCH   1   2
ATOM      2  C   UNL     1     -18.237  10.040   7.381  1.00  0.00     0.000 C 
BRANCH   2   3
ATOM      3  C   UNL     1     -18.215  10.428   8.868  1.00  0.00     0.000 C 
BRANCH   3   4
ATOM      4  C   UNL     1     -16.787  10.412   9.454  1.00  0.00     0.000 C 
BRANCH   4   5
ATOM      5  C   UNL     1     -16.748  10.541  10.986  1.00  0.00     0.006 C 
BRANCH   5   6
ATOM      6  C   UNL     1     -17.712  11.606  11.519  1.00  0.00     0.053 C 
BRANCH   6   7
ATOM      7  C   UNL     1     -17.041  12.446  12.559  1.00  0.00     0.041 C 
ATOM      8  O   UNL     1     -17.559  13.533  12.928  1.00  0.00    -0.550 OA
ATOM      9  O   UNL     1     -15.818  12.051  13.088  1.00  0.00    -0.550 OA
ENDBRANCH   6   7
ENDBRANCH   5   6
ENDBRANCH   4   5
ENDBRANCH   3   4
ENDBRANCH   2   3
ENDBRANCH   1   2
BRANCH   1  10
ATOM     10  C   UNL     1     -16.440   9.352   5.740  1.00  0.00     0.000 C 
BRANCH  10  11
ATOM     11  C   UNL     1     -15.543  10.601   5.838  1.00  0.00    -0.000 C 
BRANCH  11  12
ATOM     12  C   UNL     1     -14.274  10.425   6.693  1.00  0.00    -0.000 C 
BRANCH  12  13
ATOM     13  C   UNL     1     -13.467   9.145   6.406  1.00  0.00    -0.000 C 
BRANCH  13  14
ATOM     14  C   UNL     1     -12.045   9.413   5.867  1.00  0.00    -0.000 C 
BRANCH  14  15
ATOM     15  C   UNL     1     -12.050  10.292   4.608  1.00  0.00    -0.003 C 
ATOM     16  C   UNL     1     -12.638   9.542   3.417  1.00  0.00     0.004 C 
ENDBRANCH  14  15
ENDBRANCH  13  14
ENDBRANCH  12  13
ENDBRANCH  11  12
ENDBRANCH  10  11
ENDBRANCH   1  10
TORSDOF 12
ENDMDL
MODEL 9
REMARK VINA RESULT:    -2.597     13.258     15.081
REMARK INTER + INTRA:          -6.038
REMARK INTER:                  -4.729
REMARK INTRA:                  -1.308
REMARK UNBOUND:                -1.618
REMARK SMILES CCCCCCCCCCCCCC(=O)[O-]
REMARK SMILES IDX 8 1 9 2 10 3 11 4 12 5 13 6 14 7 15 8 16 9 7 10 6 11 5 12
REMARK SMILES IDX 4 13 3 14 2 15 1 16
REMARK H PARENT
REMARK Flexibility Score: inf
ROOT
ATOM      1  C   UNL     1     -13.546  10.375  11.851  1.00  0.00     0.000 C 
ENDROOT
BRANCH   1   2
ATOM      2  C   UNL     1     -13.951   9.095  11.110  1.00  0.00     0.000 C 
BRANCH   2   3
ATOM      3  C   UNL     1     -13.527   9.155   9.635  1.00  0.00     0.000 C 
BRANCH   3   4
ATOM      4  C   UNL     1     -14.738   9.271   8.684  1.00  0.00     0.000 C 
BRANCH   4   5
ATOM      5  C   UNL     1     -14.419   9.998   7.366  1.00  0.00     0.006 C 
BRANCH   5   6
ATOM      6  C   UNL     1     -12.947   9.877   6.960  1.00  0.00     0.053 C 
BRANCH   6   7
ATOM      7  C   UNL     1     -12.681  10.663   5.715  1.00  0.00     0.041 C 
ATOM      8  O   UNL     1     -11.732  11.489   5.676  1.00  0.00    -0.550 OA
ATOM      9  O   UNL     1     -13.514  10.520   4.612  1.00  0.00    -0.550 OA
ENDBRANCH   6   7
ENDBRANCH   5   6
ENDBRANCH   4   5
ENDBRANCH   3   4
ENDBRANCH   2   3
ENDBRANCH   1   2
BRANCH   1  10
ATOM     10  C   UNL     1     -13.842  10.256  13.354  1.00  0.00     0.000 C 
BRANCH  10  11
ATOM     11  C   UNL     1     -15.300  10.607  13.708  1.00  0.00    -0.000 C 
BRANCH  11  12
ATOM     12  C   UNL     1     -15.846  11.879  13.030  1.00  0.00    -0.000 C 
BRANCH  12  13
ATOM     13  C   UNL     1     -17.009  11.646  12.048  1.00  0.00    -0.000 C 
BRANCH  13  14
ATOM     14  C   UNL     1     -17.715  10.285  12.230  1.00  0.00    -0.000 C 
BRANCH  14  15
ATOM     15  C   UNL     1     -17.645   9.413  10.968  1.00  0.00    -0.003 C 
ATOM     16  C   UNL     1     -18.222  10.146   9.761  1.00  0.00     0.004 C 
ENDBRANCH  14  15
ENDBRANCH  13  14
ENDBRANCH  12  13
ENDBRANCH  11  12
ENDBRANCH  10  11
ENDBRANCH   1  10
TORSDOF 12
ENDMDL
