MODEL 1
REMARK VINA RESULT:    -3.512      0.000      0.000
REMARK INTER + INTRA:          -4.082
REMARK INTER:                  -4.025
REMARK INTRA:                  -0.057
REMARK UNBOUND:                -0.057
REMARK SMILES COc1cc(C=O)ccc1O
REMARK SMILES IDX 3 1 10 2 9 3 8 4 5 5 4 6 2 7 1 8 11 9 6 11 7 12
REMARK H PARENT 11 10
REMARK Flexibility Score: inf
ROOT
ATOM      1  C   UNL     1      23.010  17.529  40.882  1.00  0.00     0.161 A 
ATOM      2  C   UNL     1      23.056  16.140  41.060  1.00  0.00     0.157 A 
ATOM      3  C   UNL     1      22.939  15.590  42.344  1.00  0.00     0.051 A 
ATOM      4  C   UNL     1      22.776  16.422  43.453  1.00  0.00     0.015 A 
ATOM      5  C   UNL     1      22.728  17.815  43.293  1.00  0.00     0.018 A 
ATOM      6  C   UNL     1      22.844  18.364  42.005  1.00  0.00     0.062 A 
ENDROOT
BRANCH   1   7
ATOM      7  O   UNL     1      23.129  18.041  39.580  1.00  0.00    -0.493 OA
ATOM      8  C   UNL     1      23.818  19.242  39.246  1.00  0.00     0.278 C 
ENDBRANCH   1   7
BRANCH   2   9
ATOM      9  O   UNL     1      23.218  15.308  39.953  1.00  0.00    -0.504 OA
ATOM     10  H   UNL     1      22.438  14.804  39.548  1.00  0.00     0.293 HD
ENDBRANCH   2   9
BRANCH   5  11
ATOM     11  C   UNL     1      22.556  18.709  44.453  1.00  0.00     0.260 C 
ATOM     12  O   UNL     1      23.547  19.114  45.116  1.00  0.00    -0.298 OA
ENDBRANCH   5  11
TORSDOF 3
ENDMDL
MODEL 2
REMARK VINA RESULT:    -3.324     17.923     18.609
REMARK INTER + INTRA:          -3.867
REMARK INTER:                  -3.791
REMARK INTRA:                  -0.076
REMARK UNBOUND:                -0.057
REMARK SMILES COc1cc(C=O)ccc1O
REMARK SMILES IDX 3 1 10 2 9 3 8 4 5 5 4 6 2 7 1 8 11 9 6 11 7 12
REMARK H PARENT 11 10
REMARK Flexibility Score: inf
ROOT
ATOM      1  C   UNL     1      17.359  29.403  54.776  1.00  0.00     0.161 A 
ATOM      2  C   UNL     1      18.433  30.059  54.158  1.00  0.00     0.157 A 
ATOM      3  C   UNL     1      19.728  29.936  54.680  1.00  0.00     0.051 A 
ATOM      4  C   UNL     1      19.957  29.160  55.818  1.00  0.00     0.015 A 
ATOM      5  C   UNL     1      18.893  28.497  56.449  1.00  0.00     0.018 A 
ATOM      6  C   UNL     1      17.596  28.620  55.924  1.00  0.00     0.062 A 
ENDROOT
BRANCH   1   7
ATOM      7  O   UNL     1      16.078  29.549  54.222  1.00  0.00    -0.493 OA
ATOM      8  C   UNL     1      15.423  28.562  53.432  1.00  0.00     0.278 C 
ENDBRANCH   1   7
BRANCH   2   9
ATOM      9  O   UNL     1      18.205  30.834  53.022  1.00  0.00    -0.504 OA
ATOM     10  H   UNL     1      18.915  30.953  52.309  1.00  0.00     0.293 HD
ENDBRANCH   2   9
BRANCH   5  11
ATOM     11  C   UNL     1      19.117  27.672  57.651  1.00  0.00     0.260 C 
ATOM     12  O   UNL     1      19.755  28.123  58.640  1.00  0.00    -0.298 OA
ENDBRANCH   5  11
TORSDOF 3
ENDMDL
MODEL 3
REMARK VINA RESULT:    -3.291     19.582     20.710
REMARK INTER + INTRA:          -3.829
REMARK INTER:                  -3.754
REMARK INTRA:                  -0.075
REMARK UNBOUND:                -0.057
REMARK SMILES COc1cc(C=O)ccc1O
REMARK SMILES IDX 3 1 10 2 9 3 8 4 5 5 4 6 2 7 1 8 11 9 6 11 7 12
REMARK H PARENT 11 10
REMARK Flexibility Score: inf
ROOT
ATOM      1  C   UNL     1      29.741  33.315  53.999  1.00  0.00     0.161 A 
ATOM      2  C   UNL     1      30.597  33.350  52.890  1.00  0.00     0.157 A 
ATOM      3  C   UNL     1      30.067  33.376  51.592  1.00  0.00     0.051 A 
ATOM      4  C   UNL     1      28.685  33.367  51.397  1.00  0.00     0.015 A 
ATOM      5  C   UNL     1      27.814  33.332  52.497  1.00  0.00     0.018 A 
ATOM      6  C   UNL     1      28.347  33.306  53.796  1.00  0.00     0.062 A 
ENDROOT
BRANCH   1   7
ATOM      7  O   UNL     1      30.311  33.290  55.282  1.00  0.00    -0.493 OA
ATOM      8  C   UNL     1      30.389  32.133  56.108  1.00  0.00     0.278 C 
ENDBRANCH   1   7
BRANCH   2   9
ATOM      9  O   UNL     1      31.977  33.360  53.084  1.00  0.00    -0.504 OA
ATOM     10  H   UNL     1      32.599  32.811  52.502  1.00  0.00     0.293 HD
ENDBRANCH   2   9
BRANCH   5  11
ATOM     11  C   UNL     1      26.351  33.322  52.309  1.00  0.00     0.260 C 
ATOM     12  O   UNL     1      25.588  33.931  53.105  1.00  0.00    -0.298 OA
ENDBRANCH   5  11
TORSDOF 3
ENDMDL
MODEL 4
REMARK VINA RESULT:    -3.286     19.883     21.162
REMARK INTER + INTRA:          -3.823
REMARK INTER:                  -3.747
REMARK INTRA:                  -0.076
REMARK UNBOUND:                -0.057
REMARK SMILES COc1cc(C=O)ccc1O
REMARK SMILES IDX 3 1 10 2 9 3 8 4 5 5 4 6 2 7 1 8 11 9 6 11 7 12
REMARK H PARENT 11 10
REMARK Flexibility Score: inf
ROOT
ATOM      1  C   UNL     1      29.609  33.447  53.661  1.00  0.00     0.161 A 
ATOM      2  C   UNL     1      30.747  33.942  54.312  1.00  0.00     0.157 A 
ATOM      3  C   UNL     1      31.118  33.435  55.565  1.00  0.00     0.051 A 
ATOM      4  C   UNL     1      30.357  32.435  56.173  1.00  0.00     0.015 A 
ATOM      5  C   UNL     1      29.214  31.928  55.535  1.00  0.00     0.018 A 
ATOM      6  C   UNL     1      28.845  32.436  54.279  1.00  0.00     0.062 A 
ENDROOT
BRANCH   1   7
ATOM      7  O   UNL     1      29.271  33.979  52.407  1.00  0.00    -0.493 OA
ATOM      8  C   UNL     1      29.516  33.331  51.163  1.00  0.00     0.278 C 
ENDBRANCH   1   7
BRANCH   2   9
ATOM      9  O   UNL     1      31.508  34.940  53.706  1.00  0.00    -0.504 OA
ATOM     10  H   UNL     1      31.469  35.902  54.020  1.00  0.00     0.293 HD
ENDBRANCH   2   9
BRANCH   5  11
ATOM     11  C   UNL     1      28.399  30.871  56.162  1.00  0.00     0.260 C 
ATOM     12  O   UNL     1      28.118  30.908  57.389  1.00  0.00    -0.298 OA
ENDBRANCH   5  11
TORSDOF 3
ENDMDL
MODEL 5
REMARK VINA RESULT:    -3.274     18.096     18.586
REMARK INTER + INTRA:          -3.809
REMARK INTER:                  -3.731
REMARK INTRA:                  -0.078
REMARK UNBOUND:                -0.057
REMARK SMILES COc1cc(C=O)ccc1O
REMARK SMILES IDX 3 1 10 2 9 3 8 4 5 5 4 6 2 7 1 8 11 9 6 11 7 12
REMARK H PARENT 11 10
REMARK Flexibility Score: inf
ROOT
ATOM      1  C   UNL     1      18.549  28.764  55.444  1.00  0.00     0.161 A 
ATOM      2  C   UNL     1      18.773  29.848  54.585  1.00  0.00     0.157 A 
ATOM      3  C   UNL     1      17.784  30.239  53.672  1.00  0.00     0.051 A 
ATOM      4  C   UNL     1      16.571  29.550  53.612  1.00  0.00     0.015 A 
ATOM      5  C   UNL     1      16.331  28.462  54.464  1.00  0.00     0.018 A 
ATOM      6  C   UNL     1      17.323  28.073  55.380  1.00  0.00     0.062 A 
ENDROOT
BRANCH   1   7
ATOM      7  O   UNL     1      19.564  28.404  56.345  1.00  0.00    -0.493 OA
ATOM      8  C   UNL     1      19.530  28.667  57.744  1.00  0.00     0.278 C 
ENDBRANCH   1   7
BRANCH   2   9
ATOM      9  O   UNL     1      19.984  30.537  54.645  1.00  0.00    -0.504 OA
ATOM     10  H   UNL     1      20.122  31.411  54.152  1.00  0.00     0.293 HD
ENDBRANCH   2   9
BRANCH   5  11
ATOM     11  C   UNL     1      15.055  27.724  54.415  1.00  0.00     0.260 C 
ATOM     12  O   UNL     1      14.144  28.052  53.609  1.00  0.00    -0.298 OA
ENDBRANCH   5  11
TORSDOF 3
ENDMDL
MODEL 6
REMARK VINA RESULT:    -3.222      9.834     11.493
REMARK INTER + INTRA:          -3.750
REMARK INTER:                  -3.672
REMARK INTRA:                  -0.078
REMARK UNBOUND:                -0.057
REMARK SMILES COc1cc(C=O)ccc1O
REMARK SMILES IDX 3 1 10 2 9 3 8 4 5 5 4 6 2 7 1 8 11 9 6 11 7 12
REMARK H PARENT 11 10
REMARK Flexibility Score: inf
ROOT
ATOM      1  C   UNL     1      16.345  18.572  50.229  1.00  0.00     0.161 A 
ATOM      2  C   UNL     1      17.517  17.806  50.169  1.00  0.00     0.157 A 
ATOM      3  C   UNL     1      18.072  17.275  51.342  1.00  0.00     0.051 A 
ATOM      4  C   UNL     1      17.461  17.506  52.576  1.00  0.00     0.015 A 
ATOM      5  C   UNL     1      16.287  18.270  52.653  1.00  0.00     0.018 A 
ATOM      6  C   UNL     1      15.732  18.801  51.477  1.00  0.00     0.062 A 
ENDROOT
BRANCH   1   7
ATOM      7  O   UNL     1      15.820  19.085  49.032  1.00  0.00    -0.493 OA
ATOM      8  C   UNL     1      14.713  18.526  48.332  1.00  0.00     0.278 C 
ENDBRANCH   1   7
BRANCH   2   9
ATOM      9  O   UNL     1      18.128  17.575  48.937  1.00  0.00    -0.504 OA
ATOM     10  H   UNL     1      18.158  16.650  48.525  1.00  0.00     0.293 HD
ENDBRANCH   2   9
BRANCH   5  11
ATOM     11  C   UNL     1      15.628  18.523  53.948  1.00  0.00     0.260 C 
ATOM     12  O   UNL     1      16.153  18.148  55.030  1.00  0.00    -0.298 OA
ENDBRANCH   5  11
TORSDOF 3
ENDMDL
MODEL 7
REMARK VINA RESULT:    -3.221      1.132      2.823
REMARK INTER + INTRA:          -3.749
REMARK INTER:                  -3.694
REMARK INTRA:                  -0.055
REMARK UNBOUND:                -0.057
REMARK SMILES COc1cc(C=O)ccc1O
REMARK SMILES IDX 3 1 10 2 9 3 8 4 5 5 4 6 2 7 1 8 11 9 6 11 7 12
REMARK H PARENT 11 10
REMARK Flexibility Score: inf
ROOT
ATOM      1  C   UNL     1      23.004  17.095  41.496  1.00  0.00     0.161 A 
ATOM      2  C   UNL     1      23.002  17.773  40.269  1.00  0.00     0.157 A 
ATOM      3  C   UNL     1      22.997  19.174  40.238  1.00  0.00     0.051 A 
ATOM      4  C   UNL     1      22.993  19.904  41.429  1.00  0.00     0.015 A 
ATOM      5  C   UNL     1      22.994  19.241  42.666  1.00  0.00     0.018 A 
ATOM      6  C   UNL     1      23.001  17.837  42.694  1.00  0.00     0.062 A 
ENDROOT
BRANCH   1   7
ATOM      7  O   UNL     1      23.010  15.692  41.484  1.00  0.00    -0.493 OA
ATOM      8  C   UNL     1      22.998  14.875  42.650  1.00  0.00     0.278 C 
ENDBRANCH   1   7
BRANCH   2   9
ATOM      9  O   UNL     1      23.006  17.046  39.079  1.00  0.00    -0.504 OA
ATOM     10  H   UNL     1      22.182  16.554  38.755  1.00  0.00     0.293 HD
ENDBRANCH   2   9
BRANCH   5  11
ATOM     11  C   UNL     1      22.991  19.995  43.933  1.00  0.00     0.260 C 
ATOM     12  O   UNL     1      22.877  19.407  45.041  1.00  0.00    -0.298 OA
ENDBRANCH   5  11
TORSDOF 3
ENDMDL
MODEL 8
REMARK VINA RESULT:    -3.207      1.892      3.526
REMARK INTER + INTRA:          -3.733
REMARK INTER:                  -3.678
REMARK INTRA:                  -0.055
REMARK UNBOUND:                -0.057
REMARK SMILES COc1cc(C=O)ccc1O
REMARK SMILES IDX 3 1 10 2 9 3 8 4 5 5 4 6 2 7 1 8 11 9 6 11 7 12
REMARK H PARENT 11 10
REMARK Flexibility Score: inf
ROOT
ATOM      1  C   UNL     1      23.173  17.825  41.113  1.00  0.00     0.161 A 
ATOM      2  C   UNL     1      23.366  17.600  39.743  1.00  0.00     0.157 A 
ATOM      3  C   UNL     1      23.577  18.680  38.875  1.00  0.00     0.051 A 
ATOM      4  C   UNL     1      23.597  19.986  39.369  1.00  0.00     0.015 A 
ATOM      5  C   UNL     1      23.405  20.229  40.738  1.00  0.00     0.018 A 
ATOM      6  C   UNL     1      23.195  19.145  41.606  1.00  0.00     0.062 A 
ENDROOT
BRANCH   1   7
ATOM      7  O   UNL     1      22.966  16.717  41.949  1.00  0.00    -0.493 OA
ATOM      8  C   UNL     1      22.917  16.778  43.371  1.00  0.00     0.278 C 
ENDBRANCH   1   7
BRANCH   2   9
ATOM      9  O   UNL     1      23.347  16.297  39.249  1.00  0.00    -0.504 OA
ATOM     10  H   UNL     1      23.987  15.994  38.524  1.00  0.00     0.293 HD
ENDBRANCH   2   9
BRANCH   5  11
ATOM     11  C   UNL     1      23.423  21.602  41.276  1.00  0.00     0.260 C 
ATOM     12  O   UNL     1      23.026  21.847  42.446  1.00  0.00    -0.298 OA
ENDBRANCH   5  11
TORSDOF 3
ENDMDL
MODEL 9
REMARK VINA RESULT:    -3.194     15.846     17.464
REMARK INTER + INTRA:          -3.718
REMARK INTER:                  -3.643
REMARK INTRA:                  -0.075
REMARK UNBOUND:                -0.057
REMARK SMILES COc1cc(C=O)ccc1O
REMARK SMILES IDX 3 1 10 2 9 3 8 4 5 5 4 6 2 7 1 8 11 9 6 11 7 12
REMARK H PARENT 11 10
REMARK Flexibility Score: inf
ROOT
ATOM      1  C   UNL     1      17.424  29.143  52.213  1.00  0.00     0.161 A 
ATOM      2  C   UNL     1      17.681  29.795  53.427  1.00  0.00     0.157 A 
ATOM      3  C   UNL     1      16.735  29.757  54.460  1.00  0.00     0.051 A 
ATOM      4  C   UNL     1      15.531  29.071  54.288  1.00  0.00     0.015 A 
ATOM      5  C   UNL     1      15.258  28.413  53.079  1.00  0.00     0.018 A 
ATOM      6  C   UNL     1      16.208  28.451  52.045  1.00  0.00     0.062 A 
ENDROOT
BRANCH   1   7
ATOM      7  O   UNL     1      18.397  29.203  51.203  1.00  0.00    -0.493 OA
ATOM      8  C   UNL     1      18.305  30.024  50.043  1.00  0.00     0.278 C 
ENDBRANCH   1   7
BRANCH   2   9
ATOM      9  O   UNL     1      18.882  30.481  53.600  1.00  0.00    -0.504 OA
ATOM     10  H   UNL     1      19.279  30.632  54.520  1.00  0.00     0.293 HD
ENDBRANCH   2   9
BRANCH   5  11
ATOM     11  C   UNL     1      13.993  27.682  52.880  1.00  0.00     0.260 C 
ATOM     12  O   UNL     1      12.881  28.244  53.065  1.00  0.00    -0.298 OA
ENDBRANCH   5  11
TORSDOF 3
ENDMDL
