MODEL 1
REMARK VINA RESULT:    -6.608      0.000      0.000
REMARK INTER + INTRA:         -12.599
REMARK INTER:                 -10.471
REMARK INTRA:                  -2.129
REMARK UNBOUND:                -2.129
REMARK SMILES C[C@H]1O[C@H](O[C@H]2CC[C@]3(C)[C@@H](CC[C@@]4(C)[C@H]3C=C[C@]35OC[C@@]6(CCC(C)(C)C[C@@H]63)[C@H](O)C[C@]45C)[C@]2(C)CO)[C@@H](O)[C@H](O[C@H]2O[C@@H](CO)[C@@H](O)[C@@H](O)[C@H]2O)[C@@H]1O
REMARK SMILES IDX 1 1 2 2 54 3 41 4 39 5 4 6 3 7 55 8 42 10 43 11 52 12 44 13
REMARK SMILES IDX 50 14 45 15 48 16 53 17 51 19 46 21 47 22 49 24 5 26 6 27
REMARK SMILES IDX 7 28 35 29 8 30 11 31 36 32 9 33 12 34 10 35 16 36 13 37
REMARK SMILES IDX 14 38 17 39 15 40 33 41 18 42 19 43 32 44 34 45 29 46 20 47
REMARK SMILES IDX 30 48 22 49 28 50 21 51 23 52 25 53 24 54 26 55 27 56 37 57
REMARK SMILES IDX 38 58 31 60 40 62
REMARK H PARENT 55 9 53 18 51 20 47 23 49 25 38 59 31 61 40 63
REMARK Flexibility Score: inf
ROOT
ATOM      1  C   UNL     1      -6.147  85.219  -8.903  1.00  0.00     0.041 C 
ATOM      2  C   UNL     1      -7.308  86.210  -8.992  1.00  0.00     0.150 C 
ATOM      3  C   UNL     1      -8.605  85.649  -8.338  1.00  0.00     0.175 C 
ATOM      4  C   UNL     1      -9.882  86.147  -9.089  1.00  0.00     0.186 C 
ATOM      5  C   UNL     1      -9.624  87.597  -9.569  1.00  0.00     0.202 C 
ATOM      6  C   UNL     1      -8.324  87.713 -10.444  1.00  0.00     0.282 C 
ATOM      7  O   UNL     1      -7.560  86.523 -10.356  1.00  0.00    -0.344 OA
ENDROOT
BRANCH   3   8
ATOM      8  O   UNL     1      -8.664  86.049  -6.991  1.00  0.00    -0.388 OA
ATOM      9  H   UNL     1      -7.733  86.066  -6.642  1.00  0.00     0.211 HD
ENDBRANCH   3   8
BRANCH   4  10
ATOM     10  O   UNL     1     -11.102  86.165  -8.325  1.00  0.00    -0.341 OA
BRANCH  10  11
ATOM     11  C   UNL     1     -11.957  85.029  -8.470  1.00  0.00     0.282 C 
ATOM     12  C   UNL     1     -12.510  84.941  -9.920  1.00  0.00     0.202 C 
ATOM     13  O   UNL     1     -13.044  85.183  -7.563  1.00  0.00    -0.341 OA
ATOM     14  C   UNL     1     -13.424  83.681 -10.081  1.00  0.00     0.179 C 
ATOM     15  C   UNL     1     -13.973  84.094  -7.571  1.00  0.00     0.178 C 
ATOM     16  C   UNL     1     -13.761  83.039  -8.714  1.00  0.00     0.177 C 
BRANCH  12  17
ATOM     17  O   UNL     1     -13.169  86.124 -10.318  1.00  0.00    -0.385 OA
ATOM     18  H   UNL     1     -14.141  86.016 -10.163  1.00  0.00     0.211 HD
ENDBRANCH  12  17
BRANCH  14  19
ATOM     19  O   UNL     1     -14.603  84.012 -10.780  1.00  0.00    -0.387 OA
ATOM     20  H   UNL     1     -14.432  83.887 -11.750  1.00  0.00     0.211 HD
ENDBRANCH  14  19
BRANCH  15  21
ATOM     21  C   UNL     1     -15.419  84.663  -7.473  1.00  0.00     0.191 C 
BRANCH  21  22
ATOM     22  O   UNL     1     -15.707  85.574  -8.505  1.00  0.00    -0.394 OA
ATOM     23  H   UNL     1     -15.988  86.426  -8.094  1.00  0.00     0.210 HD
ENDBRANCH  21  22
ENDBRANCH  15  21
BRANCH  16  24
ATOM     24  O   UNL     1     -14.856  82.157  -8.813  1.00  0.00    -0.387 OA
ATOM     25  H   UNL     1     -14.457  81.237  -8.823  1.00  0.00     0.211 HD
ENDBRANCH  16  24
ENDBRANCH  10  11
ENDBRANCH   4  10
BRANCH   6  26
ATOM     26  O   UNL     1      -7.471  88.770 -10.036  1.00  0.00    -0.346 OA
BRANCH  26  27
ATOM     27  C   UNL     1      -6.357  89.063 -10.869  1.00  0.00     0.130 C 
ATOM     28  C   UNL     1      -6.904  89.160 -12.298  1.00  0.00     0.033 C 
ATOM     29  C   UNL     1      -5.694  90.434 -10.411  1.00  0.00     0.020 C 
ATOM     30  C   UNL     1      -5.818  89.560 -13.269  1.00  0.00     0.010 C 
ATOM     31  C   UNL     1      -4.776  91.122 -11.562  1.00  0.00     0.006 C 
ATOM     32  C   UNL     1      -6.855  91.346  -9.874  1.00  0.00     0.017 C 
ATOM     33  C   UNL     1      -5.283  90.987 -13.040  1.00  0.00    -0.022 C 
ATOM     34  C   UNL     1      -4.342  92.610 -11.240  1.00  0.00     0.005 C 
ATOM     35  C   UNL     1      -4.093  91.106 -14.040  1.00  0.00     0.012 C 
ATOM     36  C   UNL     1      -6.363  92.113 -13.252  1.00  0.00     0.024 C 
ATOM     37  C   UNL     1      -4.645  93.755 -12.273  1.00  0.00     0.008 C 
ATOM     38  C   UNL     1      -5.829  93.586 -13.324  1.00  0.00    -0.017 C 
ATOM     39  C   UNL     1      -7.510  91.874 -14.201  1.00  0.00    -0.024 C 
ATOM     40  C   UNL     1      -5.260  93.864 -14.764  1.00  0.00     0.013 C 
ATOM     41  C   UNL     1      -7.071  94.587 -13.042  1.00  0.00     0.009 C 
ATOM     42  C   UNL     1      -8.479  92.785 -14.333  1.00  0.00     0.005 C 
ATOM     43  C   UNL     1      -8.313  94.277 -14.031  1.00  0.00     0.096 C 
ATOM     44  C   UNL     1      -6.616  96.117 -13.117  1.00  0.00     0.043 C 
ATOM     45  C   UNL     1      -7.591  94.382 -11.572  1.00  0.00     0.015 C 
ATOM     46  C   UNL     1      -8.273  95.069 -15.362  1.00  0.00     0.037 C 
ATOM     47  O   UNL     1      -9.499  94.735 -13.405  1.00  0.00    -0.369 OA
ATOM     48  C   UNL     1      -7.260  97.024 -14.204  1.00  0.00     0.124 C 
ATOM     49  C   UNL     1      -8.576  96.456 -14.822  1.00  0.00     0.026 C 
ATOM     50  C   UNL     1      -9.354  94.624 -16.396  1.00  0.00     0.014 C 
ATOM     51  C   UNL     1      -9.604  96.113 -13.716  1.00  0.00     0.171 C 
ATOM     52  C   UNL     1      -9.165  97.451 -15.879  1.00  0.00     0.013 C 
ATOM     53  C   UNL     1      -9.547  95.604 -17.605  1.00  0.00    -0.035 C 
ATOM     54  C   UNL     1      -8.910  96.987 -17.319  1.00  0.00     0.007 C 
ATOM     55  C   UNL     1     -11.064  95.770 -17.884  1.00  0.00     0.011 C 
ATOM     56  C   UNL     1      -8.893  95.013 -18.876  1.00  0.00     0.011 C 
BRANCH  29  57
ATOM     57  C   UNL     1      -4.784  90.138  -9.176  1.00  0.00     0.165 C 
BRANCH  57  58
ATOM     58  O   UNL     1      -4.823  88.781  -8.809  1.00  0.00    -0.396 OA
ATOM     59  H   UNL     1      -4.782  88.765  -7.814  1.00  0.00     0.210 HD
ENDBRANCH  57  58
ENDBRANCH  29  57
BRANCH  48  60
ATOM     60  O   UNL     1      -6.311  97.253 -15.217  1.00  0.00    -0.392 OA
ATOM     61  H   UNL     1      -5.423  96.982 -14.864  1.00  0.00     0.210 HD
ENDBRANCH  48  60
ENDBRANCH  26  27
ENDBRANCH   6  26
BRANCH   5  62
ATOM     62  O   UNL     1     -10.745  88.064 -10.284  1.00  0.00    -0.385 OA
ATOM     63  H   UNL     1     -11.353  88.473  -9.619  1.00  0.00     0.211 HD
ENDBRANCH   5  62
TORSDOF 14
ENDMDL
MODEL 2
REMARK VINA RESULT:    -6.517      3.332      6.718
REMARK INTER + INTRA:         -12.455
REMARK INTER:                 -10.669
REMARK INTRA:                  -1.786
REMARK UNBOUND:                -2.129
REMARK SMILES C[C@H]1O[C@H](O[C@H]2CC[C@]3(C)[C@@H](CC[C@@]4(C)[C@H]3C=C[C@]35OC[C@@]6(CCC(C)(C)C[C@@H]63)[C@H](O)C[C@]45C)[C@]2(C)CO)[C@@H](O)[C@H](O[C@H]2O[C@@H](CO)[C@@H](O)[C@@H](O)[C@H]2O)[C@@H]1O
REMARK SMILES IDX 1 1 2 2 54 3 41 4 39 5 4 6 3 7 55 8 42 10 43 11 52 12 44 13
REMARK SMILES IDX 50 14 45 15 48 16 53 17 51 19 46 21 47 22 49 24 5 26 6 27
REMARK SMILES IDX 7 28 35 29 8 30 11 31 36 32 9 33 12 34 10 35 16 36 13 37
REMARK SMILES IDX 14 38 17 39 15 40 33 41 18 42 19 43 32 44 34 45 29 46 20 47
REMARK SMILES IDX 30 48 22 49 28 50 21 51 23 52 25 53 24 54 26 55 27 56 37 57
REMARK SMILES IDX 38 58 31 60 40 62
REMARK H PARENT 55 9 53 18 51 20 47 23 49 25 38 59 31 61 40 63
REMARK Flexibility Score: inf
ROOT
ATOM      1  C   UNL     1     -16.992  87.171  -8.257  1.00  0.00     0.041 C 
ATOM      2  C   UNL     1     -15.699  87.483  -9.012  1.00  0.00     0.150 C 
ATOM      3  C   UNL     1     -14.745  86.253  -9.064  1.00  0.00     0.175 C 
ATOM      4  C   UNL     1     -13.246  86.695  -9.020  1.00  0.00     0.186 C 
ATOM      5  C   UNL     1     -13.112  88.023  -9.807  1.00  0.00     0.202 C 
ATOM      6  C   UNL     1     -14.085  89.134  -9.272  1.00  0.00     0.282 C 
ATOM      7  O   UNL     1     -15.037  88.573  -8.384  1.00  0.00    -0.344 OA
ENDROOT
BRANCH   3   8
ATOM      8  O   UNL     1     -14.987  85.520 -10.239  1.00  0.00    -0.388 OA
ATOM      9  H   UNL     1     -14.114  85.398 -10.701  1.00  0.00     0.211 HD
ENDBRANCH   3   8
BRANCH   4  10
ATOM     10  O   UNL     1     -12.295  85.772  -9.583  1.00  0.00    -0.341 OA
BRANCH  10  11
ATOM     11  C   UNL     1     -12.456  84.399  -9.221  1.00  0.00     0.282 C 
ATOM     12  C   UNL     1     -11.146  83.840  -8.598  1.00  0.00     0.202 C 
ATOM     13  O   UNL     1     -12.760  83.668 -10.405  1.00  0.00    -0.341 OA
ATOM     14  C   UNL     1     -11.335  82.344  -8.179  1.00  0.00     0.179 C 
ATOM     15  C   UNL     1     -12.984  82.271 -10.191  1.00  0.00     0.178 C 
ATOM     16  C   UNL     1     -12.645  81.750  -8.749  1.00  0.00     0.177 C 
BRANCH  12  17
ATOM     17  O   UNL     1     -10.030  84.011  -9.446  1.00  0.00    -0.385 OA
ATOM     18  H   UNL     1      -9.221  83.681  -8.981  1.00  0.00     0.211 HD
ENDBRANCH  12  17
BRANCH  14  19
ATOM     19  O   UNL     1     -10.224  81.574  -8.580  1.00  0.00    -0.387 OA
ATOM     20  H   UNL     1     -10.557  80.797  -9.101  1.00  0.00     0.211 HD
ENDBRANCH  14  19
BRANCH  15  21
ATOM     21  C   UNL     1     -12.314  81.469 -11.345  1.00  0.00     0.191 C 
BRANCH  21  22
ATOM     22  O   UNL     1     -10.975  81.844 -11.551  1.00  0.00    -0.394 OA
ATOM     23  H   UNL     1     -10.909  82.823 -11.445  1.00  0.00     0.210 HD
ENDBRANCH  21  22
ENDBRANCH  15  21
BRANCH  16  24
ATOM     24  O   UNL     1     -12.640  80.341  -8.697  1.00  0.00    -0.387 OA
ATOM     25  H   UNL     1     -11.986  80.051  -9.400  1.00  0.00     0.211 HD
ENDBRANCH  16  24
ENDBRANCH  10  11
ENDBRANCH   4  10
BRANCH   6  26
ATOM     26  O   UNL     1     -14.824  89.771 -10.303  1.00  0.00    -0.346 OA
BRANCH  26  27
ATOM     27  C   UNL     1     -14.566  91.151 -10.528  1.00  0.00     0.130 C 
ATOM     28  C   UNL     1     -13.410  91.529  -9.594  1.00  0.00     0.033 C 
ATOM     29  C   UNL     1     -14.175  91.379 -12.052  1.00  0.00     0.020 C 
ATOM     30  C   UNL     1     -12.984  92.962  -9.810  1.00  0.00     0.010 C 
ATOM     31  C   UNL     1     -13.375  92.769 -12.311  1.00  0.00     0.006 C 
ATOM     32  C   UNL     1     -13.409  90.091 -12.525  1.00  0.00     0.017 C 
ATOM     33  C   UNL     1     -12.364  93.216 -11.198  1.00  0.00    -0.022 C 
ATOM     34  C   UNL     1     -12.729  92.886 -13.750  1.00  0.00     0.005 C 
ATOM     35  C   UNL     1     -12.154  94.761 -11.237  1.00  0.00     0.012 C 
ATOM     36  C   UNL     1     -11.029  92.421 -11.454  1.00  0.00     0.024 C 
ATOM     37  C   UNL     1     -11.195  93.198 -13.898  1.00  0.00     0.008 C 
ATOM     38  C   UNL     1     -10.195  92.847 -12.710  1.00  0.00    -0.017 C 
ATOM     39  C   UNL     1     -10.153  92.044 -10.287  1.00  0.00    -0.024 C 
ATOM     40  C   UNL     1      -9.358  94.136 -12.368  1.00  0.00     0.013 C 
ATOM     41  C   UNL     1      -9.180  91.639 -13.076  1.00  0.00     0.009 C 
ATOM     42  C   UNL     1      -9.059  91.300 -10.475  1.00  0.00     0.005 C 
ATOM     43  C   UNL     1      -8.289  91.210 -11.796  1.00  0.00     0.096 C 
ATOM     44  C   UNL     1      -8.272  92.001 -14.340  1.00  0.00     0.043 C 
ATOM     45  C   UNL     1     -10.004  90.371 -13.509  1.00  0.00     0.015 C 
ATOM     46  C   UNL     1      -6.954  91.986 -11.667  1.00  0.00     0.037 C 
ATOM     47  O   UNL     1      -7.879  89.866 -11.976  1.00  0.00    -0.369 OA
ATOM     48  C   UNL     1      -6.730  92.074 -14.143  1.00  0.00     0.124 C 
ATOM     49  C   UNL     1      -6.212  91.379 -12.845  1.00  0.00     0.026 C 
ATOM     50  C   UNL     1      -6.194  91.719 -10.330  1.00  0.00     0.014 C 
ATOM     51  C   UNL     1      -6.704  89.913 -12.768  1.00  0.00     0.171 C 
ATOM     52  C   UNL     1      -4.652  91.478 -12.751  1.00  0.00     0.013 C 
ATOM     53  C   UNL     1      -4.712  92.228 -10.307  1.00  0.00    -0.035 C 
ATOM     54  C   UNL     1      -4.196  92.535 -11.736  1.00  0.00     0.007 C 
ATOM     55  C   UNL     1      -3.816  91.148  -9.644  1.00  0.00     0.011 C 
ATOM     56  C   UNL     1      -4.606  93.517  -9.458  1.00  0.00     0.011 C 
BRANCH  29  57
ATOM     57  C   UNL     1     -15.496  91.414 -12.886  1.00  0.00     0.165 C 
BRANCH  57  58
ATOM     58  O   UNL     1     -15.926  90.125 -13.243  1.00  0.00    -0.396 OA
ATOM     59  H   UNL     1     -16.555  89.838 -12.526  1.00  0.00     0.210 HD
ENDBRANCH  57  58
ENDBRANCH  29  57
BRANCH  48  60
ATOM     60  O   UNL     1      -6.342  93.426 -14.154  1.00  0.00    -0.392 OA
ATOM     61  H   UNL     1      -7.003  93.935 -13.614  1.00  0.00     0.210 HD
ENDBRANCH  48  60
ENDBRANCH  26  27
ENDBRANCH   6  26
BRANCH   5  62
ATOM     62  O   UNL     1     -11.776  88.469  -9.756  1.00  0.00    -0.385 OA
ATOM     63  H   UNL     1     -11.294  87.845  -9.156  1.00  0.00     0.211 HD
ENDBRANCH   5  62
TORSDOF 14
ENDMDL
MODEL 3
REMARK VINA RESULT:    -6.321      1.637      2.492
REMARK INTER + INTRA:         -12.144
REMARK INTER:                 -10.127
REMARK INTRA:                  -2.017
REMARK UNBOUND:                -2.129
REMARK SMILES C[C@H]1O[C@H](O[C@H]2CC[C@]3(C)[C@@H](CC[C@@]4(C)[C@H]3C=C[C@]35OC[C@@]6(CCC(C)(C)C[C@@H]63)[C@H](O)C[C@]45C)[C@]2(C)CO)[C@@H](O)[C@H](O[C@H]2O[C@@H](CO)[C@@H](O)[C@@H](O)[C@H]2O)[C@@H]1O
REMARK SMILES IDX 1 1 2 2 54 3 41 4 39 5 4 6 3 7 55 8 42 10 43 11 52 12 44 13
REMARK SMILES IDX 50 14 45 15 48 16 53 17 51 19 46 21 47 22 49 24 5 26 6 27
REMARK SMILES IDX 7 28 35 29 8 30 11 31 36 32 9 33 12 34 10 35 16 36 13 37
REMARK SMILES IDX 14 38 17 39 15 40 33 41 18 42 19 43 32 44 34 45 29 46 20 47
REMARK SMILES IDX 30 48 22 49 28 50 21 51 23 52 25 53 24 54 26 55 27 56 37 57
REMARK SMILES IDX 38 58 31 60 40 62
REMARK H PARENT 55 9 53 18 51 20 47 23 49 25 38 59 31 61 40 63
REMARK Flexibility Score: inf
ROOT
ATOM      1  C   UNL     1     -11.535  89.952  -6.946  1.00  0.00     0.041 C 
ATOM      2  C   UNL     1     -10.903  89.101  -8.048  1.00  0.00     0.150 C 
ATOM      3  C   UNL     1     -11.834  87.934  -8.489  1.00  0.00     0.175 C 
ATOM      4  C   UNL     1     -11.009  86.669  -8.891  1.00  0.00     0.186 C 
ATOM      5  C   UNL     1      -9.706  87.143  -9.582  1.00  0.00     0.202 C 
ATOM      6  C   UNL     1      -8.886  88.140  -8.687  1.00  0.00     0.282 C 
ATOM      7  O   UNL     1      -9.666  88.574  -7.586  1.00  0.00    -0.344 OA
ENDROOT
BRANCH   3   8
ATOM      8  O   UNL     1     -12.624  88.347  -9.576  1.00  0.00    -0.388 OA
ATOM      9  H   UNL     1     -12.450  87.721 -10.329  1.00  0.00     0.211 HD
ENDBRANCH   3   8
BRANCH   4  10
ATOM     10  O   UNL     1     -11.655  85.749  -9.791  1.00  0.00    -0.341 OA
BRANCH  10  11
ATOM     11  C   UNL     1     -12.118  84.524  -9.220  1.00  0.00     0.282 C 
ATOM     12  C   UNL     1     -10.943  83.746  -8.564  1.00  0.00     0.202 C 
ATOM     13  O   UNL     1     -12.674  83.736 -10.269  1.00  0.00    -0.341 OA
ATOM     14  C   UNL     1     -11.459  82.418  -7.917  1.00  0.00     0.179 C 
ATOM     15  C   UNL     1     -13.214  82.483  -9.837  1.00  0.00     0.178 C 
ATOM     16  C   UNL     1     -12.911  82.099  -8.345  1.00  0.00     0.177 C 
BRANCH  12  17
ATOM     17  O   UNL     1      -9.881  83.514  -9.465  1.00  0.00    -0.385 OA
ATOM     18  H   UNL     1      -9.051  83.360  -8.949  1.00  0.00     0.211 HD
ENDBRANCH  12  17
BRANCH  14  19
ATOM     19  O   UNL     1     -10.599  81.347  -8.234  1.00  0.00    -0.387 OA
ATOM     20  H   UNL     1      -9.911  81.680  -8.868  1.00  0.00     0.211 HD
ENDBRANCH  14  19
BRANCH  15  21
ATOM     21  C   UNL     1     -12.842  81.387 -10.878  1.00  0.00     0.191 C 
BRANCH  21  22
ATOM     22  O   UNL     1     -11.465  81.361 -11.159  1.00  0.00    -0.394 OA
ATOM     23  H   UNL     1     -11.123  82.285 -11.111  1.00  0.00     0.210 HD
ENDBRANCH  21  22
ENDBRANCH  15  21
BRANCH  16  24
ATOM     24  O   UNL     1     -13.245  80.755  -8.080  1.00  0.00    -0.387 OA
ATOM     25  H   UNL     1     -14.248  80.728  -8.067  1.00  0.00     0.211 HD
ENDBRANCH  16  24
ENDBRANCH  10  11
ENDBRANCH   4  10
BRANCH   6  26
ATOM     26  O   UNL     1      -8.485  89.311  -9.382  1.00  0.00    -0.346 OA
BRANCH  26  27
ATOM     27  C   UNL     1      -7.487  89.161 -10.384  1.00  0.00     0.130 C 
ATOM     28  C   UNL     1      -8.209  89.294 -11.730  1.00  0.00     0.033 C 
ATOM     29  C   UNL     1      -6.381  90.289 -10.208  1.00  0.00     0.020 C 
ATOM     30  C   UNL     1      -7.229  89.242 -12.878  1.00  0.00     0.010 C 
ATOM     31  C   UNL     1      -5.503  90.546 -11.551  1.00  0.00     0.006 C 
ATOM     32  C   UNL     1      -7.113  91.566  -9.657  1.00  0.00     0.017 C 
ATOM     33  C   UNL     1      -6.264  90.443 -12.918  1.00  0.00    -0.022 C 
ATOM     34  C   UNL     1      -4.600  91.844 -11.496  1.00  0.00     0.005 C 
ATOM     35  C   UNL     1      -5.275  90.090 -14.071  1.00  0.00     0.012 C 
ATOM     36  C   UNL     1      -6.980  91.827 -13.143  1.00  0.00     0.024 C 
ATOM     37  C   UNL     1      -4.715  92.928 -12.630  1.00  0.00     0.008 C 
ATOM     38  C   UNL     1      -6.052  93.044 -13.485  1.00  0.00    -0.017 C 
ATOM     39  C   UNL     1      -8.286  91.875 -13.894  1.00  0.00    -0.024 C 
ATOM     40  C   UNL     1      -5.671  92.996 -15.012  1.00  0.00     0.013 C 
ATOM     41  C   UNL     1      -6.876  94.406 -13.187  1.00  0.00     0.009 C 
ATOM     42  C   UNL     1      -8.948  93.029 -14.025  1.00  0.00     0.005 C 
ATOM     43  C   UNL     1      -8.299  94.414 -13.956  1.00  0.00     0.096 C 
ATOM     44  C   UNL     1      -6.006  95.702 -13.530  1.00  0.00     0.043 C 
ATOM     45  C   UNL     1      -7.183  94.511 -11.648  1.00  0.00     0.015 C 
ATOM     46  C   UNL     1      -8.246  95.028 -15.377  1.00  0.00     0.037 C 
ATOM     47  O   UNL     1      -9.175  95.277 -13.251  1.00  0.00    -0.369 OA
ATOM     48  C   UNL     1      -6.521  96.663 -14.639  1.00  0.00     0.124 C 
ATOM     49  C   UNL     1      -8.029  96.483 -14.999  1.00  0.00     0.026 C 
ATOM     50  C   UNL     1      -9.565  94.853 -16.192  1.00  0.00     0.014 C 
ATOM     51  C   UNL     1      -8.916  96.584 -13.733  1.00  0.00     0.171 C 
ATOM     52  C   UNL     1      -8.462  97.512 -16.098  1.00  0.00     0.013 C 
ATOM     53  C   UNL     1      -9.655  95.729 -17.489  1.00  0.00    -0.035 C 
ATOM     54  C   UNL     1      -8.598  96.861 -17.481  1.00  0.00     0.007 C 
ATOM     55  C   UNL     1     -11.079  96.338 -17.591  1.00  0.00     0.011 C 
ATOM     56  C   UNL     1      -9.425  94.849 -18.740  1.00  0.00     0.011 C 
BRANCH  29  57
ATOM     57  C   UNL     1      -5.410  89.836  -9.071  1.00  0.00     0.165 C 
BRANCH  57  58
ATOM     58  O   UNL     1      -5.998  89.957  -7.800  1.00  0.00    -0.396 OA
ATOM     59  H   UNL     1      -5.283  90.301  -7.198  1.00  0.00     0.210 HD
ENDBRANCH  57  58
ENDBRANCH  29  57
BRANCH  48  60
ATOM     60  O   UNL     1      -5.728  96.487 -15.788  1.00  0.00    -0.392 OA
ATOM     61  H   UNL     1      -6.269  96.763 -16.574  1.00  0.00     0.210 HD
ENDBRANCH  48  60
ENDBRANCH  26  27
ENDBRANCH   6  26
BRANCH   5  62
ATOM     62  O   UNL     1      -8.920  86.025  -9.925  1.00  0.00    -0.385 OA
ATOM     63  H   UNL     1      -7.978  86.329  -9.917  1.00  0.00     0.211 HD
ENDBRANCH   5  62
TORSDOF 14
ENDMDL
MODEL 4
REMARK VINA RESULT:    -6.299      5.362     11.931
REMARK INTER + INTRA:         -12.110
REMARK INTER:                  -9.872
REMARK INTRA:                  -2.238
REMARK UNBOUND:                -2.129
REMARK SMILES C[C@H]1O[C@H](O[C@H]2CC[C@]3(C)[C@@H](CC[C@@]4(C)[C@H]3C=C[C@]35OC[C@@]6(CCC(C)(C)C[C@@H]63)[C@H](O)C[C@]45C)[C@]2(C)CO)[C@@H](O)[C@H](O[C@H]2O[C@@H](CO)[C@@H](O)[C@@H](O)[C@H]2O)[C@@H]1O
REMARK SMILES IDX 1 1 2 2 54 3 41 4 39 5 4 6 3 7 55 8 42 10 43 11 52 12 44 13
REMARK SMILES IDX 50 14 45 15 48 16 53 17 51 19 46 21 47 22 49 24 5 26 6 27
REMARK SMILES IDX 7 28 35 29 8 30 11 31 36 32 9 33 12 34 10 35 16 36 13 37
REMARK SMILES IDX 14 38 17 39 15 40 33 41 18 42 19 43 32 44 34 45 29 46 20 47
REMARK SMILES IDX 30 48 22 49 28 50 21 51 23 52 25 53 24 54 26 55 27 56 37 57
REMARK SMILES IDX 38 58 31 60 40 62
REMARK H PARENT 55 9 53 18 51 20 47 23 49 25 38 59 31 61 40 63
REMARK Flexibility Score: inf
ROOT
ATOM      1  C   UNL     1      -1.875  91.124 -18.483  1.00  0.00     0.041 C 
ATOM      2  C   UNL     1      -3.137  91.985 -18.561  1.00  0.00     0.150 C 
ATOM      3  C   UNL     1      -3.449  92.428 -20.021  1.00  0.00     0.175 C 
ATOM      4  C   UNL     1      -4.094  93.852 -20.056  1.00  0.00     0.186 C 
ATOM      5  C   UNL     1      -5.008  93.997 -18.814  1.00  0.00     0.202 C 
ATOM      6  C   UNL     1      -4.241  93.715 -17.473  1.00  0.00     0.282 C 
ATOM      7  O   UNL     1      -2.976  93.133 -17.739  1.00  0.00    -0.344 OA
ENDROOT
BRANCH   3   8
ATOM      8  O   UNL     1      -4.320  91.500 -20.619  1.00  0.00    -0.388 OA
ATOM      9  H   UNL     1      -4.894  91.998 -21.261  1.00  0.00     0.211 HD
ENDBRANCH   3   8
BRANCH   4  10
ATOM     10  O   UNL     1      -4.899  94.155 -21.212  1.00  0.00    -0.341 OA
BRANCH  10  11
ATOM     11  C   UNL     1      -4.189  94.448 -22.417  1.00  0.00     0.282 C 
ATOM     12  C   UNL     1      -4.916  95.561 -23.223  1.00  0.00     0.202 C 
ATOM     13  O   UNL     1      -4.147  93.257 -23.198  1.00  0.00    -0.341 OA
ATOM     14  C   UNL     1      -4.122  95.896 -24.529  1.00  0.00     0.179 C 
ATOM     15  C   UNL     1      -3.431  93.390 -24.430  1.00  0.00     0.178 C 
ATOM     16  C   UNL     1      -3.013  94.855 -24.810  1.00  0.00     0.177 C 
BRANCH  12  17
ATOM     17  O   UNL     1      -6.263  95.238 -23.495  1.00  0.00    -0.385 OA
ATOM     18  H   UNL     1      -6.737  95.092 -22.638  1.00  0.00     0.211 HD
ENDBRANCH  12  17
BRANCH  14  19
ATOM     19  O   UNL     1      -4.999  95.999 -25.628  1.00  0.00    -0.387 OA
ATOM     20  H   UNL     1      -4.578  96.589 -26.307  1.00  0.00     0.211 HD
ENDBRANCH  14  19
BRANCH  15  21
ATOM     21  C   UNL     1      -4.202  92.625 -25.546  1.00  0.00     0.191 C 
BRANCH  21  22
ATOM     22  O   UNL     1      -5.551  93.009 -25.625  1.00  0.00    -0.394 OA
ATOM     23  H   UNL     1      -6.067  92.250 -25.988  1.00  0.00     0.210 HD
ENDBRANCH  21  22
ENDBRANCH  15  21
BRANCH  16  24
ATOM     24  O   UNL     1      -2.555  94.932 -26.140  1.00  0.00    -0.387 OA
ATOM     25  H   UNL     1      -1.927  95.715 -26.160  1.00  0.00     0.211 HD
ENDBRANCH  16  24
ENDBRANCH  10  11
ENDBRANCH   4  10
BRANCH   6  26
ATOM     26  O   UNL     1      -4.926  92.814 -16.617  1.00  0.00    -0.346 OA
BRANCH  26  27
ATOM     27  C   UNL     1      -4.750  92.987 -15.217  1.00  0.00     0.130 C 
ATOM     28  C   UNL     1      -5.775  94.041 -14.783  1.00  0.00     0.033 C 
ATOM     29  C   UNL     1      -4.995  91.603 -14.474  1.00  0.00     0.020 C 
ATOM     30  C   UNL     1      -5.743  94.245 -13.287  1.00  0.00     0.010 C 
ATOM     31  C   UNL     1      -5.331  91.771 -12.893  1.00  0.00     0.006 C 
ATOM     32  C   UNL     1      -6.092  90.832 -15.293  1.00  0.00     0.017 C 
ATOM     33  C   UNL     1      -6.205  93.010 -12.488  1.00  0.00    -0.022 C 
ATOM     34  C   UNL     1      -5.856  90.450 -12.199  1.00  0.00     0.005 C 
ATOM     35  C   UNL     1      -5.941  93.404 -11.003  1.00  0.00     0.012 C 
ATOM     36  C   UNL     1      -7.705  92.609 -12.747  1.00  0.00     0.024 C 
ATOM     37  C   UNL     1      -7.220  90.465 -11.415  1.00  0.00     0.008 C 
ATOM     38  C   UNL     1      -8.324  91.557 -11.764  1.00  0.00    -0.017 C 
ATOM     39  C   UNL     1      -8.699  93.668 -13.151  1.00  0.00    -0.024 C 
ATOM     40  C   UNL     1      -8.750  92.277 -10.430  1.00  0.00     0.013 C 
ATOM     41  C   UNL     1      -9.639  90.922 -12.465  1.00  0.00     0.009 C 
ATOM     42  C   UNL     1      -9.957  93.334 -13.453  1.00  0.00     0.005 C 
ATOM     43  C   UNL     1     -10.667  92.077 -12.943  1.00  0.00     0.096 C 
ATOM     44  C   UNL     1     -10.347  89.849 -11.517  1.00  0.00     0.043 C 
ATOM     45  C   UNL     1      -9.216  90.122 -13.752  1.00  0.00     0.015 C 
ATOM     46  C   UNL     1     -11.712  92.475 -11.871  1.00  0.00     0.037 C 
ATOM     47  O   UNL     1     -11.453  91.555 -14.000  1.00  0.00    -0.369 OA
ATOM     48  C   UNL     1     -11.803  90.130 -11.044  1.00  0.00     0.124 C 
ATOM     49  C   UNL     1     -12.555  91.212 -11.881  1.00  0.00     0.026 C 
ATOM     50  C   UNL     1     -12.569  93.722 -12.255  1.00  0.00     0.014 C 
ATOM     51  C   UNL     1     -12.528  90.862 -13.390  1.00  0.00     0.171 C 
ATOM     52  C   UNL     1     -14.017  91.402 -11.352  1.00  0.00     0.013 C 
ATOM     53  C   UNL     1     -13.831  93.952 -11.354  1.00  0.00    -0.035 C 
ATOM     54  C   UNL     1     -14.174  92.687 -10.528  1.00  0.00     0.007 C 
ATOM     55  C   UNL     1     -15.034  94.335 -12.256  1.00  0.00     0.011 C 
ATOM     56  C   UNL     1     -13.578  95.124 -10.377  1.00  0.00     0.011 C 
BRANCH  29  57
ATOM     57  C   UNL     1      -3.693  90.750 -14.607  1.00  0.00     0.165 C 
BRANCH  57  58
ATOM     58  O   UNL     1      -2.625  91.500 -15.127  1.00  0.00    -0.396 OA
ATOM     59  H   UNL     1      -2.499  92.268 -14.505  1.00  0.00     0.210 HD
ENDBRANCH  57  58
ENDBRANCH  29  57
BRANCH  48  60
ATOM     60  O   UNL     1     -11.768  90.507  -9.689  1.00  0.00    -0.392 OA
ATOM     61  H   UNL     1     -10.856  90.315  -9.346  1.00  0.00     0.210 HD
ENDBRANCH  48  60
ENDBRANCH  26  27
ENDBRANCH   6  26
BRANCH   5  62
ATOM     62  O   UNL     1      -5.578  95.286 -18.796  1.00  0.00    -0.385 OA
ATOM     63  H   UNL     1      -5.100  95.814 -19.484  1.00  0.00     0.211 HD
ENDBRANCH   5  62
TORSDOF 14
ENDMDL
MODEL 5
REMARK VINA RESULT:    -6.163      1.728      2.139
REMARK INTER + INTRA:         -11.894
REMARK INTER:                  -9.762
REMARK INTRA:                  -2.132
REMARK UNBOUND:                -2.129
REMARK SMILES C[C@H]1O[C@H](O[C@H]2CC[C@]3(C)[C@@H](CC[C@@]4(C)[C@H]3C=C[C@]35OC[C@@]6(CCC(C)(C)C[C@@H]63)[C@H](O)C[C@]45C)[C@]2(C)CO)[C@@H](O)[C@H](O[C@H]2O[C@@H](CO)[C@@H](O)[C@@H](O)[C@H]2O)[C@@H]1O
REMARK SMILES IDX 1 1 2 2 54 3 41 4 39 5 4 6 3 7 55 8 42 10 43 11 52 12 44 13
REMARK SMILES IDX 50 14 45 15 48 16 53 17 51 19 46 21 47 22 49 24 5 26 6 27
REMARK SMILES IDX 7 28 35 29 8 30 11 31 36 32 9 33 12 34 10 35 16 36 13 37
REMARK SMILES IDX 14 38 17 39 15 40 33 41 18 42 19 43 32 44 34 45 29 46 20 47
REMARK SMILES IDX 30 48 22 49 28 50 21 51 23 52 25 53 24 54 26 55 27 56 37 57
REMARK SMILES IDX 38 58 31 60 40 62
REMARK H PARENT 55 9 53 18 51 20 47 23 49 25 38 59 31 61 40 63
REMARK Flexibility Score: inf
ROOT
ATOM      1  C   UNL     1      -6.179  83.760  -9.012  1.00  0.00     0.041 C 
ATOM      2  C   UNL     1      -7.165  84.925  -8.916  1.00  0.00     0.150 C 
ATOM      3  C   UNL     1      -8.535  84.481  -8.324  1.00  0.00     0.175 C 
ATOM      4  C   UNL     1      -9.715  85.286  -8.957  1.00  0.00     0.186 C 
ATOM      5  C   UNL     1      -9.228  86.734  -9.213  1.00  0.00     0.202 C 
ATOM      6  C   UNL     1      -7.927  86.778 -10.092  1.00  0.00     0.282 C 
ATOM      7  O   UNL     1      -7.364  85.483 -10.208  1.00  0.00    -0.344 OA
ENDROOT
BRANCH   3   8
ATOM      8  O   UNL     1      -8.528  84.669  -6.930  1.00  0.00    -0.388 OA
ATOM      9  H   UNL     1      -8.470  85.647  -6.760  1.00  0.00     0.211 HD
ENDBRANCH   3   8
BRANCH   4  10
ATOM     10  O   UNL     1     -10.917  85.378  -8.167  1.00  0.00    -0.341 OA
BRANCH  10  11
ATOM     11  C   UNL     1     -11.862  84.318  -8.329  1.00  0.00     0.282 C 
ATOM     12  C   UNL     1     -12.417  84.297  -9.781  1.00  0.00     0.202 C 
ATOM     13  O   UNL     1     -12.936  84.550  -7.422  1.00  0.00    -0.341 OA
ATOM     14  C   UNL     1     -13.432  83.119  -9.961  1.00  0.00     0.179 C 
ATOM     15  C   UNL     1     -13.951  83.542  -7.446  1.00  0.00     0.178 C 
ATOM     16  C   UNL     1     -13.825  82.489  -8.604  1.00  0.00     0.177 C 
BRANCH  12  17
ATOM     17  O   UNL     1     -12.975  85.535 -10.163  1.00  0.00    -0.385 OA
ATOM     18  H   UNL     1     -13.874  85.377 -10.547  1.00  0.00     0.211 HD
ENDBRANCH  12  17
BRANCH  14  19
ATOM     19  O   UNL     1     -14.578  83.557 -10.657  1.00  0.00    -0.387 OA
ATOM     20  H   UNL     1     -14.679  84.533 -10.503  1.00  0.00     0.211 HD
ENDBRANCH  14  19
BRANCH  15  21
ATOM     21  C   UNL     1     -15.346  84.228  -7.343  1.00  0.00     0.191 C 
BRANCH  21  22
ATOM     22  O   UNL     1     -15.545  85.191  -8.346  1.00  0.00    -0.394 OA
ATOM     23  H   UNL     1     -15.406  84.758  -9.222  1.00  0.00     0.210 HD
ENDBRANCH  21  22
ENDBRANCH  15  21
BRANCH  16  24
ATOM     24  O   UNL     1     -14.989  81.702  -8.716  1.00  0.00    -0.387 OA
ATOM     25  H   UNL     1     -15.621  82.242  -9.279  1.00  0.00     0.211 HD
ENDBRANCH  16  24
ENDBRANCH  10  11
ENDBRANCH   4  10
BRANCH   6  26
ATOM     26  O   UNL     1      -6.914  87.610  -9.547  1.00  0.00    -0.346 OA
BRANCH  26  27
ATOM     27  C   UNL     1      -6.113  88.342 -10.465  1.00  0.00     0.130 C 
ATOM     28  C   UNL     1      -6.981  88.566 -11.708  1.00  0.00     0.033 C 
ATOM     29  C   UNL     1      -5.676  89.723  -9.809  1.00  0.00     0.020 C 
ATOM     30  C   UNL     1      -6.261  89.419 -12.727  1.00  0.00     0.010 C 
ATOM     31  C   UNL     1      -5.219  90.838 -10.898  1.00  0.00     0.006 C 
ATOM     32  C   UNL     1      -6.853  90.175  -8.870  1.00  0.00     0.017 C 
ATOM     33  C   UNL     1      -6.010  90.864 -12.252  1.00  0.00    -0.022 C 
ATOM     34  C   UNL     1      -5.057  92.295 -10.303  1.00  0.00     0.005 C 
ATOM     35  C   UNL     1      -5.137  91.484 -13.385  1.00  0.00     0.012 C 
ATOM     36  C   UNL     1      -7.328  91.685 -11.990  1.00  0.00     0.024 C 
ATOM     37  C   UNL     1      -5.831  93.499 -10.955  1.00  0.00     0.008 C 
ATOM     38  C   UNL     1      -7.158  93.230 -11.791  1.00  0.00    -0.017 C 
ATOM     39  C   UNL     1      -8.582  91.341 -12.753  1.00  0.00    -0.024 C 
ATOM     40  C   UNL     1      -7.009  93.924 -13.197  1.00  0.00     0.013 C 
ATOM     41  C   UNL     1      -8.489  93.795 -11.061  1.00  0.00     0.009 C 
ATOM     42  C   UNL     1      -9.730  91.972 -12.487  1.00  0.00     0.005 C 
ATOM     43  C   UNL     1      -9.827  93.367 -11.863  1.00  0.00     0.096 C 
ATOM     44  C   UNL     1      -8.407  95.375 -10.838  1.00  0.00     0.043 C 
ATOM     45  C   UNL     1      -8.601  93.179  -9.618  1.00  0.00     0.015 C 
ATOM     46  C   UNL     1     -10.267  94.385 -12.946  1.00  0.00     0.037 C 
ATOM     47  O   UNL     1     -10.908  93.366 -10.946  1.00  0.00    -0.369 OA
ATOM     48  C   UNL     1      -9.465  96.274 -11.540  1.00  0.00     0.124 C 
ATOM     49  C   UNL     1     -10.732  95.511 -12.039  1.00  0.00     0.026 C 
ATOM     50  C   UNL     1     -11.433  93.880 -13.852  1.00  0.00     0.014 C 
ATOM     51  C   UNL     1     -11.379  94.701 -10.888  1.00  0.00     0.171 C 
ATOM     52  C   UNL     1     -11.749  96.501 -12.700  1.00  0.00     0.013 C 
ATOM     53  C   UNL     1     -12.107  94.989 -14.731  1.00  0.00    -0.035 C 
ATOM     54  C   UNL     1     -11.737  96.409 -14.232  1.00  0.00     0.007 C 
ATOM     55  C   UNL     1     -13.646  94.801 -14.692  1.00  0.00     0.011 C 
ATOM     56  C   UNL     1     -11.650  94.851 -16.202  1.00  0.00     0.011 C 
BRANCH  29  57
ATOM     57  C   UNL     1      -4.466  89.442  -8.861  1.00  0.00     0.165 C 
BRANCH  57  58
ATOM     58  O   UNL     1      -4.320  88.071  -8.588  1.00  0.00    -0.396 OA
ATOM     59  H   UNL     1      -4.163  87.632  -9.469  1.00  0.00     0.210 HD
ENDBRANCH  57  58
ENDBRANCH  29  57
BRANCH  48  60
ATOM     60  O   UNL     1      -8.847  96.936 -12.616  1.00  0.00    -0.392 OA
ATOM     61  H   UNL     1      -8.633  97.860 -12.319  1.00  0.00     0.210 HD
ENDBRANCH  48  60
ENDBRANCH  26  27
ENDBRANCH   6  26
BRANCH   5  62
ATOM     62  O   UNL     1     -10.260  87.479  -9.818  1.00  0.00    -0.385 OA
ATOM     63  H   UNL     1     -11.098  87.227  -9.355  1.00  0.00     0.211 HD
ENDBRANCH   5  62
TORSDOF 14
ENDMDL
MODEL 6
REMARK VINA RESULT:    -6.108      3.087      5.207
REMARK INTER + INTRA:         -11.807
REMARK INTER:                  -9.505
REMARK INTRA:                  -2.302
REMARK UNBOUND:                -2.129
REMARK SMILES C[C@H]1O[C@H](O[C@H]2CC[C@]3(C)[C@@H](CC[C@@]4(C)[C@H]3C=C[C@]35OC[C@@]6(CCC(C)(C)C[C@@H]63)[C@H](O)C[C@]45C)[C@]2(C)CO)[C@@H](O)[C@H](O[C@H]2O[C@@H](CO)[C@@H](O)[C@@H](O)[C@H]2O)[C@@H]1O
REMARK SMILES IDX 1 1 2 2 54 3 41 4 39 5 4 6 3 7 55 8 42 10 43 11 52 12 44 13
REMARK SMILES IDX 50 14 45 15 48 16 53 17 51 19 46 21 47 22 49 24 5 26 6 27
REMARK SMILES IDX 7 28 35 29 8 30 11 31 36 32 9 33 12 34 10 35 16 36 13 37
REMARK SMILES IDX 14 38 17 39 15 40 33 41 18 42 19 43 32 44 34 45 29 46 20 47
REMARK SMILES IDX 30 48 22 49 28 50 21 51 23 52 25 53 24 54 26 55 27 56 37 57
REMARK SMILES IDX 38 58 31 60 40 62
REMARK H PARENT 55 9 53 18 51 20 47 23 49 25 38 59 31 61 40 63
REMARK Flexibility Score: inf
ROOT
ATOM      1  C   UNL     1     -10.153  88.046  -9.104  1.00  0.00     0.041 C 
ATOM      2  C   UNL     1      -8.642  88.205  -9.279  1.00  0.00     0.150 C 
ATOM      3  C   UNL     1      -7.944  86.845  -9.576  1.00  0.00     0.175 C 
ATOM      4  C   UNL     1      -6.514  86.791  -8.947  1.00  0.00     0.186 C 
ATOM      5  C   UNL     1      -5.892  88.207  -9.042  1.00  0.00     0.202 C 
ATOM      6  C   UNL     1      -6.802  89.303  -8.380  1.00  0.00     0.282 C 
ATOM      7  O   UNL     1      -8.088  88.776  -8.101  1.00  0.00    -0.344 OA
ENDROOT
BRANCH   3   8
ATOM      8  O   UNL     1      -7.856  86.655 -10.967  1.00  0.00    -0.388 OA
ATOM      9  H   UNL     1      -8.183  85.737 -11.165  1.00  0.00     0.211 HD
ENDBRANCH   3   8
BRANCH   4  10
ATOM     10  O   UNL     1      -5.584  85.878  -9.561  1.00  0.00    -0.341 OA
BRANCH  10  11
ATOM     11  C   UNL     1      -5.193  84.750  -8.776  1.00  0.00     0.282 C 
ATOM     12  C   UNL     1      -3.991  85.111  -7.860  1.00  0.00     0.202 C 
ATOM     13  O   UNL     1      -4.805  83.711  -9.670  1.00  0.00    -0.341 OA
ATOM     14  C   UNL     1      -3.583  83.880  -6.984  1.00  0.00     0.179 C 
ATOM     15  C   UNL     1      -4.417  82.496  -9.022  1.00  0.00     0.178 C 
ATOM     16  C   UNL     1      -4.275  82.582  -7.461  1.00  0.00     0.177 C 
BRANCH  12  17
ATOM     17  O   UNL     1      -2.895  85.626  -8.585  1.00  0.00    -0.385 OA
ATOM     18  H   UNL     1      -2.952  85.308  -9.521  1.00  0.00     0.211 HD
ENDBRANCH  12  17
BRANCH  14  19
ATOM     19  O   UNL     1      -2.182  83.723  -6.974  1.00  0.00    -0.387 OA
ATOM     20  H   UNL     1      -1.771  84.595  -7.217  1.00  0.00     0.211 HD
ENDBRANCH  14  19
BRANCH  15  21
ATOM     21  C   UNL     1      -3.176  81.906  -9.755  1.00  0.00     0.191 C 
BRANCH  21  22
ATOM     22  O   UNL     1      -2.154  82.856  -9.925  1.00  0.00    -0.394 OA
ATOM     23  H   UNL     1      -1.841  82.807 -10.859  1.00  0.00     0.210 HD
ENDBRANCH  21  22
ENDBRANCH  15  21
BRANCH  16  24
ATOM     24  O   UNL     1      -3.645  81.436  -6.935  1.00  0.00    -0.387 OA
ATOM     25  H   UNL     1      -2.853  81.271  -7.531  1.00  0.00     0.211 HD
ENDBRANCH  16  24
ENDBRANCH  10  11
ENDBRANCH   4  10
BRANCH   6  26
ATOM     26  O   UNL     1      -7.003  90.436  -9.211  1.00  0.00    -0.346 OA
BRANCH  26  27
ATOM     27  C   UNL     1      -5.995  90.722 -10.172  1.00  0.00     0.130 C 
ATOM     28  C   UNL     1      -6.638  90.500 -11.546  1.00  0.00     0.033 C 
ATOM     29  C   UNL     1      -5.506  92.226 -10.000  1.00  0.00     0.020 C 
ATOM     30  C   UNL     1      -5.682  90.863 -12.657  1.00  0.00     0.010 C 
ATOM     31  C   UNL     1      -4.768  92.818 -11.320  1.00  0.00     0.006 C 
ATOM     32  C   UNL     1      -6.750  93.059  -9.521  1.00  0.00     0.017 C 
ATOM     33  C   UNL     1      -5.342  92.366 -12.708  1.00  0.00    -0.022 C 
ATOM     34  C   UNL     1      -4.531  94.382 -11.283  1.00  0.00     0.005 C 
ATOM     35  C   UNL     1      -4.244  92.464 -13.812  1.00  0.00     0.012 C 
ATOM     36  C   UNL     1      -6.581  93.289 -13.009  1.00  0.00     0.024 C 
ATOM     37  C   UNL     1      -5.057  95.284 -12.458  1.00  0.00     0.008 C 
ATOM     38  C   UNL     1      -6.267  94.784 -13.363  1.00  0.00    -0.017 C 
ATOM     39  C   UNL     1      -7.739  92.744 -13.805  1.00  0.00    -0.024 C 
ATOM     40  C   UNL     1      -5.833  94.881 -14.873  1.00  0.00     0.013 C 
ATOM     41  C   UNL     1      -7.618  95.649 -13.144  1.00  0.00     0.009 C 
ATOM     42  C   UNL     1      -8.833  93.485 -14.001  1.00  0.00     0.005 C 
ATOM     43  C   UNL     1      -8.863  95.015 -13.961  1.00  0.00     0.096 C 
ATOM     44  C   UNL     1      -7.391  97.189 -13.504  1.00  0.00     0.043 C 
ATOM     45  C   UNL     1      -8.013  95.635 -11.621  1.00  0.00     0.015 C 
ATOM     46  C   UNL     1      -9.017  95.565 -15.401  1.00  0.00     0.037 C 
ATOM     47  O   UNL     1     -10.060  95.417 -13.319  1.00  0.00    -0.369 OA
ATOM     48  C   UNL     1      -8.223  97.805 -14.666  1.00  0.00     0.124 C 
ATOM     49  C   UNL     1      -9.480  96.973 -15.070  1.00  0.00     0.026 C 
ATOM     50  C   UNL     1     -10.086  94.812 -16.254  1.00  0.00     0.014 C 
ATOM     51  C   UNL     1     -10.379  96.696 -13.840  1.00  0.00     0.171 C 
ATOM     52  C   UNL     1     -10.268  97.686 -16.220  1.00  0.00     0.013 C 
ATOM     53  C   UNL     1     -10.490  95.535 -17.585  1.00  0.00    -0.035 C 
ATOM     54  C   UNL     1     -10.039  97.017 -17.583  1.00  0.00     0.007 C 
ATOM     55  C   UNL     1     -12.030  95.453 -17.758  1.00  0.00     0.011 C 
ATOM     56  C   UNL     1      -9.839  94.824 -18.794  1.00  0.00     0.011 C 
BRANCH  29  57
ATOM     57  C   UNL     1      -4.490  92.267  -8.814  1.00  0.00     0.165 C 
BRANCH  57  58
ATOM     58  O   UNL     1      -3.853  91.029  -8.626  1.00  0.00    -0.396 OA
ATOM     59  H   UNL     1      -3.659  90.966  -7.651  1.00  0.00     0.210 HD
ENDBRANCH  57  58
ENDBRANCH  29  57
BRANCH  48  60
ATOM     60  O   UNL     1      -7.380  97.976 -15.779  1.00  0.00    -0.392 OA
ATOM     61  H   UNL     1      -7.880  97.680 -16.585  1.00  0.00     0.210 HD
ENDBRANCH  48  60
ENDBRANCH  26  27
ENDBRANCH   6  26
BRANCH   5  62
ATOM     62  O   UNL     1      -4.614  88.201  -8.449  1.00  0.00    -0.385 OA
ATOM     63  H   UNL     1      -4.326  89.147  -8.391  1.00  0.00     0.211 HD
ENDBRANCH   5  62
TORSDOF 14
ENDMDL
MODEL 7
REMARK VINA RESULT:    -5.936      2.553      4.164
REMARK INTER + INTRA:         -11.534
REMARK INTER:                  -9.688
REMARK INTRA:                  -1.846
REMARK UNBOUND:                -2.129
REMARK SMILES C[C@H]1O[C@H](O[C@H]2CC[C@]3(C)[C@@H](CC[C@@]4(C)[C@H]3C=C[C@]35OC[C@@]6(CCC(C)(C)C[C@@H]63)[C@H](O)C[C@]45C)[C@]2(C)CO)[C@@H](O)[C@H](O[C@H]2O[C@@H](CO)[C@@H](O)[C@@H](O)[C@H]2O)[C@@H]1O
REMARK SMILES IDX 1 1 2 2 54 3 41 4 39 5 4 6 3 7 55 8 42 10 43 11 52 12 44 13
REMARK SMILES IDX 50 14 45 15 48 16 53 17 51 19 46 21 47 22 49 24 5 26 6 27
REMARK SMILES IDX 7 28 35 29 8 30 11 31 36 32 9 33 12 34 10 35 16 36 13 37
REMARK SMILES IDX 14 38 17 39 15 40 33 41 18 42 19 43 32 44 34 45 29 46 20 47
REMARK SMILES IDX 30 48 22 49 28 50 21 51 23 52 25 53 24 54 26 55 27 56 37 57
REMARK SMILES IDX 38 58 31 60 40 62
REMARK H PARENT 55 9 53 18 51 20 47 23 49 25 38 59 31 61 40 63
REMARK Flexibility Score: inf
ROOT
ATOM      1  C   UNL     1     -13.949  90.239  -8.864  1.00  0.00     0.041 C 
ATOM      2  C   UNL     1     -12.765  89.303  -9.111  1.00  0.00     0.150 C 
ATOM      3  C   UNL     1     -13.210  87.958  -9.756  1.00  0.00     0.175 C 
ATOM      4  C   UNL     1     -12.321  86.770  -9.264  1.00  0.00     0.186 C 
ATOM      5  C   UNL     1     -10.873  87.294  -9.086  1.00  0.00     0.202 C 
ATOM      6  C   UNL     1     -10.803  88.538  -8.130  1.00  0.00     0.282 C 
ATOM      7  O   UNL     1     -12.102  89.045  -7.880  1.00  0.00    -0.344 OA
ENDROOT
BRANCH   3   8
ATOM      8  O   UNL     1     -13.131  88.058 -11.156  1.00  0.00    -0.388 OA
ATOM      9  H   UNL     1     -12.434  88.735 -11.370  1.00  0.00     0.211 HD
ENDBRANCH   3   8
BRANCH   4  10
ATOM     10  O   UNL     1     -12.253  85.625 -10.134  1.00  0.00    -0.341 OA
BRANCH  10  11
ATOM     11  C   UNL     1     -12.616  84.369  -9.556  1.00  0.00     0.282 C 
ATOM     12  C   UNL     1     -11.416  83.754  -8.784  1.00  0.00     0.202 C 
ATOM     13  O   UNL     1     -12.989  83.493 -10.617  1.00  0.00    -0.341 OA
ATOM     14  C   UNL     1     -11.826  82.391  -8.132  1.00  0.00     0.179 C 
ATOM     15  C   UNL     1     -13.414  82.197 -10.184  1.00  0.00     0.178 C 
ATOM     16  C   UNL     1     -13.191  81.891  -8.660  1.00  0.00     0.177 C 
BRANCH  12  17
ATOM     17  O   UNL     1     -10.265  83.625  -9.591  1.00  0.00    -0.385 OA
ATOM     18  H   UNL     1     -10.511  83.807 -10.532  1.00  0.00     0.211 HD
ENDBRANCH  12  17
BRANCH  14  19
ATOM     19  O   UNL     1     -10.825  81.421  -8.343  1.00  0.00    -0.387 OA
ATOM     20  H   UNL     1     -11.118  80.830  -9.084  1.00  0.00     0.211 HD
ENDBRANCH  14  19
BRANCH  15  21
ATOM     21  C   UNL     1     -12.834  81.125 -11.153  1.00  0.00     0.191 C 
BRANCH  21  22
ATOM     22  O   UNL     1     -11.470  81.331 -11.423  1.00  0.00    -0.394 OA
ATOM     23  H   UNL     1     -11.001  81.460 -10.565  1.00  0.00     0.210 HD
ENDBRANCH  21  22
ENDBRANCH  15  21
BRANCH  16  24
ATOM     24  O   UNL     1     -13.388  80.525  -8.374  1.00  0.00    -0.387 OA
ATOM     25  H   UNL     1     -12.568  80.060  -8.721  1.00  0.00     0.211 HD
ENDBRANCH  16  24
ENDBRANCH  10  11
ENDBRANCH   4  10
BRANCH   6  26
ATOM     26  O   UNL     1     -10.049  89.612  -8.669  1.00  0.00    -0.346 OA
BRANCH  26  27
ATOM     27  C   UNL     1      -9.077  89.292  -9.656  1.00  0.00     0.130 C 
ATOM     28  C   UNL     1      -9.355  90.215 -10.848  1.00  0.00     0.033 C 
ATOM     29  C   UNL     1      -7.619  89.533  -9.068  1.00  0.00     0.020 C 
ATOM     30  C   UNL     1      -8.322  90.028 -11.933  1.00  0.00     0.010 C 
ATOM     31  C   UNL     1      -6.481  89.704 -10.215  1.00  0.00     0.006 C 
ATOM     32  C   UNL     1      -7.724  90.742  -8.069  1.00  0.00     0.017 C 
ATOM     33  C   UNL     1      -6.905  90.471 -11.516  1.00  0.00    -0.022 C 
ATOM     34  C   UNL     1      -5.089  90.225  -9.673  1.00  0.00     0.005 C 
ATOM     35  C   UNL     1      -6.010  90.044 -12.719  1.00  0.00     0.012 C 
ATOM     36  C   UNL     1      -6.788  92.007 -11.194  1.00  0.00     0.024 C 
ATOM     37  C   UNL     1      -4.429  91.503 -10.308  1.00  0.00     0.008 C 
ATOM     38  C   UNL     1      -5.336  92.580 -11.050  1.00  0.00    -0.017 C 
ATOM     39  C   UNL     1      -7.723  92.981 -11.866  1.00  0.00    -0.024 C 
ATOM     40  C   UNL     1      -4.732  92.837 -12.481  1.00  0.00     0.013 C 
ATOM     41  C   UNL     1      -5.425  93.988 -10.253  1.00  0.00     0.009 C 
ATOM     42  C   UNL     1      -7.692  94.278 -11.545  1.00  0.00     0.005 C 
ATOM     43  C   UNL     1      -6.476  94.997 -10.956  1.00  0.00     0.096 C 
ATOM     44  C   UNL     1      -3.983  94.653 -10.080  1.00  0.00     0.043 C 
ATOM     45  C   UNL     1      -5.941  93.733  -8.789  1.00  0.00     0.015 C 
ATOM     46  C   UNL     1      -5.846  95.911 -12.037  1.00  0.00     0.037 C 
ATOM     47  O   UNL     1      -6.935  95.908  -9.973  1.00  0.00    -0.369 OA
ATOM     48  C   UNL     1      -3.727  96.039 -10.739  1.00  0.00     0.124 C 
ATOM     49  C   UNL     1      -5.023  96.814 -11.134  1.00  0.00     0.026 C 
ATOM     50  C   UNL     1      -6.888  96.737 -12.853  1.00  0.00     0.014 C 
ATOM     51  C   UNL     1      -5.978  96.952  -9.922  1.00  0.00     0.171 C 
ATOM     52  C   UNL     1      -4.666  98.206 -11.757  1.00  0.00     0.013 C 
ATOM     53  C   UNL     1      -6.277  97.892 -13.718  1.00  0.00    -0.035 C 
ATOM     54  C   UNL     1      -4.825  98.217 -13.284  1.00  0.00     0.007 C 
ATOM     55  C   UNL     1      -7.165  99.157 -13.576  1.00  0.00     0.011 C 
ATOM     56  C   UNL     1      -6.265  97.487 -15.211  1.00  0.00     0.011 C 
BRANCH  29  57
ATOM     57  C   UNL     1      -7.245  88.294  -8.192  1.00  0.00     0.165 C 
BRANCH  57  58
ATOM     58  O   UNL     1      -7.301  87.097  -8.925  1.00  0.00    -0.396 OA
ATOM     59  H   UNL     1      -8.232  86.757  -8.825  1.00  0.00     0.210 HD
ENDBRANCH  57  58
ENDBRANCH  29  57
BRANCH  48  60
ATOM     60  O   UNL     1      -2.912  95.854 -11.870  1.00  0.00    -0.392 OA
ATOM     61  H   UNL     1      -2.820  96.733 -12.323  1.00  0.00     0.210 HD
ENDBRANCH  48  60
ENDBRANCH  26  27
ENDBRANCH   6  26
BRANCH   5  62
ATOM     62  O   UNL     1     -10.052  86.254  -8.607  1.00  0.00    -0.385 OA
ATOM     63  H   UNL     1      -9.218  86.680  -8.284  1.00  0.00     0.211 HD
ENDBRANCH   5  62
TORSDOF 14
ENDMDL
MODEL 8
REMARK VINA RESULT:    -5.849      4.341      5.591
REMARK INTER + INTRA:         -11.397
REMARK INTER:                  -9.164
REMARK INTRA:                  -2.233
REMARK UNBOUND:                -2.129
REMARK SMILES C[C@H]1O[C@H](O[C@H]2CC[C@]3(C)[C@@H](CC[C@@]4(C)[C@H]3C=C[C@]35OC[C@@]6(CCC(C)(C)C[C@@H]63)[C@H](O)C[C@]45C)[C@]2(C)CO)[C@@H](O)[C@H](O[C@H]2O[C@@H](CO)[C@@H](O)[C@@H](O)[C@H]2O)[C@@H]1O
REMARK SMILES IDX 1 1 2 2 54 3 41 4 39 5 4 6 3 7 55 8 42 10 43 11 52 12 44 13
REMARK SMILES IDX 50 14 45 15 48 16 53 17 51 19 46 21 47 22 49 24 5 26 6 27
REMARK SMILES IDX 7 28 35 29 8 30 11 31 36 32 9 33 12 34 10 35 16 36 13 37
REMARK SMILES IDX 14 38 17 39 15 40 33 41 18 42 19 43 32 44 34 45 29 46 20 47
REMARK SMILES IDX 30 48 22 49 28 50 21 51 23 52 25 53 24 54 26 55 27 56 37 57
REMARK SMILES IDX 38 58 31 60 40 62
REMARK H PARENT 55 9 53 18 51 20 47 23 49 25 38 59 31 61 40 63
REMARK Flexibility Score: inf
ROOT
ATOM      1  C   UNL     1     -12.762  86.362  -9.890  1.00  0.00     0.041 C 
ATOM      2  C   UNL     1     -12.744  87.869 -10.149  1.00  0.00     0.150 C 
ATOM      3  C   UNL     1     -14.117  88.530  -9.836  1.00  0.00     0.175 C 
ATOM      4  C   UNL     1     -14.409  89.722 -10.805  1.00  0.00     0.186 C 
ATOM      5  C   UNL     1     -13.068  90.438 -11.104  1.00  0.00     0.202 C 
ATOM      6  C   UNL     1     -11.980  89.454 -11.667  1.00  0.00     0.282 C 
ATOM      7  O   UNL     1     -12.398  88.110 -11.507  1.00  0.00    -0.344 OA
ENDROOT
BRANCH   3   8
ATOM      8  O   UNL     1     -14.127  88.990  -8.507  1.00  0.00    -0.388 OA
ATOM      9  H   UNL     1     -13.382  89.642  -8.409  1.00  0.00     0.211 HD
ENDBRANCH   3   8
BRANCH   4  10
ATOM     10  O   UNL     1     -15.325  90.724 -10.322  1.00  0.00    -0.341 OA
BRANCH  10  11
ATOM     11  C   UNL     1     -16.647  90.685 -10.863  1.00  0.00     0.282 C 
ATOM     12  C   UNL     1     -16.605  90.744 -12.416  1.00  0.00     0.202 C 
ATOM     13  O   UNL     1     -17.352  91.821 -10.370  1.00  0.00    -0.341 OA
ATOM     14  C   UNL     1     -18.053  90.675 -13.004  1.00  0.00     0.179 C 
ATOM     15  C   UNL     1     -18.714  91.898 -10.804  1.00  0.00     0.178 C 
ATOM     16  C   UNL     1     -19.128  90.859 -11.906  1.00  0.00     0.177 C 
BRANCH  12  17
ATOM     17  O   UNL     1     -15.896  91.866 -12.894  1.00  0.00    -0.385 OA
ATOM     18  H   UNL     1     -15.306  91.581 -13.636  1.00  0.00     0.211 HD
ENDBRANCH  12  17
BRANCH  14  19
ATOM     19  O   UNL     1     -18.217  91.632 -14.027  1.00  0.00    -0.387 OA
ATOM     20  H   UNL     1     -19.006  92.192 -13.803  1.00  0.00     0.211 HD
ENDBRANCH  14  19
BRANCH  15  21
ATOM     21  C   UNL     1     -19.051  93.378 -11.149  1.00  0.00     0.191 C 
BRANCH  21  22
ATOM     22  O   UNL     1     -18.123  93.946 -12.039  1.00  0.00    -0.394 OA
ATOM     23  H   UNL     1     -18.621  94.463 -12.715  1.00  0.00     0.210 HD
ENDBRANCH  21  22
ENDBRANCH  15  21
BRANCH  16  24
ATOM     24  O   UNL     1     -20.386  91.168 -12.460  1.00  0.00    -0.387 OA
ATOM     25  H   UNL     1     -20.353  92.149 -12.667  1.00  0.00     0.211 HD
ENDBRANCH  16  24
ENDBRANCH  10  11
ENDBRANCH   4  10
BRANCH   6  26
ATOM     26  O   UNL     1     -10.731  89.568 -11.004  1.00  0.00    -0.346 OA
BRANCH  26  27
ATOM     27  C   UNL     1      -9.562  89.328 -11.777  1.00  0.00     0.130 C 
ATOM     28  C   UNL     1      -9.562  90.380 -12.892  1.00  0.00     0.033 C 
ATOM     29  C   UNL     1      -8.274  89.466 -10.854  1.00  0.00     0.020 C 
ATOM     30  C   UNL     1      -8.310  90.280 -13.732  1.00  0.00     0.010 C 
ATOM     31  C   UNL     1      -6.906  89.728 -11.691  1.00  0.00     0.006 C 
ATOM     32  C   UNL     1      -8.599  90.565  -9.778  1.00  0.00     0.017 C 
ATOM     33  C   UNL     1      -7.024  90.639 -12.962  1.00  0.00    -0.022 C 
ATOM     34  C   UNL     1      -5.671  90.151 -10.797  1.00  0.00     0.005 C 
ATOM     35  C   UNL     1      -5.881  90.317 -13.973  1.00  0.00     0.012 C 
ATOM     36  C   UNL     1      -6.978  92.129 -12.457  1.00  0.00     0.024 C 
ATOM     37  C   UNL     1      -4.882  91.471 -11.124  1.00  0.00     0.008 C 
ATOM     38  C   UNL     1      -5.595  92.644 -11.929  1.00  0.00    -0.017 C 
ATOM     39  C   UNL     1      -7.735  93.193 -13.210  1.00  0.00    -0.024 C 
ATOM     40  C   UNL     1      -4.683  93.035 -13.152  1.00  0.00     0.013 C 
ATOM     41  C   UNL     1      -5.859  93.961 -11.023  1.00  0.00     0.009 C 
ATOM     42  C   UNL     1      -7.775  94.448 -12.751  1.00  0.00     0.005 C 
ATOM     43  C   UNL     1      -6.721  95.067 -11.830  1.00  0.00     0.096 C 
ATOM     44  C   UNL     1      -4.491  94.566 -10.460  1.00  0.00     0.043 C 
ATOM     45  C   UNL     1      -6.693  93.567  -9.749  1.00  0.00     0.015 C 
ATOM     46  C   UNL     1      -5.861  96.073 -12.635  1.00  0.00     0.037 C 
ATOM     47  O   UNL     1      -7.388  95.881 -10.881  1.00  0.00    -0.369 OA
ATOM     48  C   UNL     1      -4.091  96.006 -10.889  1.00  0.00     0.124 C 
ATOM     49  C   UNL     1      -5.262  96.853 -11.478  1.00  0.00     0.026 C 
ATOM     50  C   UNL     1      -6.691  97.009 -13.569  1.00  0.00     0.014 C 
ATOM     51  C   UNL     1      -6.465  96.887 -10.503  1.00  0.00     0.171 C 
ATOM     52  C   UNL     1      -4.770  98.293 -11.849  1.00  0.00     0.013 C 
ATOM     53  C   UNL     1      -5.897  98.232 -14.144  1.00  0.00    -0.035 C 
ATOM     54  C   UNL     1      -4.580  98.470 -13.362  1.00  0.00     0.007 C 
ATOM     55  C   UNL     1      -6.791  99.498 -14.067  1.00  0.00     0.011 C 
ATOM     56  C   UNL     1      -5.549  97.987 -15.631  1.00  0.00     0.011 C 
BRANCH  29  57
ATOM     57  C   UNL     1      -8.110  88.132 -10.057  1.00  0.00     0.165 C 
BRANCH  57  58
ATOM     58  O   UNL     1      -9.142  87.221 -10.341  1.00  0.00    -0.396 OA
ATOM     59  H   UNL     1      -9.993  87.726 -10.225  1.00  0.00     0.210 HD
ENDBRANCH  57  58
ENDBRANCH  29  57
BRANCH  48  60
ATOM     60  O   UNL     1      -3.042  95.920 -11.822  1.00  0.00    -0.392 OA
ATOM     61  H   UNL     1      -2.676  94.997 -11.780  1.00  0.00     0.210 HD
ENDBRANCH  48  60
ENDBRANCH  26  27
ENDBRANCH   6  26
BRANCH   5  62
ATOM     62  O   UNL     1     -13.291  91.498 -12.006  1.00  0.00    -0.385 OA
ATOM     63  H   UNL     1     -12.573  91.444 -12.687  1.00  0.00     0.211 HD
ENDBRANCH   5  62
TORSDOF 14
ENDMDL
MODEL 9
REMARK VINA RESULT:    -5.697      5.554     10.668
REMARK INTER + INTRA:         -11.156
REMARK INTER:                  -9.691
REMARK INTRA:                  -1.465
REMARK UNBOUND:                -2.129
REMARK SMILES C[C@H]1O[C@H](O[C@H]2CC[C@]3(C)[C@@H](CC[C@@]4(C)[C@H]3C=C[C@]35OC[C@@]6(CCC(C)(C)C[C@@H]63)[C@H](O)C[C@]45C)[C@]2(C)CO)[C@@H](O)[C@H](O[C@H]2O[C@@H](CO)[C@@H](O)[C@@H](O)[C@H]2O)[C@@H]1O
REMARK SMILES IDX 1 1 2 2 54 3 41 4 39 5 4 6 3 7 55 8 42 10 43 11 52 12 44 13
REMARK SMILES IDX 50 14 45 15 48 16 53 17 51 19 46 21 47 22 49 24 5 26 6 27
REMARK SMILES IDX 7 28 35 29 8 30 11 31 36 32 9 33 12 34 10 35 16 36 13 37
REMARK SMILES IDX 14 38 17 39 15 40 33 41 18 42 19 43 32 44 34 45 29 46 20 47
REMARK SMILES IDX 30 48 22 49 28 50 21 51 23 52 25 53 24 54 26 55 27 56 37 57
REMARK SMILES IDX 38 58 31 60 40 62
REMARK H PARENT 55 9 53 18 51 20 47 23 49 25 38 59 31 61 40 63
REMARK Flexibility Score: inf
ROOT
ATOM      1  C   UNL     1      -4.851  97.021 -21.118  1.00  0.00     0.041 C 
ATOM      2  C   UNL     1      -5.342  96.038 -20.055  1.00  0.00     0.150 C 
ATOM      3  C   UNL     1      -4.539  94.704 -20.081  1.00  0.00     0.175 C 
ATOM      4  C   UNL     1      -5.446  93.488 -19.703  1.00  0.00     0.186 C 
ATOM      5  C   UNL     1      -6.456  93.956 -18.625  1.00  0.00     0.202 C 
ATOM      6  C   UNL     1      -7.285  95.207 -19.089  1.00  0.00     0.282 C 
ATOM      7  O   UNL     1      -6.722  95.767 -20.262  1.00  0.00    -0.344 OA
ENDROOT
BRANCH   3   8
ATOM      8  O   UNL     1      -3.461  94.785 -19.182  1.00  0.00    -0.388 OA
ATOM      9  H   UNL     1      -2.957  93.930 -19.240  1.00  0.00     0.211 HD
ENDBRANCH   3   8
BRANCH   4  10
ATOM     10  O   UNL     1      -4.770  92.331 -19.176  1.00  0.00    -0.341 OA
BRANCH  10  11
ATOM     11  C   UNL     1      -4.381  92.397 -17.802  1.00  0.00     0.282 C 
ATOM     12  C   UNL     1      -2.940  91.845 -17.615  1.00  0.00     0.202 C 
ATOM     13  O   UNL     1      -5.290  91.596 -17.053  1.00  0.00    -0.341 OA
ATOM     14  C   UNL     1      -2.508  91.943 -16.113  1.00  0.00     0.179 C 
ATOM     15  C   UNL     1      -5.044  91.594 -15.643  1.00  0.00     0.178 C 
ATOM     16  C   UNL     1      -3.705  92.282 -15.194  1.00  0.00     0.177 C 
BRANCH  12  17
ATOM     17  O   UNL     1      -2.795  90.535 -18.119  1.00  0.00    -0.385 OA
ATOM     18  H   UNL     1      -2.651  90.581 -19.097  1.00  0.00     0.211 HD
ENDBRANCH  12  17
BRANCH  14  19
ATOM     19  O   UNL     1      -1.884  90.749 -15.699  1.00  0.00    -0.387 OA
ATOM     20  H   UNL     1      -1.275  90.450 -16.425  1.00  0.00     0.211 HD
ENDBRANCH  14  19
BRANCH  15  21
ATOM     21  C   UNL     1      -5.246  90.150 -15.097  1.00  0.00     0.191 C 
BRANCH  21  22
ATOM     22  O   UNL     1      -5.629  90.137 -13.745  1.00  0.00    -0.394 OA
ATOM     23  H   UNL     1      -6.078  90.992 -13.544  1.00  0.00     0.210 HD
ENDBRANCH  21  22
ENDBRANCH  15  21
BRANCH  16  24
ATOM     24  O   UNL     1      -3.413  92.009 -13.842  1.00  0.00    -0.387 OA
ATOM     25  H   UNL     1      -2.421  92.134 -13.754  1.00  0.00     0.211 HD
ENDBRANCH  16  24
ENDBRANCH  10  11
ENDBRANCH   4  10
BRANCH   6  26
ATOM     26  O   UNL     1      -7.314  96.245 -18.122  1.00  0.00    -0.346 OA
BRANCH  26  27
ATOM     27  C   UNL     1      -8.409  96.256 -17.215  1.00  0.00     0.130 C 
ATOM     28  C   UNL     1      -8.443  94.867 -16.567  1.00  0.00     0.033 C 
ATOM     29  C   UNL     1      -8.189  97.395 -16.127  1.00  0.00     0.020 C 
ATOM     30  C   UNL     1      -9.519  94.788 -15.509  1.00  0.00     0.010 C 
ATOM     31  C   UNL     1      -9.067  97.177 -14.778  1.00  0.00     0.006 C 
ATOM     32  C   UNL     1      -6.640  97.502 -15.884  1.00  0.00     0.017 C 
ATOM     33  C   UNL     1      -9.253  95.696 -14.292  1.00  0.00    -0.022 C 
ATOM     34  C   UNL     1      -8.658  98.124 -13.578  1.00  0.00     0.005 C 
ATOM     35  C   UNL     1     -10.547  95.560 -13.434  1.00  0.00     0.012 C 
ATOM     36  C   UNL     1      -7.954  95.318 -13.487  1.00  0.00     0.024 C 
ATOM     37  C   UNL     1      -8.291  97.505 -12.180  1.00  0.00     0.008 C 
ATOM     38  C   UNL     1      -7.778  96.001 -12.087  1.00  0.00    -0.017 C 
ATOM     39  C   UNL     1      -7.465  93.892 -13.493  1.00  0.00    -0.024 C 
ATOM     40  C   UNL     1      -8.656  95.241 -11.023  1.00  0.00     0.013 C 
ATOM     41  C   UNL     1      -6.219  95.890 -11.663  1.00  0.00     0.009 C 
ATOM     42  C   UNL     1      -6.321  93.567 -12.883  1.00  0.00     0.005 C 
ATOM     43  C   UNL     1      -5.697  94.360 -11.732  1.00  0.00     0.096 C 
ATOM     44  C   UNL     1      -5.955  96.547 -10.231  1.00  0.00     0.043 C 
ATOM     45  C   UNL     1      -5.339  96.722 -12.668  1.00  0.00     0.015 C 
ATOM     46  C   UNL     1      -5.876  93.573 -10.409  1.00  0.00     0.037 C 
ATOM     47  O   UNL     1      -4.293  94.383 -11.921  1.00  0.00    -0.369 OA
ATOM     48  C   UNL     1      -5.431  95.633  -9.087  1.00  0.00     0.124 C 
ATOM     49  C   UNL     1      -4.825  94.278  -9.570  1.00  0.00     0.026 C 
ATOM     50  C   UNL     1      -5.562  92.050 -10.533  1.00  0.00     0.014 C 
ATOM     51  C   UNL     1      -3.721  94.513 -10.631  1.00  0.00     0.171 C 
ATOM     52  C   UNL     1      -4.297  93.445  -8.353  1.00  0.00     0.013 C 
ATOM     53  C   UNL     1      -5.421  91.297  -9.165  1.00  0.00    -0.035 C 
ATOM     54  C   UNL     1      -5.238  92.289  -7.989  1.00  0.00     0.007 C 
ATOM     55  C   UNL     1      -4.205  90.336  -9.238  1.00  0.00     0.011 C 
ATOM     56  C   UNL     1      -6.684  90.443  -8.897  1.00  0.00     0.011 C 
BRANCH  29  57
ATOM     57  C   UNL     1      -8.610  98.757 -16.766  1.00  0.00     0.165 C 
BRANCH  57  58
ATOM     58  O   UNL     1      -9.240  98.580 -18.010  1.00  0.00    -0.396 OA
ATOM     59  H   UNL     1      -8.813  99.234 -18.629  1.00  0.00     0.210 HD
ENDBRANCH  57  58
ENDBRANCH  29  57
BRANCH  48  60
ATOM     60  O   UNL     1      -6.484  95.396  -8.186  1.00  0.00    -0.392 OA
ATOM     61  H   UNL     1      -6.434  94.443  -7.907  1.00  0.00     0.210 HD
ENDBRANCH  48  60
ENDBRANCH  26  27
ENDBRANCH   6  26
BRANCH   5  62
ATOM     62  O   UNL     1      -7.314  92.890 -18.288  1.00  0.00    -0.385 OA
ATOM     63  H   UNL     1      -6.749  92.197 -17.865  1.00  0.00     0.211 HD
ENDBRANCH   5  62
TORSDOF 14
ENDMDL
