MODEL 1
REMARK VINA RESULT:    -3.796      0.000      0.000
REMARK INTER + INTRA:         -12.227
REMARK INTER:                  -8.234
REMARK INTRA:                  -3.993
REMARK UNBOUND:                -3.993
REMARK SMILES CCCCCCCCCCCCCCCCCCCCCC(=O)[O-]
REMARK SMILES IDX 12 1 11 2 10 3 9 4 8 5 7 6 6 7 5 8 4 9 3 10 2 11 1 12 13 13
REMARK SMILES IDX 14 14 15 15 16 16 17 17 18 18 19 19 20 20 21 21 22 22 23 23
REMARK SMILES IDX 24 24
REMARK H PARENT
REMARK Flexibility Score: inf
ROOT
ATOM      1  C   UNL     1     102.515 101.647  96.864  1.00  0.00     0.000 C 
ENDROOT
BRANCH   1   2
ATOM      2  C   UNL     1     102.173 100.633  95.757  1.00  0.00     0.000 C 
BRANCH   2   3
ATOM      3  C   UNL     1     103.384 100.038  95.012  1.00  0.00     0.000 C 
BRANCH   3   4
ATOM      4  C   UNL     1     103.468  98.506  95.132  1.00  0.00    -0.000 C 
BRANCH   4   5
ATOM      5  C   UNL     1     104.908  97.973  95.019  1.00  0.00    -0.000 C 
BRANCH   5   6
ATOM      6  C   UNL     1     105.352  97.030  96.152  1.00  0.00    -0.000 C 
BRANCH   6   7
ATOM      7  C   UNL     1     106.604  97.527  96.892  1.00  0.00    -0.000 C 
BRANCH   7   8
ATOM      8  C   UNL     1     107.302  98.644  96.100  1.00  0.00    -0.000 C 
BRANCH   8   9
ATOM      9  C   UNL     1     107.292  99.992  96.840  1.00  0.00    -0.000 C 
BRANCH   9  10
ATOM     10  C   UNL     1     106.717 101.132  95.981  1.00  0.00    -0.000 C 
BRANCH  10  11
ATOM     11  C   UNL     1     107.514 101.349  94.684  1.00  0.00    -0.003 C 
ATOM     12  C   UNL     1     106.753 100.896  93.437  1.00  0.00     0.004 C 
ENDBRANCH  10  11
ENDBRANCH   9  10
ENDBRANCH   8   9
ENDBRANCH   7   8
ENDBRANCH   6   7
ENDBRANCH   5   6
ENDBRANCH   4   5
ENDBRANCH   3   4
ENDBRANCH   2   3
ENDBRANCH   1   2
BRANCH   1  13
ATOM     13  C   UNL     1     102.609 101.008  98.257  1.00  0.00     0.000 C 
BRANCH  13  14
ATOM     14  C   UNL     1     104.070 100.762  98.652  1.00  0.00     0.000 C 
BRANCH  14  15
ATOM     15  C   UNL     1     104.307  99.286  98.993  1.00  0.00     0.000 C 
BRANCH  15  16
ATOM     16  C   UNL     1     102.993  98.590  99.373  1.00  0.00     0.000 C 
BRANCH  16  17
ATOM     17  C   UNL     1     103.000  97.082  99.063  1.00  0.00     0.000 C 
BRANCH  17  18
ATOM     18  C   UNL     1     101.802  96.582  98.237  1.00  0.00     0.000 C 
BRANCH  18  19
ATOM     19  C   UNL     1     100.915  97.723  97.716  1.00  0.00     0.000 C 
BRANCH  19  20
ATOM     20  C   UNL     1      99.496  97.621  98.288  1.00  0.00     0.006 C 
BRANCH  20  21
ATOM     21  C   UNL     1      98.896  96.237  98.023  1.00  0.00     0.053 C 
BRANCH  21  22
ATOM     22  C   UNL     1      98.479  96.111  96.593  1.00  0.00     0.041 C 
ATOM     23  O   UNL     1      98.984  95.219  95.862  1.00  0.00    -0.550 OA
ATOM     24  O   UNL     1      97.565  97.009  96.053  1.00  0.00    -0.550 OA
ENDBRANCH  21  22
ENDBRANCH  20  21
ENDBRANCH  19  20
ENDBRANCH  18  19
ENDBRANCH  17  18
ENDBRANCH  16  17
ENDBRANCH  15  16
ENDBRANCH  14  15
ENDBRANCH  13  14
ENDBRANCH   1  13
TORSDOF 20
ENDMDL
MODEL 2
REMARK VINA RESULT:    -3.771      2.994      6.725
REMARK INTER + INTRA:         -12.172
REMARK INTER:                  -8.066
REMARK INTRA:                  -4.105
REMARK UNBOUND:                -3.993
REMARK SMILES CCCCCCCCCCCCCCCCCCCCCC(=O)[O-]
REMARK SMILES IDX 12 1 11 2 10 3 9 4 8 5 7 6 6 7 5 8 4 9 3 10 2 11 1 12 13 13
REMARK SMILES IDX 14 14 15 15 16 16 17 17 18 18 19 19 20 20 21 21 22 22 23 23
REMARK SMILES IDX 24 24
REMARK H PARENT
REMARK Flexibility Score: inf
ROOT
ATOM      1  C   UNL     1     102.704  97.743  99.869  1.00  0.00     0.000 C 
ENDROOT
BRANCH   1   2
ATOM      2  C   UNL     1     101.321  98.420  99.900  1.00  0.00     0.000 C 
BRANCH   2   3
ATOM      3  C   UNL     1     101.333  99.925 100.232  1.00  0.00     0.000 C 
BRANCH   3   4
ATOM      4  C   UNL     1     102.419 100.700  99.466  1.00  0.00    -0.000 C 
BRANCH   4   5
ATOM      5  C   UNL     1     102.375 100.452  97.947  1.00  0.00    -0.000 C 
BRANCH   5   6
ATOM      6  C   UNL     1     101.698 101.559  97.118  1.00  0.00    -0.000 C 
BRANCH   6   7
ATOM      7  C   UNL     1     100.638 101.019  96.145  1.00  0.00    -0.000 C 
BRANCH   7   8
ATOM      8  C   UNL     1      99.888  99.826  96.759  1.00  0.00    -0.000 C 
BRANCH   8   9
ATOM      9  C   UNL     1      99.903  98.585  95.851  1.00  0.00    -0.000 C 
BRANCH   9  10
ATOM     10  C   UNL     1     100.386  97.323  96.587  1.00  0.00    -0.000 C 
BRANCH  10  11
ATOM     11  C   UNL     1      99.274  96.669  97.423  1.00  0.00    -0.003 C 
ATOM     12  C   UNL     1      99.569  95.207  97.763  1.00  0.00     0.004 C 
ENDBRANCH  10  11
ENDBRANCH   9  10
ENDBRANCH   8   9
ENDBRANCH   7   8
ENDBRANCH   6   7
ENDBRANCH   5   6
ENDBRANCH   4   5
ENDBRANCH   3   4
ENDBRANCH   2   3
ENDBRANCH   1   2
BRANCH   1  13
ATOM     13  C   UNL     1     102.633  96.246  99.533  1.00  0.00     0.000 C 
BRANCH  13  14
ATOM     14  C   UNL     1     103.515  95.912  98.323  1.00  0.00     0.000 C 
BRANCH  14  15
ATOM     15  C   UNL     1     103.980  97.189  97.612  1.00  0.00     0.000 C 
BRANCH  15  16
ATOM     16  C   UNL     1     105.144  96.893  96.655  1.00  0.00     0.000 C 
BRANCH  16  17
ATOM     17  C   UNL     1     104.948  97.517  95.261  1.00  0.00     0.000 C 
BRANCH  17  18
ATOM     18  C   UNL     1     103.704  98.411  95.119  1.00  0.00     0.000 C 
BRANCH  18  19
ATOM     19  C   UNL     1     104.049  99.868  94.775  1.00  0.00     0.000 C 
BRANCH  19  20
ATOM     20  C   UNL     1     105.516 100.178  95.102  1.00  0.00     0.006 C 
BRANCH  20  21
ATOM     21  C   UNL     1     105.631 100.971  96.408  1.00  0.00     0.053 C 
BRANCH  21  22
ATOM     22  C   UNL     1     106.380 100.183  97.435  1.00  0.00     0.041 C 
ATOM     23  O   UNL     1     107.475  99.637  97.139  1.00  0.00    -0.550 OA
ATOM     24  O   UNL     1     105.847 100.014  98.707  1.00  0.00    -0.550 OA
ENDBRANCH  21  22
ENDBRANCH  20  21
ENDBRANCH  19  20
ENDBRANCH  18  19
ENDBRANCH  17  18
ENDBRANCH  16  17
ENDBRANCH  15  16
ENDBRANCH  14  15
ENDBRANCH  13  14
ENDBRANCH   1  13
TORSDOF 20
ENDMDL
MODEL 3
REMARK VINA RESULT:    -3.737      1.442      2.364
REMARK INTER + INTRA:         -12.098
REMARK INTER:                  -8.601
REMARK INTRA:                  -3.497
REMARK UNBOUND:                -3.993
REMARK SMILES CCCCCCCCCCCCCCCCCCCCCC(=O)[O-]
REMARK SMILES IDX 12 1 11 2 10 3 9 4 8 5 7 6 6 7 5 8 4 9 3 10 2 11 1 12 13 13
REMARK SMILES IDX 14 14 15 15 16 16 17 17 18 18 19 19 20 20 21 21 22 22 23 23
REMARK SMILES IDX 24 24
REMARK H PARENT
REMARK Flexibility Score: inf
ROOT
ATOM      1  C   UNL     1     103.916 100.168  98.548  1.00  0.00     0.000 C 
ENDROOT
BRANCH   1   2
ATOM      2  C   UNL     1     102.846 100.060  97.446  1.00  0.00     0.000 C 
BRANCH   2   3
ATOM      3  C   UNL     1     103.226 100.694  96.094  1.00  0.00     0.000 C 
BRANCH   3   4
ATOM      4  C   UNL     1     103.130  99.705  94.919  1.00  0.00    -0.000 C 
BRANCH   4   5
ATOM      5  C   UNL     1     103.377  98.245  95.342  1.00  0.00    -0.000 C 
BRANCH   5   6
ATOM      6  C   UNL     1     104.822  97.744  95.167  1.00  0.00    -0.000 C 
BRANCH   6   7
ATOM      7  C   UNL     1     105.374  97.050  96.422  1.00  0.00    -0.000 C 
BRANCH   7   8
ATOM      8  C   UNL     1     106.773  97.582  96.772  1.00  0.00    -0.000 C 
BRANCH   8   9
ATOM      9  C   UNL     1     106.844  99.118  96.757  1.00  0.00    -0.000 C 
BRANCH   9  10
ATOM     10  C   UNL     1     107.825  99.652  95.697  1.00  0.00    -0.000 C 
BRANCH  10  11
ATOM     11  C   UNL     1     107.314 100.932  95.017  1.00  0.00    -0.003 C 
ATOM     12  C   UNL     1     106.748 100.676  93.619  1.00  0.00     0.004 C 
ENDBRANCH  10  11
ENDBRANCH   9  10
ENDBRANCH   8   9
ENDBRANCH   7   8
ENDBRANCH   6   7
ENDBRANCH   5   6
ENDBRANCH   4   5
ENDBRANCH   3   4
ENDBRANCH   2   3
ENDBRANCH   1   2
BRANCH   1  13
ATOM     13  C   UNL     1     103.637  99.253  99.750  1.00  0.00     0.000 C 
BRANCH  13  14
ATOM     14  C   UNL     1     102.478  98.294  99.453  1.00  0.00     0.000 C 
BRANCH  14  15
ATOM     15  C   UNL     1     102.986  96.861  99.256  1.00  0.00     0.000 C 
BRANCH  15  16
ATOM     16  C   UNL     1     102.067  96.075  98.310  1.00  0.00     0.000 C 
BRANCH  16  17
ATOM     17  C   UNL     1     100.668  96.704  98.173  1.00  0.00     0.000 C 
BRANCH  17  18
ATOM     18  C   UNL     1     100.252  97.055  96.734  1.00  0.00     0.000 C 
BRANCH  18  19
ATOM     19  C   UNL     1      99.159  96.126  96.182  1.00  0.00     0.000 C 
BRANCH  19  20
ATOM     20  C   UNL     1      98.615  95.205  97.281  1.00  0.00     0.006 C 
BRANCH  20  21
ATOM     21  C   UNL     1      97.153  95.534  97.599  1.00  0.00     0.053 C 
BRANCH  21  22
ATOM     22  C   UNL     1      97.038  96.144  98.960  1.00  0.00     0.041 C 
ATOM     23  O   UNL     1      97.358  97.348  99.143  1.00  0.00    -0.550 OA
ATOM     24  O   UNL     1      96.619  95.371 100.036  1.00  0.00    -0.550 OA
ENDBRANCH  21  22
ENDBRANCH  20  21
ENDBRANCH  19  20
ENDBRANCH  18  19
ENDBRANCH  17  18
ENDBRANCH  16  17
ENDBRANCH  15  16
ENDBRANCH  14  15
ENDBRANCH  13  14
ENDBRANCH   1  13
TORSDOF 20
ENDMDL
MODEL 4
REMARK VINA RESULT:    -3.731      3.084      6.374
REMARK INTER + INTRA:         -12.086
REMARK INTER:                  -8.488
REMARK INTRA:                  -3.598
REMARK UNBOUND:                -3.993
REMARK SMILES CCCCCCCCCCCCCCCCCCCCCC(=O)[O-]
REMARK SMILES IDX 12 1 11 2 10 3 9 4 8 5 7 6 6 7 5 8 4 9 3 10 2 11 1 12 13 13
REMARK SMILES IDX 14 14 15 15 16 16 17 17 18 18 19 19 20 20 21 21 22 22 23 23
REMARK SMILES IDX 24 24
REMARK H PARENT
REMARK Flexibility Score: inf
ROOT
ATOM      1  C   UNL     1     103.309  99.797  94.856  1.00  0.00     0.000 C 
ENDROOT
BRANCH   1   2
ATOM      2  C   UNL     1     103.418  98.312  95.250  1.00  0.00     0.000 C 
BRANCH   2   3
ATOM      3  C   UNL     1     104.830  97.703  95.142  1.00  0.00     0.000 C 
BRANCH   3   4
ATOM      4  C   UNL     1     105.258  96.953  96.415  1.00  0.00    -0.000 C 
BRANCH   4   5
ATOM      5  C   UNL     1     104.154  96.910  97.487  1.00  0.00    -0.000 C 
BRANCH   5   6
ATOM      6  C   UNL     1     104.047  95.589  98.270  1.00  0.00    -0.000 C 
BRANCH   6   7
ATOM      7  C   UNL     1     102.675  95.394  98.935  1.00  0.00    -0.000 C 
BRANCH   7   8
ATOM      8  C   UNL     1     101.741  96.572  98.619  1.00  0.00    -0.000 C 
BRANCH   8   9
ATOM      9  C   UNL     1     100.429  96.126  97.952  1.00  0.00    -0.000 C 
BRANCH   9  10
ATOM     10  C   UNL     1      99.480  97.304  97.671  1.00  0.00    -0.000 C 
BRANCH  10  11
ATOM     11  C   UNL     1      99.075  97.392  96.191  1.00  0.00    -0.003 C 
ATOM     12  C   UNL     1      98.878  98.831  95.714  1.00  0.00     0.004 C 
ENDBRANCH  10  11
ENDBRANCH   9  10
ENDBRANCH   8   9
ENDBRANCH   7   8
ENDBRANCH   6   7
ENDBRANCH   5   6
ENDBRANCH   4   5
ENDBRANCH   3   4
ENDBRANCH   2   3
ENDBRANCH   1   2
BRANCH   1  13
ATOM     13  C   UNL     1     102.799 100.686  95.999  1.00  0.00     0.000 C 
BRANCH  13  14
ATOM     14  C   UNL     1     102.005  99.865  97.022  1.00  0.00     0.000 C 
BRANCH  14  15
ATOM     15  C   UNL     1     101.639 100.715  98.245  1.00  0.00     0.000 C 
BRANCH  15  16
ATOM     16  C   UNL     1     102.877 101.423  98.815  1.00  0.00     0.000 C 
BRANCH  16  17
ATOM     17  C   UNL     1     103.815 100.470  99.578  1.00  0.00     0.000 C 
BRANCH  17  18
ATOM     18  C   UNL     1     105.314 100.661  99.287  1.00  0.00     0.000 C 
BRANCH  18  19
ATOM     19  C   UNL     1     105.728 100.135  97.904  1.00  0.00     0.000 C 
BRANCH  19  20
ATOM     20  C   UNL     1     107.025 100.801  97.428  1.00  0.00     0.006 C 
BRANCH  20  21
ATOM     21  C   UNL     1     106.835 101.458  96.057  1.00  0.00     0.053 C 
BRANCH  21  22
ATOM     22  C   UNL     1     107.172 100.494  94.964  1.00  0.00     0.041 C 
ATOM     23  O   UNL     1     106.718 100.670  93.803  1.00  0.00    -0.550 OA
ATOM     24  O   UNL     1     107.950  99.376  95.237  1.00  0.00    -0.550 OA
ENDBRANCH  21  22
ENDBRANCH  20  21
ENDBRANCH  19  20
ENDBRANCH  18  19
ENDBRANCH  17  18
ENDBRANCH  16  17
ENDBRANCH  15  16
ENDBRANCH  14  15
ENDBRANCH  13  14
ENDBRANCH   1  13
TORSDOF 20
ENDMDL
MODEL 5
REMARK VINA RESULT:    -3.709      1.678      3.275
REMARK INTER + INTRA:         -12.039
REMARK INTER:                  -8.257
REMARK INTRA:                  -3.782
REMARK UNBOUND:                -3.993
REMARK SMILES CCCCCCCCCCCCCCCCCCCCCC(=O)[O-]
REMARK SMILES IDX 12 1 11 2 10 3 9 4 8 5 7 6 6 7 5 8 4 9 3 10 2 11 1 12 13 13
REMARK SMILES IDX 14 14 15 15 16 16 17 17 18 18 19 19 20 20 21 21 22 22 23 23
REMARK SMILES IDX 24 24
REMARK H PARENT
REMARK Flexibility Score: inf
ROOT
ATOM      1  C   UNL     1     103.547  96.363  98.261  1.00  0.00     0.000 C 
ENDROOT
BRANCH   1   2
ATOM      2  C   UNL     1     103.846  97.723  97.604  1.00  0.00     0.000 C 
BRANCH   2   3
ATOM      3  C   UNL     1     102.989  98.059  96.368  1.00  0.00     0.000 C 
BRANCH   3   4
ATOM      4  C   UNL     1     103.832  98.422  95.133  1.00  0.00    -0.000 C 
BRANCH   4   5
ATOM      5  C   UNL     1     105.172  97.666  95.078  1.00  0.00    -0.000 C 
BRANCH   5   6
ATOM      6  C   UNL     1     106.426  98.554  94.990  1.00  0.00    -0.000 C 
BRANCH   6   7
ATOM      7  C   UNL     1     106.102 100.023  94.676  1.00  0.00    -0.000 C 
BRANCH   7   8
ATOM      8  C   UNL     1     106.642 100.951  95.775  1.00  0.00    -0.000 C 
BRANCH   8   9
ATOM      9  C   UNL     1     105.652 101.130  96.939  1.00  0.00    -0.000 C 
BRANCH   9  10
ATOM     10  C   UNL     1     106.170 100.517  98.252  1.00  0.00    -0.000 C 
BRANCH  10  11
ATOM     11  C   UNL     1     105.162 100.661  99.405  1.00  0.00    -0.003 C 
ATOM     12  C   UNL     1     104.150 101.784  99.171  1.00  0.00     0.004 C 
ENDBRANCH  10  11
ENDBRANCH   9  10
ENDBRANCH   8   9
ENDBRANCH   7   8
ENDBRANCH   6   7
ENDBRANCH   5   6
ENDBRANCH   4   5
ENDBRANCH   3   4
ENDBRANCH   2   3
ENDBRANCH   1   2
BRANCH   1  13
ATOM     13  C   UNL     1     102.641  96.478  99.496  1.00  0.00     0.000 C 
BRANCH  13  14
ATOM     14  C   UNL     1     102.650  97.906 100.053  1.00  0.00     0.000 C 
BRANCH  14  15
ATOM     15  C   UNL     1     101.233  98.493 100.087  1.00  0.00     0.000 C 
BRANCH  15  16
ATOM     16  C   UNL     1     101.135  99.747  99.207  1.00  0.00     0.000 C 
BRANCH  16  17
ATOM     17  C   UNL     1     100.060  99.629  98.111  1.00  0.00     0.000 C 
BRANCH  17  18
ATOM     18  C   UNL     1      99.401  98.244  97.994  1.00  0.00     0.000 C 
BRANCH  18  19
ATOM     19  C   UNL     1      99.214  97.791  96.538  1.00  0.00     0.000 C 
BRANCH  19  20
ATOM     20  C   UNL     1      99.631  96.325  96.361  1.00  0.00     0.006 C 
BRANCH  20  21
ATOM     21  C   UNL     1      99.674  95.600  97.710  1.00  0.00     0.053 C 
BRANCH  21  22
ATOM     22  C   UNL     1      98.549  94.621  97.815  1.00  0.00     0.041 C 
ATOM     23  O   UNL     1      98.593  93.535  97.179  1.00  0.00    -0.550 OA
ATOM     24  O   UNL     1      97.429  94.927  98.579  1.00  0.00    -0.550 OA
ENDBRANCH  21  22
ENDBRANCH  20  21
ENDBRANCH  19  20
ENDBRANCH  18  19
ENDBRANCH  17  18
ENDBRANCH  16  17
ENDBRANCH  15  16
ENDBRANCH  14  15
ENDBRANCH  13  14
ENDBRANCH   1  13
TORSDOF 20
ENDMDL
MODEL 6
REMARK VINA RESULT:    -3.699      3.145      7.427
REMARK INTER + INTRA:         -12.016
REMARK INTER:                  -8.197
REMARK INTRA:                  -3.819
REMARK UNBOUND:                -3.993
REMARK SMILES CCCCCCCCCCCCCCCCCCCCCC(=O)[O-]
REMARK SMILES IDX 12 1 11 2 10 3 9 4 8 5 7 6 6 7 5 8 4 9 3 10 2 11 1 12 13 13
REMARK SMILES IDX 14 14 15 15 16 16 17 17 18 18 19 19 20 20 21 21 22 22 23 23
REMARK SMILES IDX 24 24
REMARK H PARENT
REMARK Flexibility Score: inf
ROOT
ATOM      1  C   UNL     1     104.798  97.509  96.815  1.00  0.00     0.000 C 
ENDROOT
BRANCH   1   2
ATOM      2  C   UNL     1     103.413  97.362  97.472  1.00  0.00     0.000 C 
BRANCH   2   3
ATOM      3  C   UNL     1     103.331  97.813  98.944  1.00  0.00     0.000 C 
BRANCH   3   4
ATOM      4  C   UNL     1     101.951  98.379  99.322  1.00  0.00    -0.000 C 
BRANCH   4   5
ATOM      5  C   UNL     1     100.786  97.531  98.780  1.00  0.00    -0.000 C 
BRANCH   5   6
ATOM      6  C   UNL     1      99.449  98.277  98.617  1.00  0.00    -0.000 C 
BRANCH   6   7
ATOM      7  C   UNL     1      99.354  99.061  97.299  1.00  0.00    -0.000 C 
BRANCH   7   8
ATOM      8  C   UNL     1      99.735  98.172  96.104  1.00  0.00    -0.000 C 
BRANCH   8   9
ATOM      9  C   UNL     1      98.614  97.194  95.712  1.00  0.00    -0.000 C 
BRANCH   9  10
ATOM     10  C   UNL     1      99.020  95.723  95.912  1.00  0.00    -0.000 C 
BRANCH  10  11
ATOM     11  C   UNL     1      98.392  95.106  97.172  1.00  0.00    -0.003 C 
ATOM     12  C   UNL     1      98.693  93.613  97.316  1.00  0.00     0.004 C 
ENDBRANCH  10  11
ENDBRANCH   9  10
ENDBRANCH   8   9
ENDBRANCH   7   8
ENDBRANCH   6   7
ENDBRANCH   5   6
ENDBRANCH   4   5
ENDBRANCH   3   4
ENDBRANCH   2   3
ENDBRANCH   1   2
BRANCH   1  13
ATOM     13  C   UNL     1     104.723  97.963  95.350  1.00  0.00     0.000 C 
BRANCH  13  14
ATOM     14  C   UNL     1     103.334  98.522  95.018  1.00  0.00     0.000 C 
BRANCH  14  15
ATOM     15  C   UNL     1     103.427  99.973  94.532  1.00  0.00     0.000 C 
BRANCH  15  16
ATOM     16  C   UNL     1     102.291 100.824  95.117  1.00  0.00     0.000 C 
BRANCH  16  17
ATOM     17  C   UNL     1     102.300 100.860  96.656  1.00  0.00     0.000 C 
BRANCH  17  18
ATOM     18  C   UNL     1     103.323 101.826  97.278  1.00  0.00     0.000 C 
BRANCH  18  19
ATOM     19  C   UNL     1     104.591 101.117  97.777  1.00  0.00     0.000 C 
BRANCH  19  20
ATOM     20  C   UNL     1     105.813 101.527  96.946  1.00  0.00     0.006 C 
BRANCH  20  21
ATOM     21  C   UNL     1     106.965 100.535  97.136  1.00  0.00     0.053 C 
BRANCH  21  22
ATOM     22  C   UNL     1     107.553 100.154  95.815  1.00  0.00     0.041 C 
ATOM     23  O   UNL     1     107.071 100.620  94.750  1.00  0.00    -0.550 OA
ATOM     24  O   UNL     1     108.605  99.248  95.757  1.00  0.00    -0.550 OA
ENDBRANCH  21  22
ENDBRANCH  20  21
ENDBRANCH  19  20
ENDBRANCH  18  19
ENDBRANCH  17  18
ENDBRANCH  16  17
ENDBRANCH  15  16
ENDBRANCH  14  15
ENDBRANCH  13  14
ENDBRANCH   1  13
TORSDOF 20
ENDMDL
MODEL 7
REMARK VINA RESULT:    -3.667      1.542      2.536
REMARK INTER + INTRA:         -11.946
REMARK INTER:                  -8.157
REMARK INTRA:                  -3.789
REMARK UNBOUND:                -3.993
REMARK SMILES CCCCCCCCCCCCCCCCCCCCCC(=O)[O-]
REMARK SMILES IDX 12 1 11 2 10 3 9 4 8 5 7 6 6 7 5 8 4 9 3 10 2 11 1 12 13 13
REMARK SMILES IDX 14 14 15 15 16 16 17 17 18 18 19 19 20 20 21 21 22 22 23 23
REMARK SMILES IDX 24 24
REMARK H PARENT
REMARK Flexibility Score: inf
ROOT
ATOM      1  C   UNL     1     103.797 100.007  98.828  1.00  0.00     0.000 C 
ENDROOT
BRANCH   1   2
ATOM      2  C   UNL     1     102.647 100.110  97.809  1.00  0.00     0.000 C 
BRANCH   2   3
ATOM      3  C   UNL     1     102.986 100.863  96.507  1.00  0.00     0.000 C 
BRANCH   3   4
ATOM      4  C   UNL     1     102.757 100.013  95.246  1.00  0.00    -0.000 C 
BRANCH   4   5
ATOM      5  C   UNL     1     103.002  98.511  95.481  1.00  0.00    -0.000 C 
BRANCH   5   6
ATOM      6  C   UNL     1     104.436  98.026  95.205  1.00  0.00    -0.000 C 
BRANCH   6   7
ATOM      7  C   UNL     1     105.036  97.226  96.372  1.00  0.00    -0.000 C 
BRANCH   7   8
ATOM      8  C   UNL     1     106.469  97.691  96.675  1.00  0.00    -0.000 C 
BRANCH   8   9
ATOM      9  C   UNL     1     106.621  99.220  96.618  1.00  0.00    -0.000 C 
BRANCH   9  10
ATOM     10  C   UNL     1     107.682  99.669  95.598  1.00  0.00    -0.000 C 
BRANCH  10  11
ATOM     11  C   UNL     1     107.315 100.996  94.914  1.00  0.00    -0.003 C 
ATOM     12  C   UNL     1     106.811 100.806  93.482  1.00  0.00     0.004 C 
ENDBRANCH  10  11
ENDBRANCH   9  10
ENDBRANCH   8   9
ENDBRANCH   7   8
ENDBRANCH   6   7
ENDBRANCH   5   6
ENDBRANCH   4   5
ENDBRANCH   3   4
ENDBRANCH   2   3
ENDBRANCH   1   2
BRANCH   1  13
ATOM     13  C   UNL     1     103.478  99.070 100.002  1.00  0.00     0.000 C 
BRANCH  13  14
ATOM     14  C   UNL     1     102.267  98.184  99.685  1.00  0.00     0.000 C 
BRANCH  14  15
ATOM     15  C   UNL     1     102.664  96.703  99.650  1.00  0.00     0.000 C 
BRANCH  15  16
ATOM     16  C   UNL     1     101.976  95.976  98.485  1.00  0.00     0.000 C 
BRANCH  16  17
ATOM     17  C   UNL     1     100.873  96.819  97.819  1.00  0.00     0.000 C 
BRANCH  17  18
ATOM     18  C   UNL     1      99.450  96.253  97.958  1.00  0.00     0.000 C 
BRANCH  18  19
ATOM     19  C   UNL     1      98.452  97.272  98.530  1.00  0.00     0.000 C 
BRANCH  19  20
ATOM     20  C   UNL     1      99.030  98.692  98.483  1.00  0.00     0.006 C 
BRANCH  20  21
ATOM     21  C   UNL     1      98.220  99.582  97.535  1.00  0.00     0.053 C 
BRANCH  21  22
ATOM     22  C   UNL     1      99.014  99.899  96.307  1.00  0.00     0.041 C 
ATOM     23  O   UNL     1      99.291  98.991  95.481  1.00  0.00    -0.550 OA
ATOM     24  O   UNL     1      99.488 101.189  96.099  1.00  0.00    -0.550 OA
ENDBRANCH  21  22
ENDBRANCH  20  21
ENDBRANCH  19  20
ENDBRANCH  18  19
ENDBRANCH  17  18
ENDBRANCH  16  17
ENDBRANCH  15  16
ENDBRANCH  14  15
ENDBRANCH  13  14
ENDBRANCH   1  13
TORSDOF 20
ENDMDL
MODEL 8
REMARK VINA RESULT:    -3.662      3.404      7.410
REMARK INTER + INTRA:         -11.936
REMARK INTER:                  -8.310
REMARK INTRA:                  -3.626
REMARK UNBOUND:                -3.993
REMARK SMILES CCCCCCCCCCCCCCCCCCCCCC(=O)[O-]
REMARK SMILES IDX 12 1 11 2 10 3 9 4 8 5 7 6 6 7 5 8 4 9 3 10 2 11 1 12 13 13
REMARK SMILES IDX 14 14 15 15 16 16 17 17 18 18 19 19 20 20 21 21 22 22 23 23
REMARK SMILES IDX 24 24
REMARK H PARENT
REMARK Flexibility Score: inf
ROOT
ATOM      1  C   UNL     1     103.497  95.992  98.374  1.00  0.00     0.000 C 
ENDROOT
BRANCH   1   2
ATOM      2  C   UNL     1     102.652  96.474  99.568  1.00  0.00     0.000 C 
BRANCH   2   3
ATOM      3  C   UNL     1     102.593  98.003  99.759  1.00  0.00     0.000 C 
BRANCH   3   4
ATOM      4  C   UNL     1     101.285  98.622  99.239  1.00  0.00    -0.000 C 
BRANCH   4   5
ATOM      5  C   UNL     1     101.518  99.844  98.331  1.00  0.00    -0.000 C 
BRANCH   5   6
ATOM      6  C   UNL     1     101.096  99.662  96.861  1.00  0.00    -0.000 C 
BRANCH   6   7
ATOM      7  C   UNL     1     100.712  98.213  96.521  1.00  0.00    -0.000 C 
BRANCH   7   8
ATOM      8  C   UNL     1      99.192  98.076  96.343  1.00  0.00    -0.000 C 
BRANCH   8   9
ATOM      9  C   UNL     1      98.650  96.738  96.874  1.00  0.00    -0.000 C 
BRANCH   9  10
ATOM     10  C   UNL     1      99.766  95.819  97.402  1.00  0.00    -0.000 C 
BRANCH  10  11
ATOM     11  C   UNL     1      99.228  94.465  97.891  1.00  0.00    -0.003 C 
ATOM     12  C   UNL     1      97.705  94.445  98.026  1.00  0.00     0.004 C 
ENDBRANCH  10  11
ENDBRANCH   9  10
ENDBRANCH   8   9
ENDBRANCH   7   8
ENDBRANCH   6   7
ENDBRANCH   5   6
ENDBRANCH   4   5
ENDBRANCH   3   4
ENDBRANCH   2   3
ENDBRANCH   1   2
BRANCH   1  13
ATOM     13  C   UNL     1     104.024  97.145  97.506  1.00  0.00     0.000 C 
BRANCH  13  14
ATOM     14  C   UNL     1     105.293  96.729  96.753  1.00  0.00     0.000 C 
BRANCH  14  15
ATOM     15  C   UNL     1     105.310  97.316  95.336  1.00  0.00     0.000 C 
BRANCH  15  16
ATOM     16  C   UNL     1     104.162  98.317  95.141  1.00  0.00     0.000 C 
BRANCH  16  17
ATOM     17  C   UNL     1     104.650  99.770  94.993  1.00  0.00     0.000 C 
BRANCH  17  18
ATOM     18  C   UNL     1     104.649 100.591  96.294  1.00  0.00     0.000 C 
BRANCH  18  19
ATOM     19  C   UNL     1     106.062 100.984  96.756  1.00  0.00     0.000 C 
BRANCH  19  20
ATOM     20  C   UNL     1     106.574 100.022  97.835  1.00  0.00     0.006 C 
BRANCH  20  21
ATOM     21  C   UNL     1     105.616  99.978  99.030  1.00  0.00     0.053 C 
BRANCH  21  22
ATOM     22  C   UNL     1     106.311 100.430 100.275  1.00  0.00     0.041 C 
ATOM     23  O   UNL     1     105.772 100.256 101.399  1.00  0.00    -0.550 OA
ATOM     24  O   UNL     1     107.533 101.086 100.191  1.00  0.00    -0.550 OA
ENDBRANCH  21  22
ENDBRANCH  20  21
ENDBRANCH  19  20
ENDBRANCH  18  19
ENDBRANCH  17  18
ENDBRANCH  16  17
ENDBRANCH  15  16
ENDBRANCH  14  15
ENDBRANCH  13  14
ENDBRANCH   1  13
TORSDOF 20
ENDMDL
MODEL 9
REMARK VINA RESULT:    -3.593      3.223      6.911
REMARK INTER + INTRA:         -11.788
REMARK INTER:                  -8.381
REMARK INTRA:                  -3.406
REMARK UNBOUND:                -3.993
REMARK SMILES CCCCCCCCCCCCCCCCCCCCCC(=O)[O-]
REMARK SMILES IDX 12 1 11 2 10 3 9 4 8 5 7 6 6 7 5 8 4 9 3 10 2 11 1 12 13 13
REMARK SMILES IDX 14 14 15 15 16 16 17 17 18 18 19 19 20 20 21 21 22 22 23 23
REMARK SMILES IDX 24 24
REMARK H PARENT
REMARK Flexibility Score: inf
ROOT
ATOM      1  C   UNL     1     102.630 100.001  99.702  1.00  0.00     0.000 C 
ENDROOT
BRANCH   1   2
ATOM      2  C   UNL     1     102.804 101.043  98.581  1.00  0.00     0.000 C 
BRANCH   2   3
ATOM      3  C   UNL     1     101.546 101.315  97.734  1.00  0.00     0.000 C 
BRANCH   3   4
ATOM      4  C   UNL     1     101.774 101.087  96.230  1.00  0.00    -0.000 C 
BRANCH   4   5
ATOM      5  C   UNL     1     100.906  99.953  95.655  1.00  0.00    -0.000 C 
BRANCH   5   6
ATOM      6  C   UNL     1      99.452  99.916  96.160  1.00  0.00    -0.000 C 
BRANCH   6   7
ATOM      7  C   UNL     1      98.822  98.517  96.080  1.00  0.00    -0.000 C 
BRANCH   7   8
ATOM      8  C   UNL     1      99.906  97.427  96.092  1.00  0.00    -0.000 C 
BRANCH   8   9
ATOM      9  C   UNL     1      99.318  96.006  96.104  1.00  0.00    -0.000 C 
BRANCH   9  10
ATOM     10  C   UNL     1      99.404  95.345  97.491  1.00  0.00    -0.000 C 
BRANCH  10  11
ATOM     11  C   UNL     1      98.020  95.123  98.123  1.00  0.00    -0.003 C 
ATOM     12  C   UNL     1      97.489  96.365  98.840  1.00  0.00     0.004 C 
ENDBRANCH  10  11
ENDBRANCH   9  10
ENDBRANCH   8   9
ENDBRANCH   7   8
ENDBRANCH   6   7
ENDBRANCH   5   6
ENDBRANCH   4   5
ENDBRANCH   3   4
ENDBRANCH   2   3
ENDBRANCH   1   2
BRANCH   1  13
ATOM     13  C   UNL     1     101.195  99.463  99.806  1.00  0.00     0.000 C 
BRANCH  13  14
ATOM     14  C   UNL     1     101.136  97.978  99.428  1.00  0.00     0.000 C 
BRANCH  14  15
ATOM     15  C   UNL     1     102.440  97.263  99.802  1.00  0.00     0.000 C 
BRANCH  15  16
ATOM     16  C   UNL     1     102.799  96.192  98.762  1.00  0.00     0.000 C 
BRANCH  16  17
ATOM     17  C   UNL     1     103.915  96.639  97.800  1.00  0.00     0.000 C 
BRANCH  17  18
ATOM     18  C   UNL     1     103.549  97.819  96.883  1.00  0.00     0.000 C 
BRANCH  18  19
ATOM     19  C   UNL     1     104.156  97.696  95.477  1.00  0.00     0.000 C 
BRANCH  19  20
ATOM     20  C   UNL     1     105.677  97.505  95.549  1.00  0.00     0.006 C 
BRANCH  20  21
ATOM     21  C   UNL     1     106.350  98.709  96.216  1.00  0.00     0.053 C 
BRANCH  21  22
ATOM     22  C   UNL     1     107.419  99.267  95.332  1.00  0.00     0.041 C 
ATOM     23  O   UNL     1     108.614  99.301  95.727  1.00  0.00    -0.550 OA
ATOM     24  O   UNL     1     107.090  99.793  94.089  1.00  0.00    -0.550 OA
ENDBRANCH  21  22
ENDBRANCH  20  21
ENDBRANCH  19  20
ENDBRANCH  18  19
ENDBRANCH  17  18
ENDBRANCH  16  17
ENDBRANCH  15  16
ENDBRANCH  14  15
ENDBRANCH  13  14
ENDBRANCH   1  13
TORSDOF 20
ENDMDL
