MODEL 1
REMARK VINA RESULT:    -3.356      0.000      0.000
REMARK INTER + INTRA:          -6.619
REMARK INTER:                  -5.122
REMARK INTRA:                  -1.498
REMARK UNBOUND:                -1.498
REMARK SMILES CCCCCCCCCC=CC(=O)[O-]
REMARK SMILES IDX 7 1 8 2 9 3 10 4 11 5 12 6 13 7 14 8 6 9 5 10 4 11 3 12 2 13
REMARK SMILES IDX 1 14
REMARK H PARENT
REMARK Flexibility Score: inf
ROOT
ATOM      1  C   UNL     1      58.149  26.319  52.535  1.00  0.00     0.000 C 
ENDROOT
BRANCH   1   2
ATOM      2  C   UNL     1      57.744  27.804  52.520  1.00  0.00     0.004 C 
BRANCH   2   3
ATOM      3  C   UNL     1      58.761  28.730  51.828  1.00  0.00     0.027 C 
BRANCH   3   4
ATOM      4  C   UNL     1      58.598  28.758  50.331  1.00  0.00    -0.025 C 
ATOM      5  C   UNL     1      59.400  28.161  49.436  1.00  0.00     0.020 C 
BRANCH   5   6
ATOM      6  C   UNL     1      60.567  27.303  49.733  1.00  0.00     0.064 C 
ATOM      7  O   UNL     1      60.443  26.054  49.645  1.00  0.00    -0.545 OA
ATOM      8  O   UNL     1      61.786  27.827  50.141  1.00  0.00    -0.545 OA
ENDBRANCH   5   6
ENDBRANCH   3   4
ENDBRANCH   2   3
ENDBRANCH   1   2
BRANCH   1   9
ATOM      9  C   UNL     1      57.058  25.397  51.960  1.00  0.00     0.000 C 
BRANCH   9  10
ATOM     10  C   UNL     1      57.029  25.406  50.422  1.00  0.00     0.000 C 
BRANCH  10  11
ATOM     11  C   UNL     1      55.601  25.519  49.860  1.00  0.00    -0.000 C 
BRANCH  11  12
ATOM     12  C   UNL     1      54.652  26.271  50.808  1.00  0.00    -0.000 C 
BRANCH  12  13
ATOM     13  C   UNL     1      54.093  27.561  50.188  1.00  0.00    -0.003 C 
ATOM     14  C   UNL     1      54.761  28.793  50.790  1.00  0.00     0.004 C 
ENDBRANCH  12  13
ENDBRANCH  11  12
ENDBRANCH  10  11
ENDBRANCH   9  10
ENDBRANCH   1   9
TORSDOF 9
ENDMDL
MODEL 2
REMARK VINA RESULT:    -3.289      2.043      3.395
REMARK INTER + INTRA:          -6.518
REMARK INTER:                  -5.921
REMARK INTRA:                  -0.597
REMARK UNBOUND:                -1.498
REMARK SMILES CCCCCCCCCC=CC(=O)[O-]
REMARK SMILES IDX 7 1 8 2 9 3 10 4 11 5 12 6 13 7 14 8 6 9 5 10 4 11 3 12 2 13
REMARK SMILES IDX 1 14
REMARK H PARENT
REMARK Flexibility Score: inf
ROOT
ATOM      1  C   UNL     1      58.516  28.628  50.443  1.00  0.00     0.000 C 
ENDROOT
BRANCH   1   2
ATOM      2  C   UNL     1      59.617  28.068  49.522  1.00  0.00     0.004 C 
BRANCH   2   3
ATOM      3  C   UNL     1      59.868  26.557  49.684  1.00  0.00     0.027 C 
BRANCH   3   4
ATOM      4  C   UNL     1      61.280  26.244  50.103  1.00  0.00    -0.025 C 
ATOM      5  C   UNL     1      61.721  25.071  50.584  1.00  0.00     0.020 C 
BRANCH   5   6
ATOM      6  C   UNL     1      60.933  23.830  50.742  1.00  0.00     0.064 C 
ATOM      7  O   UNL     1      61.030  22.931  49.867  1.00  0.00    -0.545 OA
ATOM      8  O   UNL     1      60.060  23.638  51.804  1.00  0.00    -0.545 OA
ENDBRANCH   5   6
ENDBRANCH   3   4
ENDBRANCH   2   3
ENDBRANCH   1   2
BRANCH   1   9
ATOM      9  C   UNL     1      57.460  27.573  50.820  1.00  0.00     0.000 C 
BRANCH   9  10
ATOM     10  C   UNL     1      56.070  28.189  51.056  1.00  0.00     0.000 C 
BRANCH  10  11
ATOM     11  C   UNL     1      54.951  27.406  50.348  1.00  0.00    -0.000 C 
BRANCH  11  12
ATOM     12  C   UNL     1      55.344  25.948  50.057  1.00  0.00    -0.000 C 
BRANCH  12  13
ATOM     13  C   UNL     1      54.193  25.134  49.447  1.00  0.00    -0.003 C 
ATOM     14  C   UNL     1      53.867  23.915  50.305  1.00  0.00     0.004 C 
ENDBRANCH  12  13
ENDBRANCH  11  12
ENDBRANCH  10  11
ENDBRANCH   9  10
ENDBRANCH   1   9
TORSDOF 9
ENDMDL
MODEL 3
REMARK VINA RESULT:    -3.283      1.074      2.359
REMARK INTER + INTRA:          -6.508
REMARK INTER:                  -5.272
REMARK INTRA:                  -1.236
REMARK UNBOUND:                -1.498
REMARK SMILES CCCCCCCCCC=CC(=O)[O-]
REMARK SMILES IDX 7 1 8 2 9 3 10 4 11 5 12 6 13 7 14 8 6 9 5 10 4 11 3 12 2 13
REMARK SMILES IDX 1 14
REMARK H PARENT
REMARK Flexibility Score: inf
ROOT
ATOM      1  C   UNL     1      55.877  25.326  50.903  1.00  0.00     0.000 C 
ENDROOT
BRANCH   1   2
ATOM      2  C   UNL     1      57.326  25.791  50.665  1.00  0.00     0.004 C 
BRANCH   2   3
ATOM      3  C   UNL     1      57.690  27.111  51.371  1.00  0.00     0.027 C 
BRANCH   3   4
ATOM      4  C   UNL     1      57.896  28.248  50.406  1.00  0.00    -0.025 C 
ATOM      5  C   UNL     1      59.064  28.620  49.859  1.00  0.00     0.020 C 
BRANCH   5   6
ATOM      6  C   UNL     1      60.373  27.955  50.037  1.00  0.00     0.064 C 
ATOM      7  O   UNL     1      61.281  28.558  50.665  1.00  0.00    -0.545 OA
ATOM      8  O   UNL     1      60.646  26.704  49.502  1.00  0.00    -0.545 OA
ENDBRANCH   5   6
ENDBRANCH   3   4
ENDBRANCH   2   3
ENDBRANCH   1   2
BRANCH   1   9
ATOM      9  C   UNL     1      55.031  25.328  49.617  1.00  0.00     0.000 C 
BRANCH   9  10
ATOM     10  C   UNL     1      53.781  26.217  49.736  1.00  0.00     0.000 C 
BRANCH  10  11
ATOM     11  C   UNL     1      53.865  27.197  50.919  1.00  0.00    -0.000 C 
BRANCH  11  12
ATOM     12  C   UNL     1      54.219  28.626  50.477  1.00  0.00    -0.000 C 
BRANCH  12  13
ATOM     13  C   UNL     1      54.059  29.654  51.607  1.00  0.00    -0.003 C 
ATOM     14  C   UNL     1      55.113  29.447  52.690  1.00  0.00     0.004 C 
ENDBRANCH  12  13
ENDBRANCH  11  12
ENDBRANCH  10  11
ENDBRANCH   9  10
ENDBRANCH   1   9
TORSDOF 9
ENDMDL
MODEL 4
REMARK VINA RESULT:    -3.198      0.830      2.414
REMARK INTER + INTRA:          -6.378
REMARK INTER:                  -5.080
REMARK INTRA:                  -1.298
REMARK UNBOUND:                -1.498
REMARK SMILES CCCCCCCCCC=CC(=O)[O-]
REMARK SMILES IDX 7 1 8 2 9 3 10 4 11 5 12 6 13 7 14 8 6 9 5 10 4 11 3 12 2 13
REMARK SMILES IDX 1 14
REMARK H PARENT
REMARK Flexibility Score: inf
ROOT
ATOM      1  C   UNL     1      55.902  28.899  50.961  1.00  0.00     0.000 C 
ENDROOT
BRANCH   1   2
ATOM      2  C   UNL     1      56.875  28.539  52.100  1.00  0.00     0.004 C 
BRANCH   2   3
ATOM      3  C   UNL     1      58.361  28.570  51.695  1.00  0.00     0.027 C 
BRANCH   3   4
ATOM      4  C   UNL     1      58.557  28.733  50.211  1.00  0.00    -0.025 C 
ATOM      5  C   UNL     1      59.458  28.086  49.456  1.00  0.00     0.020 C 
BRANCH   5   6
ATOM      6  C   UNL     1      60.398  27.039  49.908  1.00  0.00     0.064 C 
ATOM      7  O   UNL     1      60.106  25.831  49.710  1.00  0.00    -0.545 OA
ATOM      8  O   UNL     1      61.576  27.341  50.578  1.00  0.00    -0.545 OA
ENDBRANCH   5   6
ENDBRANCH   3   4
ENDBRANCH   2   3
ENDBRANCH   1   2
BRANCH   1   9
ATOM      9  C   UNL     1      54.460  28.439  51.241  1.00  0.00     0.000 C 
BRANCH   9  10
ATOM     10  C   UNL     1      53.922  27.495  50.153  1.00  0.00     0.000 C 
BRANCH  10  11
ATOM     11  C   UNL     1      54.166  26.013  50.484  1.00  0.00    -0.000 C 
BRANCH  11  12
ATOM     12  C   UNL     1      55.359  25.425  49.712  1.00  0.00    -0.000 C 
BRANCH  12  13
ATOM     13  C   UNL     1      56.624  25.306  50.575  1.00  0.00    -0.003 C 
ATOM     14  C   UNL     1      56.269  25.086  52.042  1.00  0.00     0.004 C 
ENDBRANCH  12  13
ENDBRANCH  11  12
ENDBRANCH  10  11
ENDBRANCH   9  10
ENDBRANCH   1   9
TORSDOF 9
ENDMDL
MODEL 5
REMARK VINA RESULT:    -3.194      1.617      2.294
REMARK INTER + INTRA:          -6.372
REMARK INTER:                  -5.055
REMARK INTRA:                  -1.317
REMARK UNBOUND:                -1.498
REMARK SMILES CCCCCCCCCC=CC(=O)[O-]
REMARK SMILES IDX 7 1 8 2 9 3 10 4 11 5 12 6 13 7 14 8 6 9 5 10 4 11 3 12 2 13
REMARK SMILES IDX 1 14
REMARK H PARENT
REMARK Flexibility Score: inf
ROOT
ATOM      1  C   UNL     1      58.897  25.284  51.778  1.00  0.00     0.000 C 
ENDROOT
BRANCH   1   2
ATOM      2  C   UNL     1      59.480  25.194  50.356  1.00  0.00     0.004 C 
BRANCH   2   3
ATOM      3  C   UNL     1      60.439  26.343  49.991  1.00  0.00     0.027 C 
BRANCH   3   4
ATOM      4  C   UNL     1      59.728  27.524  49.388  1.00  0.00    -0.025 C 
ATOM      5  C   UNL     1      59.386  28.654  50.028  1.00  0.00     0.020 C 
BRANCH   5   6
ATOM      6  C   UNL     1      59.690  28.998  51.433  1.00  0.00     0.064 C 
ATOM      7  O   UNL     1      58.751  29.029  52.270  1.00  0.00    -0.545 OA
ATOM      8  O   UNL     1      60.972  29.325  51.854  1.00  0.00    -0.545 OA
ENDBRANCH   5   6
ENDBRANCH   3   4
ENDBRANCH   2   3
ENDBRANCH   1   2
BRANCH   1   9
ATOM      9  C   UNL     1      57.435  25.766  51.794  1.00  0.00     0.000 C 
BRANCH   9  10
ATOM     10  C   UNL     1      56.683  25.408  50.501  1.00  0.00     0.000 C 
BRANCH  10  11
ATOM     11  C   UNL     1      55.552  26.402  50.182  1.00  0.00    -0.000 C 
BRANCH  11  12
ATOM     12  C   UNL     1      55.791  27.787  50.807  1.00  0.00    -0.000 C 
BRANCH  12  13
ATOM     13  C   UNL     1      54.527  28.659  50.818  1.00  0.00    -0.003 C 
ATOM     14  C   UNL     1      53.360  27.942  50.145  1.00  0.00     0.004 C 
ENDBRANCH  12  13
ENDBRANCH  11  12
ENDBRANCH  10  11
ENDBRANCH   9  10
ENDBRANCH   1   9
TORSDOF 9
ENDMDL
MODEL 6
REMARK VINA RESULT:    -3.075      2.773      5.093
REMARK INTER + INTRA:          -6.190
REMARK INTER:                  -5.097
REMARK INTRA:                  -1.094
REMARK UNBOUND:                -1.498
REMARK SMILES CCCCCCCCCC=CC(=O)[O-]
REMARK SMILES IDX 7 1 8 2 9 3 10 4 11 5 12 6 13 7 14 8 6 9 5 10 4 11 3 12 2 13
REMARK SMILES IDX 1 14
REMARK H PARENT
REMARK Flexibility Score: inf
ROOT
ATOM      1  C   UNL     1      59.167  28.859  51.077  1.00  0.00     0.000 C 
ENDROOT
BRANCH   1   2
ATOM      2  C   UNL     1      57.730  28.619  51.577  1.00  0.00     0.004 C 
BRANCH   2   3
ATOM      3  C   UNL     1      56.929  27.607  50.736  1.00  0.00     0.027 C 
BRANCH   3   4
ATOM      4  C   UNL     1      55.464  27.947  50.658  1.00  0.00    -0.025 C 
ATOM      5  C   UNL     1      54.465  27.088  50.401  1.00  0.00     0.020 C 
BRANCH   5   6
ATOM      6  C   UNL     1      54.586  25.627  50.207  1.00  0.00     0.064 C 
ATOM      7  O   UNL     1      54.959  24.913  51.174  1.00  0.00    -0.545 OA
ATOM      8  O   UNL     1      54.339  25.020  48.983  1.00  0.00    -0.545 OA
ENDBRANCH   5   6
ENDBRANCH   3   4
ENDBRANCH   2   3
ENDBRANCH   1   2
BRANCH   1   9
ATOM      9  C   UNL     1      59.413  28.286  49.669  1.00  0.00     0.000 C 
BRANCH   9  10
ATOM     10  C   UNL     1      60.563  27.266  49.641  1.00  0.00     0.000 C 
BRANCH  10  11
ATOM     11  C   UNL     1      60.068  25.815  49.778  1.00  0.00    -0.000 C 
BRANCH  11  12
ATOM     12  C   UNL     1      60.744  25.069  50.940  1.00  0.00    -0.000 C 
BRANCH  12  13
ATOM     13  C   UNL     1      59.961  25.188  52.256  1.00  0.00    -0.003 C 
ATOM     14  C   UNL     1      58.546  24.637  52.105  1.00  0.00     0.004 C 
ENDBRANCH  12  13
ENDBRANCH  11  12
ENDBRANCH  10  11
ENDBRANCH   9  10
ENDBRANCH   1   9
TORSDOF 9
ENDMDL
MODEL 7
REMARK VINA RESULT:    -3.060      3.120      5.169
REMARK INTER + INTRA:          -6.169
REMARK INTER:                  -4.779
REMARK INTRA:                  -1.389
REMARK UNBOUND:                -1.498
REMARK SMILES CCCCCCCCCC=CC(=O)[O-]
REMARK SMILES IDX 7 1 8 2 9 3 10 4 11 5 12 6 13 7 14 8 6 9 5 10 4 11 3 12 2 13
REMARK SMILES IDX 1 14
REMARK H PARENT
REMARK Flexibility Score: inf
ROOT
ATOM      1  C   UNL     1      59.499  24.998  51.782  1.00  0.00     0.000 C 
ENDROOT
BRANCH   1   2
ATOM      2  C   UNL     1      57.963  24.938  51.676  1.00  0.00     0.004 C 
BRANCH   2   3
ATOM      3  C   UNL     1      57.396  25.536  50.375  1.00  0.00     0.027 C 
BRANCH   3   4
ATOM      4  C   UNL     1      56.444  26.675  50.626  1.00  0.00    -0.025 C 
ATOM      5  C   UNL     1      55.108  26.633  50.500  1.00  0.00     0.020 C 
BRANCH   5   6
ATOM      6  C   UNL     1      54.292  25.450  50.154  1.00  0.00     0.064 C 
ATOM      7  O   UNL     1      54.066  24.585  51.039  1.00  0.00    -0.545 OA
ATOM      8  O   UNL     1      53.798  25.241  48.873  1.00  0.00    -0.545 OA
ENDBRANCH   5   6
ENDBRANCH   3   4
ENDBRANCH   2   3
ENDBRANCH   1   2
BRANCH   1   9
ATOM      9  C   UNL     1      60.197  24.867  50.416  1.00  0.00     0.000 C 
BRANCH   9  10
ATOM     10  C   UNL     1      61.549  25.600  50.373  1.00  0.00     0.000 C 
BRANCH  10  11
ATOM     11  C   UNL     1      61.389  27.122  50.218  1.00  0.00    -0.000 C 
BRANCH  11  12
ATOM     12  C   UNL     1      60.256  27.501  49.251  1.00  0.00    -0.000 C 
BRANCH  12  13
ATOM     13  C   UNL     1      59.385  28.651  49.778  1.00  0.00    -0.003 C 
ATOM     14  C   UNL     1      59.431  28.720  51.302  1.00  0.00     0.004 C 
ENDBRANCH  12  13
ENDBRANCH  11  12
ENDBRANCH  10  11
ENDBRANCH   9  10
ENDBRANCH   1   9
TORSDOF 9
ENDMDL
MODEL 8
REMARK VINA RESULT:    -3.052     10.290     12.676
REMARK INTER + INTRA:          -6.156
REMARK INTER:                  -4.471
REMARK INTRA:                  -1.685
REMARK UNBOUND:                -1.498
REMARK SMILES CCCCCCCCCC=CC(=O)[O-]
REMARK SMILES IDX 7 1 8 2 9 3 10 4 11 5 12 6 13 7 14 8 6 9 5 10 4 11 3 12 2 13
REMARK SMILES IDX 1 14
REMARK H PARENT
REMARK Flexibility Score: inf
ROOT
ATOM      1  C   UNL     1      60.842  33.244  58.736  1.00  0.00     0.000 C 
ENDROOT
BRANCH   1   2
ATOM      2  C   UNL     1      61.276  31.873  58.185  1.00  0.00     0.004 C 
BRANCH   2   3
ATOM      3  C   UNL     1      61.140  30.715  59.191  1.00  0.00     0.027 C 
BRANCH   3   4
ATOM      4  C   UNL     1      61.090  31.188  60.619  1.00  0.00    -0.025 C 
ATOM      5  C   UNL     1      61.657  30.581  61.674  1.00  0.00     0.020 C 
BRANCH   5   6
ATOM      6  C   UNL     1      62.497  29.364  61.645  1.00  0.00     0.064 C 
ATOM      7  O   UNL     1      63.742  29.481  61.775  1.00  0.00    -0.545 OA
ATOM      8  O   UNL     1      61.961  28.100  61.442  1.00  0.00    -0.545 OA
ENDBRANCH   5   6
ENDBRANCH   3   4
ENDBRANCH   2   3
ENDBRANCH   1   2
BRANCH   1   9
ATOM      9  C   UNL     1      61.873  34.352  58.458  1.00  0.00     0.000 C 
BRANCH   9  10
ATOM     10  C   UNL     1      62.045  35.309  59.650  1.00  0.00     0.000 C 
BRANCH  10  11
ATOM     11  C   UNL     1      62.559  34.594  60.912  1.00  0.00    -0.000 C 
BRANCH  11  12
ATOM     12  C   UNL     1      64.079  34.366  60.882  1.00  0.00    -0.000 C 
BRANCH  12  13
ATOM     13  C   UNL     1      64.460  32.884  61.008  1.00  0.00    -0.003 C 
ATOM     14  C   UNL     1      64.699  32.260  59.636  1.00  0.00     0.004 C 
ENDBRANCH  12  13
ENDBRANCH  11  12
ENDBRANCH  10  11
ENDBRANCH   9  10
ENDBRANCH   1   9
TORSDOF 9
ENDMDL
MODEL 9
REMARK VINA RESULT:    -3.041     11.423     13.227
REMARK INTER + INTRA:          -6.139
REMARK INTER:                  -5.187
REMARK INTRA:                  -0.953
REMARK UNBOUND:                -1.498
REMARK SMILES CCCCCCCCCC=CC(=O)[O-]
REMARK SMILES IDX 7 1 8 2 9 3 10 4 11 5 12 6 13 7 14 8 6 9 5 10 4 11 3 12 2 13
REMARK SMILES IDX 1 14
REMARK H PARENT
REMARK Flexibility Score: inf
ROOT
ATOM      1  C   UNL     1      61.057  31.120  59.965  1.00  0.00     0.000 C 
ENDROOT
BRANCH   1   2
ATOM      2  C   UNL     1      61.590  32.507  59.561  1.00  0.00     0.004 C 
BRANCH   2   3
ATOM      3  C   UNL     1      62.602  33.109  60.554  1.00  0.00     0.027 C 
BRANCH   3   4
ATOM      4  C   UNL     1      62.323  34.556  60.864  1.00  0.00    -0.025 C 
ATOM      5  C   UNL     1      63.234  35.486  61.190  1.00  0.00     0.020 C 
BRANCH   5   6
ATOM      6  C   UNL     1      64.700  35.302  61.250  1.00  0.00     0.064 C 
ATOM      7  O   UNL     1      65.255  35.192  62.373  1.00  0.00    -0.545 OA
ATOM      8  O   UNL     1      65.490  35.284  60.108  1.00  0.00    -0.545 OA
ENDBRANCH   5   6
ENDBRANCH   3   4
ENDBRANCH   2   3
ENDBRANCH   1   2
BRANCH   1   9
ATOM      9  C   UNL     1      61.335  30.780  61.441  1.00  0.00     0.000 C 
BRANCH   9  10
ATOM     10  C   UNL     1      62.103  29.458  61.607  1.00  0.00     0.000 C 
BRANCH  10  11
ATOM     11  C   UNL     1      63.626  29.664  61.660  1.00  0.00    -0.000 C 
BRANCH  11  12
ATOM     12  C   UNL     1      64.297  29.459  60.291  1.00  0.00    -0.000 C 
BRANCH  12  13
ATOM     13  C   UNL     1      65.272  30.591  59.933  1.00  0.00    -0.003 C 
ATOM     14  C   UNL     1      66.343  30.106  58.962  1.00  0.00     0.004 C 
ENDBRANCH  12  13
ENDBRANCH  11  12
ENDBRANCH  10  11
ENDBRANCH   9  10
ENDBRANCH   1   9
TORSDOF 9
ENDMDL
