MODEL 1
REMARK VINA RESULT:    -2.427      0.000      0.000
REMARK INTER + INTRA:          -2.640
REMARK INTER:                  -2.640
REMARK INTRA:                   0.000
REMARK UNBOUND:                 0.000
REMARK SMILES [NH3+]CC(=O)[O-]
REMARK SMILES IDX 2 1 1 2 3 6 4 7 5 8
REMARK H PARENT 1 3 1 4 1 5
REMARK Flexibility Score: inf
ROOT
ATOM      1  C   UNL     1      20.500  28.880  43.965  1.00  0.00     0.312 C 
ENDROOT
BRANCH   1   2
ATOM      2  N   UNL     1      21.724  29.237  43.251  1.00  0.00    -0.353 N 
ATOM      3  H   UNL     1      21.866  28.570  42.458  1.00  0.00     0.344 HD
ATOM      4  H   UNL     1      22.546  29.177  43.895  1.00  0.00     0.344 HD
ATOM      5  H   UNL     1      21.644  30.208  42.867  1.00  0.00     0.344 HD
ENDBRANCH   1   2
BRANCH   1   6
ATOM      6  C   UNL     1      19.828  30.102  44.508  1.00  0.00     0.096 C 
ATOM      7  O   UNL     1      20.405  31.221  44.449  1.00  0.00    -0.544 OA
ATOM      8  O   UNL     1      18.588  29.999  45.125  1.00  0.00    -0.544 OA
ENDBRANCH   1   6
TORSDOF 2
ENDMDL
MODEL 2
REMARK VINA RESULT:    -2.378     25.602     25.737
REMARK INTER + INTRA:          -2.586
REMARK INTER:                  -2.586
REMARK INTRA:                   0.000
REMARK UNBOUND:                 0.000
REMARK SMILES [NH3+]CC(=O)[O-]
REMARK SMILES IDX 2 1 1 2 3 6 4 7 5 8
REMARK H PARENT 1 3 1 4 1 5
REMARK Flexibility Score: inf
ROOT
ATOM      1  C   UNL     1      18.264  47.762  26.472  1.00  0.00     0.312 C 
ENDROOT
BRANCH   1   2
ATOM      2  N   UNL     1      18.239  49.125  25.944  1.00  0.00    -0.353 N 
ATOM      3  H   UNL     1      17.988  49.786  26.714  1.00  0.00     0.344 HD
ATOM      4  H   UNL     1      17.523  49.201  25.184  1.00  0.00     0.344 HD
ATOM      5  H   UNL     1      19.181  49.382  25.569  1.00  0.00     0.344 HD
ENDBRANCH   1   2
BRANCH   1   6
ATOM      6  C   UNL     1      17.756  46.791  25.452  1.00  0.00     0.096 C 
ATOM      7  O   UNL     1      16.534  46.773  25.148  1.00  0.00    -0.544 OA
ATOM      8  O   UNL     1      18.622  45.871  24.875  1.00  0.00    -0.544 OA
ENDBRANCH   1   6
TORSDOF 2
ENDMDL
MODEL 3
REMARK VINA RESULT:    -2.363      2.456      2.696
REMARK INTER + INTRA:          -2.570
REMARK INTER:                  -2.570
REMARK INTRA:                   0.000
REMARK UNBOUND:                 0.000
REMARK SMILES [NH3+]CC(=O)[O-]
REMARK SMILES IDX 2 1 1 2 3 6 4 7 5 8
REMARK H PARENT 1 3 1 4 1 5
REMARK Flexibility Score: inf
ROOT
ATOM      1  C   UNL     1      18.479  31.015  44.757  1.00  0.00     0.312 C 
ENDROOT
BRANCH   1   2
ATOM      2  N   UNL     1      18.607  32.428  45.112  1.00  0.00    -0.353 N 
ATOM      3  H   UNL     1      17.696  32.768  45.497  1.00  0.00     0.344 HD
ATOM      4  H   UNL     1      18.847  32.990  44.262  1.00  0.00     0.344 HD
ATOM      5  H   UNL     1      19.349  32.549  45.838  1.00  0.00     0.344 HD
ENDBRANCH   1   2
BRANCH   1   6
ATOM      6  C   UNL     1      19.827  30.400  44.544  1.00  0.00     0.096 C 
ATOM      7  O   UNL     1      20.674  30.970  43.807  1.00  0.00    -0.544 OA
ATOM      8  O   UNL     1      20.130  29.172  45.118  1.00  0.00    -0.544 OA
ENDBRANCH   1   6
TORSDOF 2
ENDMDL
MODEL 4
REMARK VINA RESULT:    -2.333      2.992      3.544
REMARK INTER + INTRA:          -2.537
REMARK INTER:                  -2.537
REMARK INTRA:                   0.000
REMARK UNBOUND:                 0.000
REMARK SMILES [NH3+]CC(=O)[O-]
REMARK SMILES IDX 2 1 1 2 3 6 4 7 5 8
REMARK H PARENT 1 3 1 4 1 5
REMARK Flexibility Score: inf
ROOT
ATOM      1  C   UNL     1      17.421  31.441  44.857  1.00  0.00     0.312 C 
ENDROOT
BRANCH   1   2
ATOM      2  N   UNL     1      18.607  32.252  45.125  1.00  0.00    -0.353 N 
ATOM      3  H   UNL     1      19.385  31.939  44.500  1.00  0.00     0.344 HD
ATOM      4  H   UNL     1      18.904  32.134  46.121  1.00  0.00     0.344 HD
ATOM      5  H   UNL     1      18.403  33.260  44.933  1.00  0.00     0.344 HD
ENDBRANCH   1   2
BRANCH   1   6
ATOM      6  C   UNL     1      17.712  30.408  43.813  1.00  0.00     0.096 C 
ATOM      7  O   UNL     1      16.797  30.010  43.044  1.00  0.00    -0.544 OA
ATOM      8  O   UNL     1      18.979  29.848  43.723  1.00  0.00    -0.544 OA
ENDBRANCH   1   6
TORSDOF 2
ENDMDL
MODEL 5
REMARK VINA RESULT:    -2.329      2.262      2.460
REMARK INTER + INTRA:          -2.533
REMARK INTER:                  -2.533
REMARK INTRA:                   0.000
REMARK UNBOUND:                 0.000
REMARK SMILES [NH3+]CC(=O)[O-]
REMARK SMILES IDX 2 1 1 2 3 6 4 7 5 8
REMARK H PARENT 1 3 1 4 1 5
REMARK Flexibility Score: inf
ROOT
ATOM      1  C   UNL     1      19.133  30.608  44.854  1.00  0.00     0.312 C 
ENDROOT
BRANCH   1   2
ATOM      2  N   UNL     1      20.497  31.125  44.754  1.00  0.00    -0.353 N 
ATOM      3  H   UNL     1      20.511  32.120  45.075  1.00  0.00     0.344 HD
ATOM      4  H   UNL     1      20.823  31.085  43.761  1.00  0.00     0.344 HD
ATOM      5  H   UNL     1      21.138  30.563  45.360  1.00  0.00     0.344 HD
ENDBRANCH   1   2
BRANCH   1   6
ATOM      6  C   UNL     1      18.137  31.721  44.752  1.00  0.00     0.096 C 
ATOM      7  O   UNL     1      18.503  32.865  44.371  1.00  0.00    -0.544 OA
ATOM      8  O   UNL     1      16.817  31.509  45.125  1.00  0.00    -0.544 OA
ENDBRANCH   1   6
TORSDOF 2
ENDMDL
MODEL 6
REMARK VINA RESULT:    -2.325      3.028      3.365
REMARK INTER + INTRA:          -2.529
REMARK INTER:                  -2.529
REMARK INTRA:                   0.000
REMARK UNBOUND:                 0.000
REMARK SMILES [NH3+]CC(=O)[O-]
REMARK SMILES IDX 2 1 1 2 3 6 4 7 5 8
REMARK H PARENT 1 3 1 4 1 5
REMARK Flexibility Score: inf
ROOT
ATOM      1  C   UNL     1      17.425  31.463  44.789  1.00  0.00     0.312 C 
ENDROOT
BRANCH   1   2
ATOM      2  N   UNL     1      18.607  32.256  45.125  1.00  0.00    -0.353 N 
ATOM      3  H   UNL     1      19.208  32.350  44.275  1.00  0.00     0.344 HD
ATOM      4  H   UNL     1      19.155  31.780  45.878  1.00  0.00     0.344 HD
ATOM      5  H   UNL     1      18.319  33.209  45.445  1.00  0.00     0.344 HD
ENDBRANCH   1   2
BRANCH   1   6
ATOM      6  C   UNL     1      17.752  30.445  43.742  1.00  0.00     0.096 C 
ATOM      7  O   UNL     1      18.943  30.073  43.569  1.00  0.00    -0.544 OA
ATOM      8  O   UNL     1      16.749  29.943  42.922  1.00  0.00    -0.544 OA
ENDBRANCH   1   6
TORSDOF 2
ENDMDL
MODEL 7
REMARK VINA RESULT:    -2.227     20.128     20.504
REMARK INTER + INTRA:          -2.422
REMARK INTER:                  -2.422
REMARK INTRA:                   0.000
REMARK UNBOUND:                 0.000
REMARK SMILES [NH3+]CC(=O)[O-]
REMARK SMILES IDX 2 1 1 2 3 6 4 7 5 8
REMARK H PARENT 1 3 1 4 1 5
REMARK Flexibility Score: inf
ROOT
ATOM      1  C   UNL     1      29.508  39.344  27.625  1.00  0.00     0.312 C 
ENDROOT
BRANCH   1   2
ATOM      2  N   UNL     1      30.534  38.608  28.361  1.00  0.00    -0.353 N 
ATOM      3  H   UNL     1      31.182  39.290  28.820  1.00  0.00     0.344 HD
ATOM      4  H   UNL     1      31.084  38.008  27.705  1.00  0.00     0.344 HD
ATOM      5  H   UNL     1      30.090  38.014  29.098  1.00  0.00     0.344 HD
ENDBRANCH   1   2
BRANCH   1   6
ATOM      6  C   UNL     1      28.192  38.634  27.702  1.00  0.00     0.096 C 
ATOM      7  O   UNL     1      27.185  39.101  27.106  1.00  0.00    -0.544 OA
ATOM      8  O   UNL     1      28.065  37.485  28.471  1.00  0.00    -0.544 OA
ENDBRANCH   1   6
TORSDOF 2
ENDMDL
MODEL 8
REMARK VINA RESULT:    -2.225     24.629     24.984
REMARK INTER + INTRA:          -2.420
REMARK INTER:                  -2.420
REMARK INTRA:                   0.000
REMARK UNBOUND:                 0.000
REMARK SMILES [NH3+]CC(=O)[O-]
REMARK SMILES IDX 2 1 1 2 3 6 4 7 5 8
REMARK H PARENT 1 3 1 4 1 5
REMARK Flexibility Score: inf
ROOT
ATOM      1  C   UNL     1      17.876  47.746  26.394  1.00  0.00     0.312 C 
ENDROOT
BRANCH   1   2
ATOM      2  N   UNL     1      18.222  49.115  26.012  1.00  0.00    -0.353 N 
ATOM      3  H   UNL     1      18.576  49.117  25.028  1.00  0.00     0.344 HD
ATOM      4  H   UNL     1      18.970  49.485  26.643  1.00  0.00     0.344 HD
ATOM      5  H   UNL     1      17.375  49.727  26.069  1.00  0.00     0.344 HD
ENDBRANCH   1   2
BRANCH   1   6
ATOM      6  C   UNL     1      19.094  46.999  26.841  1.00  0.00     0.096 C 
ATOM      7  O   UNL     1      20.092  47.624  27.288  1.00  0.00    -0.544 OA
ATOM      8  O   UNL     1      19.147  45.617  26.717  1.00  0.00    -0.544 OA
ENDBRANCH   1   6
TORSDOF 2
ENDMDL
MODEL 9
REMARK VINA RESULT:    -2.186     23.806     24.111
REMARK INTER + INTRA:          -2.378
REMARK INTER:                  -2.378
REMARK INTRA:                   0.000
REMARK UNBOUND:                 0.000
REMARK SMILES [NH3+]CC(=O)[O-]
REMARK SMILES IDX 2 1 1 2 3 6 4 7 5 8
REMARK H PARENT 1 3 1 4 1 5
REMARK Flexibility Score: inf
ROOT
ATOM      1  C   UNL     1      24.273  45.829  28.145  1.00  0.00     0.312 C 
ENDROOT
BRANCH   1   2
ATOM      2  N   UNL     1      23.722  45.066  27.027  1.00  0.00    -0.353 N 
ATOM      3  H   UNL     1      24.158  44.116  27.013  1.00  0.00     0.344 HD
ATOM      4  H   UNL     1      23.934  45.550  26.124  1.00  0.00     0.344 HD
ATOM      5  H   UNL     1      22.687  44.964  27.139  1.00  0.00     0.344 HD
ENDBRANCH   1   2
BRANCH   1   6
ATOM      6  C   UNL     1      24.304  47.291  27.823  1.00  0.00     0.096 C 
ATOM      7  O   UNL     1      23.259  47.876  27.435  1.00  0.00    -0.544 OA
ATOM      8  O   UNL     1      25.498  47.996  27.904  1.00  0.00    -0.544 OA
ENDBRANCH   1   6
TORSDOF 2
ENDMDL
