MODEL 1
REMARK VINA RESULT:    -4.014      0.000      0.000
REMARK INTER + INTRA:          -4.131
REMARK INTER:                  -4.131
REMARK INTRA:                   0.000
REMARK UNBOUND:                 0.000
REMARK SMILES Oc1ccc2[nH]ccc2c1
REMARK SMILES IDX 3 1 4 2 5 3 9 4 8 5 7 6 6 7 10 8 2 9 1 11
REMARK H PARENT 6 10 1 12
REMARK Flexibility Score: inf
ROOT
ATOM      1  C   UNL     1      38.454 182.766 173.282  1.00  0.00     0.048 A 
ATOM      2  C   UNL     1      38.530 181.404 172.935  1.00  0.00     0.030 A 
ATOM      3  C   UNL     1      39.662 180.695 173.331  1.00  0.00     0.046 A 
ATOM      4  C   UNL     1      40.675 181.290 174.035  1.00  0.00     0.003 A 
ATOM      5  C   UNL     1      41.635 180.329 174.268  1.00  0.00     0.028 A 
ATOM      6  C   UNL     1      41.140 179.171 173.678  1.00  0.00     0.083 A 
ATOM      7  N   UNL     1      39.935 179.399 173.107  1.00  0.00    -0.361 N 
ATOM      8  C   UNL     1      40.631 182.635 174.393  1.00  0.00     0.056 A 
ATOM      9  C   UNL     1      39.501 183.383 174.010  1.00  0.00     0.116 A 
ATOM     10  H   UNL     1      39.341 178.707 172.598  1.00  0.00     0.166 HD
ENDROOT
BRANCH   9  11
ATOM     11  O   UNL     1      39.424 184.731 174.352  1.00  0.00    -0.508 OA
ATOM     12  H   UNL     1      40.219 185.225 174.739  1.00  0.00     0.293 HD
ENDBRANCH   9  11
TORSDOF 1
ENDMDL
MODEL 2
REMARK VINA RESULT:    -3.929     23.010     23.761
REMARK INTER + INTRA:          -4.044
REMARK INTER:                  -4.044
REMARK INTRA:                   0.000
REMARK UNBOUND:                 0.000
REMARK SMILES Oc1ccc2[nH]ccc2c1
REMARK SMILES IDX 3 1 4 2 5 3 9 4 8 5 7 6 6 7 10 8 2 9 1 11
REMARK H PARENT 6 10 1 12
REMARK Flexibility Score: inf
ROOT
ATOM      1  C   UNL     1      33.589 166.252 158.045  1.00  0.00     0.048 A 
ATOM      2  C   UNL     1      33.535 166.843 156.769  1.00  0.00     0.030 A 
ATOM      3  C   UNL     1      32.295 167.277 156.306  1.00  0.00     0.046 A 
ATOM      4  C   UNL     1      31.157 167.141 157.056  1.00  0.00     0.003 A 
ATOM      5  C   UNL     1      30.115 167.663 156.323  1.00  0.00     0.028 A 
ATOM      6  C   UNL     1      30.689 168.101 155.134  1.00  0.00     0.083 A 
ATOM      7  N   UNL     1      32.022 167.863 155.129  1.00  0.00    -0.361 N 
ATOM      8  C   UNL     1      31.177 166.560 158.323  1.00  0.00     0.056 A 
ATOM      9  C   UNL     1      32.413 166.109 158.823  1.00  0.00     0.116 A 
ATOM     10  H   UNL     1      32.695 168.091 154.364  1.00  0.00     0.166 HD
ENDROOT
BRANCH   9  11
ATOM     11  O   UNL     1      32.468 165.524 160.085  1.00  0.00    -0.508 OA
ATOM     12  H   UNL     1      33.163 164.823 160.314  1.00  0.00     0.293 HD
ENDBRANCH   9  11
TORSDOF 1
ENDMDL
MODEL 3
REMARK VINA RESULT:    -3.927      2.681      4.130
REMARK INTER + INTRA:          -4.042
REMARK INTER:                  -4.042
REMARK INTRA:                   0.000
REMARK UNBOUND:                 0.000
REMARK SMILES Oc1ccc2[nH]ccc2c1
REMARK SMILES IDX 3 1 4 2 5 3 9 4 8 5 7 6 6 7 10 8 2 9 1 11
REMARK H PARENT 6 10 1 12
REMARK Flexibility Score: inf
ROOT
ATOM      1  C   UNL     1      41.501 179.297 174.262  1.00  0.00     0.048 A 
ATOM      2  C   UNL     1      41.760 180.619 174.671  1.00  0.00     0.030 A 
ATOM      3  C   UNL     1      40.816 181.594 174.357  1.00  0.00     0.046 A 
ATOM      4  C   UNL     1      39.669 181.292 173.673  1.00  0.00     0.003 A 
ATOM      5  C   UNL     1      38.957 182.461 173.525  1.00  0.00     0.028 A 
ATOM      6  C   UNL     1      39.730 183.439 174.143  1.00  0.00     0.083 A 
ATOM      7  N   UNL     1      40.865 182.904 174.650  1.00  0.00    -0.361 N 
ATOM      8  C   UNL     1      39.383 179.994 173.254  1.00  0.00     0.056 A 
ATOM      9  C   UNL     1      40.315 178.983 173.554  1.00  0.00     0.116 A 
ATOM     10  H   UNL     1      41.621 183.409 175.164  1.00  0.00     0.166 HD
ENDROOT
BRANCH   9  11
ATOM     11  O   UNL     1      40.060 177.675 173.150  1.00  0.00    -0.508 OA
ATOM     12  H   UNL     1      40.630 177.217 172.449  1.00  0.00     0.293 HD
ENDBRANCH   9  11
TORSDOF 1
ENDMDL
MODEL 4
REMARK VINA RESULT:    -3.893      2.587      4.220
REMARK INTER + INTRA:          -4.006
REMARK INTER:                  -4.006
REMARK INTRA:                   0.000
REMARK UNBOUND:                 0.000
REMARK SMILES Oc1ccc2[nH]ccc2c1
REMARK SMILES IDX 3 1 4 2 5 3 9 4 8 5 7 6 6 7 10 8 2 9 1 11
REMARK H PARENT 6 10 1 12
REMARK Flexibility Score: inf
ROOT
ATOM      1  C   UNL     1      40.832 181.377 173.847  1.00  0.00     0.048 A 
ATOM      2  C   UNL     1      40.648 182.658 174.401  1.00  0.00     0.030 A 
ATOM      3  C   UNL     1      39.426 183.290 174.185  1.00  0.00     0.046 A 
ATOM      4  C   UNL     1      38.427 182.699 173.459  1.00  0.00     0.003 A 
ATOM      5  C   UNL     1      37.363 183.573 173.432  1.00  0.00     0.028 A 
ATOM      6  C   UNL     1      37.784 184.680 174.162  1.00  0.00     0.083 A 
ATOM      7  N   UNL     1      39.045 184.502 174.620  1.00  0.00    -0.361 N 
ATOM      8  C   UNL     1      38.577 181.433 172.897  1.00  0.00     0.056 A 
ATOM      9  C   UNL     1      39.800 180.764 173.095  1.00  0.00     0.116 A 
ATOM     10  H   UNL     1      39.603 185.172 175.195  1.00  0.00     0.166 HD
ENDROOT
BRANCH   9  11
ATOM     11  O   UNL     1      39.983 179.496 172.547  1.00  0.00    -0.508 OA
ATOM     12  H   UNL     1      39.578 178.672 172.973  1.00  0.00     0.293 HD
ENDBRANCH   9  11
TORSDOF 1
ENDMDL
MODEL 5
REMARK VINA RESULT:    -3.858     22.478     23.139
REMARK INTER + INTRA:          -3.970
REMARK INTER:                  -3.970
REMARK INTRA:                   0.000
REMARK UNBOUND:                 0.000
REMARK SMILES Oc1ccc2[nH]ccc2c1
REMARK SMILES IDX 3 1 4 2 5 3 9 4 8 5 7 6 6 7 10 8 2 9 1 11
REMARK H PARENT 6 10 1 12
REMARK Flexibility Score: inf
ROOT
ATOM      1  C   UNL     1      33.512 166.588 156.778  1.00  0.00     0.048 A 
ATOM      2  C   UNL     1      33.619 165.972 158.039  1.00  0.00     0.030 A 
ATOM      3  C   UNL     1      32.548 166.104 158.920  1.00  0.00     0.046 A 
ATOM      4  C   UNL     1      31.422 166.807 158.584  1.00  0.00     0.003 A 
ATOM      5  C   UNL     1      30.563 166.747 159.660  1.00  0.00     0.028 A 
ATOM      6  C   UNL     1      31.231 165.991 160.617  1.00  0.00     0.083 A 
ATOM      7  N   UNL     1      32.443 165.600 160.160  1.00  0.00    -0.361 N 
ATOM      8  C   UNL     1      31.284 167.429 157.345  1.00  0.00     0.056 A 
ATOM      9  C   UNL     1      32.348 167.316 156.429  1.00  0.00     0.116 A 
ATOM     10  H   UNL     1      33.149 165.024 160.670  1.00  0.00     0.166 HD
ENDROOT
BRANCH   9  11
ATOM     11  O   UNL     1      32.244 167.926 155.181  1.00  0.00    -0.508 OA
ATOM     12  H   UNL     1      31.601 168.692 155.019  1.00  0.00     0.293 HD
ENDBRANCH   9  11
TORSDOF 1
ENDMDL
MODEL 6
REMARK VINA RESULT:    -3.850      1.401      2.130
REMARK INTER + INTRA:          -3.963
REMARK INTER:                  -3.963
REMARK INTRA:                   0.000
REMARK UNBOUND:                 0.000
REMARK SMILES Oc1ccc2[nH]ccc2c1
REMARK SMILES IDX 3 1 4 2 5 3 9 4 8 5 7 6 6 7 10 8 2 9 1 11
REMARK H PARENT 6 10 1 12
REMARK Flexibility Score: inf
ROOT
ATOM      1  C   UNL     1      39.395 183.222 173.971  1.00  0.00     0.048 A 
ATOM      2  C   UNL     1      40.584 182.661 174.473  1.00  0.00     0.030 A 
ATOM      3  C   UNL     1      40.829 181.315 174.211  1.00  0.00     0.046 A 
ATOM      4  C   UNL     1      39.952 180.549 173.490  1.00  0.00     0.003 A 
ATOM      5  C   UNL     1      40.481 179.280 173.410  1.00  0.00     0.028 A 
ATOM      6  C   UNL     1      41.684 179.343 174.105  1.00  0.00     0.083 A 
ATOM      7  N   UNL     1      41.893 180.588 174.592  1.00  0.00    -0.361 N 
ATOM      8  C   UNL     1      38.766 181.074 172.979  1.00  0.00     0.056 A 
ATOM      9  C   UNL     1      38.485 182.432 173.225  1.00  0.00     0.116 A 
ATOM     10  H   UNL     1      42.713 180.913 175.149  1.00  0.00     0.166 HD
ENDROOT
BRANCH   9  11
ATOM     11  O   UNL     1      37.309 182.988 172.729  1.00  0.00    -0.508 OA
ATOM     12  H   UNL     1      36.515 182.410 172.479  1.00  0.00     0.293 HD
ENDBRANCH   9  11
TORSDOF 1
ENDMDL
MODEL 7
REMARK VINA RESULT:    -3.842      2.893      3.723
REMARK INTER + INTRA:          -3.954
REMARK INTER:                  -3.954
REMARK INTRA:                   0.000
REMARK UNBOUND:                 0.000
REMARK SMILES Oc1ccc2[nH]ccc2c1
REMARK SMILES IDX 3 1 4 2 5 3 9 4 8 5 7 6 6 7 10 8 2 9 1 11
REMARK H PARENT 6 10 1 12
REMARK Flexibility Score: inf
ROOT
ATOM      1  C   UNL     1      35.476 181.775 171.535  1.00  0.00     0.048 A 
ATOM      2  C   UNL     1      35.793 181.131 172.746  1.00  0.00     0.030 A 
ATOM      3  C   UNL     1      37.136 180.881 173.017  1.00  0.00     0.046 A 
ATOM      4  C   UNL     1      38.127 181.245 172.145  1.00  0.00     0.003 A 
ATOM      5  C   UNL     1      39.328 180.862 172.702  1.00  0.00     0.028 A 
ATOM      6  C   UNL     1      38.993 180.270 173.915  1.00  0.00     0.083 A 
ATOM      7  N   UNL     1      37.653 180.285 174.104  1.00  0.00    -0.361 N 
ATOM      8  C   UNL     1      37.848 181.883 170.939  1.00  0.00     0.056 A 
ATOM      9  C   UNL     1      36.500 182.151 170.631  1.00  0.00     0.116 A 
ATOM     10  H   UNL     1      37.132 179.908 174.927  1.00  0.00     0.166 HD
ENDROOT
BRANCH   9  11
ATOM     11  O   UNL     1      36.185 182.788 169.433  1.00  0.00    -0.508 OA
ATOM     12  H   UNL     1      35.353 182.548 168.909  1.00  0.00     0.293 HD
ENDBRANCH   9  11
TORSDOF 1
ENDMDL
MODEL 8
REMARK VINA RESULT:    -3.763     23.157     23.957
REMARK INTER + INTRA:          -3.873
REMARK INTER:                  -3.873
REMARK INTRA:                   0.000
REMARK UNBOUND:                 0.000
REMARK SMILES Oc1ccc2[nH]ccc2c1
REMARK SMILES IDX 3 1 4 2 5 3 9 4 8 5 7 6 6 7 10 8 2 9 1 11
REMARK H PARENT 6 10 1 12
REMARK Flexibility Score: inf
ROOT
ATOM      1  C   UNL     1      31.563 166.465 158.728  1.00  0.00     0.048 A 
ATOM      2  C   UNL     1      30.418 167.019 158.127  1.00  0.00     0.030 A 
ATOM      3  C   UNL     1      30.530 167.484 156.818  1.00  0.00     0.046 A 
ATOM      4  C   UNL     1      31.709 167.411 156.127  1.00  0.00     0.003 A 
ATOM      5  C   UNL     1      31.489 167.948 154.877  1.00  0.00     0.028 A 
ATOM      6  C   UNL     1      30.151 168.328 154.876  1.00  0.00     0.083 A 
ATOM      7  N   UNL     1      29.569 168.043 156.064  1.00  0.00    -0.361 N 
ATOM      8  C   UNL     1      32.862 166.869 156.692  1.00  0.00     0.056 A 
ATOM      9  C   UNL     1      32.785 166.390 158.014  1.00  0.00     0.116 A 
ATOM     10  H   UNL     1      28.577 168.222 156.335  1.00  0.00     0.166 HD
ENDROOT
BRANCH   9  11
ATOM     11  O   UNL     1      33.918 165.841 158.610  1.00  0.00    -0.508 OA
ATOM     12  H   UNL     1      34.651 165.413 158.058  1.00  0.00     0.293 HD
ENDBRANCH   9  11
TORSDOF 1
ENDMDL
MODEL 9
REMARK VINA RESULT:    -3.599      1.987      3.607
REMARK INTER + INTRA:          -3.704
REMARK INTER:                  -3.704
REMARK INTRA:                   0.000
REMARK UNBOUND:                 0.000
REMARK SMILES Oc1ccc2[nH]ccc2c1
REMARK SMILES IDX 3 1 4 2 5 3 9 4 8 5 7 6 6 7 10 8 2 9 1 11
REMARK H PARENT 6 10 1 12
REMARK Flexibility Score: inf
ROOT
ATOM      1  C   UNL     1      40.107 181.480 173.186  1.00  0.00     0.048 A 
ATOM      2  C   UNL     1      39.057 181.064 172.346  1.00  0.00     0.030 A 
ATOM      3  C   UNL     1      37.885 181.817 172.349  1.00  0.00     0.046 A 
ATOM      4  C   UNL     1      37.744 182.927 173.139  1.00  0.00     0.003 A 
ATOM      5  C   UNL     1      36.485 183.437 172.912  1.00  0.00     0.028 A 
ATOM      6  C   UNL     1      35.912 182.588 171.971  1.00  0.00     0.083 A 
ATOM      7  N   UNL     1      36.772 181.599 171.630  1.00  0.00    -0.361 N 
ATOM      8  C   UNL     1      38.763 183.364 173.982  1.00  0.00     0.056 A 
ATOM      9  C   UNL     1      39.963 182.627 174.005  1.00  0.00     0.116 A 
ATOM     10  H   UNL     1      36.601 180.828 170.947  1.00  0.00     0.166 HD
ENDROOT
BRANCH   9  11
ATOM     11  O   UNL     1      41.002 183.037 174.836  1.00  0.00    -0.508 OA
ATOM     12  H   UNL     1      41.963 183.049 174.515  1.00  0.00     0.293 HD
ENDBRANCH   9  11
TORSDOF 1
ENDMDL
