MODEL 1
REMARK VINA RESULT:    -7.815      0.000      0.000
REMARK INTER + INTRA:          -8.283
REMARK INTER:                  -8.500
REMARK INTRA:                   0.217
REMARK UNBOUND:                 0.217
REMARK SMILES C[C@H]1[C@H](C)CC[C@@]2(C(=O)[O-])CC[C@]3(C)C(=CC[C@@H]4[C@]5(C)CC[C@H](O)C(C)(C)[C@H]5CC[C@@]43C)[C@H]12
REMARK SMILES IDX 7 1 6 2 11 3 33 4 5 5 12 6 15 7 2 8 3 9 13 10 16 11 1 12
REMARK SMILES IDX 4 13 14 14 31 15 17 16 18 17 30 18 32 19 19 20 29 21 28 22
REMARK SMILES IDX 21 23 20 24 25 25 22 26 23 27 26 28 27 29 8 30 9 31 10 32
REMARK SMILES IDX 24 33
REMARK H PARENT 24 34
REMARK Flexibility Score: inf
ROOT
ATOM      1  C   UNL     1      10.988  10.123  46.190  1.00  0.00     0.017 C 
ATOM      2  C   UNL     1      11.830   8.928  45.675  1.00  0.00     0.014 C 
ATOM      3  C   UNL     1      10.660  11.060  44.973  1.00  0.00     0.014 C 
ATOM      4  C   UNL     1       9.659   9.585  46.820  1.00  0.00     0.030 C 
ATOM      5  C   UNL     1      12.148   7.939  46.792  1.00  0.00     0.004 C 
ATOM      6  C   UNL     1       9.183  11.521  44.872  1.00  0.00     0.013 C 
ATOM      7  C   UNL     1       8.800  10.797  47.248  1.00  0.00    -0.063 C 
ATOM      8  C   UNL     1       9.863   8.440  47.878  1.00  0.00    -0.003 C 
ATOM      9  C   UNL     1      10.858   7.342  47.369  1.00  0.00    -0.011 C 
ATOM     10  C   UNL     1       8.527  11.909  46.240  1.00  0.00    -0.006 C 
ATOM     11  C   UNL     1       8.200  10.876  48.451  1.00  0.00    -0.027 C 
ATOM     12  C   UNL     1       8.504   7.777  48.253  1.00  0.00     0.008 C 
ATOM     13  C   UNL     1      11.212   6.335  48.482  1.00  0.00     0.008 C 
ATOM     14  C   UNL     1       9.255  13.207  46.728  1.00  0.00     0.017 C 
ATOM     15  C   UNL     1       6.934  12.131  46.158  1.00  0.00    -0.020 C 
ATOM     16  C   UNL     1       7.092  11.848  48.769  1.00  0.00     0.032 C 
ATOM     17  C   UNL     1       6.410  12.636  47.579  1.00  0.00     0.006 C 
ATOM     18  C   UNL     1       6.184  10.795  45.807  1.00  0.00     0.008 C 
ATOM     19  C   UNL     1       6.635  13.154  45.018  1.00  0.00     0.012 C 
ATOM     20  C   UNL     1       4.818  12.719  47.739  1.00  0.00    -0.025 C 
ATOM     21  C   UNL     1       4.651  10.853  45.966  1.00  0.00     0.005 C 
ATOM     22  C   UNL     1       4.229  11.299  47.388  1.00  0.00     0.003 C 
ATOM     23  C   UNL     1       4.415  13.120  49.206  1.00  0.00     0.010 C 
ATOM     24  C   UNL     1       4.255  13.869  46.833  1.00  0.00     0.012 C 
ATOM     25  C   UNL     1       2.701  11.080  47.735  1.00  0.00    -0.006 C 
ATOM     26  C   UNL     1       2.920  12.946  49.507  1.00  0.00     0.033 C 
ATOM     27  C   UNL     1       2.440  11.512  49.217  1.00  0.00     0.120 C 
ATOM     28  C   UNL     1       1.735  11.836  46.788  1.00  0.00     0.014 C 
ATOM     29  C   UNL     1       2.335   9.573  47.607  1.00  0.00     0.014 C 
ENDROOT
BRANCH   1  30
ATOM     30  C   UNL     1      11.839  10.901  47.199  1.00  0.00     0.048 C 
ATOM     31  O   UNL     1      11.777  10.671  48.440  1.00  0.00    -0.550 OA
ATOM     32  O   UNL     1      12.709  11.891  46.742  1.00  0.00    -0.550 OA
ENDBRANCH   1  30
BRANCH  27  33
ATOM     33  O   UNL     1       3.069  10.613  50.100  1.00  0.00    -0.393 OA
ATOM     34  H   UNL     1       2.371  10.022  50.474  1.00  0.00     0.210 HD
ENDBRANCH  27  33
TORSDOF 2
ENDMDL
MODEL 2
REMARK VINA RESULT:    -7.534      2.603      7.110
REMARK INTER + INTRA:          -7.978
REMARK INTER:                  -8.204
REMARK INTRA:                   0.226
REMARK UNBOUND:                 0.217
REMARK SMILES C[C@H]1[C@H](C)CC[C@@]2(C(=O)[O-])CC[C@]3(C)C(=CC[C@@H]4[C@]5(C)CC[C@H](O)C(C)(C)[C@H]5CC[C@@]43C)[C@H]12
REMARK SMILES IDX 7 1 6 2 11 3 33 4 5 5 12 6 15 7 2 8 3 9 13 10 16 11 1 12
REMARK SMILES IDX 4 13 14 14 31 15 17 16 18 17 30 18 32 19 19 20 29 21 28 22
REMARK SMILES IDX 21 23 20 24 25 25 22 26 23 27 26 28 27 29 8 30 9 31 10 32
REMARK SMILES IDX 24 33
REMARK H PARENT 24 34
REMARK Flexibility Score: inf
ROOT
ATOM      1  C   UNL     1       7.835  12.507  45.882  1.00  0.00     0.017 C 
ATOM      2  C   UNL     1       7.192  13.899  46.106  1.00  0.00     0.014 C 
ATOM      3  C   UNL     1       9.376  12.704  45.645  1.00  0.00     0.014 C 
ATOM      4  C   UNL     1       7.603  11.621  47.152  1.00  0.00     0.030 C 
ATOM      5  C   UNL     1       5.698  13.790  46.397  1.00  0.00     0.004 C 
ATOM      6  C   UNL     1      10.297  11.750  46.448  1.00  0.00     0.013 C 
ATOM      7  C   UNL     1       8.327  10.270  46.940  1.00  0.00    -0.063 C 
ATOM      8  C   UNL     1       6.108  11.566  47.637  1.00  0.00    -0.003 C 
ATOM      9  C   UNL     1       5.454  12.989  47.683  1.00  0.00    -0.011 C 
ATOM     10  C   UNL     1       9.793  10.269  46.523  1.00  0.00    -0.006 C 
ATOM     11  C   UNL     1       7.743   9.084  47.196  1.00  0.00    -0.027 C 
ATOM     12  C   UNL     1       6.000  10.899  49.041  1.00  0.00     0.008 C 
ATOM     13  C   UNL     1       3.940  12.911  47.958  1.00  0.00     0.008 C 
ATOM     14  C   UNL     1       9.893   9.694  45.069  1.00  0.00     0.017 C 
ATOM     15  C   UNL     1      10.611   9.356  47.567  1.00  0.00    -0.020 C 
ATOM     16  C   UNL     1       8.507   7.792  47.340  1.00  0.00     0.032 C 
ATOM     17  C   UNL     1      10.083   7.853  47.460  1.00  0.00     0.006 C 
ATOM     18  C   UNL     1      10.401   9.844  49.046  1.00  0.00     0.008 C 
ATOM     19  C   UNL     1      12.133   9.475  47.243  1.00  0.00     0.012 C 
ATOM     20  C   UNL     1      10.647   6.843  48.569  1.00  0.00    -0.025 C 
ATOM     21  C   UNL     1      10.927   8.879  50.128  1.00  0.00     0.005 C 
ATOM     22  C   UNL     1      10.324   7.459  49.984  1.00  0.00     0.003 C 
ATOM     23  C   UNL     1       9.980   5.425  48.436  1.00  0.00     0.010 C 
ATOM     24  C   UNL     1      12.178   6.596  48.330  1.00  0.00     0.012 C 
ATOM     25  C   UNL     1      10.556   6.502  51.223  1.00  0.00    -0.006 C 
ATOM     26  C   UNL     1      10.257   4.495  49.626  1.00  0.00     0.033 C 
ATOM     27  C   UNL     1       9.840   5.136  50.962  1.00  0.00     0.120 C 
ATOM     28  C   UNL     1      12.053   6.259  51.548  1.00  0.00     0.014 C 
ATOM     29  C   UNL     1       9.936   7.130  52.504  1.00  0.00     0.014 C 
ENDROOT
BRANCH   1  30
ATOM     30  C   UNL     1       7.215  11.896  44.622  1.00  0.00     0.048 C 
ATOM     31  O   UNL     1       6.316  11.009  44.685  1.00  0.00    -0.550 OA
ATOM     32  O   UNL     1       7.648  12.325  43.368  1.00  0.00    -0.550 OA
ENDBRANCH   1  30
BRANCH  27  33
ATOM     33  O   UNL     1       8.442   5.310  50.990  1.00  0.00    -0.393 OA
ATOM     34  H   UNL     1       8.247   6.086  51.570  1.00  0.00     0.210 HD
ENDBRANCH  27  33
TORSDOF 2
ENDMDL
MODEL 3
REMARK VINA RESULT:    -7.396      5.185      9.073
REMARK INTER + INTRA:          -7.828
REMARK INTER:                  -8.046
REMARK INTRA:                   0.218
REMARK UNBOUND:                 0.217
REMARK SMILES C[C@H]1[C@H](C)CC[C@@]2(C(=O)[O-])CC[C@]3(C)C(=CC[C@@H]4[C@]5(C)CC[C@H](O)C(C)(C)[C@H]5CC[C@@]43C)[C@H]12
REMARK SMILES IDX 7 1 6 2 11 3 33 4 5 5 12 6 15 7 2 8 3 9 13 10 16 11 1 12
REMARK SMILES IDX 4 13 14 14 31 15 17 16 18 17 30 18 32 19 19 20 29 21 28 22
REMARK SMILES IDX 21 23 20 24 25 25 22 26 23 27 26 28 27 29 8 30 9 31 10 32
REMARK SMILES IDX 24 33
REMARK H PARENT 24 34
REMARK Flexibility Score: inf
ROOT
ATOM      1  C   UNL     1      11.262   3.115  54.255  1.00  0.00     0.017 C 
ATOM      2  C   UNL     1      10.763   1.752  54.796  1.00  0.00     0.014 C 
ATOM      3  C   UNL     1      12.618   2.881  53.495  1.00  0.00     0.014 C 
ATOM      4  C   UNL     1      10.197   3.702  53.269  1.00  0.00     0.030 C 
ATOM      5  C   UNL     1       9.419   1.885  55.505  1.00  0.00     0.004 C 
ATOM      6  C   UNL     1      12.728   3.568  52.110  1.00  0.00     0.013 C 
ATOM      7  C   UNL     1      10.755   5.017  52.678  1.00  0.00    -0.063 C 
ATOM      8  C   UNL     1       8.734   3.738  53.847  1.00  0.00    -0.003 C 
ATOM      9  C   UNL     1       8.341   2.386  54.534  1.00  0.00    -0.011 C 
ATOM     10  C   UNL     1      12.147   5.022  52.056  1.00  0.00    -0.006 C 
ATOM     11  C   UNL     1      10.028   6.148  52.604  1.00  0.00    -0.027 C 
ATOM     12  C   UNL     1       7.701   4.073  52.731  1.00  0.00     0.008 C 
ATOM     13  C   UNL     1       6.994   2.494  55.274  1.00  0.00     0.008 C 
ATOM     14  C   UNL     1      13.084   5.905  52.949  1.00  0.00     0.017 C 
ATOM     15  C   UNL     1      12.029   5.620  50.566  1.00  0.00    -0.020 C 
ATOM     16  C   UNL     1      10.398   7.324  51.734  1.00  0.00     0.032 C 
ATOM     17  C   UNL     1      11.543   7.138  50.657  1.00  0.00     0.006 C 
ATOM     18  C   UNL     1      10.983   4.822  49.706  1.00  0.00     0.008 C 
ATOM     19  C   UNL     1      13.417   5.483  49.866  1.00  0.00     0.012 C 
ATOM     20  C   UNL     1      11.179   7.832  49.260  1.00  0.00    -0.025 C 
ATOM     21  C   UNL     1      10.612   5.481  48.362  1.00  0.00     0.005 C 
ATOM     22  C   UNL     1      10.099   6.932  48.547  1.00  0.00     0.003 C 
ATOM     23  C   UNL     1      10.610   9.282  49.478  1.00  0.00     0.010 C 
ATOM     24  C   UNL     1      12.485   8.031  48.413  1.00  0.00     0.012 C 
ATOM     25  C   UNL     1       9.402   7.565  47.274  1.00  0.00    -0.006 C 
ATOM     26  C   UNL     1       9.982   9.898  48.219  1.00  0.00     0.033 C 
ATOM     27  C   UNL     1       8.881   8.997  47.630  1.00  0.00     0.120 C 
ATOM     28  C   UNL     1      10.326   7.634  46.031  1.00  0.00     0.014 C 
ATOM     29  C   UNL     1       8.179   6.703  46.852  1.00  0.00     0.014 C 
ENDROOT
BRANCH   1  30
ATOM     30  C   UNL     1      11.519   4.034  55.453  1.00  0.00     0.048 C 
ATOM     31  O   UNL     1      10.654   4.863  55.853  1.00  0.00    -0.550 OA
ATOM     32  O   UNL     1      12.739   3.960  56.125  1.00  0.00    -0.550 OA
ENDBRANCH   1  30
BRANCH  27  33
ATOM     33  O   UNL     1       7.804   8.909  48.534  1.00  0.00    -0.393 OA
ATOM     34  H   UNL     1       7.689   9.797  48.952  1.00  0.00     0.210 HD
ENDBRANCH  27  33
TORSDOF 2
ENDMDL
MODEL 4
REMARK VINA RESULT:    -7.336      3.749      7.645
REMARK INTER + INTRA:          -7.762
REMARK INTER:                  -7.982
REMARK INTRA:                   0.220
REMARK UNBOUND:                 0.217
REMARK SMILES C[C@H]1[C@H](C)CC[C@@]2(C(=O)[O-])CC[C@]3(C)C(=CC[C@@H]4[C@]5(C)CC[C@H](O)C(C)(C)[C@H]5CC[C@@]43C)[C@H]12
REMARK SMILES IDX 7 1 6 2 11 3 33 4 5 5 12 6 15 7 2 8 3 9 13 10 16 11 1 12
REMARK SMILES IDX 4 13 14 14 31 15 17 16 18 17 30 18 32 19 19 20 29 21 28 22
REMARK SMILES IDX 21 23 20 24 25 25 22 26 23 27 26 28 27 29 8 30 9 31 10 32
REMARK SMILES IDX 24 33
REMARK H PARENT 24 34
REMARK Flexibility Score: inf
ROOT
ATOM      1  C   UNL     1      10.906   5.126  52.624  1.00  0.00     0.017 C 
ATOM      2  C   UNL     1      10.714   5.209  54.160  1.00  0.00     0.014 C 
ATOM      3  C   UNL     1       9.664   4.387  52.008  1.00  0.00     0.014 C 
ATOM      4  C   UNL     1      11.006   6.575  52.037  1.00  0.00     0.030 C 
ATOM      5  C   UNL     1      11.858   5.962  54.831  1.00  0.00     0.004 C 
ATOM      6  C   UNL     1       9.042   5.065  50.760  1.00  0.00     0.013 C 
ATOM      7  C   UNL     1      11.110   6.469  50.498  1.00  0.00    -0.063 C 
ATOM      8  C   UNL     1      12.052   7.495  52.766  1.00  0.00    -0.003 C 
ATOM      9  C   UNL     1      11.923   7.409  54.326  1.00  0.00    -0.011 C 
ATOM     10  C   UNL     1      10.086   5.633  49.739  1.00  0.00    -0.006 C 
ATOM     11  C   UNL     1      12.016   7.159  49.781  1.00  0.00    -0.027 C 
ATOM     12  C   UNL     1      11.903   8.978  52.313  1.00  0.00     0.008 C 
ATOM     13  C   UNL     1      13.076   8.148  55.033  1.00  0.00     0.008 C 
ATOM     14  C   UNL     1      10.819   4.393  49.122  1.00  0.00     0.017 C 
ATOM     15  C   UNL     1       9.436   6.556  48.590  1.00  0.00    -0.020 C 
ATOM     16  C   UNL     1      11.925   7.356  48.288  1.00  0.00     0.032 C 
ATOM     17  C   UNL     1      10.578   6.967  47.554  1.00  0.00     0.006 C 
ATOM     18  C   UNL     1       8.821   7.872  49.189  1.00  0.00     0.008 C 
ATOM     19  C   UNL     1       8.278   5.760  47.912  1.00  0.00     0.012 C 
ATOM     20  C   UNL     1      10.154   8.050  46.452  1.00  0.00    -0.025 C 
ATOM     21  C   UNL     1       8.416   8.931  48.144  1.00  0.00     0.005 C 
ATOM     22  C   UNL     1       9.596   9.313  47.215  1.00  0.00     0.003 C 
ATOM     23  C   UNL     1      11.381   8.462  45.558  1.00  0.00     0.010 C 
ATOM     24  C   UNL     1       9.120   7.415  45.458  1.00  0.00     0.012 C 
ATOM     25  C   UNL     1       9.365  10.607  46.333  1.00  0.00    -0.006 C 
ATOM     26  C   UNL     1      11.119   9.690  44.674  1.00  0.00     0.033 C 
ATOM     27  C   UNL     1      10.658  10.903  45.502  1.00  0.00     0.120 C 
ATOM     28  C   UNL     1       8.142  10.502  45.386  1.00  0.00     0.014 C 
ATOM     29  C   UNL     1       9.094  11.835  47.248  1.00  0.00     0.014 C 
ENDROOT
BRANCH   1  30
ATOM     30  C   UNL     1      12.163   4.296  52.348  1.00  0.00     0.048 C 
ATOM     31  O   UNL     1      13.277   4.838  52.098  1.00  0.00    -0.550 OA
ATOM     32  O   UNL     1      12.084   2.904  52.372  1.00  0.00    -0.550 OA
ENDBRANCH   1  30
BRANCH  27  33
ATOM     33  O   UNL     1      11.697  11.318  46.357  1.00  0.00    -0.393 OA
ATOM     34  H   UNL     1      11.967  12.228  46.082  1.00  0.00     0.210 HD
ENDBRANCH  27  33
TORSDOF 2
ENDMDL
MODEL 5
REMARK VINA RESULT:    -6.979      4.481      9.226
REMARK INTER + INTRA:          -7.375
REMARK INTER:                  -7.591
REMARK INTRA:                   0.217
REMARK UNBOUND:                 0.217
REMARK SMILES C[C@H]1[C@H](C)CC[C@@]2(C(=O)[O-])CC[C@]3(C)C(=CC[C@@H]4[C@]5(C)CC[C@H](O)C(C)(C)[C@H]5CC[C@@]43C)[C@H]12
REMARK SMILES IDX 7 1 6 2 11 3 33 4 5 5 12 6 15 7 2 8 3 9 13 10 16 11 1 12
REMARK SMILES IDX 4 13 14 14 31 15 17 16 18 17 30 18 32 19 19 20 29 21 28 22
REMARK SMILES IDX 21 23 20 24 25 25 22 26 23 27 26 28 27 29 8 30 9 31 10 32
REMARK SMILES IDX 24 33
REMARK H PARENT 24 34
REMARK Flexibility Score: inf
ROOT
ATOM      1  C   UNL     1      10.425   8.239  47.604  1.00  0.00     0.017 C 
ATOM      2  C   UNL     1      10.931   9.494  46.847  1.00  0.00     0.014 C 
ATOM      3  C   UNL     1      11.172   6.980  47.032  1.00  0.00     0.014 C 
ATOM      4  C   UNL     1      10.739   8.395  49.130  1.00  0.00     0.030 C 
ATOM      5  C   UNL     1      10.289  10.771  47.381  1.00  0.00     0.004 C 
ATOM      6  C   UNL     1      11.737   6.006  48.097  1.00  0.00     0.013 C 
ATOM      7  C   UNL     1      10.303   7.097  49.849  1.00  0.00    -0.063 C 
ATOM      8  C   UNL     1      10.257   9.757  49.752  1.00  0.00    -0.003 C 
ATOM      9  C   UNL     1      10.650  10.982  48.857  1.00  0.00    -0.011 C 
ATOM     10  C   UNL     1      10.788   5.753  49.318  1.00  0.00    -0.006 C 
ATOM     11  C   UNL     1       9.584   7.102  50.987  1.00  0.00    -0.027 C 
ATOM     12  C   UNL     1      10.838   9.952  51.185  1.00  0.00     0.008 C 
ATOM     13  C   UNL     1      10.003  12.286  49.362  1.00  0.00     0.008 C 
ATOM     14  C   UNL     1       9.553   4.967  48.761  1.00  0.00     0.017 C 
ATOM     15  C   UNL     1      11.487   4.956  50.530  1.00  0.00    -0.020 C 
ATOM     16  C   UNL     1       9.444   5.904  51.893  1.00  0.00     0.032 C 
ATOM     17  C   UNL     1      10.389   4.658  51.650  1.00  0.00     0.006 C 
ATOM     18  C   UNL     1      12.638   5.801  51.186  1.00  0.00     0.008 C 
ATOM     19  C   UNL     1      12.124   3.650  49.962  1.00  0.00     0.012 C 
ATOM     20  C   UNL     1      10.949   4.046  53.021  1.00  0.00    -0.025 C 
ATOM     21  C   UNL     1      13.183   5.232  52.513  1.00  0.00     0.005 C 
ATOM     22  C   UNL     1      12.061   5.025  53.561  1.00  0.00     0.003 C 
ATOM     23  C   UNL     1       9.802   3.896  54.086  1.00  0.00     0.010 C 
ATOM     24  C   UNL     1      11.469   2.586  52.774  1.00  0.00     0.012 C 
ATOM     25  C   UNL     1      12.563   4.753  55.037  1.00  0.00    -0.006 C 
ATOM     26  C   UNL     1      10.308   3.584  55.502  1.00  0.00     0.033 C 
ATOM     27  C   UNL     1      11.327   4.630  55.989  1.00  0.00     0.120 C 
ATOM     28  C   UNL     1      13.456   3.491  55.166  1.00  0.00     0.014 C 
ATOM     29  C   UNL     1      13.431   5.944  55.533  1.00  0.00     0.014 C 
ENDROOT
BRANCH   1  30
ATOM     30  C   UNL     1       8.925   8.092  47.327  1.00  0.00     0.048 C 
ATOM     31  O   UNL     1       8.055   8.600  48.090  1.00  0.00    -0.550 OA
ATOM     32  O   UNL     1       8.501   7.381  46.205  1.00  0.00    -0.550 OA
ENDBRANCH   1  30
BRANCH  27  33
ATOM     33  O   UNL     1      10.696   5.882  56.125  1.00  0.00    -0.393 OA
ATOM     34  H   UNL     1      10.996   6.279  56.978  1.00  0.00     0.210 HD
ENDBRANCH  27  33
TORSDOF 2
ENDMDL
MODEL 6
REMARK VINA RESULT:    -6.842      4.137      7.550
REMARK INTER + INTRA:          -7.225
REMARK INTER:                  -7.445
REMARK INTRA:                   0.220
REMARK UNBOUND:                 0.217
REMARK SMILES C[C@H]1[C@H](C)CC[C@@]2(C(=O)[O-])CC[C@]3(C)C(=CC[C@@H]4[C@]5(C)CC[C@H](O)C(C)(C)[C@H]5CC[C@@]43C)[C@H]12
REMARK SMILES IDX 7 1 6 2 11 3 33 4 5 5 12 6 15 7 2 8 3 9 13 10 16 11 1 12
REMARK SMILES IDX 4 13 14 14 31 15 17 16 18 17 30 18 32 19 19 20 29 21 28 22
REMARK SMILES IDX 21 23 20 24 25 25 22 26 23 27 26 28 27 29 8 30 9 31 10 32
REMARK SMILES IDX 24 33
REMARK H PARENT 24 34
REMARK Flexibility Score: inf
ROOT
ATOM      1  C   UNL     1      10.935   9.729  45.683  1.00  0.00     0.017 C 
ATOM      2  C   UNL     1      11.880  10.109  44.515  1.00  0.00     0.014 C 
ATOM      3  C   UNL     1       9.993   8.568  45.201  1.00  0.00     0.014 C 
ATOM      4  C   UNL     1      11.789   9.248  46.904  1.00  0.00     0.030 C 
ATOM      5  C   UNL     1      12.867  11.200  44.920  1.00  0.00     0.004 C 
ATOM      6  C   UNL     1       9.847   7.381  46.188  1.00  0.00     0.013 C 
ATOM      7  C   UNL     1      10.823   8.794  48.023  1.00  0.00    -0.063 C 
ATOM      8  C   UNL     1      12.947  10.232  47.310  1.00  0.00    -0.003 C 
ATOM      9  C   UNL     1      13.767  10.717  46.066  1.00  0.00    -0.011 C 
ATOM     10  C   UNL     1       9.717   7.798  47.693  1.00  0.00    -0.006 C 
ATOM     11  C   UNL     1      10.969   9.170  49.307  1.00  0.00    -0.027 C 
ATOM     12  C   UNL     1      13.909   9.568  48.339  1.00  0.00     0.008 C 
ATOM     13  C   UNL     1      14.762  11.833  46.440  1.00  0.00     0.008 C 
ATOM     14  C   UNL     1       8.337   8.528  47.832  1.00  0.00     0.017 C 
ATOM     15  C   UNL     1       9.829   6.564  48.722  1.00  0.00    -0.020 C 
ATOM     16  C   UNL     1      10.282   8.486  50.462  1.00  0.00     0.032 C 
ATOM     17  C   UNL     1       9.561   7.101  50.201  1.00  0.00     0.006 C 
ATOM     18  C   UNL     1      11.260   5.915  48.688  1.00  0.00     0.008 C 
ATOM     19  C   UNL     1       8.804   5.468  48.294  1.00  0.00     0.012 C 
ATOM     20  C   UNL     1       9.829   6.047  51.377  1.00  0.00    -0.025 C 
ATOM     21  C   UNL     1      11.540   4.906  49.820  1.00  0.00     0.005 C 
ATOM     22  C   UNL     1      11.308   5.524  51.222  1.00  0.00     0.003 C 
ATOM     23  C   UNL     1       9.641   6.713  52.790  1.00  0.00     0.010 C 
ATOM     24  C   UNL     1       8.754   4.906  51.319  1.00  0.00     0.012 C 
ATOM     25  C   UNL     1      11.871   4.673  52.432  1.00  0.00    -0.006 C 
ATOM     26  C   UNL     1      10.150   5.851  53.954  1.00  0.00     0.033 C 
ATOM     27  C   UNL     1      11.624   5.450  53.768  1.00  0.00     0.120 C 
ATOM     28  C   UNL     1      11.261   3.251  52.528  1.00  0.00     0.014 C 
ATOM     29  C   UNL     1      13.406   4.472  52.274  1.00  0.00     0.014 C 
ENDROOT
BRANCH   1  30
ATOM     30  C   UNL     1      10.078  10.955  46.016  1.00  0.00     0.048 C 
ATOM     31  O   UNL     1      10.378  11.740  46.959  1.00  0.00    -0.550 OA
ATOM     32  O   UNL     1       8.935  11.218  45.261  1.00  0.00    -0.550 OA
ENDBRANCH   1  30
BRANCH  27  33
ATOM     33  O   UNL     1      12.439   6.598  53.818  1.00  0.00    -0.393 OA
ATOM     34  H   UNL     1      12.961   6.632  52.980  1.00  0.00     0.210 HD
ENDBRANCH  27  33
TORSDOF 2
ENDMDL
MODEL 7
REMARK VINA RESULT:    -6.779      3.101      5.947
REMARK INTER + INTRA:          -7.156
REMARK INTER:                  -7.380
REMARK INTRA:                   0.224
REMARK UNBOUND:                 0.217
REMARK SMILES C[C@H]1[C@H](C)CC[C@@]2(C(=O)[O-])CC[C@]3(C)C(=CC[C@@H]4[C@]5(C)CC[C@H](O)C(C)(C)[C@H]5CC[C@@]43C)[C@H]12
REMARK SMILES IDX 7 1 6 2 11 3 33 4 5 5 12 6 15 7 2 8 3 9 13 10 16 11 1 12
REMARK SMILES IDX 4 13 14 14 31 15 17 16 18 17 30 18 32 19 19 20 29 21 28 22
REMARK SMILES IDX 21 23 20 24 25 25 22 26 23 27 26 28 27 29 8 30 9 31 10 32
REMARK SMILES IDX 24 33
REMARK H PARENT 24 34
REMARK Flexibility Score: inf
ROOT
ATOM      1  C   UNL     1      12.806   6.000  49.752  1.00  0.00     0.017 C 
ATOM      2  C   UNL     1      14.286   5.826  50.178  1.00  0.00     0.014 C 
ATOM      3  C   UNL     1      11.962   6.363  51.026  1.00  0.00     0.014 C 
ATOM      4  C   UNL     1      12.704   7.157  48.702  1.00  0.00     0.030 C 
ATOM      5  C   UNL     1      15.185   5.522  48.984  1.00  0.00     0.004 C 
ATOM      6  C   UNL     1      10.975   7.545  50.853  1.00  0.00     0.013 C 
ATOM      7  C   UNL     1      11.212   7.369  48.357  1.00  0.00    -0.063 C 
ATOM      8  C   UNL     1      13.708   7.026  47.497  1.00  0.00    -0.003 C 
ATOM      9  C   UNL     1      15.159   6.681  47.978  1.00  0.00    -0.011 C 
ATOM     10  C   UNL     1      10.206   7.556  49.488  1.00  0.00    -0.006 C 
ATOM     11  C   UNL     1      10.767   7.488  47.092  1.00  0.00    -0.027 C 
ATOM     12  C   UNL     1      13.738   8.333  46.651  1.00  0.00     0.008 C 
ATOM     13  C   UNL     1      16.088   6.353  46.793  1.00  0.00     0.008 C 
ATOM     14  C   UNL     1       9.250   6.316  49.509  1.00  0.00     0.017 C 
ATOM     15  C   UNL     1       9.389   8.917  49.212  1.00  0.00    -0.020 C 
ATOM     16  C   UNL     1       9.409   8.037  46.732  1.00  0.00     0.032 C 
ATOM     17  C   UNL     1       8.560   8.754  47.859  1.00  0.00     0.006 C 
ATOM     18  C   UNL     1      10.356  10.145  49.050  1.00  0.00     0.008 C 
ATOM     19  C   UNL     1       8.470   9.199  50.442  1.00  0.00     0.012 C 
ATOM     20  C   UNL     1       7.842  10.083  47.324  1.00  0.00    -0.025 C 
ATOM     21  C   UNL     1       9.685  11.431  48.525  1.00  0.00     0.005 C 
ATOM     22  C   UNL     1       8.949  11.198  47.182  1.00  0.00     0.003 C 
ATOM     23  C   UNL     1       7.149   9.834  45.934  1.00  0.00     0.010 C 
ATOM     24  C   UNL     1       6.676  10.481  48.295  1.00  0.00     0.012 C 
ATOM     25  C   UNL     1       8.510  12.513  46.419  1.00  0.00    -0.006 C 
ATOM     26  C   UNL     1       6.688  11.120  45.233  1.00  0.00     0.033 C 
ATOM     27  C   UNL     1       7.843  12.123  45.059  1.00  0.00     0.120 C 
ATOM     28  C   UNL     1       7.550  13.415  47.238  1.00  0.00     0.014 C 
ATOM     29  C   UNL     1       9.757  13.388  46.106  1.00  0.00     0.014 C 
ENDROOT
BRANCH   1  30
ATOM     30  C   UNL     1      12.313   4.661  49.196  1.00  0.00     0.048 C 
ATOM     31  O   UNL     1      12.260   4.435  47.954  1.00  0.00    -0.550 OA
ATOM     32  O   UNL     1      11.911   3.659  50.079  1.00  0.00    -0.550 OA
ENDBRANCH   1  30
BRANCH  27  33
ATOM     33  O   UNL     1       8.808  11.589  44.182  1.00  0.00    -0.393 OA
ATOM     34  H   UNL     1       8.380  11.471  43.300  1.00  0.00     0.210 HD
ENDBRANCH  27  33
TORSDOF 2
ENDMDL
MODEL 8
REMARK VINA RESULT:    -6.761      4.163      7.905
REMARK INTER + INTRA:          -7.137
REMARK INTER:                  -7.355
REMARK INTRA:                   0.218
REMARK UNBOUND:                 0.217
REMARK SMILES C[C@H]1[C@H](C)CC[C@@]2(C(=O)[O-])CC[C@]3(C)C(=CC[C@@H]4[C@]5(C)CC[C@H](O)C(C)(C)[C@H]5CC[C@@]43C)[C@H]12
REMARK SMILES IDX 7 1 6 2 11 3 33 4 5 5 12 6 15 7 2 8 3 9 13 10 16 11 1 12
REMARK SMILES IDX 4 13 14 14 31 15 17 16 18 17 30 18 32 19 19 20 29 21 28 22
REMARK SMILES IDX 21 23 20 24 25 25 22 26 23 27 26 28 27 29 8 30 9 31 10 32
REMARK SMILES IDX 24 33
REMARK H PARENT 24 34
REMARK Flexibility Score: inf
ROOT
ATOM      1  C   UNL     1      12.418   5.627  53.290  1.00  0.00     0.017 C 
ATOM      2  C   UNL     1      13.735   5.537  54.103  1.00  0.00     0.014 C 
ATOM      3  C   UNL     1      11.558   6.809  53.867  1.00  0.00     0.014 C 
ATOM      4  C   UNL     1      12.758   5.904  51.786  1.00  0.00     0.030 C 
ATOM      5  C   UNL     1      14.653   4.443  53.568  1.00  0.00     0.004 C 
ATOM      6  C   UNL     1      10.955   7.767  52.809  1.00  0.00     0.013 C 
ATOM      7  C   UNL     1      11.429   6.075  51.013  1.00  0.00    -0.063 C 
ATOM      8  C   UNL     1      13.824   4.923  51.174  1.00  0.00    -0.003 C 
ATOM      9  C   UNL     1      15.060   4.737  52.119  1.00  0.00    -0.011 C 
ATOM     10  C   UNL     1      10.385   7.056  51.535  1.00  0.00    -0.006 C 
ATOM     11  C   UNL     1      11.186   5.461  49.840  1.00  0.00    -0.027 C 
ATOM     12  C   UNL     1      14.306   5.422  49.779  1.00  0.00     0.008 C 
ATOM     13  C   UNL     1      16.000   3.625  51.613  1.00  0.00     0.008 C 
ATOM     14  C   UNL     1       9.134   6.239  52.007  1.00  0.00     0.017 C 
ATOM     15  C   UNL     1      10.004   8.067  50.341  1.00  0.00    -0.020 C 
ATOM     16  C   UNL     1      10.080   5.867  48.899  1.00  0.00     0.032 C 
ATOM     17  C   UNL     1       9.328   7.235  49.159  1.00  0.00     0.006 C 
ATOM     18  C   UNL     1      11.278   8.786  49.767  1.00  0.00     0.008 C 
ATOM     19  C   UNL     1       9.056   9.168  50.909  1.00  0.00     0.012 C 
ATOM     20  C   UNL     1       9.064   8.049  47.804  1.00  0.00    -0.025 C 
ATOM     21  C   UNL     1      11.046   9.566  48.457  1.00  0.00     0.005 C 
ATOM     22  C   UNL     1      10.439   8.672  47.347  1.00  0.00     0.003 C 
ATOM     23  C   UNL     1       8.500   7.108  46.677  1.00  0.00     0.010 C 
ATOM     24  C   UNL     1       7.942   9.120  48.041  1.00  0.00     0.012 C 
ATOM     25  C   UNL     1      10.466   9.296  45.893  1.00  0.00    -0.006 C 
ATOM     26  C   UNL     1       8.489   7.750  45.282  1.00  0.00     0.033 C 
ATOM     27  C   UNL     1       9.884   8.259  44.875  1.00  0.00     0.120 C 
ATOM     28  C   UNL     1       9.695  10.636  45.779  1.00  0.00     0.014 C 
ATOM     29  C   UNL     1      11.931   9.607  45.473  1.00  0.00     0.014 C 
ENDROOT
BRANCH   1  30
ATOM     30  C   UNL     1      11.651   4.316  53.484  1.00  0.00     0.048 C 
ATOM     31  O   UNL     1      11.721   3.373  52.645  1.00  0.00    -0.550 OA
ATOM     32  O   UNL     1      10.853   4.150  54.615  1.00  0.00    -0.550 OA
ENDBRANCH   1  30
BRANCH  27  33
ATOM     33  O   UNL     1      10.766   7.169  44.738  1.00  0.00    -0.393 OA
ATOM     34  H   UNL     1      11.587   7.501  44.300  1.00  0.00     0.210 HD
ENDBRANCH  27  33
TORSDOF 2
ENDMDL
MODEL 9
REMARK VINA RESULT:    -6.724      2.715      5.505
REMARK INTER + INTRA:          -7.097
REMARK INTER:                  -7.314
REMARK INTRA:                   0.216
REMARK UNBOUND:                 0.217
REMARK SMILES C[C@H]1[C@H](C)CC[C@@]2(C(=O)[O-])CC[C@]3(C)C(=CC[C@@H]4[C@]5(C)CC[C@H](O)C(C)(C)[C@H]5CC[C@@]43C)[C@H]12
REMARK SMILES IDX 7 1 6 2 11 3 33 4 5 5 12 6 15 7 2 8 3 9 13 10 16 11 1 12
REMARK SMILES IDX 4 13 14 14 31 15 17 16 18 17 30 18 32 19 19 20 29 21 28 22
REMARK SMILES IDX 21 23 20 24 25 25 22 26 23 27 26 28 27 29 8 30 9 31 10 32
REMARK SMILES IDX 24 33
REMARK H PARENT 24 34
REMARK Flexibility Score: inf
ROOT
ATOM      1  C   UNL     1      11.772   5.266  50.023  1.00  0.00     0.017 C 
ATOM      2  C   UNL     1      11.443   4.011  50.872  1.00  0.00     0.014 C 
ATOM      3  C   UNL     1      11.897   4.829  48.519  1.00  0.00     0.014 C 
ATOM      4  C   UNL     1      10.616   6.311  50.177  1.00  0.00     0.030 C 
ATOM      5  C   UNL     1      11.253   4.361  52.344  1.00  0.00     0.004 C 
ATOM      6  C   UNL     1      11.145   5.726  47.503  1.00  0.00     0.013 C 
ATOM      7  C   UNL     1      10.924   7.514  49.256  1.00  0.00    -0.063 C 
ATOM      8  C   UNL     1      10.227   6.628  51.668  1.00  0.00    -0.003 C 
ATOM      9  C   UNL     1      10.073   5.325  52.524  1.00  0.00    -0.011 C 
ATOM     10  C   UNL     1      11.253   7.263  47.789  1.00  0.00    -0.006 C 
ATOM     11  C   UNL     1      10.826   8.791  49.670  1.00  0.00    -0.027 C 
ATOM     12  C   UNL     1       8.908   7.455  51.737  1.00  0.00     0.008 C 
ATOM     13  C   UNL     1       9.896   5.645  54.021  1.00  0.00     0.008 C 
ATOM     14  C   UNL     1      12.750   7.654  47.544  1.00  0.00     0.017 C 
ATOM     15  C   UNL     1      10.262   8.162  46.892  1.00  0.00    -0.020 C 
ATOM     16  C   UNL     1      10.772   9.972  48.733  1.00  0.00     0.032 C 
ATOM     17  C   UNL     1      10.555   9.703  47.189  1.00  0.00     0.006 C 
ATOM     18  C   UNL     1       8.756   7.874  47.234  1.00  0.00     0.008 C 
ATOM     19  C   UNL     1      10.484   7.795  45.391  1.00  0.00     0.012 C 
ATOM     20  C   UNL     1       9.525  10.740  46.531  1.00  0.00    -0.025 C 
ATOM     21  C   UNL     1       7.751   8.870  46.619  1.00  0.00     0.005 C 
ATOM     22  C   UNL     1       8.075  10.336  47.001  1.00  0.00     0.003 C 
ATOM     23  C   UNL     1       9.843  12.215  46.978  1.00  0.00     0.010 C 
ATOM     24  C   UNL     1       9.699  10.741  44.972  1.00  0.00     0.012 C 
ATOM     25  C   UNL     1       6.930  11.381  46.685  1.00  0.00    -0.006 C 
ATOM     26  C   UNL     1       8.740  13.222  46.619  1.00  0.00     0.033 C 
ATOM     27  C   UNL     1       7.372  12.798  47.183  1.00  0.00     0.120 C 
ATOM     28  C   UNL     1       6.546  11.446  45.184  1.00  0.00     0.014 C 
ATOM     29  C   UNL     1       5.629  10.993  47.444  1.00  0.00     0.014 C 
ENDROOT
BRANCH   1  30
ATOM     30  C   UNL     1      13.123   5.815  50.493  1.00  0.00     0.048 C 
ATOM     31  O   UNL     1      13.205   6.706  51.385  1.00  0.00    -0.550 OA
ATOM     32  O   UNL     1      14.297   5.322  49.926  1.00  0.00    -0.550 OA
ENDBRANCH   1  30
BRANCH  27  33
ATOM     33  O   UNL     1       7.408  12.826  48.591  1.00  0.00    -0.393 OA
ATOM     34  H   UNL     1       7.722  13.721  48.865  1.00  0.00     0.210 HD
ENDBRANCH  27  33
TORSDOF 2
ENDMDL
