MODEL 1
REMARK VINA RESULT:    -6.886      0.000      0.000
REMARK INTER + INTRA:          -7.793
REMARK INTER:                  -7.490
REMARK INTRA:                  -0.303
REMARK UNBOUND:                -0.303
REMARK SMILES C=C1C[C@@]2(O)O[C@@]3(C[C@@H]2C(C)C)[C@@H](C)CC[C@@H]13
REMARK SMILES IDX 14 1 13 2 15 3 16 4 17 5 7 6 8 7 9 8 4 9 6 10 3 11 2 12 1 13
REMARK SMILES IDX 10 14 11 15 12 16 5 17
REMARK H PARENT 5 18
REMARK Flexibility Score: inf
ROOT
ATOM      1  C   UNL     1      35.774   5.237  -3.953  1.00  0.00     0.011 C 
ATOM      2  C   UNL     1      35.557   3.901  -3.229  1.00  0.00     0.019 C 
ATOM      3  C   UNL     1      35.039   2.803  -4.171  1.00  0.00     0.007 C 
ATOM      4  C   UNL     1      35.745   1.503  -3.775  1.00  0.00     0.011 C 
ATOM      5  C   UNL     1      36.540   1.813  -2.507  1.00  0.00     0.047 C 
ATOM      6  C   UNL     1      36.830   3.321  -2.593  1.00  0.00     0.081 C 
ATOM      7  C   UNL     1      37.181   3.915  -1.223  1.00  0.00     0.046 C 
ATOM      8  C   UNL     1      38.709   3.849  -1.202  1.00  0.00     0.054 C 
ATOM      9  C   UNL     1      39.048   3.221  -2.587  1.00  0.00     0.173 C 
ATOM     10  O   UNL     1      37.956   3.522  -3.421  1.00  0.00    -0.342 OA
ATOM     11  C   UNL     1      39.173   1.672  -2.517  1.00  0.00     0.096 C 
ATOM     12  C   UNL     1      37.819   0.999  -2.396  1.00  0.00    -0.066 C 
ATOM     13  C   UNL     1      37.754  -0.325  -2.197  1.00  0.00     0.008 C 
ENDROOT
BRANCH   8  14
ATOM     14  C   UNL     1      39.393   5.225  -0.907  1.00  0.00    -0.009 C 
ATOM     15  C   UNL     1      38.438   6.435  -0.935  1.00  0.00     0.008 C 
ATOM     16  C   UNL     1      40.158   5.188   0.425  1.00  0.00     0.008 C 
ENDBRANCH   8  14
BRANCH   9  17
ATOM     17  O   UNL     1      40.218   3.763  -3.148  1.00  0.00    -0.365 OA
ATOM     18  H   UNL     1      40.781   4.092  -2.400  1.00  0.00     0.214 HD
ENDBRANCH   9  17
TORSDOF 2
ENDMDL
MODEL 2
REMARK VINA RESULT:    -6.880      1.311      1.600
REMARK INTER + INTRA:          -7.786
REMARK INTER:                  -7.481
REMARK INTRA:                  -0.305
REMARK UNBOUND:                -0.303
REMARK SMILES C=C1C[C@@]2(O)O[C@@]3(C[C@@H]2C(C)C)[C@@H](C)CC[C@@H]13
REMARK SMILES IDX 14 1 13 2 15 3 16 4 17 5 7 6 8 7 9 8 4 9 6 10 3 11 2 12 1 13
REMARK SMILES IDX 10 14 11 15 12 16 5 17
REMARK H PARENT 5 18
REMARK Flexibility Score: inf
ROOT
ATOM      1  C   UNL     1      35.959   5.997  -2.069  1.00  0.00     0.011 C 
ATOM      2  C   UNL     1      36.066   4.482  -1.840  1.00  0.00     0.019 C 
ATOM      3  C   UNL     1      35.624   3.673  -3.069  1.00  0.00     0.007 C 
ATOM      4  C   UNL     1      36.585   2.486  -3.193  1.00  0.00     0.011 C 
ATOM      5  C   UNL     1      37.473   2.519  -1.949  1.00  0.00     0.047 C 
ATOM      6  C   UNL     1      37.489   3.997  -1.526  1.00  0.00     0.081 C 
ATOM      7  C   UNL     1      37.908   4.167  -0.060  1.00  0.00     0.046 C 
ATOM      8  C   UNL     1      39.415   4.409  -0.159  1.00  0.00     0.054 C 
ATOM      9  C   UNL     1      39.674   4.353  -1.695  1.00  0.00     0.173 C 
ATOM     10  O   UNL     1      38.450   4.683  -2.302  1.00  0.00    -0.342 OA
ATOM     11  C   UNL     1      40.068   2.926  -2.174  1.00  0.00     0.096 C 
ATOM     12  C   UNL     1      38.875   1.990  -2.208  1.00  0.00    -0.066 C 
ATOM     13  C   UNL     1      39.061   0.690  -2.477  1.00  0.00     0.008 C 
ENDROOT
BRANCH   8  14
ATOM     14  C   UNL     1      39.889   5.721   0.550  1.00  0.00    -0.009 C 
ATOM     15  C   UNL     1      38.748   6.662   0.985  1.00  0.00     0.008 C 
ATOM     16  C   UNL     1      40.797   5.405   1.748  1.00  0.00     0.008 C 
ENDBRANCH   8  14
BRANCH   9  17
ATOM     17  O   UNL     1      40.654   5.274  -2.107  1.00  0.00    -0.365 OA
ATOM     18  H   UNL     1      41.118   4.883  -2.893  1.00  0.00     0.214 HD
ENDBRANCH   9  17
TORSDOF 2
ENDMDL
MODEL 3
REMARK VINA RESULT:    -6.860      1.848      5.057
REMARK INTER + INTRA:          -7.765
REMARK INTER:                  -7.441
REMARK INTRA:                  -0.324
REMARK UNBOUND:                -0.303
REMARK SMILES C=C1C[C@@]2(O)O[C@@]3(C[C@@H]2C(C)C)[C@@H](C)CC[C@@H]13
REMARK SMILES IDX 14 1 13 2 15 3 16 4 17 5 7 6 8 7 9 8 4 9 6 10 3 11 2 12 1 13
REMARK SMILES IDX 10 14 11 15 12 16 5 17
REMARK H PARENT 5 18
REMARK Flexibility Score: inf
ROOT
ATOM      1  C   UNL     1      41.840   4.839  -0.532  1.00  0.00     0.011 C 
ATOM      2  C   UNL     1      40.621   4.903   0.400  1.00  0.00     0.019 C 
ATOM      3  C   UNL     1      40.330   6.331   0.885  1.00  0.00     0.007 C 
ATOM      4  C   UNL     1      38.808   6.501   0.890  1.00  0.00     0.011 C 
ATOM      5  C   UNL     1      38.219   5.127   0.568  1.00  0.00     0.047 C 
ATOM      6  C   UNL     1      39.313   4.421  -0.249  1.00  0.00     0.081 C 
ATOM      7  C   UNL     1      39.131   2.898  -0.252  1.00  0.00     0.046 C 
ATOM      8  C   UNL     1      38.329   2.651  -1.531  1.00  0.00     0.054 C 
ATOM      9  C   UNL     1      38.155   4.086  -2.113  1.00  0.00     0.173 C 
ATOM     10  O   UNL     1      39.221   4.842  -1.594  1.00  0.00    -0.342 OA
ATOM     11  C   UNL     1      36.831   4.756  -1.643  1.00  0.00     0.096 C 
ATOM     12  C   UNL     1      36.908   5.209  -0.197  1.00  0.00    -0.066 C 
ATOM     13  C   UNL     1      35.811   5.692   0.404  1.00  0.00     0.008 C 
ENDROOT
BRANCH   8  14
ATOM     14  C   UNL     1      38.991   1.615  -2.498  1.00  0.00    -0.009 C 
ATOM     15  C   UNL     1      40.525   1.514  -2.377  1.00  0.00     0.008 C 
ATOM     16  C   UNL     1      38.357   0.225  -2.336  1.00  0.00     0.008 C 
ENDBRANCH   8  14
BRANCH   9  17
ATOM     17  O   UNL     1      38.218   4.106  -3.517  1.00  0.00    -0.365 OA
ATOM     18  H   UNL     1      39.091   3.714  -3.781  1.00  0.00     0.214 HD
ENDBRANCH   9  17
TORSDOF 2
ENDMDL
MODEL 4
REMARK VINA RESULT:    -6.699      1.573      3.397
REMARK INTER + INTRA:          -7.589
REMARK INTER:                  -7.327
REMARK INTRA:                  -0.262
REMARK UNBOUND:                -0.303
REMARK SMILES C=C1C[C@@]2(O)O[C@@]3(C[C@@H]2C(C)C)[C@@H](C)CC[C@@H]13
REMARK SMILES IDX 14 1 13 2 15 3 16 4 17 5 7 6 8 7 9 8 4 9 6 10 3 11 2 12 1 13
REMARK SMILES IDX 10 14 11 15 12 16 5 17
REMARK H PARENT 5 18
REMARK Flexibility Score: inf
ROOT
ATOM      1  C   UNL     1      38.029   1.132  -0.627  1.00  0.00     0.011 C 
ATOM      2  C   UNL     1      37.844   1.611  -2.074  1.00  0.00     0.019 C 
ATOM      3  C   UNL     1      36.522   1.125  -2.687  1.00  0.00     0.007 C 
ATOM      4  C   UNL     1      35.965   2.279  -3.527  1.00  0.00     0.011 C 
ATOM      5  C   UNL     1      37.041   3.365  -3.533  1.00  0.00     0.047 C 
ATOM      6  C   UNL     1      37.823   3.140  -2.228  1.00  0.00     0.081 C 
ATOM      7  C   UNL     1      39.211   3.791  -2.274  1.00  0.00     0.046 C 
ATOM      8  C   UNL     1      38.970   5.159  -1.632  1.00  0.00     0.054 C 
ATOM      9  C   UNL     1      37.451   5.116  -1.287  1.00  0.00     0.173 C 
ATOM     10  O   UNL     1      37.124   3.754  -1.166  1.00  0.00    -0.342 OA
ATOM     11  C   UNL     1      36.572   5.711  -2.425  1.00  0.00     0.096 C 
ATOM     12  C   UNL     1      36.464   4.769  -3.609  1.00  0.00    -0.066 C 
ATOM     13  C   UNL     1      35.847   5.179  -4.727  1.00  0.00     0.008 C 
ENDROOT
BRANCH   8  14
ATOM     14  C   UNL     1      39.919   5.464  -0.427  1.00  0.00    -0.009 C 
ATOM     15  C   UNL     1      40.127   4.281   0.541  1.00  0.00     0.008 C 
ATOM     16  C   UNL     1      41.277   5.992  -0.912  1.00  0.00     0.008 C 
ENDBRANCH   8  14
BRANCH   9  17
ATOM     17  O   UNL     1      37.158   5.770  -0.077  1.00  0.00    -0.365 OA
ATOM     18  H   UNL     1      37.616   6.650  -0.096  1.00  0.00     0.214 HD
ENDBRANCH   9  17
TORSDOF 2
ENDMDL
MODEL 5
REMARK VINA RESULT:    -6.392      1.624      3.989
REMARK INTER + INTRA:          -7.256
REMARK INTER:                  -7.060
REMARK INTRA:                  -0.196
REMARK UNBOUND:                -0.303
REMARK SMILES C=C1C[C@@]2(O)O[C@@]3(C[C@@H]2C(C)C)[C@@H](C)CC[C@@H]13
REMARK SMILES IDX 14 1 13 2 15 3 16 4 17 5 7 6 8 7 9 8 4 9 6 10 3 11 2 12 1 13
REMARK SMILES IDX 10 14 11 15 12 16 5 17
REMARK H PARENT 5 18
REMARK Flexibility Score: inf
ROOT
ATOM      1  C   UNL     1      35.393   2.874  -3.810  1.00  0.00     0.011 C 
ATOM      2  C   UNL     1      36.210   4.141  -3.518  1.00  0.00     0.019 C 
ATOM      3  C   UNL     1      35.330   5.306  -3.039  1.00  0.00     0.007 C 
ATOM      4  C   UNL     1      36.106   6.028  -1.934  1.00  0.00     0.011 C 
ATOM      5  C   UNL     1      37.492   5.386  -1.889  1.00  0.00     0.047 C 
ATOM      6  C   UNL     1      37.274   3.961  -2.424  1.00  0.00     0.081 C 
ATOM      7  C   UNL     1      38.582   3.326  -2.911  1.00  0.00     0.046 C 
ATOM      8  C   UNL     1      39.066   2.552  -1.684  1.00  0.00     0.054 C 
ATOM      9  C   UNL     1      37.953   2.839  -0.632  1.00  0.00     0.173 C 
ATOM     10  O   UNL     1      36.797   3.147  -1.372  1.00  0.00    -0.342 OA
ATOM     11  C   UNL     1      38.285   4.073   0.256  1.00  0.00     0.096 C 
ATOM     12  C   UNL     1      38.097   5.378  -0.495  1.00  0.00    -0.066 C 
ATOM     13  C   UNL     1      38.461   6.532   0.083  1.00  0.00     0.008 C 
ENDROOT
BRANCH   8  14
ATOM     14  C   UNL     1      39.344   1.038  -1.965  1.00  0.00    -0.009 C 
ATOM     15  C   UNL     1      38.214   0.309  -2.719  1.00  0.00     0.008 C 
ATOM     16  C   UNL     1      40.678   0.848  -2.701  1.00  0.00     0.008 C 
ENDBRANCH   8  14
BRANCH   9  17
ATOM     17  O   UNL     1      37.691   1.728   0.188  1.00  0.00    -0.365 OA
ATOM     18  H   UNL     1      36.878   1.935   0.719  1.00  0.00     0.214 HD
ENDBRANCH   9  17
TORSDOF 2
ENDMDL
MODEL 6
REMARK VINA RESULT:    -6.371      1.933      4.748
REMARK INTER + INTRA:          -7.233
REMARK INTER:                  -6.921
REMARK INTRA:                  -0.312
REMARK UNBOUND:                -0.303
REMARK SMILES C=C1C[C@@]2(O)O[C@@]3(C[C@@H]2C(C)C)[C@@H](C)CC[C@@H]13
REMARK SMILES IDX 14 1 13 2 15 3 16 4 17 5 7 6 8 7 9 8 4 9 6 10 3 11 2 12 1 13
REMARK SMILES IDX 10 14 11 15 12 16 5 17
REMARK H PARENT 5 18
REMARK Flexibility Score: inf
ROOT
ATOM      1  C   UNL     1      35.626   4.646   0.575  1.00  0.00     0.011 C 
ATOM      2  C   UNL     1      36.680   5.717   0.257  1.00  0.00     0.019 C 
ATOM      3  C   UNL     1      37.658   5.938   1.420  1.00  0.00     0.007 C 
ATOM      4  C   UNL     1      39.047   6.136   0.806  1.00  0.00     0.011 C 
ATOM      5  C   UNL     1      38.845   6.194  -0.708  1.00  0.00     0.047 C 
ATOM      6  C   UNL     1      37.562   5.384  -0.957  1.00  0.00     0.081 C 
ATOM      7  C   UNL     1      36.928   5.720  -2.312  1.00  0.00     0.046 C 
ATOM      8  C   UNL     1      37.514   4.653  -3.239  1.00  0.00     0.054 C 
ATOM      9  C   UNL     1      38.421   3.823  -2.281  1.00  0.00     0.173 C 
ATOM     10  O   UNL     1      37.889   4.010  -0.993  1.00  0.00    -0.342 OA
ATOM     11  C   UNL     1      39.889   4.339  -2.264  1.00  0.00     0.096 C 
ATOM     12  C   UNL     1      40.025   5.633  -1.485  1.00  0.00    -0.066 C 
ATOM     13  C   UNL     1      41.199   6.280  -1.478  1.00  0.00     0.008 C 
ENDROOT
BRANCH   8  14
ATOM     14  C   UNL     1      36.433   3.830  -4.015  1.00  0.00    -0.009 C 
ATOM     15  C   UNL     1      35.144   3.551  -3.215  1.00  0.00     0.008 C 
ATOM     16  C   UNL     1      36.088   4.496  -5.355  1.00  0.00     0.008 C 
ENDBRANCH   8  14
BRANCH   9  17
ATOM     17  O   UNL     1      38.409   2.451  -2.588  1.00  0.00    -0.365 OA
ATOM     18  H   UNL     1      38.961   1.988  -1.904  1.00  0.00     0.214 HD
ENDBRANCH   9  17
TORSDOF 2
ENDMDL
MODEL 7
REMARK VINA RESULT:    -6.290      1.488      4.308
REMARK INTER + INTRA:          -7.144
REMARK INTER:                  -6.908
REMARK INTRA:                  -0.236
REMARK UNBOUND:                -0.303
REMARK SMILES C=C1C[C@@]2(O)O[C@@]3(C[C@@H]2C(C)C)[C@@H](C)CC[C@@H]13
REMARK SMILES IDX 14 1 13 2 15 3 16 4 17 5 7 6 8 7 9 8 4 9 6 10 3 11 2 12 1 13
REMARK SMILES IDX 10 14 11 15 12 16 5 17
REMARK H PARENT 5 18
REMARK Flexibility Score: inf
ROOT
ATOM      1  C   UNL     1      37.444   5.785  -0.783  1.00  0.00     0.011 C 
ATOM      2  C   UNL     1      38.622   5.261  -1.618  1.00  0.00     0.019 C 
ATOM      3  C   UNL     1      39.928   5.203  -0.813  1.00  0.00     0.007 C 
ATOM      4  C   UNL     1      40.653   3.919  -1.226  1.00  0.00     0.011 C 
ATOM      5  C   UNL     1      39.850   3.323  -2.383  1.00  0.00     0.047 C 
ATOM      6  C   UNL     1      38.418   3.838  -2.161  1.00  0.00     0.081 C 
ATOM      7  C   UNL     1      37.579   3.763  -3.444  1.00  0.00     0.046 C 
ATOM      8  C   UNL     1      36.875   2.412  -3.315  1.00  0.00     0.054 C 
ATOM      9  C   UNL     1      37.402   1.875  -1.950  1.00  0.00     0.173 C 
ATOM     10  O   UNL     1      37.778   3.011  -1.211  1.00  0.00    -0.342 OA
ATOM     11  C   UNL     1      38.665   0.983  -2.116  1.00  0.00     0.096 C 
ATOM     12  C   UNL     1      39.904   1.804  -2.420  1.00  0.00    -0.066 C 
ATOM     13  C   UNL     1      41.054   1.183  -2.717  1.00  0.00     0.008 C 
ENDROOT
BRANCH   8  14
ATOM     14  C   UNL     1      35.318   2.499  -3.441  1.00  0.00    -0.009 C 
ATOM     15  C   UNL     1      34.791   3.860  -3.943  1.00  0.00     0.008 C 
ATOM     16  C   UNL     1      34.770   1.366  -4.321  1.00  0.00     0.008 C 
ENDBRANCH   8  14
BRANCH   9  17
ATOM     17  O   UNL     1      36.418   1.168  -1.236  1.00  0.00    -0.365 OA
ATOM     18  H   UNL     1      35.978   1.810  -0.620  1.00  0.00     0.214 HD
ENDBRANCH   9  17
TORSDOF 2
ENDMDL
MODEL 8
REMARK VINA RESULT:    -6.076      2.975      6.677
REMARK INTER + INTRA:          -6.912
REMARK INTER:                  -6.705
REMARK INTRA:                  -0.207
REMARK UNBOUND:                -0.303
REMARK SMILES C=C1C[C@@]2(O)O[C@@]3(C[C@@H]2C(C)C)[C@@H](C)CC[C@@H]13
REMARK SMILES IDX 14 1 13 2 15 3 16 4 17 5 7 6 8 7 9 8 4 9 6 10 3 11 2 12 1 13
REMARK SMILES IDX 10 14 11 15 12 16 5 17
REMARK H PARENT 5 18
REMARK Flexibility Score: inf
ROOT
ATOM      1  C   UNL     1      42.753   7.124  -2.015  1.00  0.00     0.011 C 
ATOM      2  C   UNL     1      43.240   6.253  -0.847  1.00  0.00     0.019 C 
ATOM      3  C   UNL     1      44.077   7.049   0.165  1.00  0.00     0.007 C 
ATOM      4  C   UNL     1      43.686   6.550   1.560  1.00  0.00     0.011 C 
ATOM      5  C   UNL     1      42.751   5.360   1.346  1.00  0.00     0.047 C 
ATOM      6  C   UNL     1      42.107   5.618  -0.027  1.00  0.00     0.081 C 
ATOM      7  C   UNL     1      41.525   4.336  -0.636  1.00  0.00     0.046 C 
ATOM      8  C   UNL     1      40.063   4.378  -0.190  1.00  0.00     0.054 C 
ATOM      9  C   UNL     1      39.987   5.703   0.626  1.00  0.00     0.173 C 
ATOM     10  O   UNL     1      41.027   6.514   0.138  1.00  0.00    -0.342 OA
ATOM     11  C   UNL     1      40.241   5.476   2.144  1.00  0.00     0.096 C 
ATOM     12  C   UNL     1      41.707   5.222   2.442  1.00  0.00    -0.066 C 
ATOM     13  C   UNL     1      42.081   4.882   3.683  1.00  0.00     0.008 C 
ENDROOT
BRANCH   8  14
ATOM     14  C   UNL     1      39.042   4.262  -1.370  1.00  0.00    -0.009 C 
ATOM     15  C   UNL     1      39.650   3.757  -2.695  1.00  0.00     0.008 C 
ATOM     16  C   UNL     1      37.839   3.392  -0.977  1.00  0.00     0.008 C 
ENDBRANCH   8  14
BRANCH   9  17
ATOM     17  O   UNL     1      38.762   6.371   0.450  1.00  0.00    -0.365 OA
ATOM     18  H   UNL     1      38.093   5.924   1.032  1.00  0.00     0.214 HD
ENDBRANCH   9  17
TORSDOF 2
ENDMDL
MODEL 9
REMARK VINA RESULT:    -5.949      1.352      4.993
REMARK INTER + INTRA:          -6.774
REMARK INTER:                  -6.527
REMARK INTRA:                  -0.247
REMARK UNBOUND:                -0.303
REMARK SMILES C=C1C[C@@]2(O)O[C@@]3(C[C@@H]2C(C)C)[C@@H](C)CC[C@@H]13
REMARK SMILES IDX 14 1 13 2 15 3 16 4 17 5 7 6 8 7 9 8 4 9 6 10 3 11 2 12 1 13
REMARK SMILES IDX 10 14 11 15 12 16 5 17
REMARK H PARENT 5 18
REMARK Flexibility Score: inf
ROOT
ATOM      1  C   UNL     1      40.566   2.167  -2.484  1.00  0.00     0.011 C 
ATOM      2  C   UNL     1      39.784   2.626  -1.245  1.00  0.00     0.019 C 
ATOM      3  C   UNL     1      40.385   3.888  -0.609  1.00  0.00     0.007 C 
ATOM      4  C   UNL     1      39.213   4.768  -0.164  1.00  0.00     0.011 C 
ATOM      5  C   UNL     1      37.945   3.945  -0.393  1.00  0.00     0.047 C 
ATOM      6  C   UNL     1      38.314   2.976  -1.527  1.00  0.00     0.081 C 
ATOM      7  C   UNL     1      37.373   1.766  -1.575  1.00  0.00     0.046 C 
ATOM      8  C   UNL     1      36.312   2.197  -2.589  1.00  0.00     0.054 C 
ATOM      9  C   UNL     1      36.789   3.620  -3.007  1.00  0.00     0.173 C 
ATOM     10  O   UNL     1      38.174   3.646  -2.763  1.00  0.00    -0.342 OA
ATOM     11  C   UNL     1      36.138   4.737  -2.142  1.00  0.00     0.096 C 
ATOM     12  C   UNL     1      36.740   4.800  -0.751  1.00  0.00    -0.066 C 
ATOM     13  C   UNL     1      36.208   5.623   0.164  1.00  0.00     0.008 C 
ENDROOT
BRANCH   8  14
ATOM     14  C   UNL     1      36.119   1.185  -3.767  1.00  0.00    -0.009 C 
ATOM     15  C   UNL     1      36.855  -0.159  -3.584  1.00  0.00     0.008 C 
ATOM     16  C   UNL     1      34.630   0.936  -4.045  1.00  0.00     0.008 C 
ENDBRANCH   8  14
BRANCH   9  17
ATOM     17  O   UNL     1      36.557   3.885  -4.368  1.00  0.00    -0.365 OA
ATOM     18  H   UNL     1      36.891   4.801  -4.554  1.00  0.00     0.214 HD
ENDBRANCH   9  17
TORSDOF 2
ENDMDL
