MODEL 1
REMARK VINA RESULT:    39.948      0.000      0.000
REMARK INTER + INTRA:          46.690
REMARK INTER:                  46.954
REMARK INTRA:                  -0.263
REMARK UNBOUND:                -0.263
REMARK SMILES O=c1cc(-c2ccc(O)c(O)c2)oc2cc(O)cc(O)c12
REMARK SMILES IDX 4 1 3 2 2 3 1 4 21 5 19 6 18 7 16 8 15 9 14 10 13 11 5 12
REMARK SMILES IDX 6 13 7 14 8 15 12 16 10 17 9 18 11 20 20 22 17 24
REMARK H PARENT 9 19 11 21 20 23 17 25
REMARK Flexibility Score: inf
ROOT
ATOM      1  C   UNL     1      -7.822 -20.224   5.484  1.00  0.00     0.138 A 
ATOM      2  C   UNL     1      -7.597 -21.502   4.956  1.00  0.00     0.100 A 
ATOM      3  C   UNL     1      -8.682 -22.312   4.620  1.00  0.00     0.197 A 
ATOM      4  O   UNL     1      -8.446 -23.431   4.096  1.00  0.00    -0.289 OA
ATOM      5  C   UNL     1     -10.001 -21.851   4.850  1.00  0.00     0.107 A 
ATOM      6  C   UNL     1     -11.184 -22.604   4.579  1.00  0.00     0.134 A 
ATOM      7  C   UNL     1     -12.438 -22.004   4.755  1.00  0.00     0.093 A 
ATOM      8  C   UNL     1     -12.552 -20.701   5.247  1.00  0.00     0.123 A 
ATOM      9  C   UNL     1     -11.404 -19.978   5.562  1.00  0.00     0.094 A 
ATOM     10  C   UNL     1     -10.139 -20.535   5.365  1.00  0.00     0.146 A 
ATOM     11  O   UNL     1      -9.069 -19.802   5.660  1.00  0.00    -0.456 OA
ENDROOT
BRANCH   1  12
ATOM     12  C   UNL     1      -6.704 -19.322   5.861  1.00  0.00     0.021 A 
ATOM     13  C   UNL     1      -6.274 -19.278   7.196  1.00  0.00     0.016 A 
ATOM     14  C   UNL     1      -5.230 -18.434   7.579  1.00  0.00     0.051 A 
ATOM     15  C   UNL     1      -4.599 -17.608   6.641  1.00  0.00     0.157 A 
ATOM     16  C   UNL     1      -6.081 -18.481   4.920  1.00  0.00     0.062 A 
ATOM     17  C   UNL     1      -5.034 -17.628   5.296  1.00  0.00     0.158 A 
BRANCH  15  18
ATOM     18  O   UNL     1      -3.558 -16.792   7.088  1.00  0.00    -0.504 OA
ATOM     19  H   UNL     1      -3.535 -15.790   6.967  1.00  0.00     0.293 HD
ENDBRANCH  15  18
BRANCH  17  20
ATOM     20  O   UNL     1      -4.464 -16.822   4.308  1.00  0.00    -0.504 OA
ATOM     21  H   UNL     1      -3.787 -16.096   4.493  1.00  0.00     0.293 HD
ENDBRANCH  17  20
ENDBRANCH   1  12
BRANCH   6  22
ATOM     22  O   UNL     1     -11.187 -23.937   4.160  1.00  0.00    -0.507 OA
ATOM     23  H   UNL     1     -11.032 -24.249   3.214  1.00  0.00     0.293 HD
ENDBRANCH   6  22
BRANCH   8  24
ATOM     24  O   UNL     1     -13.803 -20.119   5.435  1.00  0.00    -0.508 OA
ATOM     25  H   UNL     1     -14.326 -20.252   6.293  1.00  0.00     0.293 HD
ENDBRANCH   8  24
TORSDOF 5
ENDMDL
MODEL 2
REMARK VINA RESULT:    41.899      1.573      6.877
REMARK INTER + INTRA:          48.984
REMARK INTER:                  49.281
REMARK INTRA:                  -0.298
REMARK UNBOUND:                -0.263
REMARK SMILES O=c1cc(-c2ccc(O)c(O)c2)oc2cc(O)cc(O)c12
REMARK SMILES IDX 4 1 3 2 2 3 1 4 21 5 19 6 18 7 16 8 15 9 14 10 13 11 5 12
REMARK SMILES IDX 6 13 7 14 8 15 12 16 10 17 9 18 11 20 20 22 17 24
REMARK H PARENT 9 19 11 21 20 23 17 25
REMARK Flexibility Score: inf
ROOT
ATOM      1  C   UNL     1      -8.908 -20.391   4.947  1.00  0.00     0.138 A 
ATOM      2  C   UNL     1      -8.051 -20.782   3.910  1.00  0.00     0.100 A 
ATOM      3  C   UNL     1      -6.727 -20.340   3.903  1.00  0.00     0.197 A 
ATOM      4  O   UNL     1      -5.969 -20.753   2.989  1.00  0.00    -0.289 OA
ATOM      5  C   UNL     1      -6.270 -19.472   4.924  1.00  0.00     0.107 A 
ATOM      6  C   UNL     1      -4.951 -18.929   5.001  1.00  0.00     0.134 A 
ATOM      7  C   UNL     1      -4.587 -18.160   6.114  1.00  0.00     0.093 A 
ATOM      8  C   UNL     1      -5.509 -17.865   7.120  1.00  0.00     0.123 A 
ATOM      9  C   UNL     1      -6.812 -18.347   7.028  1.00  0.00     0.094 A 
ATOM     10  C   UNL     1      -7.197 -19.146   5.950  1.00  0.00     0.146 A 
ATOM     11  O   UNL     1      -8.446 -19.601   5.911  1.00  0.00    -0.456 OA
ENDROOT
BRANCH   1  12
ATOM     12  C   UNL     1     -10.326 -20.829   5.002  1.00  0.00     0.021 A 
ATOM     13  C   UNL     1     -10.658 -22.139   4.622  1.00  0.00     0.016 A 
ATOM     14  C   UNL     1     -11.984 -22.574   4.658  1.00  0.00     0.051 A 
ATOM     15  C   UNL     1     -13.007 -21.710   5.062  1.00  0.00     0.157 A 
ATOM     16  C   UNL     1     -11.356 -19.955   5.394  1.00  0.00     0.062 A 
ATOM     17  C   UNL     1     -12.691 -20.382   5.429  1.00  0.00     0.158 A 
BRANCH  15  18
ATOM     18  O   UNL     1     -14.312 -22.209   5.081  1.00  0.00    -0.504 OA
ATOM     19  H   UNL     1     -14.802 -22.537   4.261  1.00  0.00     0.293 HD
ENDBRANCH  15  18
BRANCH  17  20
ATOM     20  O   UNL     1     -13.660 -19.459   5.827  1.00  0.00    -0.504 OA
ATOM     21  H   UNL     1     -14.586 -19.405   5.428  1.00  0.00     0.293 HD
ENDBRANCH  17  20
ENDBRANCH   1  12
BRANCH   6  22
ATOM     22  O   UNL     1      -3.977 -19.096   4.014  1.00  0.00    -0.507 OA
ATOM     23  H   UNL     1      -3.330 -19.868   3.960  1.00  0.00     0.293 HD
ENDBRANCH   6  22
BRANCH   8  24
ATOM     24  O   UNL     1      -5.141 -17.085   8.215  1.00  0.00    -0.508 OA
ATOM     25  H   UNL     1      -4.949 -17.499   9.119  1.00  0.00     0.293 HD
ENDBRANCH   8  24
TORSDOF 5
ENDMDL
MODEL 3
REMARK VINA RESULT:    42.114      2.270      3.757
REMARK INTER + INTRA:          49.236
REMARK INTER:                  49.531
REMARK INTRA:                  -0.295
REMARK UNBOUND:                -0.263
REMARK SMILES O=c1cc(-c2ccc(O)c(O)c2)oc2cc(O)cc(O)c12
REMARK SMILES IDX 4 1 3 2 2 3 1 4 21 5 19 6 18 7 16 8 15 9 14 10 13 11 5 12
REMARK SMILES IDX 6 13 7 14 8 15 12 16 10 17 9 18 11 20 20 22 17 24
REMARK H PARENT 9 19 11 21 20 23 17 25
REMARK Flexibility Score: inf
ROOT
ATOM      1  C   UNL     1      -7.074 -19.756   5.380  1.00  0.00     0.138 A 
ATOM      2  C   UNL     1      -8.346 -20.250   5.700  1.00  0.00     0.100 A 
ATOM      3  C   UNL     1      -9.026 -21.053   4.783  1.00  0.00     0.197 A 
ATOM      4  O   UNL     1     -10.141 -21.525   5.122  1.00  0.00    -0.289 OA
ATOM      5  C   UNL     1      -8.443 -21.331   3.523  1.00  0.00     0.107 A 
ATOM      6  C   UNL     1      -9.058 -22.108   2.495  1.00  0.00     0.134 A 
ATOM      7  C   UNL     1      -8.340 -22.399   1.328  1.00  0.00     0.093 A 
ATOM      8  C   UNL     1      -7.054 -21.891   1.127  1.00  0.00     0.123 A 
ATOM      9  C   UNL     1      -6.466 -21.090   2.102  1.00  0.00     0.094 A 
ATOM     10  C   UNL     1      -7.141 -20.811   3.292  1.00  0.00     0.146 A 
ATOM     11  O   UNL     1      -6.535 -20.058   4.204  1.00  0.00    -0.456 OA
ENDROOT
BRANCH   1  12
ATOM     12  C   UNL     1      -6.308 -18.895   6.317  1.00  0.00     0.021 A 
ATOM     13  C   UNL     1      -6.965 -17.857   6.994  1.00  0.00     0.016 A 
ATOM     14  C   UNL     1      -6.267 -17.029   7.875  1.00  0.00     0.051 A 
ATOM     15  C   UNL     1      -4.897 -17.213   8.092  1.00  0.00     0.157 A 
ATOM     16  C   UNL     1      -4.927 -19.071   6.523  1.00  0.00     0.062 A 
ATOM     17  C   UNL     1      -4.217 -18.243   7.403  1.00  0.00     0.158 A 
BRANCH  15  18
ATOM     18  O   UNL     1      -4.258 -16.354   8.990  1.00  0.00    -0.504 OA
ATOM     19  H   UNL     1      -3.305 -16.040   8.889  1.00  0.00     0.293 HD
ENDBRANCH  15  18
BRANCH  17  20
ATOM     20  O   UNL     1      -2.849 -18.476   7.557  1.00  0.00    -0.504 OA
ATOM     21  H   UNL     1      -2.460 -19.171   8.179  1.00  0.00     0.293 HD
ENDBRANCH  17  20
ENDBRANCH   1  12
BRANCH   6  22
ATOM     22  O   UNL     1     -10.366 -22.597   2.559  1.00  0.00    -0.507 OA
ATOM     23  H   UNL     1     -10.730 -23.356   2.004  1.00  0.00     0.293 HD
ENDBRANCH   6  22
BRANCH   8  24
ATOM     24  O   UNL     1      -6.355 -22.172  -0.045  1.00  0.00    -0.508 OA
ATOM     25  H   UNL     1      -5.454 -22.635  -0.026  1.00  0.00     0.293 HD
ENDBRANCH   8  24
TORSDOF 5
ENDMDL
