MODEL 1
REMARK VINA RESULT:    -2.184      0.000      0.000
REMARK INTER + INTRA:          -4.635
REMARK INTER:                  -3.334
REMARK INTRA:                  -1.301
REMARK UNBOUND:                -1.301
REMARK SMILES CC(=O)CCC=C(C)CCC=C(C)CCC=C(C)C
REMARK SMILES IDX 10 1 11 2 12 3 13 4 14 5 15 6 16 7 18 8 17 9 19 10 9 11 7 12
REMARK SMILES IDX 6 13 8 14 5 15 4 16 2 17 3 18 1 19
REMARK H PARENT
REMARK Flexibility Score: inf
ROOT
ATOM      1  C   UNL     1       6.851  -3.473  -3.836  1.00  0.00     0.032 C 
ENDROOT
BRANCH   1   2
ATOM      2  C   UNL     1       8.041  -2.730  -4.389  1.00  0.00    -0.028 C 
ATOM      3  C   UNL     1       9.296  -2.823  -3.892  1.00  0.00    -0.077 C 
ATOM      4  C   UNL     1       9.607  -3.630  -2.653  1.00  0.00     0.039 C 
BRANCH   3   5
ATOM      5  C   UNL     1      10.414  -2.066  -4.572  1.00  0.00     0.034 C 
BRANCH   5   6
ATOM      6  C   UNL     1      11.125  -2.955  -5.598  1.00  0.00     0.032 C 
BRANCH   6   7
ATOM      7  C   UNL     1      10.975  -2.383  -6.986  1.00  0.00    -0.028 C 
ATOM      8  C   UNL     1       9.496  -4.248  -7.763  1.00  0.00     0.039 C 
ATOM      9  C   UNL     1      10.270  -2.969  -7.979  1.00  0.00    -0.080 C 
ATOM     10  C   UNL     1      10.252  -2.308  -9.333  1.00  0.00     0.039 C 
ENDBRANCH   6   7
ENDBRANCH   5   6
ENDBRANCH   3   5
ENDBRANCH   1   2
BRANCH   1  11
ATOM     11  C   UNL     1       5.832  -2.499  -3.235  1.00  0.00     0.034 C 
BRANCH  11  12
ATOM     12  C   UNL     1       5.564  -2.836  -1.785  1.00  0.00    -0.077 C 
ATOM     13  C   UNL     1       6.071  -3.982  -1.276  1.00  0.00    -0.028 C 
ATOM     14  C   UNL     1       4.741  -1.884  -0.948  1.00  0.00     0.039 C 
BRANCH  13  15
ATOM     15  C   UNL     1       5.795  -4.492   0.119  1.00  0.00     0.035 C 
BRANCH  15  16
ATOM     16  C   UNL     1       4.900  -5.737   0.092  1.00  0.00     0.079 C 
BRANCH  16  17
ATOM     17  C   UNL     1       5.710  -6.998  -0.079  1.00  0.00     0.130 C 
ATOM     18  O   UNL     1       5.147  -8.039  -0.387  1.00  0.00    -0.300 OA
ATOM     19  C   UNL     1       7.196  -7.000   0.125  1.00  0.00     0.087 C 
ENDBRANCH  16  17
ENDBRANCH  15  16
ENDBRANCH  13  15
ENDBRANCH  11  12
ENDBRANCH   1  11
TORSDOF 9
ENDMDL
MODEL 2
REMARK VINA RESULT:    -2.050      1.838      2.731
REMARK INTER + INTRA:          -4.430
REMARK INTER:                  -2.883
REMARK INTRA:                  -1.547
REMARK UNBOUND:                -1.301
REMARK SMILES CC(=O)CCC=C(C)CCC=C(C)CCC=C(C)C
REMARK SMILES IDX 10 1 11 2 12 3 13 4 14 5 15 6 16 7 18 8 17 9 19 10 9 11 7 12
REMARK SMILES IDX 6 13 8 14 5 15 4 16 2 17 3 18 1 19
REMARK H PARENT
REMARK Flexibility Score: inf
ROOT
ATOM      1  C   UNL     1       6.276  -2.423  -3.005  1.00  0.00     0.032 C 
ENDROOT
BRANCH   1   2
ATOM      2  C   UNL     1       7.641  -1.876  -3.342  1.00  0.00    -0.028 C 
ATOM      3  C   UNL     1       8.590  -2.560  -4.020  1.00  0.00    -0.077 C 
ATOM      4  C   UNL     1       8.395  -4.001  -4.434  1.00  0.00     0.039 C 
BRANCH   3   5
ATOM      5  C   UNL     1       9.900  -1.878  -4.342  1.00  0.00     0.034 C 
BRANCH   5   6
ATOM      6  C   UNL     1      10.766  -2.762  -5.245  1.00  0.00     0.032 C 
BRANCH   6   7
ATOM      7  C   UNL     1      10.768  -2.233  -6.657  1.00  0.00    -0.028 C 
ATOM      8  C   UNL     1       9.887  -4.368  -7.624  1.00  0.00     0.039 C 
ATOM      9  C   UNL     1      10.404  -2.953  -7.741  1.00  0.00    -0.080 C 
ATOM     10  C   UNL     1      10.509  -2.310  -9.099  1.00  0.00     0.039 C 
ENDBRANCH   6   7
ENDBRANCH   5   6
ENDBRANCH   3   5
ENDBRANCH   1   2
BRANCH   1  11
ATOM     11  C   UNL     1       6.035  -2.391  -1.492  1.00  0.00     0.034 C 
BRANCH  11  12
ATOM     12  C   UNL     1       6.883  -3.432  -0.795  1.00  0.00    -0.077 C 
ATOM     13  C   UNL     1       8.173  -3.142  -0.511  1.00  0.00    -0.028 C 
ATOM     14  C   UNL     1       6.264  -4.763  -0.435  1.00  0.00     0.039 C 
BRANCH  13  15
ATOM     15  C   UNL     1       9.157  -4.121   0.084  1.00  0.00     0.035 C 
BRANCH  15  16
ATOM     16  C   UNL     1      10.263  -4.480  -0.917  1.00  0.00     0.079 C 
BRANCH  16  17
ATOM     17  C   UNL     1      10.188  -5.928  -1.330  1.00  0.00     0.130 C 
ATOM     18  O   UNL     1       9.666  -6.742  -0.581  1.00  0.00    -0.300 OA
ATOM     19  C   UNL     1      10.747  -6.392  -2.643  1.00  0.00     0.087 C 
ENDBRANCH  16  17
ENDBRANCH  15  16
ENDBRANCH  13  15
ENDBRANCH  11  12
ENDBRANCH   1  11
TORSDOF 9
ENDMDL
MODEL 3
REMARK VINA RESULT:    -1.500      2.929      5.447
REMARK INTER + INTRA:          -3.591
REMARK INTER:                  -2.394
REMARK INTRA:                  -1.197
REMARK UNBOUND:                -1.301
REMARK SMILES CC(=O)CCC=C(C)CCC=C(C)CCC=C(C)C
REMARK SMILES IDX 10 1 11 2 12 3 13 4 14 5 15 6 16 7 18 8 17 9 19 10 9 11 7 12
REMARK SMILES IDX 6 13 8 14 5 15 4 16 2 17 3 18 1 19
REMARK H PARENT
REMARK Flexibility Score: inf
ROOT
ATOM      1  C   UNL     1      10.122  -6.246  -6.272  1.00  0.00     0.032 C 
ENDROOT
BRANCH   1   2
ATOM      2  C   UNL     1      10.829  -4.915  -6.336  1.00  0.00    -0.028 C 
ATOM      3  C   UNL     1      10.343  -3.825  -6.974  1.00  0.00    -0.077 C 
ATOM      4  C   UNL     1       9.061  -3.870  -7.773  1.00  0.00     0.039 C 
BRANCH   3   5
ATOM      5  C   UNL     1      11.125  -2.532  -6.918  1.00  0.00     0.034 C 
BRANCH   5   6
ATOM      6  C   UNL     1      11.113  -1.950  -5.501  1.00  0.00     0.032 C 
BRANCH   6   7
ATOM      7  C   UNL     1       9.704  -1.891  -4.967  1.00  0.00    -0.028 C 
ATOM      8  C   UNL     1      10.236  -3.298  -2.965  1.00  0.00     0.039 C 
ATOM      9  C   UNL     1       9.287  -2.517  -3.844  1.00  0.00    -0.080 C 
ATOM     10  C   UNL     1       7.834  -2.412  -3.459  1.00  0.00     0.039 C 
ENDBRANCH   6   7
ENDBRANCH   5   6
ENDBRANCH   3   5
ENDBRANCH   1   2
BRANCH   1  11
ATOM     11  C   UNL     1      11.125  -7.384  -6.053  1.00  0.00     0.034 C 
BRANCH  11  12
ATOM     12  C   UNL     1      11.082  -7.862  -4.618  1.00  0.00    -0.077 C 
ATOM     13  C   UNL     1      11.038  -6.946  -3.625  1.00  0.00    -0.028 C 
ATOM     14  C   UNL     1      11.088  -9.347  -4.338  1.00  0.00     0.039 C 
BRANCH  13  15
ATOM     15  C   UNL     1      11.098  -7.279  -2.152  1.00  0.00     0.035 C 
BRANCH  15  16
ATOM     16  C   UNL     1      10.882  -6.030  -1.288  1.00  0.00     0.079 C 
BRANCH  16  17
ATOM     17  C   UNL     1       9.575  -6.095  -0.538  1.00  0.00     0.130 C 
ATOM     18  O   UNL     1       9.099  -7.184  -0.249  1.00  0.00    -0.300 OA
ATOM     19  C   UNL     1       8.843  -4.846  -0.142  1.00  0.00     0.087 C 
ENDBRANCH  16  17
ENDBRANCH  15  16
ENDBRANCH  13  15
ENDBRANCH  11  12
ENDBRANCH   1  11
TORSDOF 9
ENDMDL
MODEL 4
REMARK VINA RESULT:    -0.782      2.842      6.429
REMARK INTER + INTRA:          -2.494
REMARK INTER:                  -2.077
REMARK INTRA:                  -0.417
REMARK UNBOUND:                -1.301
REMARK SMILES CC(=O)CCC=C(C)CCC=C(C)CCC=C(C)C
REMARK SMILES IDX 10 1 11 2 12 3 13 4 14 5 15 6 16 7 18 8 17 9 19 10 9 11 7 12
REMARK SMILES IDX 6 13 8 14 5 15 4 16 2 17 3 18 1 19
REMARK H PARENT
REMARK Flexibility Score: inf
ROOT
ATOM      1  C   UNL     1       8.109  -2.200  -4.810  1.00  0.00     0.032 C 
ENDROOT
BRANCH   1   2
ATOM      2  C   UNL     1       8.196  -2.586  -3.355  1.00  0.00    -0.028 C 
ATOM      3  C   UNL     1       7.131  -2.915  -2.588  1.00  0.00    -0.077 C 
ATOM      4  C   UNL     1       5.715  -2.837  -3.112  1.00  0.00     0.039 C 
BRANCH   3   5
ATOM      5  C   UNL     1       7.359  -3.336  -1.154  1.00  0.00     0.034 C 
BRANCH   5   6
ATOM      6  C   UNL     1       8.823  -3.128  -0.754  1.00  0.00     0.032 C 
BRANCH   6   7
ATOM      7  C   UNL     1       9.449  -4.438  -0.347  1.00  0.00    -0.028 C 
ATOM      8  C   UNL     1      10.952  -4.521  -2.348  1.00  0.00     0.039 C 
ATOM      9  C   UNL     1      10.387  -5.092  -1.069  1.00  0.00    -0.080 C 
ATOM     10  C   UNL     1      10.885  -6.421  -0.564  1.00  0.00     0.039 C 
ENDBRANCH   6   7
ENDBRANCH   5   6
ENDBRANCH   3   5
ENDBRANCH   1   2
BRANCH   1  11
ATOM     11  C   UNL     1       9.500  -1.900  -5.378  1.00  0.00     0.034 C 
BRANCH  11  12
ATOM     12  C   UNL     1       9.891  -2.939  -6.406  1.00  0.00    -0.077 C 
ATOM     13  C   UNL     1      10.441  -4.101  -5.986  1.00  0.00    -0.028 C 
ATOM     14  C   UNL     1       9.653  -2.650  -7.871  1.00  0.00     0.039 C 
BRANCH  13  15
ATOM     15  C   UNL     1      10.971  -5.176  -6.905  1.00  0.00     0.035 C 
BRANCH  15  16
ATOM     16  C   UNL     1      10.329  -6.537  -6.601  1.00  0.00     0.079 C 
BRANCH  16  17
ATOM     17  C   UNL     1      10.855  -7.122  -5.314  1.00  0.00     0.130 C 
ATOM     18  O   UNL     1      11.125  -6.379  -4.381  1.00  0.00    -0.300 OA
ATOM     19  C   UNL     1      11.055  -8.600  -5.158  1.00  0.00     0.087 C 
ENDBRANCH  16  17
ENDBRANCH  15  16
ENDBRANCH  13  15
ENDBRANCH  11  12
ENDBRANCH   1  11
TORSDOF 9
ENDMDL
MODEL 5
REMARK VINA RESULT:    -0.600      1.522      3.490
REMARK INTER + INTRA:          -2.217
REMARK INTER:                  -1.420
REMARK INTRA:                  -0.797
REMARK UNBOUND:                -1.301
REMARK SMILES CC(=O)CCC=C(C)CCC=C(C)CCC=C(C)C
REMARK SMILES IDX 10 1 11 2 12 3 13 4 14 5 15 6 16 7 18 8 17 9 19 10 9 11 7 12
REMARK SMILES IDX 6 13 8 14 5 15 4 16 2 17 3 18 1 19
REMARK H PARENT
REMARK Flexibility Score: inf
ROOT
ATOM      1  C   UNL     1       6.684  -3.791  -3.980  1.00  0.00     0.032 C 
ENDROOT
BRANCH   1   2
ATOM      2  C   UNL     1       8.127  -3.363  -3.881  1.00  0.00    -0.028 C 
ATOM      3  C   UNL     1       9.071  -3.651  -4.806  1.00  0.00    -0.077 C 
ATOM      4  C   UNL     1       8.777  -4.523  -6.005  1.00  0.00     0.039 C 
BRANCH   3   5
ATOM      5  C   UNL     1      10.473  -3.117  -4.615  1.00  0.00     0.034 C 
BRANCH   5   6
ATOM      6  C   UNL     1      11.125  -3.733  -3.374  1.00  0.00     0.032 C 
BRANCH   6   7
ATOM      7  C   UNL     1      10.448  -3.237  -2.121  1.00  0.00    -0.028 C 
ATOM      8  C   UNL     1      10.185  -5.536  -1.165  1.00  0.00     0.039 C 
ATOM      9  C   UNL     1       9.992  -4.038  -1.132  1.00  0.00    -0.080 C 
ATOM     10  C   UNL     1       9.287  -3.404   0.039  1.00  0.00     0.039 C 
ENDBRANCH   6   7
ENDBRANCH   5   6
ENDBRANCH   3   5
ENDBRANCH   1   2
BRANCH   1  11
ATOM     11  C   UNL     1       5.750  -2.665  -3.523  1.00  0.00     0.034 C 
BRANCH  11  12
ATOM     12  C   UNL     1       5.375  -2.842  -2.068  1.00  0.00    -0.077 C 
ATOM     13  C   UNL     1       5.947  -3.844  -1.363  1.00  0.00    -0.028 C 
ATOM     14  C   UNL     1       4.376  -1.893  -1.445  1.00  0.00     0.039 C 
BRANCH  13  15
ATOM     15  C   UNL     1       5.589  -4.199   0.061  1.00  0.00     0.035 C 
BRANCH  15  16
ATOM     16  C   UNL     1       4.763  -5.490   0.124  1.00  0.00     0.079 C 
BRANCH  16  17
ATOM     17  C   UNL     1       5.632  -6.712  -0.041  1.00  0.00     0.130 C 
ATOM     18  O   UNL     1       5.113  -7.794  -0.273  1.00  0.00    -0.300 OA
ATOM     19  C   UNL     1       7.125  -6.625   0.079  1.00  0.00     0.087 C 
ENDBRANCH  16  17
ENDBRANCH  15  16
ENDBRANCH  13  15
ENDBRANCH  11  12
ENDBRANCH   1  11
TORSDOF 9
ENDMDL
