MODEL 1
REMARK VINA RESULT:    -3.745      0.000      0.000
REMARK INTER + INTRA:          -5.287
REMARK INTER:                  -5.059
REMARK INTRA:                  -0.228
REMARK UNBOUND:                -0.228
REMARK SMILES CCCCCCCC(=O)[O-]
REMARK SMILES IDX 5 1 6 2 7 3 8 4 9 5 10 6 4 7 3 8 2 9 1 10
REMARK H PARENT
REMARK Flexibility Score: inf
ROOT
ATOM      1  C   UNL     1      -3.896   8.495  -9.136  1.00  0.00     0.000 C 
ENDROOT
BRANCH   1   2
ATOM      2  C   UNL     1      -5.153   8.615 -10.016  1.00  0.00     0.006 C 
BRANCH   2   3
ATOM      3  C   UNL     1      -5.473  10.064 -10.406  1.00  0.00     0.053 C 
BRANCH   3   4
ATOM      4  C   UNL     1      -6.929  10.349 -10.209  1.00  0.00     0.041 C 
ATOM      5  O   UNL     1      -7.796   9.549 -10.648  1.00  0.00    -0.550 OA
ATOM      6  O   UNL     1      -7.329  11.523  -9.584  1.00  0.00    -0.550 OA
ENDBRANCH   3   4
ENDBRANCH   2   3
ENDBRANCH   1   2
BRANCH   1   7
ATOM      7  C   UNL     1      -2.728   9.409  -9.547  1.00  0.00     0.000 C 
BRANCH   7   8
ATOM      8  C   UNL     1      -1.352   8.753  -9.330  1.00  0.00    -0.000 C 
BRANCH   8   9
ATOM      9  C   UNL     1      -1.463   7.296  -8.855  1.00  0.00    -0.003 C 
ATOM     10  C   UNL     1      -0.113   6.700  -8.459  1.00  0.00     0.004 C 
ENDBRANCH   8   9
ENDBRANCH   7   8
ENDBRANCH   1   7
TORSDOF 6
ENDMDL
MODEL 2
REMARK VINA RESULT:    -3.736      1.258      1.646
REMARK INTER + INTRA:          -5.274
REMARK INTER:                  -4.947
REMARK INTRA:                  -0.327
REMARK UNBOUND:                -0.228
REMARK SMILES CCCCCCCC(=O)[O-]
REMARK SMILES IDX 5 1 6 2 7 3 8 4 9 5 10 6 4 7 3 8 2 9 1 10
REMARK H PARENT
REMARK Flexibility Score: inf
ROOT
ATOM      1  C   UNL     1      -3.393  10.186  -8.862  1.00  0.00     0.000 C 
ENDROOT
BRANCH   1   2
ATOM      2  C   UNL     1      -4.099   9.206  -9.816  1.00  0.00     0.006 C 
BRANCH   2   3
ATOM      3  C   UNL     1      -5.418   9.759 -10.373  1.00  0.00     0.053 C 
BRANCH   3   4
ATOM      4  C   UNL     1      -6.481   8.707 -10.339  1.00  0.00     0.041 C 
ATOM      5  O   UNL     1      -6.166   7.487 -10.322  1.00  0.00    -0.550 OA
ATOM      6  O   UNL     1      -7.820   9.071 -10.379  1.00  0.00    -0.550 OA
ENDBRANCH   3   4
ENDBRANCH   2   3
ENDBRANCH   1   2
BRANCH   1   7
ATOM      7  C   UNL     1      -1.862  10.240  -9.006  1.00  0.00     0.000 C 
BRANCH   7   8
ATOM      8  C   UNL     1      -1.312   9.158  -9.953  1.00  0.00    -0.000 C 
BRANCH   8   9
ATOM      9  C   UNL     1      -0.339   8.200  -9.249  1.00  0.00    -0.003 C 
ATOM     10  C   UNL     1      -1.026   6.937  -8.731  1.00  0.00     0.004 C 
ENDBRANCH   8   9
ENDBRANCH   7   8
ENDBRANCH   1   7
TORSDOF 6
ENDMDL
MODEL 3
REMARK VINA RESULT:    -3.689      3.512      5.915
REMARK INTER + INTRA:          -5.211
REMARK INTER:                  -4.992
REMARK INTRA:                  -0.219
REMARK UNBOUND:                -0.228
REMARK SMILES CCCCCCCC(=O)[O-]
REMARK SMILES IDX 5 1 6 2 7 3 8 4 9 5 10 6 4 7 3 8 2 9 1 10
REMARK H PARENT
REMARK Flexibility Score: inf
ROOT
ATOM      1  C   UNL     1      -4.617   9.069  -9.956  1.00  0.00     0.000 C 
ENDROOT
BRANCH   1   2
ATOM      2  C   UNL     1      -3.598   8.364  -9.043  1.00  0.00     0.006 C 
BRANCH   2   3
ATOM      3  C   UNL     1      -2.256   9.104  -8.962  1.00  0.00     0.053 C 
BRANCH   3   4
ATOM      4  C   UNL     1      -1.119   8.135  -9.037  1.00  0.00     0.041 C 
ATOM      5  O   UNL     1      -0.043   8.463  -9.603  1.00  0.00    -0.550 OA
ATOM      6  O   UNL     1      -1.265   6.851  -8.526  1.00  0.00    -0.550 OA
ENDBRANCH   3   4
ENDBRANCH   2   3
ENDBRANCH   1   2
BRANCH   1   7
ATOM      7  C   UNL     1      -5.892   8.259 -10.250  1.00  0.00     0.000 C 
BRANCH   7   8
ATOM      8  C   UNL     1      -7.100   9.150 -10.592  1.00  0.00    -0.000 C 
BRANCH   8   9
ATOM      9  C   UNL     1      -6.795  10.646 -10.421  1.00  0.00    -0.003 C 
ATOM     10  C   UNL     1      -7.747  11.335  -9.444  1.00  0.00     0.004 C 
ENDBRANCH   8   9
ENDBRANCH   7   8
ENDBRANCH   1   7
TORSDOF 6
ENDMDL
MODEL 4
REMARK VINA RESULT:    -3.603     11.018     13.165
REMARK INTER + INTRA:          -5.095
REMARK INTER:                  -4.835
REMARK INTRA:                  -0.260
REMARK UNBOUND:                -0.228
REMARK SMILES CCCCCCCC(=O)[O-]
REMARK SMILES IDX 5 1 6 2 7 3 8 4 9 5 10 6 4 7 3 8 2 9 1 10
REMARK H PARENT
REMARK Flexibility Score: inf
ROOT
ATOM      1  C   UNL     1     -14.903  11.293 -16.349  1.00  0.00     0.000 C 
ENDROOT
BRANCH   1   2
ATOM      2  C   UNL     1     -15.718  12.195 -15.405  1.00  0.00     0.006 C 
BRANCH   2   3
ATOM      3  C   UNL     1     -17.119  11.642 -15.112  1.00  0.00     0.053 C 
BRANCH   3   4
ATOM      4  C   UNL     1     -17.903  11.504 -16.378  1.00  0.00     0.041 C 
ATOM      5  O   UNL     1     -18.273  10.367 -16.774  1.00  0.00    -0.550 OA
ATOM      6  O   UNL     1     -18.181  12.625 -17.149  1.00  0.00    -0.550 OA
ENDBRANCH   3   4
ENDBRANCH   2   3
ENDBRANCH   1   2
BRANCH   1   7
ATOM      7  C   UNL     1     -13.380  11.510 -16.297  1.00  0.00     0.000 C 
BRANCH   7   8
ATOM      8  C   UNL     1     -12.975  12.969 -16.576  1.00  0.00    -0.000 C 
BRANCH   8   9
ATOM      9  C   UNL     1     -11.656  13.355 -15.888  1.00  0.00    -0.003 C 
ATOM     10  C   UNL     1     -10.673  12.188 -15.802  1.00  0.00     0.004 C 
ENDBRANCH   8   9
ENDBRANCH   7   8
ENDBRANCH   1   7
TORSDOF 6
ENDMDL
MODEL 5
REMARK VINA RESULT:    -3.582     16.104     19.156
REMARK INTER + INTRA:          -5.066
REMARK INTER:                  -4.913
REMARK INTRA:                  -0.154
REMARK UNBOUND:                -0.228
REMARK SMILES CCCCCCCC(=O)[O-]
REMARK SMILES IDX 5 1 6 2 7 3 8 4 9 5 10 6 4 7 3 8 2 9 1 10
REMARK H PARENT
REMARK Flexibility Score: inf
ROOT
ATOM      1  C   UNL     1     -16.914  16.737 -20.316  1.00  0.00     0.000 C 
ENDROOT
BRANCH   1   2
ATOM      2  C   UNL     1     -15.418  16.887 -19.987  1.00  0.00     0.006 C 
BRANCH   2   3
ATOM      3  C   UNL     1     -14.515  16.079 -20.929  1.00  0.00     0.053 C 
BRANCH   3   4
ATOM      4  C   UNL     1     -13.079  16.435 -20.708  1.00  0.00     0.041 C 
ATOM      5  O   UNL     1     -12.262  16.395 -21.666  1.00  0.00    -0.550 OA
ATOM      6  O   UNL     1     -12.632  16.762 -19.435  1.00  0.00    -0.550 OA
ENDBRANCH   3   4
ENDBRANCH   2   3
ENDBRANCH   1   2
BRANCH   1   7
ATOM      7  C   UNL     1     -17.488  17.831 -21.234  1.00  0.00     0.000 C 
BRANCH   7   8
ATOM      8  C   UNL     1     -18.948  18.187 -20.898  1.00  0.00    -0.000 C 
BRANCH   8   9
ATOM      9  C   UNL     1     -19.948  17.173 -21.473  1.00  0.00    -0.003 C 
ATOM     10  C   UNL     1     -20.108  17.295 -22.988  1.00  0.00     0.004 C 
ENDBRANCH   8   9
ENDBRANCH   7   8
ENDBRANCH   1   7
TORSDOF 6
ENDMDL
MODEL 6
REMARK VINA RESULT:    -3.560     10.099     12.309
REMARK INTER + INTRA:          -5.037
REMARK INTER:                  -4.748
REMARK INTRA:                  -0.289
REMARK UNBOUND:                -0.228
REMARK SMILES CCCCCCCC(=O)[O-]
REMARK SMILES IDX 5 1 6 2 7 3 8 4 9 5 10 6 4 7 3 8 2 9 1 10
REMARK H PARENT
REMARK Flexibility Score: inf
ROOT
ATOM      1  C   UNL     1     -13.909  11.452 -16.307  1.00  0.00     0.000 C 
ENDROOT
BRANCH   1   2
ATOM      2  C   UNL     1     -15.356  11.340 -15.796  1.00  0.00     0.006 C 
BRANCH   2   3
ATOM      3  C   UNL     1     -16.054  12.701 -15.676  1.00  0.00     0.053 C 
BRANCH   3   4
ATOM      4  C   UNL     1     -16.566  12.906 -14.285  1.00  0.00     0.041 C 
ATOM      5  O   UNL     1     -16.455  14.030 -13.728  1.00  0.00    -0.550 OA
ATOM      6  O   UNL     1     -17.119  11.842 -13.585  1.00  0.00    -0.550 OA
ENDBRANCH   3   4
ENDBRANCH   2   3
ENDBRANCH   1   2
BRANCH   1   7
ATOM      7  C   UNL     1     -13.556  12.797 -16.966  1.00  0.00     0.000 C 
BRANCH   7   8
ATOM      8  C   UNL     1     -12.288  13.438 -16.374  1.00  0.00    -0.000 C 
BRANCH   8   9
ATOM      9  C   UNL     1     -11.269  12.392 -15.895  1.00  0.00    -0.003 C 
ATOM     10  C   UNL     1     -10.184  12.992 -15.002  1.00  0.00     0.004 C 
ENDBRANCH   8   9
ENDBRANCH   7   8
ENDBRANCH   1   7
TORSDOF 6
ENDMDL
MODEL 7
REMARK VINA RESULT:    -3.559     16.786     18.434
REMARK INTER + INTRA:          -5.035
REMARK INTER:                  -4.729
REMARK INTRA:                  -0.306
REMARK UNBOUND:                -0.228
REMARK SMILES CCCCCCCC(=O)[O-]
REMARK SMILES IDX 5 1 6 2 7 3 8 4 9 5 10 6 4 7 3 8 2 9 1 10
REMARK H PARENT
REMARK Flexibility Score: inf
ROOT
ATOM      1  C   UNL     1     -16.154  16.762 -21.624  1.00  0.00     0.000 C 
ENDROOT
BRANCH   1   2
ATOM      2  C   UNL     1     -16.702  17.311 -20.294  1.00  0.00     0.006 C 
BRANCH   2   3
ATOM      3  C   UNL     1     -17.316  18.710 -20.432  1.00  0.00     0.053 C 
BRANCH   3   4
ATOM      4  C   UNL     1     -18.810  18.629 -20.411  1.00  0.00     0.041 C 
ATOM      5  O   UNL     1     -19.453  19.042 -19.410  1.00  0.00    -0.550 OA
ATOM      6  O   UNL     1     -19.490  18.051 -21.475  1.00  0.00    -0.550 OA
ENDBRANCH   3   4
ENDBRANCH   2   3
ENDBRANCH   1   2
BRANCH   1   7
ATOM      7  C   UNL     1     -14.903  15.877 -21.494  1.00  0.00     0.000 C 
BRANCH   7   8
ATOM      8  C   UNL     1     -14.084  16.183 -20.226  1.00  0.00    -0.000 C 
BRANCH   8   9
ATOM      9  C   UNL     1     -12.643  16.608 -20.546  1.00  0.00    -0.003 C 
ATOM     10  C   UNL     1     -12.298  16.459 -22.027  1.00  0.00     0.004 C 
ENDBRANCH   8   9
ENDBRANCH   7   8
ENDBRANCH   1   7
TORSDOF 6
ENDMDL
MODEL 8
REMARK VINA RESULT:    -3.506     12.696     15.234
REMARK INTER + INTRA:          -4.964
REMARK INTER:                  -4.727
REMARK INTRA:                  -0.237
REMARK UNBOUND:                -0.228
REMARK SMILES CCCCCCCC(=O)[O-]
REMARK SMILES IDX 5 1 6 2 7 3 8 4 9 5 10 6 4 7 3 8 2 9 1 10
REMARK H PARENT
REMARK Flexibility Score: inf
ROOT
ATOM      1  C   UNL     1     -12.527  20.291 -15.275  1.00  0.00     0.000 C 
ENDROOT
BRANCH   1   2
ATOM      2  C   UNL     1     -12.798  19.940 -16.749  1.00  0.00     0.006 C 
BRANCH   2   3
ATOM      3  C   UNL     1     -12.939  21.180 -17.642  1.00  0.00     0.053 C 
BRANCH   3   4
ATOM      4  C   UNL     1     -14.054  22.051 -17.154  1.00  0.00     0.041 C 
ATOM      5  O   UNL     1     -15.252  21.704 -17.329  1.00  0.00    -0.550 OA
ATOM      6  O   UNL     1     -13.771  23.270 -16.552  1.00  0.00    -0.550 OA
ENDBRANCH   3   4
ENDBRANCH   2   3
ENDBRANCH   1   2
BRANCH   1   7
ATOM      7  C   UNL     1     -11.778  19.208 -14.479  1.00  0.00     0.000 C 
BRANCH   7   8
ATOM      8  C   UNL     1     -12.449  17.825 -14.574  1.00  0.00    -0.000 C 
BRANCH   8   9
ATOM      9  C   UNL     1     -11.778  16.782 -13.667  1.00  0.00    -0.003 C 
ATOM     10  C   UNL     1     -10.414  17.239 -13.151  1.00  0.00     0.004 C 
ENDBRANCH   8   9
ENDBRANCH   7   8
ENDBRANCH   1   7
TORSDOF 6
ENDMDL
MODEL 9
REMARK VINA RESULT:    -3.462      4.660      6.217
REMARK INTER + INTRA:          -4.904
REMARK INTER:                  -4.695
REMARK INTRA:                  -0.209
REMARK UNBOUND:                -0.228
REMARK SMILES CCCCCCCC(=O)[O-]
REMARK SMILES IDX 5 1 6 2 7 3 8 4 9 5 10 6 4 7 3 8 2 9 1 10
REMARK H PARENT
REMARK Flexibility Score: inf
ROOT
ATOM      1  C   UNL     1      -1.177  10.824 -10.767  1.00  0.00     0.000 C 
ENDROOT
BRANCH   1   2
ATOM      2  C   UNL     1      -0.991  10.142  -9.400  1.00  0.00     0.006 C 
BRANCH   2   3
ATOM      3  C   UNL     1      -0.214   8.822  -9.492  1.00  0.00     0.053 C 
BRANCH   3   4
ATOM      4  C   UNL     1      -1.005   7.708  -8.883  1.00  0.00     0.041 C 
ATOM      5  O   UNL     1      -0.417   6.713  -8.381  1.00  0.00    -0.550 OA
ATOM      6  O   UNL     1      -2.393   7.742  -8.915  1.00  0.00    -0.550 OA
ENDBRANCH   3   4
ENDBRANCH   2   3
ENDBRANCH   1   2
BRANCH   1   7
ATOM      7  C   UNL     1       0.036  11.634 -11.258  1.00  0.00     0.000 C 
BRANCH   7   8
ATOM      8  C   UNL     1      -0.217  12.329 -12.608  1.00  0.00    -0.000 C 
BRANCH   8   9
ATOM      9  C   UNL     1      -0.221  13.861 -12.489  1.00  0.00    -0.003 C 
ATOM     10  C   UNL     1      -1.477  14.395 -11.800  1.00  0.00     0.004 C 
ENDBRANCH   8   9
ENDBRANCH   7   8
ENDBRANCH   1   7
TORSDOF 6
ENDMDL
