MODEL 1
REMARK VINA RESULT:    -3.279      0.000      0.000
REMARK INTER + INTRA:          -5.339
REMARK INTER:                  -5.003
REMARK INTRA:                  -0.335
REMARK UNBOUND:                -0.335
REMARK SMILES CC1=CCC[C@H](C)C(=O)C[C@H](C(C)C)C(=O)C1
REMARK SMILES IDX 8 1 9 2 6 3 7 4 5 5 4 6 3 7 2 8 1 9 10 11 11 12 15 13 16 14
REMARK SMILES IDX 17 15 12 17 13 18 14 19
REMARK H PARENT
REMARK Flexibility Score: 70.00
ROOT
ATOM      1  C   UNL     1      15.010  18.167  16.101  1.00  0.00     0.136 C 
ATOM      2  O   UNL     1      15.138  19.146  15.377  1.00  0.00    -0.299 OA
ENDROOT
BRANCH   1   3
ATOM      3  C   UNL     1      14.529  18.393  17.524  1.00  0.00     0.053 C 
ATOM      4  C   UNL     1      15.630  18.706  18.550  1.00  0.00     0.016 C 
BRANCH   3   5
ATOM      5  C   UNL     1      13.319  19.354  17.573  1.00  0.00     0.015 C 
BRANCH   5   6
ATOM      6  C   UNL     1      11.997  18.947  16.872  1.00  0.00     0.028 C 
BRANCH   6   7
ATOM      7  C   UNL     1      11.737  19.417  15.456  1.00  0.00    -0.028 C 
ATOM      8  C   UNL     1      11.472  18.639  14.382  1.00  0.00    -0.070 CG0
ATOM      9  C   UNL     1      10.889  19.303  13.161  1.00  0.00     0.039 C 
ATOM     10  G   UNL     1      11.636  17.137  14.384  1.00  0.00     0.000 G0
ENDBRANCH   6   7
ENDBRANCH   5   6
ENDBRANCH   3   5
ENDBRANCH   1   3
BRANCH   1  11
ATOM     11  C   UNL     1      15.260  16.797  15.517  1.00  0.00     0.087 C 
BRANCH  11  12
ATOM     12  C   UNL     1      13.957  15.994  15.236  1.00  0.00     0.066 C 
BRANCH  12  13
ATOM     13  C   UNL     1      13.039  16.613  14.168  1.00  0.00     0.140 C 
ATOM     14  O   UNL     1      13.444  16.611  13.014  1.00  0.00    -0.299 OA
BRANCH  13  15
ATOM     15  C   UNL     1      11.625  17.129  14.384  1.00  0.00     0.106 CG0
ATOM     16  G   UNL     1      11.495  18.634  14.390  1.00  0.00     0.000 G0
ENDBRANCH  13  15
ENDBRANCH  12  13
BRANCH  12  17
ATOM     17  C   UNL     1      14.262  14.481  14.958  1.00  0.00    -0.006 C 
ATOM     18  C   UNL     1      12.982  13.643  14.779  1.00  0.00     0.008 C 
ATOM     19  C   UNL     1      15.112  13.851  16.076  1.00  0.00     0.008 C 
ENDBRANCH  12  17
ENDBRANCH  11  12
ENDBRANCH   1  11
TORSDOF 1
ENDMDL
MODEL 2
REMARK VINA RESULT:    -3.201      1.642      4.093
REMARK INTER + INTRA:          -5.221
REMARK INTER:                  -4.926
REMARK INTRA:                  -0.295
REMARK UNBOUND:                -0.335
REMARK SMILES CC1=CCC[C@H](C)C(=O)C[C@H](C(C)C)C(=O)C1
REMARK SMILES IDX 8 1 9 2 6 3 7 4 5 5 4 6 3 7 2 8 1 9 10 11 11 12 15 13 16 14
REMARK SMILES IDX 17 15 12 17 13 18 14 19
REMARK H PARENT
REMARK Flexibility Score: 70.00
ROOT
ATOM      1  C   UNL     1      15.174  16.595  15.787  1.00  0.00     0.136 C 
ATOM      2  O   UNL     1      16.119  17.336  15.552  1.00  0.00    -0.299 OA
ENDROOT
BRANCH   1   3
ATOM      3  C   UNL     1      15.269  15.151  15.326  1.00  0.00     0.053 C 
ATOM      4  C   UNL     1      14.443  14.142  16.140  1.00  0.00     0.016 C 
BRANCH   3   5
ATOM      5  C   UNL     1      15.097  15.028  13.794  1.00  0.00     0.015 C 
BRANCH   5   6
ATOM      6  C   UNL     1      13.957  15.809  13.092  1.00  0.00     0.028 C 
BRANCH   6   7
ATOM      7  C   UNL     1      12.518  15.494  13.445  1.00  0.00    -0.028 C 
ATOM      8  C   UNL     1      11.534  16.386  13.697  1.00  0.00    -0.070 CG0
ATOM      9  C   UNL     1      10.111  15.888  13.667  1.00  0.00     0.039 C 
ATOM     10  G   UNL     1      11.784  17.861  13.908  1.00  0.00     0.000 G0
ENDBRANCH   6   7
ENDBRANCH   5   6
ENDBRANCH   3   5
ENDBRANCH   1   3
BRANCH   1  11
ATOM     11  C   UNL     1      14.011  17.137  16.585  1.00  0.00     0.087 C 
BRANCH  11  12
ATOM     12  C   UNL     1      13.413  18.448  15.998  1.00  0.00     0.066 C 
BRANCH  12  13
ATOM     13  C   UNL     1      12.033  18.285  15.337  1.00  0.00     0.140 C 
ATOM     14  O   UNL     1      11.056  18.608  15.999  1.00  0.00    -0.299 OA
BRANCH  13  15
ATOM     15  C   UNL     1      11.766  17.867  13.901  1.00  0.00     0.106 CG0
ATOM     16  G   UNL     1      11.527  16.387  13.707  1.00  0.00     0.000 G0
ENDBRANCH  13  15
ENDBRANCH  12  13
BRANCH  12  17
ATOM     17  C   UNL     1      13.439  19.612  17.048  1.00  0.00    -0.006 C 
ATOM     18  C   UNL     1      13.296  21.000  16.396  1.00  0.00     0.008 C 
ATOM     19  C   UNL     1      14.726  19.596  17.893  1.00  0.00     0.008 C 
ENDBRANCH  12  17
ENDBRANCH  11  12
ENDBRANCH   1  11
TORSDOF 1
ENDMDL
MODEL 3
REMARK VINA RESULT:    -3.200      7.219      8.691
REMARK INTER + INTRA:          -5.219
REMARK INTER:                  -4.931
REMARK INTRA:                  -0.288
REMARK UNBOUND:                -0.335
REMARK SMILES CC1=CCC[C@H](C)C(=O)C[C@H](C(C)C)C(=O)C1
REMARK SMILES IDX 8 1 9 2 6 3 7 4 5 5 4 6 3 7 2 8 1 9 10 11 11 12 15 13 16 14
REMARK SMILES IDX 17 15 12 17 13 18 14 19
REMARK H PARENT
REMARK Flexibility Score: 70.00
ROOT
ATOM      1  C   UNL     1      15.909  24.775  14.054  1.00  0.00     0.136 C 
ATOM      2  O   UNL     1      16.615  24.092  13.323  1.00  0.00    -0.299 OA
ENDROOT
BRANCH   1   3
ATOM      3  C   UNL     1      16.587  25.805  14.939  1.00  0.00     0.053 C 
ATOM      4  C   UNL     1      17.962  25.399  15.491  1.00  0.00     0.016 C 
BRANCH   3   5
ATOM      5  C   UNL     1      16.544  27.217  14.309  1.00  0.00     0.015 C 
BRANCH   5   6
ATOM      6  C   UNL     1      15.644  28.306  14.948  1.00  0.00     0.028 C 
BRANCH   6   7
ATOM      7  C   UNL     1      14.159  28.304  14.654  1.00  0.00    -0.028 C 
ATOM      8  C   UNL     1      13.199  27.652  15.348  1.00  0.00    -0.070 CG0
ATOM      9  C   UNL     1      11.767  28.065  15.122  1.00  0.00     0.039 C 
ATOM     10  G   UNL     1      13.498  26.608  16.400  1.00  0.00     0.000 G0
ENDBRANCH   6   7
ENDBRANCH   5   6
ENDBRANCH   3   5
ENDBRANCH   1   3
BRANCH   1  11
ATOM     11  C   UNL     1      14.410  24.605  13.975  1.00  0.00     0.087 C 
BRANCH  11  12
ATOM     12  C   UNL     1      13.770  24.108  15.303  1.00  0.00     0.066 C 
BRANCH  12  13
ATOM     13  C   UNL     1      13.006  25.187  16.091  1.00  0.00     0.140 C 
ATOM     14  O   UNL     1      11.938  24.862  16.589  1.00  0.00    -0.299 OA
BRANCH  13  15
ATOM     15  C   UNL     1      13.499  26.590  16.408  1.00  0.00     0.106 CG0
ATOM     16  G   UNL     1      13.196  27.621  15.346  1.00  0.00     0.000 G0
ENDBRANCH  13  15
ENDBRANCH  12  13
BRANCH  12  17
ATOM     17  C   UNL     1      12.914  22.813  15.081  1.00  0.00    -0.006 C 
ATOM     18  C   UNL     1      13.487  21.591  15.824  1.00  0.00     0.008 C 
ATOM     19  C   UNL     1      12.779  22.463  13.587  1.00  0.00     0.008 C 
ENDBRANCH  12  17
ENDBRANCH  11  12
ENDBRANCH   1  11
TORSDOF 1
ENDMDL
MODEL 4
REMARK VINA RESULT:    -3.182      1.349      1.815
REMARK INTER + INTRA:          -5.191
REMARK INTER:                  -4.938
REMARK INTRA:                  -0.253
REMARK UNBOUND:                -0.335
REMARK SMILES CC1=CCC[C@H](C)C(=O)C[C@H](C(C)C)C(=O)C1
REMARK SMILES IDX 8 1 9 2 6 3 7 4 5 5 4 6 3 7 2 8 1 9 10 11 11 12 15 13 16 14
REMARK SMILES IDX 17 15 12 17 13 18 14 19
REMARK H PARENT
REMARK Flexibility Score: 70.00
ROOT
ATOM      1  C   UNL     1      14.911  18.571  16.965  1.00  0.00     0.136 C 
ATOM      2  O   UNL     1      15.600  18.075  17.846  1.00  0.00    -0.299 OA
ENDROOT
BRANCH   1   3
ATOM      3  C   UNL     1      14.063  19.779  17.320  1.00  0.00     0.053 C 
ATOM      4  C   UNL     1      14.029  20.895  16.263  1.00  0.00     0.016 C 
BRANCH   3   5
ATOM      5  C   UNL     1      12.673  19.365  17.856  1.00  0.00     0.015 C 
BRANCH   5   6
ATOM      6  C   UNL     1      11.401  19.994  17.232  1.00  0.00     0.028 C 
BRANCH   6   7
ATOM      7  C   UNL     1      10.458  19.119  16.434  1.00  0.00    -0.028 C 
ATOM      8  C   UNL     1      10.691  18.581  15.215  1.00  0.00    -0.070 CG0
ATOM      9  C   UNL     1       9.793  17.459  14.760  1.00  0.00     0.039 C 
ATOM     10  G   UNL     1      11.858  18.979  14.341  1.00  0.00     0.000 G0
ENDBRANCH   6   7
ENDBRANCH   5   6
ENDBRANCH   3   5
ENDBRANCH   1   3
BRANCH   1  11
ATOM     11  C   UNL     1      15.004  18.003  15.569  1.00  0.00     0.087 C 
BRANCH  11  12
ATOM     12  C   UNL     1      13.754  17.177  15.149  1.00  0.00     0.066 C 
BRANCH  12  13
ATOM     13  C   UNL     1      12.866  17.851  14.089  1.00  0.00     0.140 C 
ATOM     14  O   UNL     1      12.894  17.384  12.959  1.00  0.00    -0.299 OA
BRANCH  13  15
ATOM     15  C   UNL     1      11.869  18.973  14.330  1.00  0.00     0.106 CG0
ATOM     16  G   UNL     1      10.696  18.599  15.207  1.00  0.00     0.000 G0
ENDBRANCH  13  15
ENDBRANCH  12  13
BRANCH  12  17
ATOM     17  C   UNL     1      14.139  15.708  14.759  1.00  0.00    -0.006 C 
ATOM     18  C   UNL     1      14.090  14.745  15.960  1.00  0.00     0.008 C 
ATOM     19  C   UNL     1      15.539  15.630  14.122  1.00  0.00     0.008 C 
ENDBRANCH  12  17
ENDBRANCH  11  12
ENDBRANCH   1  11
TORSDOF 1
ENDMDL
MODEL 5
REMARK VINA RESULT:    -3.099      2.114      4.971
REMARK INTER + INTRA:          -5.065
REMARK INTER:                  -4.627
REMARK INTRA:                  -0.438
REMARK UNBOUND:                -0.335
REMARK SMILES CC1=CCC[C@H](C)C(=O)C[C@H](C(C)C)C(=O)C1
REMARK SMILES IDX 8 1 9 2 6 3 7 4 5 5 4 6 3 7 2 8 1 9 10 11 11 12 15 13 16 14
REMARK SMILES IDX 17 15 12 17 13 18 14 19
REMARK H PARENT
REMARK Flexibility Score: 70.00
ROOT
ATOM      1  C   UNL     1      10.247  18.773  14.580  1.00  0.00     0.136 C 
ATOM      2  O   UNL     1       9.548  19.526  13.914  1.00  0.00    -0.299 OA
ENDROOT
BRANCH   1   3
ATOM      3  C   UNL     1       9.593  17.543  15.184  1.00  0.00     0.053 C 
ATOM      4  C   UNL     1       8.335  17.810  16.026  1.00  0.00     0.016 C 
BRANCH   3   5
ATOM      5  C   UNL     1       9.436  16.410  14.143  1.00  0.00     0.015 C 
BRANCH   5   6
ATOM      6  C   UNL     1      10.622  16.072  13.203  1.00  0.00     0.028 C 
BRANCH   6   7
ATOM      7  C   UNL     1      11.615  15.008  13.619  1.00  0.00    -0.028 C 
ATOM      8  C   UNL     1      12.852  15.211  14.126  1.00  0.00    -0.070 CG0
ATOM      9  C   UNL     1      13.530  14.051  14.808  1.00  0.00     0.039 C 
ATOM     10  G   UNL     1      13.539  16.558  14.127  1.00  0.00     0.000 G0
ENDBRANCH   6   7
ENDBRANCH   5   6
ENDBRANCH   3   5
ENDBRANCH   1   3
BRANCH   1  11
ATOM     11  C   UNL     1      11.723  19.070  14.696  1.00  0.00     0.087 C 
BRANCH  11  12
ATOM     12  C   UNL     1      12.421  18.310  15.860  1.00  0.00     0.066 C 
BRANCH  12  13
ATOM     13  C   UNL     1      13.513  17.320  15.419  1.00  0.00     0.140 C 
ATOM     14  O   UNL     1      14.386  17.054  16.233  1.00  0.00    -0.299 OA
BRANCH  13  15
ATOM     15  C   UNL     1      13.555  16.551  14.108  1.00  0.00     0.106 CG0
ATOM     16  G   UNL     1      12.864  15.208  14.141  1.00  0.00     0.000 G0
ENDBRANCH  13  15
ENDBRANCH  12  13
BRANCH  12  17
ATOM     17  C   UNL     1      12.922  19.296  16.972  1.00  0.00    -0.006 C 
ATOM     18  C   UNL     1      11.788  19.764  17.903  1.00  0.00     0.008 C 
ATOM     19  C   UNL     1      13.611  20.536  16.372  1.00  0.00     0.008 C 
ENDBRANCH  12  17
ENDBRANCH  11  12
ENDBRANCH   1  11
TORSDOF 1
ENDMDL
MODEL 6
REMARK VINA RESULT:    -3.073      1.705      2.209
REMARK INTER + INTRA:          -5.026
REMARK INTER:                  -5.032
REMARK INTRA:                   0.006
REMARK UNBOUND:                -0.335
REMARK SMILES CC1=CCC[C@H](C)C(=O)C[C@H](C(C)C)C(=O)C1
REMARK SMILES IDX 8 1 9 2 6 3 7 4 5 5 4 6 3 7 2 8 1 9 10 11 11 12 15 13 16 14
REMARK SMILES IDX 17 15 12 17 13 18 14 19
REMARK H PARENT
REMARK Flexibility Score: 70.00
ROOT
ATOM      1  C   UNL     1      14.191  18.319  17.276  1.00  0.00     0.136 C 
ATOM      2  O   UNL     1      15.148  18.725  17.921  1.00  0.00    -0.299 OA
ENDROOT
BRANCH   1   3
ATOM      3  C   UNL     1      13.045  19.281  17.019  1.00  0.00     0.053 C 
ATOM      4  C   UNL     1      11.958  19.318  18.105  1.00  0.00     0.016 C 
BRANCH   3   5
ATOM      5  C   UNL     1      13.555  20.673  16.578  1.00  0.00     0.015 C 
BRANCH   5   6
ATOM      6  C   UNL     1      13.220  21.188  15.155  1.00  0.00     0.028 C 
BRANCH   6   7
ATOM      7  C   UNL     1      12.378  20.328  14.236  1.00  0.00    -0.028 C 
ATOM      8  C   UNL     1      12.795  19.254  13.528  1.00  0.00    -0.070 CG0
ATOM      9  C   UNL     1      11.743  18.329  12.971  1.00  0.00     0.039 C 
ATOM     10  G   UNL     1      14.251  18.887  13.355  1.00  0.00     0.000 G0
ENDBRANCH   6   7
ENDBRANCH   5   6
ENDBRANCH   3   5
ENDBRANCH   1   3
BRANCH   1  11
ATOM     11  C   UNL     1      14.241  16.918  16.712  1.00  0.00     0.087 C 
BRANCH  11  12
ATOM     12  C   UNL     1      14.042  16.862  15.170  1.00  0.00     0.066 C 
BRANCH  12  13
ATOM     13  C   UNL     1      14.832  17.922  14.381  1.00  0.00     0.140 C 
ATOM     14  O   UNL     1      16.044  17.945  14.537  1.00  0.00    -0.299 OA
BRANCH  13  15
ATOM     15  C   UNL     1      14.268  18.874  13.339  1.00  0.00     0.106 CG0
ATOM     16  G   UNL     1      12.814  19.236  13.534  1.00  0.00     0.000 G0
ENDBRANCH  13  15
ENDBRANCH  12  13
BRANCH  12  17
ATOM     17  C   UNL     1      14.267  15.413  14.613  1.00  0.00    -0.006 C 
ATOM     18  C   UNL     1      12.951  14.728  14.200  1.00  0.00     0.008 C 
ATOM     19  C   UNL     1      14.994  14.513  15.629  1.00  0.00     0.008 C 
ENDBRANCH  12  17
ENDBRANCH  11  12
ENDBRANCH   1  11
TORSDOF 1
ENDMDL
MODEL 7
REMARK VINA RESULT:    -3.001      1.735      4.312
REMARK INTER + INTRA:          -4.916
REMARK INTER:                  -4.509
REMARK INTRA:                  -0.407
REMARK UNBOUND:                -0.335
REMARK SMILES CC1=CCC[C@H](C)C(=O)C[C@H](C(C)C)C(=O)C1
REMARK SMILES IDX 8 1 9 2 6 3 7 4 5 5 4 6 3 7 2 8 1 9 10 11 11 12 15 13 16 14
REMARK SMILES IDX 17 15 12 17 13 18 14 19
REMARK H PARENT
REMARK Flexibility Score: 70.00
ROOT
ATOM      1  C   UNL     1      12.245  18.873  16.940  1.00  0.00     0.136 C 
ATOM      2  O   UNL     1      11.871  19.061  18.090  1.00  0.00    -0.299 OA
ENDROOT
BRANCH   1   3
ATOM      3  C   UNL     1      13.739  18.814  16.678  1.00  0.00     0.053 C 
ATOM      4  C   UNL     1      14.566  19.944  17.312  1.00  0.00     0.016 C 
BRANCH   3   5
ATOM      5  C   UNL     1      14.306  17.396  16.918  1.00  0.00     0.015 C 
BRANCH   5   6
ATOM      6  C   UNL     1      14.730  16.532  15.702  1.00  0.00     0.028 C 
BRANCH   6   7
ATOM      7  C   UNL     1      13.960  15.266  15.391  1.00  0.00    -0.028 C 
ATOM      8  C   UNL     1      13.172  15.042  14.315  1.00  0.00    -0.070 CG0
ATOM      9  C   UNL     1      12.795  13.616  14.005  1.00  0.00     0.039 C 
ATOM     10  G   UNL     1      12.739  16.133  13.363  1.00  0.00     0.000 G0
ENDBRANCH   6   7
ENDBRANCH   5   6
ENDBRANCH   3   5
ENDBRANCH   1   3
BRANCH   1  11
ATOM     11  C   UNL     1      11.204  18.636  15.872  1.00  0.00     0.087 C 
BRANCH  11  12
ATOM     12  C   UNL     1      11.805  18.454  14.448  1.00  0.00     0.066 C 
BRANCH  12  13
ATOM     13  C   UNL     1      11.630  17.046  13.852  1.00  0.00     0.140 C 
ATOM     14  O   UNL     1      10.485  16.651  13.683  1.00  0.00    -0.299 OA
BRANCH  13  15
ATOM     15  C   UNL     1      12.739  16.138  13.347  1.00  0.00     0.106 CG0
ATOM     16  G   UNL     1      13.158  15.054  14.314  1.00  0.00     0.000 G0
ENDBRANCH  13  15
ENDBRANCH  12  13
BRANCH  12  17
ATOM     17  C   UNL     1      11.321  19.581  13.471  1.00  0.00    -0.006 C 
ATOM     18  C   UNL     1      12.262  20.801  13.463  1.00  0.00     0.008 C 
ATOM     19  C   UNL     1       9.896  20.059  13.806  1.00  0.00     0.008 C 
ENDBRANCH  12  17
ENDBRANCH  11  12
ENDBRANCH   1  11
TORSDOF 1
ENDMDL
MODEL 8
REMARK VINA RESULT:    -2.967      7.933      9.452
REMARK INTER + INTRA:          -4.863
REMARK INTER:                  -4.795
REMARK INTRA:                  -0.068
REMARK UNBOUND:                -0.335
REMARK SMILES CC1=CCC[C@H](C)C(=O)C[C@H](C(C)C)C(=O)C1
REMARK SMILES IDX 8 1 9 2 6 3 7 4 5 5 4 6 3 7 2 8 1 9 10 11 11 12 15 13 16 14
REMARK SMILES IDX 17 15 12 17 13 18 14 19
REMARK H PARENT
REMARK Flexibility Score: 70.00
ROOT
ATOM      1  C   UNL     1      15.968  25.314  14.326  1.00  0.00     0.136 C 
ATOM      2  O   UNL     1      16.003  25.507  13.118  1.00  0.00    -0.299 OA
ENDROOT
BRANCH   1   3
ATOM      3  C   UNL     1      16.951  26.075  15.198  1.00  0.00     0.053 C 
ATOM      4  C   UNL     1      18.358  25.462  15.295  1.00  0.00     0.016 C 
BRANCH   3   5
ATOM      5  C   UNL     1      16.936  27.590  14.890  1.00  0.00     0.015 C 
BRANCH   5   6
ATOM      6  C   UNL     1      15.677  28.424  15.245  1.00  0.00     0.028 C 
BRANCH   6   7
ATOM      7  C   UNL     1      14.748  28.868  14.135  1.00  0.00    -0.028 C 
ATOM      8  C   UNL     1      13.424  28.608  14.037  1.00  0.00    -0.070 CG0
ATOM      9  C   UNL     1      12.617  29.434  13.068  1.00  0.00     0.039 C 
ATOM     10  G   UNL     1      12.706  27.610  14.916  1.00  0.00     0.000 G0
ENDBRANCH   6   7
ENDBRANCH   5   6
ENDBRANCH   3   5
ENDBRANCH   1   3
BRANCH   1  11
ATOM     11  C   UNL     1      14.904  24.397  14.881  1.00  0.00     0.087 C 
BRANCH  11  12
ATOM     12  C   UNL     1      13.712  25.152  15.535  1.00  0.00     0.066 C 
BRANCH  12  13
ATOM     13  C   UNL     1      12.995  26.149  14.607  1.00  0.00     0.140 C 
ATOM     14  O   UNL     1      12.542  25.708  13.560  1.00  0.00    -0.299 OA
BRANCH  13  15
ATOM     15  C   UNL     1      12.693  27.607  14.912  1.00  0.00     0.106 CG0
ATOM     16  G   UNL     1      13.420  28.599  14.034  1.00  0.00     0.000 G0
ENDBRANCH  13  15
ENDBRANCH  12  13
BRANCH  12  17
ATOM     17  C   UNL     1      12.715  24.161  16.232  1.00  0.00    -0.006 C 
ATOM     18  C   UNL     1      12.618  22.809  15.501  1.00  0.00     0.008 C 
ATOM     19  C   UNL     1      11.301  24.759  16.352  1.00  0.00     0.008 C 
ENDBRANCH  12  17
ENDBRANCH  11  12
ENDBRANCH   1  11
TORSDOF 1
ENDMDL
MODEL 9
REMARK VINA RESULT:    -2.955      1.714      4.104
REMARK INTER + INTRA:          -4.845
REMARK INTER:                  -4.713
REMARK INTRA:                  -0.132
REMARK UNBOUND:                -0.335
REMARK SMILES CC1=CCC[C@H](C)C(=O)C[C@H](C(C)C)C(=O)C1
REMARK SMILES IDX 8 1 9 2 6 3 7 4 5 5 4 6 3 7 2 8 1 9 10 11 11 12 15 13 16 14
REMARK SMILES IDX 17 15 12 17 13 18 14 19
REMARK H PARENT
REMARK Flexibility Score: 70.00
ROOT
ATOM      1  C   UNL     1      14.288  16.957  14.172  1.00  0.00     0.136 C 
ATOM      2  O   UNL     1      15.178  17.356  13.433  1.00  0.00    -0.299 OA
ENDROOT
BRANCH   1   3
ATOM      3  C   UNL     1      14.690  16.275  15.467  1.00  0.00     0.053 C 
ATOM      4  C   UNL     1      14.794  14.743  15.401  1.00  0.00     0.016 C 
BRANCH   3   5
ATOM      5  C   UNL     1      15.904  16.969  16.126  1.00  0.00     0.015 C 
BRANCH   5   6
ATOM      6  C   UNL     1      15.732  18.386  16.733  1.00  0.00     0.028 C 
BRANCH   6   7
ATOM      7  C   UNL     1      14.534  18.673  17.612  1.00  0.00    -0.028 C 
ATOM      8  C   UNL     1      13.450  19.413  17.285  1.00  0.00    -0.070 CG0
ATOM      9  C   UNL     1      12.221  19.278  18.148  1.00  0.00     0.039 C 
ATOM     10  G   UNL     1      13.380  20.285  16.052  1.00  0.00     0.000 G0
ENDBRANCH   6   7
ENDBRANCH   5   6
ENDBRANCH   3   5
ENDBRANCH   1   3
BRANCH   1  11
ATOM     11  C   UNL     1      12.853  17.236  13.791  1.00  0.00     0.087 C 
BRANCH  11  12
ATOM     12  C   UNL     1      12.146  18.253  14.733  1.00  0.00     0.066 C 
BRANCH  12  13
ATOM     13  C   UNL     1      12.816  19.637  14.801  1.00  0.00     0.140 C 
ATOM     14  O   UNL     1      12.808  20.312  13.781  1.00  0.00    -0.299 OA
BRANCH  13  15
ATOM     15  C   UNL     1      13.390  20.300  16.043  1.00  0.00     0.106 CG0
ATOM     16  G   UNL     1      13.439  19.414  17.266  1.00  0.00     0.000 G0
ENDBRANCH  13  15
ENDBRANCH  12  13
BRANCH  12  17
ATOM     17  C   UNL     1      10.610  18.348  14.430  1.00  0.00    -0.006 C 
ATOM     18  C   UNL     1       9.756  18.386  15.711  1.00  0.00     0.008 C 
ATOM     19  C   UNL     1      10.126  17.181  13.549  1.00  0.00     0.008 C 
ENDBRANCH  12  17
ENDBRANCH  11  12
ENDBRANCH   1  11
TORSDOF 1
ENDMDL
