MODEL 1
REMARK VINA RESULT:    -5.074      0.000      0.000
REMARK INTER + INTRA:          -7.351
REMARK INTER:                  -6.853
REMARK INTRA:                  -0.498
REMARK UNBOUND:                -0.498
REMARK SMILES O=c1c(-c2ccc(O)cc2)coc2c([C@H]3O[C@H](CO)[C@@H](O)[C@H](O)[C@H]3O)c(O)ccc12
REMARK SMILES IDX 3 1 11 2 12 3 13 4 30 5 2 6 1 7 29 8 28 9 26 10 14 11 4 12
REMARK SMILES IDX 5 13 6 14 7 15 10 16 9 17 8 18 15 20 24 21 16 22 22 23 17 24
REMARK SMILES IDX 20 25 25 26 23 28 18 30 19 31 21 33 27 35
REMARK H PARENT 8 19 25 27 23 29 19 32 21 34 27 36
REMARK Flexibility Score: inf
ROOT
ATOM      1  C   UNL     1      29.424  20.904   4.410  1.00  0.00     0.065 A 
ATOM      2  C   UNL     1      30.066  19.662   4.480  1.00  0.00     0.208 A 
ATOM      3  O   UNL     1      31.385  19.570   4.375  1.00  0.00    -0.463 OA
ATOM      4  C   UNL     1      32.179  20.622   4.202  1.00  0.00     0.147 A 
ATOM      5  C   UNL     1      31.613  21.917   4.119  1.00  0.00     0.066 A 
ATOM      6  C   UNL     1      30.217  22.051   4.232  1.00  0.00     0.200 A 
ATOM      7  O   UNL     1      29.680  23.193   4.193  1.00  0.00    -0.288 OA
ATOM      8  C   UNL     1      32.449  23.027   3.932  1.00  0.00     0.020 A 
ATOM      9  C   UNL     1      33.828  22.859   3.825  1.00  0.00     0.047 A 
ATOM     10  C   UNL     1      34.399  21.584   3.905  1.00  0.00     0.125 A 
ATOM     11  C   UNL     1      33.581  20.448   4.106  1.00  0.00     0.069 A 
ENDROOT
BRANCH   1  12
ATOM     12  C   UNL     1      27.947  20.979   4.528  1.00  0.00    -0.011 A 
ATOM     13  C   UNL     1      27.340  21.213   5.773  1.00  0.00     0.013 A 
ATOM     14  C   UNL     1      25.949  21.323   5.869  1.00  0.00     0.047 A 
ATOM     15  C   UNL     1      25.149  21.193   4.726  1.00  0.00     0.115 A 
ATOM     16  C   UNL     1      27.140  20.857   3.384  1.00  0.00     0.013 A 
ATOM     17  C   UNL     1      25.749  20.954   3.486  1.00  0.00     0.047 A 
BRANCH  15  18
ATOM     18  O   UNL     1      23.762  21.305   4.811  1.00  0.00    -0.508 OA
ATOM     19  H   UNL     1      23.319  22.172   5.088  1.00  0.00     0.293 HD
ENDBRANCH  15  18
ENDBRANCH   1  12
BRANCH  11  20
ATOM     20  C   UNL     1      34.209  19.055   4.145  1.00  0.00     0.188 C 
ATOM     21  C   UNL     1      35.126  18.864   5.401  1.00  0.00     0.179 C 
ATOM     22  O   UNL     1      34.866  18.823   2.902  1.00  0.00    -0.362 OA
ATOM     23  C   UNL     1      36.602  18.894   5.000  1.00  0.00     0.177 C 
ATOM     24  C   UNL     1      35.749  17.708   2.892  1.00  0.00     0.176 C 
ATOM     25  C   UNL     1      36.892  17.810   3.944  1.00  0.00     0.177 C 
BRANCH  21  26
ATOM     26  O   UNL     1      34.892  19.845   6.382  1.00  0.00    -0.387 OA
ATOM     27  H   UNL     1      34.228  19.465   7.014  1.00  0.00     0.211 HD
ENDBRANCH  21  26
BRANCH  23  28
ATOM     28  O   UNL     1      37.429  18.737   6.128  1.00  0.00    -0.387 OA
ATOM     29  H   UNL     1      37.127  19.378   6.822  1.00  0.00     0.211 HD
ENDBRANCH  23  28
BRANCH  24  30
ATOM     30  C   UNL     1      35.000  16.354   2.875  1.00  0.00     0.191 C 
BRANCH  30  31
ATOM     31  O   UNL     1      34.982  15.732   4.131  1.00  0.00    -0.394 OA
ATOM     32  H   UNL     1      34.588  16.379   4.773  1.00  0.00     0.210 HD
ENDBRANCH  30  31
ENDBRANCH  24  30
BRANCH  25  33
ATOM     33  O   UNL     1      38.102  18.129   3.297  1.00  0.00    -0.388 OA
ATOM     34  H   UNL     1      38.257  19.104   3.408  1.00  0.00     0.211 HD
ENDBRANCH  25  33
ENDBRANCH  11  20
BRANCH  10  35
ATOM     35  O   UNL     1      35.783  21.444   3.774  1.00  0.00    -0.507 OA
ATOM     36  H   UNL     1      36.416  21.716   4.518  1.00  0.00     0.293 HD
ENDBRANCH  10  35
TORSDOF 9
ENDMDL
MODEL 2
REMARK VINA RESULT:    -4.875      2.500      8.171
REMARK INTER + INTRA:          -7.083
REMARK INTER:                  -6.393
REMARK INTRA:                  -0.690
REMARK UNBOUND:                -0.498
REMARK SMILES O=c1c(-c2ccc(O)cc2)coc2c([C@H]3O[C@H](CO)[C@@H](O)[C@H](O)[C@H]3O)c(O)ccc12
REMARK SMILES IDX 3 1 11 2 12 3 13 4 30 5 2 6 1 7 29 8 28 9 26 10 14 11 4 12
REMARK SMILES IDX 5 13 6 14 7 15 10 16 9 17 8 18 15 20 24 21 16 22 22 23 17 24
REMARK SMILES IDX 20 25 25 26 23 28 18 30 19 31 21 33 27 35
REMARK H PARENT 8 19 25 27 23 29 19 32 21 34 27 36
REMARK Flexibility Score: inf
ROOT
ATOM      1  C   UNL     1      33.734  22.718   4.030  1.00  0.00     0.065 A 
ATOM      2  C   UNL     1      32.406  23.083   4.277  1.00  0.00     0.208 A 
ATOM      3  O   UNL     1      31.419  22.212   4.118  1.00  0.00    -0.463 OA
ATOM      4  C   UNL     1      31.610  20.956   3.723  1.00  0.00     0.147 A 
ATOM      5  C   UNL     1      32.923  20.503   3.450  1.00  0.00     0.066 A 
ATOM      6  C   UNL     1      33.994  21.401   3.614  1.00  0.00     0.200 A 
ATOM      7  O   UNL     1      35.181  21.022   3.409  1.00  0.00    -0.288 OA
ATOM      8  C   UNL     1      33.125  19.181   3.028  1.00  0.00     0.020 A 
ATOM      9  C   UNL     1      32.042  18.318   2.877  1.00  0.00     0.047 A 
ATOM     10  C   UNL     1      30.739  18.755   3.143  1.00  0.00     0.125 A 
ATOM     11  C   UNL     1      30.507  20.079   3.581  1.00  0.00     0.069 A 
ENDROOT
BRANCH   1  12
ATOM     12  C   UNL     1      34.820  23.713   4.214  1.00  0.00    -0.011 A 
ATOM     13  C   UNL     1      34.933  24.815   3.350  1.00  0.00     0.013 A 
ATOM     14  C   UNL     1      35.934  25.770   3.554  1.00  0.00     0.047 A 
ATOM     15  C   UNL     1      36.837  25.631   4.617  1.00  0.00     0.115 A 
ATOM     16  C   UNL     1      35.724  23.582   5.281  1.00  0.00     0.013 A 
ATOM     17  C   UNL     1      36.732  24.532   5.474  1.00  0.00     0.047 A 
BRANCH  15  18
ATOM     18  O   UNL     1      37.836  26.580   4.830  1.00  0.00    -0.508 OA
ATOM     19  H   UNL     1      38.523  26.466   5.565  1.00  0.00     0.293 HD
ENDBRANCH  15  18
ENDBRANCH   1  12
BRANCH  11  20
ATOM     20  C   UNL     1      29.078  20.561   3.825  1.00  0.00     0.188 C 
ATOM     21  C   UNL     1      28.645  20.370   5.319  1.00  0.00     0.179 C 
ATOM     22  O   UNL     1      28.221  19.922   2.883  1.00  0.00    -0.362 OA
ATOM     23  C   UNL     1      27.665  19.202   5.451  1.00  0.00     0.177 C 
ATOM     24  C   UNL     1      26.832  20.028   3.170  1.00  0.00     0.176 C 
ATOM     25  C   UNL     1      26.435  19.431   4.552  1.00  0.00     0.177 C 
BRANCH  21  26
ATOM     26  O   UNL     1      29.746  20.149   6.166  1.00  0.00    -0.387 OA
ATOM     27  H   UNL     1      30.365  19.544   5.679  1.00  0.00     0.211 HD
ENDBRANCH  21  26
BRANCH  23  28
ATOM     28  O   UNL     1      27.285  19.018   6.793  1.00  0.00    -0.387 OA
ATOM     29  H   UNL     1      26.896  18.110   6.879  1.00  0.00     0.211 HD
ENDBRANCH  23  28
BRANCH  24  30
ATOM     30  C   UNL     1      26.270  21.443   2.888  1.00  0.00     0.191 C 
BRANCH  30  31
ATOM     31  O   UNL     1      24.890  21.530   3.115  1.00  0.00    -0.394 OA
ATOM     32  H   UNL     1      24.766  21.927   4.017  1.00  0.00     0.210 HD
ENDBRANCH  30  31
ENDBRANCH  24  30
BRANCH  25  33
ATOM     33  O   UNL     1      25.784  18.196   4.363  1.00  0.00    -0.388 OA
ATOM     34  H   UNL     1      25.676  18.057   3.386  1.00  0.00     0.211 HD
ENDBRANCH  25  33
ENDBRANCH  11  20
BRANCH  10  35
ATOM     35  O   UNL     1      29.671  17.873   2.963  1.00  0.00    -0.507 OA
ATOM     36  H   UNL     1      29.226  17.411   3.749  1.00  0.00     0.293 HD
ENDBRANCH  10  35
TORSDOF 9
ENDMDL
MODEL 3
REMARK VINA RESULT:    -4.725      1.625      3.407
REMARK INTER + INTRA:          -6.880
REMARK INTER:                  -6.948
REMARK INTRA:                   0.069
REMARK UNBOUND:                -0.498
REMARK SMILES O=c1c(-c2ccc(O)cc2)coc2c([C@H]3O[C@H](CO)[C@@H](O)[C@H](O)[C@H]3O)c(O)ccc12
REMARK SMILES IDX 3 1 11 2 12 3 13 4 30 5 2 6 1 7 29 8 28 9 26 10 14 11 4 12
REMARK SMILES IDX 5 13 6 14 7 15 10 16 9 17 8 18 15 20 24 21 16 22 22 23 17 24
REMARK SMILES IDX 20 25 25 26 23 28 18 30 19 31 21 33 27 35
REMARK H PARENT 8 19 25 27 23 29 19 32 21 34 27 36
REMARK Flexibility Score: inf
ROOT
ATOM      1  C   UNL     1      29.119  20.062   4.556  1.00  0.00     0.065 A 
ATOM      2  C   UNL     1      30.176  20.767   5.145  1.00  0.00     0.208 A 
ATOM      3  O   UNL     1      31.428  20.354   5.010  1.00  0.00    -0.463 OA
ATOM      4  C   UNL     1      31.771  19.268   4.322  1.00  0.00     0.147 A 
ATOM      5  C   UNL     1      30.764  18.495   3.695  1.00  0.00     0.066 A 
ATOM      6  C   UNL     1      29.424  18.908   3.814  1.00  0.00     0.200 A 
ATOM      7  O   UNL     1      28.504  18.259   3.242  1.00  0.00    -0.288 OA
ATOM      8  C   UNL     1      31.122  17.347   2.973  1.00  0.00     0.020 A 
ATOM      9  C   UNL     1      32.459  16.968   2.875  1.00  0.00     0.047 A 
ATOM     10  C   UNL     1      33.463  17.724   3.491  1.00  0.00     0.125 A 
ATOM     11  C   UNL     1      33.131  18.893   4.215  1.00  0.00     0.069 A 
ENDROOT
BRANCH   1  12
ATOM     12  C   UNL     1      27.726  20.543   4.724  1.00  0.00    -0.011 A 
ATOM     13  C   UNL     1      26.948  20.886   3.605  1.00  0.00     0.013 A 
ATOM     14  C   UNL     1      25.622  21.300   3.769  1.00  0.00     0.047 A 
ATOM     15  C   UNL     1      25.061  21.385   5.051  1.00  0.00     0.115 A 
ATOM     16  C   UNL     1      27.156  20.623   6.006  1.00  0.00     0.013 A 
ATOM     17  C   UNL     1      25.834  21.051   6.167  1.00  0.00     0.047 A 
BRANCH  15  18
ATOM     18  O   UNL     1      23.740  21.793   5.224  1.00  0.00    -0.508 OA
ATOM     19  H   UNL     1      23.419  22.182   6.102  1.00  0.00     0.293 HD
ENDBRANCH  15  18
ENDBRANCH   1  12
BRANCH  11  20
ATOM     20  C   UNL     1      34.228  19.686   4.924  1.00  0.00     0.188 C 
ATOM     21  C   UNL     1      34.424  21.105   4.289  1.00  0.00     0.179 C 
ATOM     22  O   UNL     1      35.411  18.892   4.952  1.00  0.00    -0.362 OA
ATOM     23  C   UNL     1      35.713  21.154   3.466  1.00  0.00     0.177 C 
ATOM     24  C   UNL     1      36.596  19.597   5.302  1.00  0.00     0.176 C 
ATOM     25  C   UNL     1      36.923  20.779   4.343  1.00  0.00     0.177 C 
BRANCH  21  26
ATOM     26  O   UNL     1      33.339  21.475   3.473  1.00  0.00    -0.387 OA
ATOM     27  H   UNL     1      33.636  22.258   2.940  1.00  0.00     0.211 HD
ENDBRANCH  21  26
BRANCH  23  28
ATOM     28  O   UNL     1      35.885  22.423   2.882  1.00  0.00    -0.387 OA
ATOM     29  H   UNL     1      34.991  22.763   2.618  1.00  0.00     0.211 HD
ENDBRANCH  23  28
BRANCH  24  30
ATOM     30  C   UNL     1      36.661  19.945   6.809  1.00  0.00     0.191 C 
BRANCH  30  31
ATOM     31  O   UNL     1      36.817  21.319   7.038  1.00  0.00    -0.394 OA
ATOM     32  H   UNL     1      35.920  21.683   7.260  1.00  0.00     0.210 HD
ENDBRANCH  30  31
ENDBRANCH  24  30
BRANCH  25  33
ATOM     33  O   UNL     1      37.992  20.419   3.499  1.00  0.00    -0.388 OA
ATOM     34  H   UNL     1      38.318  21.245   3.055  1.00  0.00     0.211 HD
ENDBRANCH  25  33
ENDBRANCH  11  20
BRANCH  10  35
ATOM     35  O   UNL     1      34.792  17.308   3.393  1.00  0.00    -0.507 OA
ATOM     36  H   UNL     1      35.405  17.291   4.202  1.00  0.00     0.293 HD
ENDBRANCH  10  35
TORSDOF 9
ENDMDL
MODEL 4
REMARK VINA RESULT:    -4.581      2.022      8.014
REMARK INTER + INTRA:          -6.686
REMARK INTER:                  -6.912
REMARK INTRA:                   0.226
REMARK UNBOUND:                -0.498
REMARK SMILES O=c1c(-c2ccc(O)cc2)coc2c([C@H]3O[C@H](CO)[C@@H](O)[C@H](O)[C@H]3O)c(O)ccc12
REMARK SMILES IDX 3 1 11 2 12 3 13 4 30 5 2 6 1 7 29 8 28 9 26 10 14 11 4 12
REMARK SMILES IDX 5 13 6 14 7 15 10 16 9 17 8 18 15 20 24 21 16 22 22 23 17 24
REMARK SMILES IDX 20 25 25 26 23 28 18 30 19 31 21 33 27 35
REMARK H PARENT 8 19 25 27 23 29 19 32 21 34 27 36
REMARK Flexibility Score: inf
ROOT
ATOM      1  C   UNL     1      31.840  19.107   3.869  1.00  0.00     0.065 A 
ATOM      2  C   UNL     1      30.450  18.958   3.793  1.00  0.00     0.208 A 
ATOM      3  O   UNL     1      29.644  19.996   3.972  1.00  0.00    -0.463 OA
ATOM      4  C   UNL     1      30.080  21.225   4.230  1.00  0.00     0.147 A 
ATOM      5  C   UNL     1      31.472  21.465   4.326  1.00  0.00     0.066 A 
ATOM      6  C   UNL     1      32.357  20.387   4.136  1.00  0.00     0.200 A 
ATOM      7  O   UNL     1      33.605  20.570   4.184  1.00  0.00    -0.288 OA
ATOM      8  C   UNL     1      31.934  22.760   4.603  1.00  0.00     0.020 A 
ATOM      9  C   UNL     1      31.031  23.804   4.784  1.00  0.00     0.047 A 
ATOM     10  C   UNL     1      29.652  23.580   4.692  1.00  0.00     0.125 A 
ATOM     11  C   UNL     1      29.159  22.286   4.402  1.00  0.00     0.069 A 
ENDROOT
BRANCH   1  12
ATOM     12  C   UNL     1      32.721  17.930   3.668  1.00  0.00    -0.011 A 
ATOM     13  C   UNL     1      32.279  16.640   4.006  1.00  0.00     0.013 A 
ATOM     14  C   UNL     1      33.100  15.531   3.776  1.00  0.00     0.047 A 
ATOM     15  C   UNL     1      34.372  15.698   3.213  1.00  0.00     0.115 A 
ATOM     16  C   UNL     1      33.995  18.091   3.097  1.00  0.00     0.013 A 
ATOM     17  C   UNL     1      34.818  16.981   2.881  1.00  0.00     0.047 A 
BRANCH  15  18
ATOM     18  O   UNL     1      35.195  14.599   2.976  1.00  0.00    -0.508 OA
ATOM     19  H   UNL     1      35.505  14.364   2.041  1.00  0.00     0.293 HD
ENDBRANCH  15  18
ENDBRANCH   1  12
BRANCH  11  20
ATOM     20  C   UNL     1      27.652  22.041   4.350  1.00  0.00     0.188 C 
ATOM     21  C   UNL     1      27.057  21.765   5.773  1.00  0.00     0.179 C 
ATOM     22  O   UNL     1      27.397  21.009   3.401  1.00  0.00    -0.362 OA
ATOM     23  C   UNL     1      26.716  20.283   5.936  1.00  0.00     0.177 C 
ATOM     24  C   UNL     1      26.087  20.456   3.456  1.00  0.00     0.176 C 
ATOM     25  C   UNL     1      25.732  19.835   4.839  1.00  0.00     0.177 C 
BRANCH  21  26
ATOM     26  O   UNL     1      27.936  22.154   6.800  1.00  0.00    -0.387 OA
ATOM     27  H   UNL     1      27.611  21.724   7.633  1.00  0.00     0.211 HD
ENDBRANCH  21  26
BRANCH  23  28
ATOM     28  O   UNL     1      26.194  20.028   7.218  1.00  0.00    -0.387 OA
ATOM     29  H   UNL     1      25.794  19.120   7.212  1.00  0.00     0.211 HD
ENDBRANCH  23  28
BRANCH  24  30
ATOM     30  C   UNL     1      25.013  21.408   2.875  1.00  0.00     0.191 C 
BRANCH  30  31
ATOM     31  O   UNL     1      23.839  21.425   3.640  1.00  0.00    -0.394 OA
ATOM     32  H   UNL     1      23.125  21.818   3.072  1.00  0.00     0.210 HD
ENDBRANCH  30  31
ENDBRANCH  24  30
BRANCH  25  33
ATOM     33  O   UNL     1      25.772  18.430   4.748  1.00  0.00    -0.388 OA
ATOM     34  H   UNL     1      25.596  18.182   3.803  1.00  0.00     0.211 HD
ENDBRANCH  25  33
ENDBRANCH  11  20
BRANCH  10  35
ATOM     35  O   UNL     1      28.769  24.642   4.899  1.00  0.00    -0.507 OA
ATOM     36  H   UNL     1      27.953  24.776   4.311  1.00  0.00     0.293 HD
ENDBRANCH  10  35
TORSDOF 9
ENDMDL
MODEL 5
REMARK VINA RESULT:    -4.265      2.249      4.625
REMARK INTER + INTRA:          -6.259
REMARK INTER:                  -6.004
REMARK INTRA:                  -0.255
REMARK UNBOUND:                -0.498
REMARK SMILES O=c1c(-c2ccc(O)cc2)coc2c([C@H]3O[C@H](CO)[C@@H](O)[C@H](O)[C@H]3O)c(O)ccc12
REMARK SMILES IDX 3 1 11 2 12 3 13 4 30 5 2 6 1 7 29 8 28 9 26 10 14 11 4 12
REMARK SMILES IDX 5 13 6 14 7 15 10 16 9 17 8 18 15 20 24 21 16 22 22 23 17 24
REMARK SMILES IDX 20 25 25 26 23 28 18 30 19 31 21 33 27 35
REMARK H PARENT 8 19 25 27 23 29 19 32 21 34 27 36
REMARK Flexibility Score: inf
ROOT
ATOM      1  C   UNL     1      31.888  18.983   4.114  1.00  0.00     0.065 A 
ATOM      2  C   UNL     1      32.687  20.131   4.182  1.00  0.00     0.208 A 
ATOM      3  O   UNL     1      34.005  20.051   4.061  1.00  0.00    -0.463 OA
ATOM      4  C   UNL     1      34.654  18.905   3.870  1.00  0.00     0.147 A 
ATOM      5  C   UNL     1      33.923  17.696   3.790  1.00  0.00     0.066 A 
ATOM      6  C   UNL     1      32.521  17.745   3.909  1.00  0.00     0.200 A 
ATOM      7  O   UNL     1      31.835  16.690   3.813  1.00  0.00    -0.288 OA
ATOM      8  C   UNL     1      34.605  16.486   3.594  1.00  0.00     0.020 A 
ATOM      9  C   UNL     1      35.993  16.473   3.479  1.00  0.00     0.047 A 
ATOM     10  C   UNL     1      36.727  17.662   3.557  1.00  0.00     0.125 A 
ATOM     11  C   UNL     1      36.064  18.897   3.742  1.00  0.00     0.069 A 
ENDROOT
BRANCH   1  12
ATOM     12  C   UNL     1      30.416  19.100   4.255  1.00  0.00    -0.011 A 
ATOM     13  C   UNL     1      29.581  19.010   3.129  1.00  0.00     0.013 A 
ATOM     14  C   UNL     1      28.191  19.080   3.274  1.00  0.00     0.047 A 
ATOM     15  C   UNL     1      27.622  19.249   4.543  1.00  0.00     0.115 A 
ATOM     16  C   UNL     1      29.838  19.262   5.526  1.00  0.00     0.013 A 
ATOM     17  C   UNL     1      28.449  19.346   5.666  1.00  0.00     0.047 A 
BRANCH  15  18
ATOM     18  O   UNL     1      26.238  19.316   4.699  1.00  0.00    -0.508 OA
ATOM     19  H   UNL     1      25.612  19.201   3.912  1.00  0.00     0.293 HD
ENDBRANCH  15  18
ENDBRANCH   1  12
BRANCH  11  20
ATOM     20  C   UNL     1      36.876  20.185   3.873  1.00  0.00     0.188 C 
ATOM     21  C   UNL     1      37.383  20.408   5.338  1.00  0.00     0.179 C 
ATOM     22  O   UNL     1      36.099  21.261   3.354  1.00  0.00    -0.362 OA
ATOM     23  C   UNL     1      36.584  21.519   6.022  1.00  0.00     0.177 C 
ATOM     24  C   UNL     1      36.584  22.559   3.678  1.00  0.00     0.176 C 
ATOM     25  C   UNL     1      36.677  22.824   5.210  1.00  0.00     0.177 C 
BRANCH  21  26
ATOM     26  O   UNL     1      37.303  19.236   6.112  1.00  0.00    -0.387 OA
ATOM     27  H   UNL     1      36.433  18.810   5.896  1.00  0.00     0.211 HD
ENDBRANCH  21  26
BRANCH  23  28
ATOM     28  O   UNL     1      37.027  21.713   7.344  1.00  0.00    -0.387 OA
ATOM     29  H   UNL     1      36.721  20.940   7.886  1.00  0.00     0.211 HD
ENDBRANCH  23  28
BRANCH  24  30
ATOM     30  C   UNL     1      37.851  22.940   2.875  1.00  0.00     0.191 C 
BRANCH  30  31
ATOM     31  O   UNL     1      38.125  24.314   2.919  1.00  0.00    -0.394 OA
ATOM     32  H   UNL     1      37.488  24.760   2.301  1.00  0.00     0.210 HD
ENDBRANCH  30  31
ENDBRANCH  24  30
BRANCH  25  33
ATOM     33  O   UNL     1      35.624  23.673   5.605  1.00  0.00    -0.388 OA
ATOM     34  H   UNL     1      36.002  24.580   5.745  1.00  0.00     0.211 HD
ENDBRANCH  25  33
ENDBRANCH  11  20
BRANCH  10  35
ATOM     35  O   UNL     1      38.119  17.616   3.459  1.00  0.00    -0.507 OA
ATOM     36  H   UNL     1      38.601  16.785   3.133  1.00  0.00     0.293 HD
ENDBRANCH  10  35
TORSDOF 9
ENDMDL
MODEL 6
REMARK VINA RESULT:    -3.921      1.835      3.995
REMARK INTER + INTRA:          -5.795
REMARK INTER:                  -5.650
REMARK INTRA:                  -0.145
REMARK UNBOUND:                -0.498
REMARK SMILES O=c1c(-c2ccc(O)cc2)coc2c([C@H]3O[C@H](CO)[C@@H](O)[C@H](O)[C@H]3O)c(O)ccc12
REMARK SMILES IDX 3 1 11 2 12 3 13 4 30 5 2 6 1 7 29 8 28 9 26 10 14 11 4 12
REMARK SMILES IDX 5 13 6 14 7 15 10 16 9 17 8 18 15 20 24 21 16 22 22 23 17 24
REMARK SMILES IDX 20 25 25 26 23 28 18 30 19 31 21 33 27 35
REMARK H PARENT 8 19 25 27 23 29 19 32 21 34 27 36
REMARK Flexibility Score: inf
ROOT
ATOM      1  C   UNL     1      30.977  19.548   4.617  1.00  0.00     0.065 A 
ATOM      2  C   UNL     1      32.043  20.455   4.653  1.00  0.00     0.208 A 
ATOM      3  O   UNL     1      33.276  20.066   4.358  1.00  0.00    -0.463 OA
ATOM      4  C   UNL     1      33.588  18.820   4.013  1.00  0.00     0.147 A 
ATOM      5  C   UNL     1      32.570  17.839   3.953  1.00  0.00     0.066 A 
ATOM      6  C   UNL     1      31.249  18.218   4.254  1.00  0.00     0.200 A 
ATOM      7  O   UNL     1      30.311  17.376   4.181  1.00  0.00    -0.288 OA
ATOM      8  C   UNL     1      32.897  16.523   3.594  1.00  0.00     0.020 A 
ATOM      9  C   UNL     1      34.216  16.182   3.301  1.00  0.00     0.047 A 
ATOM     10  C   UNL     1      35.232  17.144   3.358  1.00  0.00     0.125 A 
ATOM     11  C   UNL     1      34.927  18.481   3.705  1.00  0.00     0.069 A 
ENDROOT
BRANCH   1  12
ATOM     12  C   UNL     1      29.607  20.007   4.953  1.00  0.00    -0.011 A 
ATOM     13  C   UNL     1      28.937  20.925   4.127  1.00  0.00     0.013 A 
ATOM     14  C   UNL     1      27.630  21.322   4.429  1.00  0.00     0.047 A 
ATOM     15  C   UNL     1      26.981  20.813   5.562  1.00  0.00     0.115 A 
ATOM     16  C   UNL     1      28.948  19.495   6.084  1.00  0.00     0.013 A 
ATOM     17  C   UNL     1      27.646  19.905   6.390  1.00  0.00     0.047 A 
BRANCH  15  18
ATOM     18  O   UNL     1      25.677  21.200   5.869  1.00  0.00    -0.508 OA
ATOM     19  H   UNL     1      24.885  20.617   5.631  1.00  0.00     0.293 HD
ENDBRANCH  15  18
ENDBRANCH   1  12
BRANCH  11  20
ATOM     20  C   UNL     1      36.049  19.513   3.810  1.00  0.00     0.188 C 
ATOM     21  C   UNL     1      36.760  19.462   5.206  1.00  0.00     0.179 C 
ATOM     22  O   UNL     1      35.517  20.791   3.474  1.00  0.00    -0.362 OA
ATOM     23  C   UNL     1      36.350  20.660   6.063  1.00  0.00     0.177 C 
ATOM     24  C   UNL     1      36.348  21.894   3.815  1.00  0.00     0.176 C 
ATOM     25  C   UNL     1      36.678  21.978   5.334  1.00  0.00     0.177 C 
BRANCH  21  26
ATOM     26  O   UNL     1      36.473  18.274   5.903  1.00  0.00    -0.387 OA
ATOM     27  H   UNL     1      35.539  18.353   6.231  1.00  0.00     0.211 HD
ENDBRANCH  21  26
BRANCH  23  28
ATOM     28  O   UNL     1      36.975  20.610   7.323  1.00  0.00    -0.387 OA
ATOM     29  H   UNL     1      37.452  19.743   7.395  1.00  0.00     0.211 HD
ENDBRANCH  23  28
BRANCH  24  30
ATOM     30  C   UNL     1      37.571  22.033   2.876  1.00  0.00     0.191 C 
BRANCH  30  31
ATOM     31  O   UNL     1      38.125  23.320   2.898  1.00  0.00    -0.394 OA
ATOM     32  H   UNL     1      37.371  23.965   2.852  1.00  0.00     0.210 HD
ENDBRANCH  30  31
ENDBRANCH  24  30
BRANCH  25  33
ATOM     33  O   UNL     1      35.927  23.013   5.923  1.00  0.00    -0.388 OA
ATOM     34  H   UNL     1      35.061  23.071   5.442  1.00  0.00     0.211 HD
ENDBRANCH  25  33
ENDBRANCH  11  20
BRANCH  10  35
ATOM     35  O   UNL     1      36.547  16.769   3.078  1.00  0.00    -0.507 OA
ATOM     36  H   UNL     1      37.281  17.458   2.953  1.00  0.00     0.293 HD
ENDBRANCH  10  35
TORSDOF 9
ENDMDL
MODEL 7
REMARK VINA RESULT:    -3.587      2.612      8.636
REMARK INTER + INTRA:          -5.343
REMARK INTER:                  -6.557
REMARK INTRA:                   1.214
REMARK UNBOUND:                -0.498
REMARK SMILES O=c1c(-c2ccc(O)cc2)coc2c([C@H]3O[C@H](CO)[C@@H](O)[C@H](O)[C@H]3O)c(O)ccc12
REMARK SMILES IDX 3 1 11 2 12 3 13 4 30 5 2 6 1 7 29 8 28 9 26 10 14 11 4 12
REMARK SMILES IDX 5 13 6 14 7 15 10 16 9 17 8 18 15 20 24 21 16 22 22 23 17 24
REMARK SMILES IDX 20 25 25 26 23 28 18 30 19 31 21 33 27 35
REMARK H PARENT 8 19 25 27 23 29 19 32 21 34 27 36
REMARK Flexibility Score: inf
ROOT
ATOM      1  C   UNL     1      32.939  22.381   3.737  1.00  0.00     0.065 A 
ATOM      2  C   UNL     1      31.695  22.994   3.543  1.00  0.00     0.208 A 
ATOM      3  O   UNL     1      30.568  22.327   3.752  1.00  0.00    -0.463 OA
ATOM      4  C   UNL     1      30.532  21.059   4.153  1.00  0.00     0.147 A 
ATOM      5  C   UNL     1      31.745  20.363   4.372  1.00  0.00     0.066 A 
ATOM      6  C   UNL     1      32.960  21.042   4.164  1.00  0.00     0.200 A 
ATOM      7  O   UNL     1      34.060  20.462   4.379  1.00  0.00    -0.288 OA
ATOM      8  C   UNL     1      31.709  19.025   4.790  1.00  0.00     0.020 A 
ATOM      9  C   UNL     1      30.489  18.383   4.987  1.00  0.00     0.047 A 
ATOM     10  C   UNL     1      29.283  19.061   4.774  1.00  0.00     0.125 A 
ATOM     11  C   UNL     1      29.290  20.414   4.364  1.00  0.00     0.069 A 
ENDROOT
BRANCH   1  12
ATOM     12  C   UNL     1      34.185  23.148   3.493  1.00  0.00    -0.011 A 
ATOM     13  C   UNL     1      34.180  24.553   3.534  1.00  0.00     0.013 A 
ATOM     14  C   UNL     1      35.367  25.267   3.343  1.00  0.00     0.047 A 
ATOM     15  C   UNL     1      36.569  24.589   3.102  1.00  0.00     0.115 A 
ATOM     16  C   UNL     1      35.395  22.474   3.257  1.00  0.00     0.013 A 
ATOM     17  C   UNL     1      36.578  23.192   3.053  1.00  0.00     0.047 A 
BRANCH  15  18
ATOM     18  O   UNL     1      37.758  25.293   2.914  1.00  0.00    -0.508 OA
ATOM     19  H   UNL     1      37.878  25.927   2.135  1.00  0.00     0.293 HD
ENDBRANCH  15  18
ENDBRANCH   1  12
BRANCH  11  20
ATOM     20  C   UNL     1      27.969  21.132   4.088  1.00  0.00     0.188 C 
ATOM     21  C   UNL     1      27.776  22.376   5.021  1.00  0.00     0.179 C 
ATOM     22  O   UNL     1      26.914  20.178   4.161  1.00  0.00    -0.362 OA
ATOM     23  C   UNL     1      26.732  22.082   6.100  1.00  0.00     0.177 C 
ATOM     24  C   UNL     1      25.607  20.735   4.230  1.00  0.00     0.176 C 
ATOM     25  C   UNL     1      25.394  21.673   5.454  1.00  0.00     0.177 C 
BRANCH  21  26
ATOM     26  O   UNL     1      28.979  22.769   5.636  1.00  0.00    -0.387 OA
ATOM     27  H   UNL     1      28.895  22.546   6.599  1.00  0.00     0.211 HD
ENDBRANCH  21  26
BRANCH  23  28
ATOM     28  O   UNL     1      26.565  23.191   6.950  1.00  0.00    -0.387 OA
ATOM     29  H   UNL     1      25.772  23.024   7.521  1.00  0.00     0.211 HD
ENDBRANCH  23  28
BRANCH  24  30
ATOM     30  C   UNL     1      25.135  21.318   2.875  1.00  0.00     0.191 C 
BRANCH  30  31
ATOM     31  O   UNL     1      23.773  21.649   2.876  1.00  0.00    -0.394 OA
ATOM     32  H   UNL     1      23.503  21.780   3.823  1.00  0.00     0.210 HD
ENDBRANCH  30  31
ENDBRANCH  24  30
BRANCH  25  33
ATOM     33  O   UNL     1      24.613  21.013   6.423  1.00  0.00    -0.388 OA
ATOM     34  H   UNL     1      24.855  20.050   6.402  1.00  0.00     0.211 HD
ENDBRANCH  25  33
ENDBRANCH  11  20
BRANCH  10  35
ATOM     35  O   UNL     1      28.075  18.385   4.960  1.00  0.00    -0.507 OA
ATOM     36  H   UNL     1      27.902  17.481   4.534  1.00  0.00     0.293 HD
ENDBRANCH  10  35
TORSDOF 9
ENDMDL
MODEL 8
REMARK VINA RESULT:    -3.583      1.653      8.384
REMARK INTER + INTRA:          -5.338
REMARK INTER:                  -5.083
REMARK INTRA:                  -0.254
REMARK UNBOUND:                -0.498
REMARK SMILES O=c1c(-c2ccc(O)cc2)coc2c([C@H]3O[C@H](CO)[C@@H](O)[C@H](O)[C@H]3O)c(O)ccc12
REMARK SMILES IDX 3 1 11 2 12 3 13 4 30 5 2 6 1 7 29 8 28 9 26 10 14 11 4 12
REMARK SMILES IDX 5 13 6 14 7 15 10 16 9 17 8 18 15 20 24 21 16 22 22 23 17 24
REMARK SMILES IDX 20 25 25 26 23 28 18 30 19 31 21 33 27 35
REMARK H PARENT 8 19 25 27 23 29 19 32 21 34 27 36
REMARK Flexibility Score: inf
ROOT
ATOM      1  C   UNL     1      33.475  19.199   4.118  1.00  0.00     0.065 A 
ATOM      2  C   UNL     1      32.319  18.719   4.744  1.00  0.00     0.208 A 
ATOM      3  O   UNL     1      31.210  19.446   4.777  1.00  0.00    -0.463 OA
ATOM      4  C   UNL     1      31.113  20.656   4.232  1.00  0.00     0.147 A 
ATOM      5  C   UNL     1      32.236  21.218   3.579  1.00  0.00     0.066 A 
ATOM      6  C   UNL     1      33.427  20.471   3.521  1.00  0.00     0.200 A 
ATOM      7  O   UNL     1      34.439  20.929   2.921  1.00  0.00    -0.288 OA
ATOM      8  C   UNL     1      32.137  22.495   3.008  1.00  0.00     0.020 A 
ATOM      9  C   UNL     1      30.942  23.207   3.083  1.00  0.00     0.047 A 
ATOM     10  C   UNL     1      29.824  22.662   3.726  1.00  0.00     0.125 A 
ATOM     11  C   UNL     1      29.893  21.371   4.300  1.00  0.00     0.069 A 
ENDROOT
BRANCH   1  12
ATOM     12  C   UNL     1      34.703  18.367   4.097  1.00  0.00    -0.011 A 
ATOM     13  C   UNL     1      35.758  18.627   4.988  1.00  0.00     0.013 A 
ATOM     14  C   UNL     1      36.896  17.813   4.989  1.00  0.00     0.047 A 
ATOM     15  C   UNL     1      36.995  16.736   4.098  1.00  0.00     0.115 A 
ATOM     16  C   UNL     1      34.806  17.282   3.210  1.00  0.00     0.013 A 
ATOM     17  C   UNL     1      35.950  16.478   3.206  1.00  0.00     0.047 A 
BRANCH  15  18
ATOM     18  O   UNL     1      38.123  15.917   4.095  1.00  0.00    -0.508 OA
ATOM     19  H   UNL     1      38.990  16.214   3.664  1.00  0.00     0.293 HD
ENDBRANCH  15  18
ENDBRANCH   1  12
BRANCH  11  20
ATOM     20  C   UNL     1      28.683  20.803   5.041  1.00  0.00     0.188 C 
ATOM     21  C   UNL     1      27.965  19.684   4.211  1.00  0.00     0.179 C 
ATOM     22  O   UNL     1      27.837  21.885   5.417  1.00  0.00    -0.362 OA
ATOM     23  C   UNL     1      26.648  20.204   3.633  1.00  0.00     0.177 C 
ATOM     24  C   UNL     1      26.533  21.505   5.840  1.00  0.00     0.176 C 
ATOM     25  C   UNL     1      25.733  20.717   4.762  1.00  0.00     0.177 C 
BRANCH  21  26
ATOM     26  O   UNL     1      28.771  19.200   3.164  1.00  0.00    -0.387 OA
ATOM     27  H   UNL     1      29.651  19.650   3.250  1.00  0.00     0.211 HD
ENDBRANCH  21  26
BRANCH  23  28
ATOM     28  O   UNL     1      26.006  19.207   2.875  1.00  0.00    -0.387 OA
ATOM     29  H   UNL     1      26.642  18.892   2.182  1.00  0.00     0.211 HD
ENDBRANCH  23  28
BRANCH  24  30
ATOM     30  C   UNL     1      26.527  20.865   7.250  1.00  0.00     0.191 C 
BRANCH  30  31
ATOM     31  O   UNL     1      26.718  19.477   7.213  1.00  0.00    -0.394 OA
ATOM     32  H   UNL     1      26.367  19.109   8.066  1.00  0.00     0.210 HD
ENDBRANCH  30  31
ENDBRANCH  24  30
BRANCH  25  33
ATOM     33  O   UNL     1      24.753  21.557   4.196  1.00  0.00    -0.388 OA
ATOM     34  H   UNL     1      24.024  21.661   4.861  1.00  0.00     0.211 HD
ENDBRANCH  25  33
ENDBRANCH  11  20
BRANCH  10  35
ATOM     35  O   UNL     1      28.646  23.407   3.803  1.00  0.00    -0.507 OA
ATOM     36  H   UNL     1      28.662  24.411   3.952  1.00  0.00     0.293 HD
ENDBRANCH  10  35
TORSDOF 9
ENDMDL
MODEL 9
REMARK VINA RESULT:    -3.540      2.589      7.591
REMARK INTER + INTRA:          -5.279
REMARK INTER:                  -5.781
REMARK INTRA:                   0.502
REMARK UNBOUND:                -0.498
REMARK SMILES O=c1c(-c2ccc(O)cc2)coc2c([C@H]3O[C@H](CO)[C@@H](O)[C@H](O)[C@H]3O)c(O)ccc12
REMARK SMILES IDX 3 1 11 2 12 3 13 4 30 5 2 6 1 7 29 8 28 9 26 10 14 11 4 12
REMARK SMILES IDX 5 13 6 14 7 15 10 16 9 17 8 18 15 20 24 21 16 22 22 23 17 24
REMARK SMILES IDX 20 25 25 26 23 28 18 30 19 31 21 33 27 35
REMARK H PARENT 8 19 25 27 23 29 19 32 21 34 27 36
REMARK Flexibility Score: inf
ROOT
ATOM      1  C   UNL     1      32.615  22.829   3.989  1.00  0.00     0.065 A 
ATOM      2  C   UNL     1      31.274  22.713   4.374  1.00  0.00     0.208 A 
ATOM      3  O   UNL     1      30.747  21.529   4.657  1.00  0.00    -0.463 OA
ATOM      4  C   UNL     1      31.433  20.391   4.599  1.00  0.00     0.147 A 
ATOM      5  C   UNL     1      32.795  20.417   4.217  1.00  0.00     0.066 A 
ATOM      6  C   UNL     1      33.388  21.657   3.915  1.00  0.00     0.200 A 
ATOM      7  O   UNL     1      34.609  21.721   3.600  1.00  0.00    -0.288 OA
ATOM      8  C   UNL     1      33.519  19.217   4.150  1.00  0.00     0.020 A 
ATOM      9  C   UNL     1      32.901  18.007   4.457  1.00  0.00     0.047 A 
ATOM     10  C   UNL     1      31.554  17.968   4.836  1.00  0.00     0.125 A 
ATOM     11  C   UNL     1      30.805  19.164   4.922  1.00  0.00     0.069 A 
ENDROOT
BRANCH   1  12
ATOM     12  C   UNL     1      33.180  24.164   3.676  1.00  0.00    -0.011 A 
ATOM     13  C   UNL     1      32.337  25.276   3.506  1.00  0.00     0.013 A 
ATOM     14  C   UNL     1      32.880  26.539   3.251  1.00  0.00     0.047 A 
ATOM     15  C   UNL     1      34.268  26.706   3.155  1.00  0.00     0.115 A 
ATOM     16  C   UNL     1      34.572  24.339   3.585  1.00  0.00     0.013 A 
ATOM     17  C   UNL     1      35.110  25.602   3.316  1.00  0.00     0.047 A 
BRANCH  15  18
ATOM     18  O   UNL     1      34.818  27.962   2.905  1.00  0.00    -0.508 OA
ATOM     19  H   UNL     1      34.646  28.450   2.034  1.00  0.00     0.293 HD
ENDBRANCH  15  18
ENDBRANCH   1  12
BRANCH  11  20
ATOM     20  C   UNL     1      29.323  19.108   5.291  1.00  0.00     0.188 C 
ATOM     21  C   UNL     1      28.408  19.559   4.101  1.00  0.00     0.179 C 
ATOM     22  O   UNL     1      29.129  19.853   6.490  1.00  0.00    -0.362 OA
ATOM     23  C   UNL     1      27.834  20.953   4.361  1.00  0.00     0.177 C 
ATOM     24  C   UNL     1      27.772  20.151   6.797  1.00  0.00     0.176 C 
ATOM     25  C   UNL     1      27.049  20.970   5.687  1.00  0.00     0.177 C 
BRANCH  21  26
ATOM     26  O   UNL     1      29.098  19.564   2.875  1.00  0.00    -0.387 OA
ATOM     27  H   UNL     1      29.991  19.166   3.047  1.00  0.00     0.211 HD
ENDBRANCH  21  26
BRANCH  23  28
ATOM     28  O   UNL     1      27.024  21.368   3.288  1.00  0.00    -0.387 OA
ATOM     29  H   UNL     1      26.080  21.169   3.521  1.00  0.00     0.211 HD
ENDBRANCH  23  28
BRANCH  24  30
ATOM     30  C   UNL     1      26.990  18.916   7.307  1.00  0.00     0.191 C 
BRANCH  30  31
ATOM     31  O   UNL     1      26.548  19.066   8.628  1.00  0.00    -0.394 OA
ATOM     32  H   UNL     1      26.242  18.173   8.938  1.00  0.00     0.210 HD
ENDBRANCH  30  31
ENDBRANCH  24  30
BRANCH  25  33
ATOM     33  O   UNL     1      26.908  22.308   6.106  1.00  0.00    -0.388 OA
ATOM     34  H   UNL     1      27.682  22.527   6.687  1.00  0.00     0.211 HD
ENDBRANCH  25  33
ENDBRANCH  11  20
BRANCH  10  35
ATOM     35  O   UNL     1      30.956  16.738   5.117  1.00  0.00    -0.507 OA
ATOM     36  H   UNL     1      30.609  16.136   4.379  1.00  0.00     0.293 HD
ENDBRANCH  10  35
TORSDOF 9
ENDMDL
