MODEL 1
REMARK VINA RESULT:    -3.554      0.000      0.000
REMARK INTER + INTRA:          -5.631
REMARK INTER:                  -5.424
REMARK INTRA:                  -0.207
REMARK UNBOUND:                -0.207
REMARK SMILES CC1=CCC[C@@H](C)C(=O)C[C@H](C(C)C)C(=O)C1
REMARK SMILES IDX 8 1 9 2 6 3 7 4 5 5 4 6 3 7 2 8 1 9 10 11 11 12 15 13 16 14
REMARK SMILES IDX 17 15 12 17 13 18 14 19
REMARK H PARENT
REMARK Flexibility Score: 70.00
ROOT
ATOM      1  C   UNL     1      13.991  -6.327  18.053  1.00  0.00     0.136 C 
ATOM      2  O   UNL     1      13.121  -5.983  17.266  1.00  0.00    -0.299 OA
ENDROOT
BRANCH   1   3
ATOM      3  C   UNL     1      15.171  -5.414  18.319  1.00  0.00     0.053 C 
ATOM      4  C   UNL     1      14.672  -4.116  18.962  1.00  0.00     0.016 C 
BRANCH   3   5
ATOM      5  C   UNL     1      15.959  -5.103  17.026  1.00  0.00     0.015 C 
BRANCH   5   6
ATOM      6  C   UNL     1      16.776  -6.297  16.511  1.00  0.00     0.028 C 
BRANCH   6   7
ATOM      7  C   UNL     1      17.670  -6.856  17.594  1.00  0.00    -0.028 C 
ATOM      8  C   UNL     1      17.715  -8.148  17.990  1.00  0.00    -0.070 CG0
ATOM      9  C   UNL     1      18.676  -8.516  19.092  1.00  0.00     0.039 C 
ATOM     10  G   UNL     1      16.825  -9.228  17.408  1.00  0.00     0.000 G0
ENDBRANCH   6   7
ENDBRANCH   5   6
ENDBRANCH   3   5
ENDBRANCH   1   3
BRANCH   1  11
ATOM     11  C   UNL     1      13.858  -7.652  18.757  1.00  0.00     0.087 C 
BRANCH  11  12
ATOM     12  C   UNL     1      14.252  -8.837  17.842  1.00  0.00     0.066 C 
BRANCH  12  13
ATOM     13  C   UNL     1      15.590  -9.429  18.258  1.00  0.00     0.140 C 
ATOM     14  O   UNL     1      15.668 -10.099  19.278  1.00  0.00    -0.299 OA
BRANCH  13  15
ATOM     15  C   UNL     1      16.825  -9.243  17.414  1.00  0.00     0.106 CG0
ATOM     16  G   UNL     1      17.707  -8.147  17.979  1.00  0.00     0.000 G0
ENDBRANCH  13  15
ENDBRANCH  12  13
BRANCH  12  17
ATOM     17  C   UNL     1      13.127  -9.915  17.772  1.00  0.00    -0.006 C 
ATOM     18  C   UNL     1      12.251  -9.822  16.511  1.00  0.00     0.008 C 
ATOM     19  C   UNL     1      12.246  -9.889  19.031  1.00  0.00     0.008 C 
ENDBRANCH  12  17
ENDBRANCH  11  12
ENDBRANCH   1  11
TORSDOF 1
ENDMDL
MODEL 2
REMARK VINA RESULT:    -3.480      1.555      3.903
REMARK INTER + INTRA:          -5.517
REMARK INTER:                  -5.591
REMARK INTRA:                   0.074
REMARK UNBOUND:                -0.207
REMARK SMILES CC1=CCC[C@@H](C)C(=O)C[C@H](C(C)C)C(=O)C1
REMARK SMILES IDX 8 1 9 2 6 3 7 4 5 5 4 6 3 7 2 8 1 9 10 11 11 12 15 13 16 14
REMARK SMILES IDX 17 15 12 17 13 18 14 19
REMARK H PARENT
REMARK Flexibility Score: 70.00
ROOT
ATOM      1  C   UNL     1      13.095  -7.600  17.396  1.00  0.00     0.136 C 
ATOM      2  O   UNL     1      12.003  -7.458  17.927  1.00  0.00    -0.299 OA
ENDROOT
BRANCH   1   3
ATOM      3  C   UNL     1      13.638  -8.992  17.147  1.00  0.00     0.053 C 
ATOM      4  C   UNL     1      12.471  -9.957  16.917  1.00  0.00     0.016 C 
BRANCH   3   5
ATOM      5  C   UNL     1      14.516  -9.484  18.322  1.00  0.00     0.015 C 
BRANCH   5   6
ATOM      6  C   UNL     1      15.871 -10.050  17.871  1.00  0.00     0.028 C 
BRANCH   6   7
ATOM      7  C   UNL     1      17.017  -9.271  18.474  1.00  0.00    -0.028 C 
ATOM      8  C   UNL     1      17.608  -8.186  17.926  1.00  0.00    -0.070 CG0
ATOM      9  C   UNL     1      18.743  -7.541  18.681  1.00  0.00     0.039 C 
ATOM     10  G   UNL     1      17.209  -7.613  16.580  1.00  0.00     0.000 G0
ENDBRANCH   6   7
ENDBRANCH   5   6
ENDBRANCH   3   5
ENDBRANCH   1   3
BRANCH   1  11
ATOM     11  C   UNL     1      13.872  -6.376  16.984  1.00  0.00     0.087 C 
BRANCH  11  12
ATOM     12  C   UNL     1      15.228  -6.275  17.724  1.00  0.00     0.066 C 
BRANCH  12  13
ATOM     13  C   UNL     1      16.392  -6.340  16.747  1.00  0.00     0.140 C 
ATOM     14  O   UNL     1      16.695  -5.350  16.096  1.00  0.00    -0.299 OA
BRANCH  13  15
ATOM     15  C   UNL     1      17.213  -7.593  16.589  1.00  0.00     0.106 CG0
ATOM     16  G   UNL     1      17.602  -8.160  17.940  1.00  0.00     0.000 G0
ENDBRANCH  13  15
ENDBRANCH  12  13
BRANCH  12  17
ATOM     17  C   UNL     1      15.297  -5.014  18.639  1.00  0.00    -0.006 C 
ATOM     18  C   UNL     1      15.713  -5.315  20.089  1.00  0.00     0.008 C 
ATOM     19  C   UNL     1      13.972  -4.234  18.621  1.00  0.00     0.008 C 
ENDBRANCH  12  17
ENDBRANCH  11  12
ENDBRANCH   1  11
TORSDOF 1
ENDMDL
MODEL 3
REMARK VINA RESULT:    -3.453      1.828      4.715
REMARK INTER + INTRA:          -5.476
REMARK INTER:                  -5.966
REMARK INTRA:                   0.489
REMARK UNBOUND:                -0.207
REMARK SMILES CC1=CCC[C@@H](C)C(=O)C[C@H](C(C)C)C(=O)C1
REMARK SMILES IDX 8 1 9 2 6 3 7 4 5 5 4 6 3 7 2 8 1 9 10 11 11 12 15 13 16 14
REMARK SMILES IDX 17 15 12 17 13 18 14 19
REMARK H PARENT
REMARK Flexibility Score: 70.00
ROOT
ATOM      1  C   UNL     1      17.104  -6.487  17.593  1.00  0.00     0.136 C 
ATOM      2  O   UNL     1      16.993  -6.051  16.456  1.00  0.00    -0.299 OA
ENDROOT
BRANCH   1   3
ATOM      3  C   UNL     1      17.973  -7.700  17.855  1.00  0.00     0.053 C 
ATOM      4  C   UNL     1      19.304  -7.539  17.114  1.00  0.00     0.016 C 
BRANCH   3   5
ATOM      5  C   UNL     1      17.274  -9.010  17.421  1.00  0.00     0.015 C 
BRANCH   5   6
ATOM      6  C   UNL     1      16.311  -9.564  18.482  1.00  0.00     0.028 C 
BRANCH   6   7
ATOM      7  C   UNL     1      14.914  -9.717  17.927  1.00  0.00    -0.028 C 
ATOM      8  C   UNL     1      13.896  -8.845  18.104  1.00  0.00    -0.070 CG0
ATOM      9  C   UNL     1      12.567  -9.171  17.469  1.00  0.00     0.039 C 
ATOM     10  G   UNL     1      14.017  -7.582  18.935  1.00  0.00     0.000 G0
ENDBRANCH   6   7
ENDBRANCH   5   6
ENDBRANCH   3   5
ENDBRANCH   1   3
BRANCH   1  11
ATOM     11  C   UNL     1      16.382  -5.790  18.717  1.00  0.00     0.087 C 
BRANCH  11  12
ATOM     12  C   UNL     1      15.012  -5.227  18.264  1.00  0.00     0.066 C 
BRANCH  12  13
ATOM     13  C   UNL     1      13.998  -6.344  18.071  1.00  0.00     0.140 C 
ATOM     14  O   UNL     1      13.172  -6.267  17.173  1.00  0.00    -0.299 OA
BRANCH  13  15
ATOM     15  C   UNL     1      14.012  -7.573  18.942  1.00  0.00     0.106 CG0
ATOM     16  G   UNL     1      13.889  -8.832  18.107  1.00  0.00     0.000 G0
ENDBRANCH  13  15
ENDBRANCH  12  13
BRANCH  12  17
ATOM     17  C   UNL     1      14.492  -4.120  19.231  1.00  0.00    -0.006 C 
ATOM     18  C   UNL     1      14.724  -2.686  18.721  1.00  0.00     0.008 C 
ATOM     19  C   UNL     1      15.084  -4.282  20.640  1.00  0.00     0.008 C 
ENDBRANCH  12  17
ENDBRANCH  11  12
ENDBRANCH   1  11
TORSDOF 1
ENDMDL
MODEL 4
REMARK VINA RESULT:    -3.067      2.394      4.061
REMARK INTER + INTRA:          -4.887
REMARK INTER:                  -4.673
REMARK INTRA:                  -0.215
REMARK UNBOUND:                -0.207
REMARK SMILES CC1=CCC[C@@H](C)C(=O)C[C@H](C(C)C)C(=O)C1
REMARK SMILES IDX 8 1 9 2 6 3 7 4 5 5 4 6 3 7 2 8 1 9 10 11 11 12 15 13 16 14
REMARK SMILES IDX 17 15 12 17 13 18 14 19
REMARK H PARENT
REMARK Flexibility Score: 70.00
ROOT
ATOM      1  C   UNL     1      14.664  -4.506  18.736  1.00  0.00     0.136 C 
ATOM      2  O   UNL     1      15.552  -3.801  18.277  1.00  0.00    -0.299 OA
ENDROOT
BRANCH   1   3
ATOM      3  C   UNL     1      14.196  -4.299  20.161  1.00  0.00     0.053 C 
ATOM      4  C   UNL     1      14.499  -2.860  20.589  1.00  0.00     0.016 C 
BRANCH   3   5
ATOM      5  C   UNL     1      14.862  -5.299  21.135  1.00  0.00     0.015 C 
BRANCH   5   6
ATOM      6  C   UNL     1      13.874  -6.310  21.736  1.00  0.00     0.028 C 
BRANCH   6   7
ATOM      7  C   UNL     1      14.390  -7.724  21.603  1.00  0.00    -0.028 C 
ATOM      8  C   UNL     1      14.078  -8.587  20.609  1.00  0.00    -0.070 CG0
ATOM      9  C   UNL     1      14.694  -9.963  20.648  1.00  0.00     0.039 C 
ATOM     10  G   UNL     1      13.117  -8.249  19.486  1.00  0.00     0.000 G0
ENDBRANCH   6   7
ENDBRANCH   5   6
ENDBRANCH   3   5
ENDBRANCH   1   3
BRANCH   1  11
ATOM     11  C   UNL     1      14.041  -5.560  17.857  1.00  0.00     0.087 C 
BRANCH  11  12
ATOM     12  C   UNL     1      14.789  -6.912  17.955  1.00  0.00     0.066 C 
BRANCH  12  13
ATOM     13  C   UNL     1      13.815  -8.063  18.160  1.00  0.00     0.140 C 
ATOM     14  O   UNL     1      13.622  -8.864  17.256  1.00  0.00    -0.299 OA
BRANCH  13  15
ATOM     15  C   UNL     1      13.108  -8.265  19.475  1.00  0.00     0.106 CG0
ATOM     16  G   UNL     1      14.096  -8.582  20.580  1.00  0.00     0.000 G0
ENDBRANCH  13  15
ENDBRANCH  12  13
BRANCH  12  17
ATOM     17  C   UNL     1      15.728  -7.146  16.733  1.00  0.00    -0.006 C 
ATOM     18  C   UNL     1      17.217  -6.904  17.033  1.00  0.00     0.008 C 
ATOM     19  C   UNL     1      15.291  -6.307  15.520  1.00  0.00     0.008 C 
ENDBRANCH  12  17
ENDBRANCH  11  12
ENDBRANCH   1  11
TORSDOF 1
ENDMDL
MODEL 5
REMARK VINA RESULT:    -3.016      1.682      1.931
REMARK INTER + INTRA:          -4.809
REMARK INTER:                  -4.936
REMARK INTRA:                   0.127
REMARK UNBOUND:                -0.207
REMARK SMILES CC1=CCC[C@@H](C)C(=O)C[C@H](C(C)C)C(=O)C1
REMARK SMILES IDX 8 1 9 2 6 3 7 4 5 5 4 6 3 7 2 8 1 9 10 11 11 12 15 13 16 14
REMARK SMILES IDX 17 15 12 17 13 18 14 19
REMARK H PARENT
REMARK Flexibility Score: 70.00
ROOT
ATOM      1  C   UNL     1      14.625  -5.978  20.790  1.00  0.00     0.136 C 
ATOM      2  O   UNL     1      14.047  -5.337  21.656  1.00  0.00    -0.299 OA
ENDROOT
BRANCH   1   3
ATOM      3  C   UNL     1      15.367  -5.256  19.685  1.00  0.00     0.053 C 
ATOM      4  C   UNL     1      15.749  -3.852  20.165  1.00  0.00     0.016 C 
BRANCH   3   5
ATOM      5  C   UNL     1      14.526  -5.168  18.390  1.00  0.00     0.015 C 
BRANCH   5   6
ATOM      6  C   UNL     1      15.292  -5.617  17.137  1.00  0.00     0.028 C 
BRANCH   6   7
ATOM      7  C   UNL     1      16.683  -6.093  17.487  1.00  0.00    -0.028 C 
ATOM      8  C   UNL     1      17.054  -7.381  17.671  1.00  0.00    -0.070 CG0
ATOM      9  C   UNL     1      18.495  -7.659  18.017  1.00  0.00     0.039 C 
ATOM     10  G   UNL     1      16.087  -8.545  17.583  1.00  0.00     0.000 G0
ENDBRANCH   6   7
ENDBRANCH   5   6
ENDBRANCH   3   5
ENDBRANCH   1   3
BRANCH   1  11
ATOM     11  C   UNL     1      14.598  -7.483  20.855  1.00  0.00     0.087 C 
BRANCH  11  12
ATOM     12  C   UNL     1      14.284  -8.117  19.478  1.00  0.00     0.066 C 
BRANCH  12  13
ATOM     13  C   UNL     1      15.484  -8.881  18.940  1.00  0.00     0.140 C 
ATOM     14  O   UNL     1      15.966  -9.796  19.594  1.00  0.00    -0.299 OA
BRANCH  13  15
ATOM     15  C   UNL     1      16.075  -8.562  17.591  1.00  0.00     0.106 CG0
ATOM     16  G   UNL     1      17.040  -7.397  17.682  1.00  0.00     0.000 G0
ENDBRANCH  13  15
ENDBRANCH  12  13
BRANCH  12  17
ATOM     17  C   UNL     1      12.999  -8.998  19.525  1.00  0.00    -0.006 C 
ATOM     18  C   UNL     1      11.947  -8.627  18.464  1.00  0.00     0.008 C 
ATOM     19  C   UNL     1      12.363  -8.990  20.924  1.00  0.00     0.008 C 
ENDBRANCH  12  17
ENDBRANCH  11  12
ENDBRANCH   1  11
TORSDOF 1
ENDMDL
MODEL 6
REMARK VINA RESULT:    -3.011      2.172      4.232
REMARK INTER + INTRA:          -4.802
REMARK INTER:                  -5.098
REMARK INTRA:                   0.296
REMARK UNBOUND:                -0.207
REMARK SMILES CC1=CCC[C@@H](C)C(=O)C[C@H](C(C)C)C(=O)C1
REMARK SMILES IDX 8 1 9 2 6 3 7 4 5 5 4 6 3 7 2 8 1 9 10 11 11 12 15 13 16 14
REMARK SMILES IDX 17 15 12 17 13 18 14 19
REMARK H PARENT
REMARK Flexibility Score: 70.00
ROOT
ATOM      1  C   UNL     1      16.554  -7.357  17.064  1.00  0.00     0.136 C 
ATOM      2  O   UNL     1      17.120  -8.358  16.649  1.00  0.00    -0.299 OA
ENDROOT
BRANCH   1   3
ATOM      3  C   UNL     1      15.586  -6.610  16.169  1.00  0.00     0.053 C 
ATOM      4  C   UNL     1      16.065  -5.165  16.000  1.00  0.00     0.016 C 
BRANCH   3   5
ATOM      5  C   UNL     1      14.147  -6.635  16.733  1.00  0.00     0.015 C 
BRANCH   5   6
ATOM      6  C   UNL     1      13.518  -8.036  16.730  1.00  0.00     0.028 C 
BRANCH   6   7
ATOM      7  C   UNL     1      12.687  -8.266  17.971  1.00  0.00    -0.028 C 
ATOM      8  C   UNL     1      13.112  -8.868  19.105  1.00  0.00    -0.070 CG0
ATOM      9  C   UNL     1      12.132  -9.006  20.243  1.00  0.00     0.039 C 
ATOM     10  G   UNL     1      14.507  -9.438  19.271  1.00  0.00     0.000 G0
ENDBRANCH   6   7
ENDBRANCH   5   6
ENDBRANCH   3   5
ENDBRANCH   1   3
BRANCH   1  11
ATOM     11  C   UNL     1      16.822  -6.898  18.475  1.00  0.00     0.087 C 
BRANCH  11  12
ATOM     12  C   UNL     1      15.575  -7.052  19.380  1.00  0.00     0.066 C 
BRANCH  12  13
ATOM     13  C   UNL     1      15.454  -8.473  19.909  1.00  0.00     0.140 C 
ATOM     14  O   UNL     1      16.105  -8.817  20.885  1.00  0.00    -0.299 OA
BRANCH  13  15
ATOM     15  C   UNL     1      14.511  -9.464  19.278  1.00  0.00     0.106 CG0
ATOM     16  G   UNL     1      13.124  -8.872  19.123  1.00  0.00     0.000 G0
ENDBRANCH  13  15
ENDBRANCH  12  13
BRANCH  12  17
ATOM     17  C   UNL     1      15.558  -5.994  20.526  1.00  0.00    -0.006 C 
ATOM     18  C   UNL     1      14.349  -6.115  21.470  1.00  0.00     0.008 C 
ATOM     19  C   UNL     1      15.654  -4.563  19.971  1.00  0.00     0.008 C 
ENDBRANCH  12  17
ENDBRANCH  11  12
ENDBRANCH   1  11
TORSDOF 1
ENDMDL
MODEL 7
REMARK VINA RESULT:    -2.951      2.186      3.919
REMARK INTER + INTRA:          -4.711
REMARK INTER:                  -4.559
REMARK INTRA:                  -0.152
REMARK UNBOUND:                -0.207
REMARK SMILES CC1=CCC[C@@H](C)C(=O)C[C@H](C(C)C)C(=O)C1
REMARK SMILES IDX 8 1 9 2 6 3 7 4 5 5 4 6 3 7 2 8 1 9 10 11 11 12 15 13 16 14
REMARK SMILES IDX 17 15 12 17 13 18 14 19
REMARK H PARENT
REMARK Flexibility Score: 70.00
ROOT
ATOM      1  C   UNL     1      15.400  -6.419  17.002  1.00  0.00     0.136 C 
ATOM      2  O   UNL     1      15.797  -5.525  16.268  1.00  0.00    -0.299 OA
ENDROOT
BRANCH   1   3
ATOM      3  C   UNL     1      14.308  -6.136  18.014  1.00  0.00     0.053 C 
ATOM      4  C   UNL     1      13.041  -5.689  17.279  1.00  0.00     0.016 C 
BRANCH   3   5
ATOM      5  C   UNL     1      14.740  -5.062  19.039  1.00  0.00     0.015 C 
BRANCH   5   6
ATOM      6  C   UNL     1      15.298  -5.656  20.341  1.00  0.00     0.028 C 
BRANCH   6   7
ATOM      7  C   UNL     1      14.519  -6.880  20.762  1.00  0.00    -0.028 C 
ATOM      8  C   UNL     1      15.009  -8.139  20.838  1.00  0.00    -0.070 CG0
ATOM      9  C   UNL     1      14.074  -9.236  21.281  1.00  0.00     0.039 C 
ATOM     10  G   UNL     1      16.433  -8.500  20.466  1.00  0.00     0.000 G0
ENDBRANCH   6   7
ENDBRANCH   5   6
ENDBRANCH   3   5
ENDBRANCH   1   3
BRANCH   1  11
ATOM     11  C   UNL     1      16.001  -7.794  16.869  1.00  0.00     0.087 C 
BRANCH  11  12
ATOM     12  C   UNL     1      17.077  -8.064  17.949  1.00  0.00     0.066 C 
BRANCH  12  13
ATOM     13  C   UNL     1      16.540  -8.977  19.041  1.00  0.00     0.140 C 
ATOM     14  O   UNL     1      16.216 -10.125  18.769  1.00  0.00    -0.299 OA
BRANCH  13  15
ATOM     15  C   UNL     1      16.436  -8.511  20.470  1.00  0.00     0.106 CG0
ATOM     16  G   UNL     1      15.008  -8.133  20.815  1.00  0.00     0.000 G0
ENDBRANCH  13  15
ENDBRANCH  12  13
BRANCH  12  17
ATOM     17  C   UNL     1      18.400  -8.605  17.327  1.00  0.00    -0.006 C 
ATOM     18  C   UNL     1      19.485  -7.530  17.134  1.00  0.00     0.008 C 
ATOM     19  C   UNL     1      18.139  -9.336  16.000  1.00  0.00     0.008 C 
ENDBRANCH  12  17
ENDBRANCH  11  12
ENDBRANCH   1  11
TORSDOF 1
ENDMDL
MODEL 8
REMARK VINA RESULT:    -2.930      2.438      4.859
REMARK INTER + INTRA:          -4.678
REMARK INTER:                  -4.501
REMARK INTRA:                  -0.176
REMARK UNBOUND:                -0.207
REMARK SMILES CC1=CCC[C@@H](C)C(=O)C[C@H](C(C)C)C(=O)C1
REMARK SMILES IDX 8 1 9 2 6 3 7 4 5 5 4 6 3 7 2 8 1 9 10 11 11 12 15 13 16 14
REMARK SMILES IDX 17 15 12 17 13 18 14 19
REMARK H PARENT
REMARK Flexibility Score: 70.00
ROOT
ATOM      1  C   UNL     1      16.611  -6.597  17.987  1.00  0.00     0.136 C 
ATOM      2  O   UNL     1      16.620  -5.872  17.003  1.00  0.00    -0.299 OA
ENDROOT
BRANCH   1   3
ATOM      3  C   UNL     1      16.799  -8.092  17.825  1.00  0.00     0.053 C 
ATOM      4  C   UNL     1      17.868  -8.354  16.760  1.00  0.00     0.016 C 
BRANCH   3   5
ATOM      5  C   UNL     1      15.478  -8.799  17.445  1.00  0.00     0.015 C 
BRANCH   5   6
ATOM      6  C   UNL     1      15.074  -9.902  18.434  1.00  0.00     0.028 C 
BRANCH   6   7
ATOM      7  C   UNL     1      13.746  -9.594  19.085  1.00  0.00    -0.028 C 
ATOM      8  C   UNL     1      13.564  -8.811  20.173  1.00  0.00    -0.070 CG0
ATOM      9  C   UNL     1      12.156  -8.621  20.680  1.00  0.00     0.039 C 
ATOM     10  G   UNL     1      14.704  -8.150  20.922  1.00  0.00     0.000 G0
ENDBRANCH   6   7
ENDBRANCH   5   6
ENDBRANCH   3   5
ENDBRANCH   1   3
BRANCH   1  11
ATOM     11  C   UNL     1      16.428  -5.978  19.349  1.00  0.00     0.087 C 
BRANCH  11  12
ATOM     12  C   UNL     1      14.932  -5.825  19.720  1.00  0.00     0.066 C 
BRANCH  12  13
ATOM     13  C   UNL     1      14.585  -6.650  20.949  1.00  0.00     0.140 C 
ATOM     14  O   UNL     1      14.167  -6.096  21.956  1.00  0.00    -0.299 OA
BRANCH  13  15
ATOM     15  C   UNL     1      14.707  -8.152  20.944  1.00  0.00     0.106 CG0
ATOM     16  G   UNL     1      13.565  -8.786  20.175  1.00  0.00     0.000 G0
ENDBRANCH  13  15
ENDBRANCH  12  13
BRANCH  12  17
ATOM     17  C   UNL     1      14.525  -4.329  19.880  1.00  0.00    -0.006 C 
ATOM     18  C   UNL     1      13.917  -3.706  18.611  1.00  0.00     0.008 C 
ATOM     19  C   UNL     1      15.705  -3.475  20.374  1.00  0.00     0.008 C 
ENDBRANCH  12  17
ENDBRANCH  11  12
ENDBRANCH   1  11
TORSDOF 1
ENDMDL
MODEL 9
REMARK VINA RESULT:    -2.926      2.304      4.155
REMARK INTER + INTRA:          -4.672
REMARK INTER:                  -4.543
REMARK INTRA:                  -0.129
REMARK UNBOUND:                -0.207
REMARK SMILES CC1=CCC[C@@H](C)C(=O)C[C@H](C(C)C)C(=O)C1
REMARK SMILES IDX 8 1 9 2 6 3 7 4 5 5 4 6 3 7 2 8 1 9 10 11 11 12 15 13 16 14
REMARK SMILES IDX 17 15 12 17 13 18 14 19
REMARK H PARENT
REMARK Flexibility Score: 70.00
ROOT
ATOM      1  C   UNL     1      17.479  -6.915  17.562  1.00  0.00     0.136 C 
ATOM      2  O   UNL     1      17.099  -6.326  16.560  1.00  0.00    -0.299 OA
ENDROOT
BRANCH   1   3
ATOM      3  C   UNL     1      18.487  -8.040  17.439  1.00  0.00     0.053 C 
ATOM      4  C   UNL     1      19.754  -7.512  16.761  1.00  0.00     0.016 C 
BRANCH   3   5
ATOM      5  C   UNL     1      17.915  -9.239  16.647  1.00  0.00     0.015 C 
BRANCH   5   6
ATOM      6  C   UNL     1      16.699  -9.889  17.324  1.00  0.00     0.028 C 
BRANCH   6   7
ATOM      7  C   UNL     1      16.952 -10.124  18.795  1.00  0.00    -0.028 C 
ATOM      8  C   UNL     1      16.128  -9.764  19.805  1.00  0.00    -0.070 CG0
ATOM      9  C   UNL     1      16.554 -10.085  21.215  1.00  0.00     0.039 C 
ATOM     10  G   UNL     1      14.822  -9.024  19.589  1.00  0.00     0.000 G0
ENDBRANCH   6   7
ENDBRANCH   5   6
ENDBRANCH   3   5
ENDBRANCH   1   3
BRANCH   1  11
ATOM     11  C   UNL     1      16.945  -6.492  18.905  1.00  0.00     0.087 C 
BRANCH  11  12
ATOM     12  C   UNL     1      15.398  -6.548  18.957  1.00  0.00     0.066 C 
BRANCH  12  13
ATOM     13  C   UNL     1      14.921  -7.577  19.970  1.00  0.00     0.140 C 
ATOM     14  O   UNL     1      14.595  -7.219  21.094  1.00  0.00    -0.299 OA
BRANCH  13  15
ATOM     15  C   UNL     1      14.799  -9.034  19.608  1.00  0.00     0.106 CG0
ATOM     16  G   UNL     1      16.117  -9.756  19.813  1.00  0.00     0.000 G0
ENDBRANCH  13  15
ENDBRANCH  12  13
BRANCH  12  17
ATOM     17  C   UNL     1      14.775  -5.141  19.209  1.00  0.00    -0.006 C 
ATOM     18  C   UNL     1      13.869  -4.645  18.068  1.00  0.00     0.008 C 
ATOM     19  C   UNL     1      15.859  -4.094  19.516  1.00  0.00     0.008 C 
ENDBRANCH  12  17
ENDBRANCH  11  12
ENDBRANCH   1  11
TORSDOF 1
ENDMDL
