MODEL 1
REMARK VINA RESULT:    -3.816      0.000      0.000
REMARK INTER + INTRA:         -14.803
REMARK INTER:                  -9.616
REMARK INTRA:                  -5.187
REMARK UNBOUND:                -5.187
REMARK SMILES CCCCCCCCCCCCCCCCCCCCCCCCCCCC(=O)[O-]
REMARK SMILES IDX 15 1 16 2 17 3 18 4 19 5 20 6 21 7 22 8 23 9 24 10 25 11
REMARK SMILES IDX 26 12 27 13 28 14 29 15 30 16 14 17 13 18 12 19 11 20 10 21
REMARK SMILES IDX 9 22 8 23 7 24 6 25 5 26 4 27 3 28 2 29 1 30
REMARK H PARENT
REMARK Flexibility Score: inf
ROOT
ATOM      1  C   UNL     1     104.724  97.027  97.500  1.00  0.00     0.000 C 
ENDROOT
BRANCH   1   2
ATOM      2  C   UNL     1     104.252  95.638  97.986  1.00  0.00     0.000 C 
BRANCH   2   3
ATOM      3  C   UNL     1     102.858  95.640  98.642  1.00  0.00     0.000 C 
BRANCH   3   4
ATOM      4  C   UNL     1     101.995  96.883  98.350  1.00  0.00     0.000 C 
BRANCH   4   5
ATOM      5  C   UNL     1     101.670  97.757  99.575  1.00  0.00     0.000 C 
BRANCH   5   6
ATOM      6  C   UNL     1     102.189  99.195  99.443  1.00  0.00     0.000 C 
BRANCH   6   7
ATOM      7  C   UNL     1     103.327  99.462 100.442  1.00  0.00     0.000 C 
BRANCH   7   8
ATOM      8  C   UNL     1     104.487 100.265  99.822  1.00  0.00     0.000 C 
BRANCH   8   9
ATOM      9  C   UNL     1     104.383 100.444  98.294  1.00  0.00     0.000 C 
BRANCH   9  10
ATOM     10  C   UNL     1     104.749 101.860  97.801  1.00  0.00     0.000 C 
BRANCH  10  11
ATOM     11  C   UNL     1     106.021 101.894  96.935  1.00  0.00     0.000 C 
BRANCH  11  12
ATOM     12  C   UNL     1     106.744 100.534  96.911  1.00  0.00     0.006 C 
BRANCH  12  13
ATOM     13  C   UNL     1     108.270 100.691  96.867  1.00  0.00     0.053 C 
BRANCH  13  14
ATOM     14  C   UNL     1     108.960  99.685  97.738  1.00  0.00     0.041 C 
ATOM     15  O   UNL     1     108.423  98.569  97.965  1.00  0.00    -0.550 OA
ATOM     16  O   UNL     1     110.185  99.991  98.318  1.00  0.00    -0.550 OA
ENDBRANCH  13  14
ENDBRANCH  12  13
ENDBRANCH  11  12
ENDBRANCH  10  11
ENDBRANCH   9  10
ENDBRANCH   8   9
ENDBRANCH   7   8
ENDBRANCH   6   7
ENDBRANCH   5   6
ENDBRANCH   4   5
ENDBRANCH   3   4
ENDBRANCH   2   3
ENDBRANCH   1   2
BRANCH   1  17
ATOM     17  C   UNL     1     105.685  97.007  96.293  1.00  0.00     0.000 C 
BRANCH  17  18
ATOM     18  C   UNL     1     105.174  97.707  95.015  1.00  0.00     0.000 C 
BRANCH  18  19
ATOM     19  C   UNL     1     103.791  98.369  95.140  1.00  0.00     0.000 C 
BRANCH  19  20
ATOM     20  C   UNL     1     103.797  99.842  94.696  1.00  0.00     0.000 C 
BRANCH  20  21
ATOM     21  C   UNL     1     102.410 100.501  94.805  1.00  0.00     0.000 C 
BRANCH  21  22
ATOM     22  C   UNL     1     101.534  99.975  95.959  1.00  0.00    -0.000 C 
BRANCH  22  23
ATOM     23  C   UNL     1     100.625 101.030  96.620  1.00  0.00    -0.000 C 
BRANCH  23  24
ATOM     24  C   UNL     1      99.412 100.462  97.387  1.00  0.00    -0.000 C 
BRANCH  24  25
ATOM     25  C   UNL     1      98.432  99.632  96.537  1.00  0.00    -0.000 C 
BRANCH  25  26
ATOM     26  C   UNL     1      98.546  98.119  96.796  1.00  0.00    -0.000 C 
BRANCH  26  27
ATOM     27  C   UNL     1      99.124  97.360  95.591  1.00  0.00    -0.000 C 
BRANCH  27  28
ATOM     28  C   UNL     1      99.052  95.832  95.764  1.00  0.00    -0.000 C 
BRANCH  28  29
ATOM     29  C   UNL     1      98.428  95.421  97.108  1.00  0.00    -0.003 C 
ATOM     30  C   UNL     1      99.279  94.405  97.869  1.00  0.00     0.004 C 
ENDBRANCH  28  29
ENDBRANCH  27  28
ENDBRANCH  26  27
ENDBRANCH  25  26
ENDBRANCH  24  25
ENDBRANCH  23  24
ENDBRANCH  22  23
ENDBRANCH  21  22
ENDBRANCH  20  21
ENDBRANCH  19  20
ENDBRANCH  18  19
ENDBRANCH  17  18
ENDBRANCH   1  17
TORSDOF 26
ENDMDL
MODEL 2
REMARK VINA RESULT:    -3.803      1.604      4.225
REMARK INTER + INTRA:         -14.772
REMARK INTER:                  -9.119
REMARK INTRA:                  -5.653
REMARK UNBOUND:                -5.187
REMARK SMILES CCCCCCCCCCCCCCCCCCCCCCCCCCCC(=O)[O-]
REMARK SMILES IDX 15 1 16 2 17 3 18 4 19 5 20 6 21 7 22 8 23 9 24 10 25 11
REMARK SMILES IDX 26 12 27 13 28 14 29 15 30 16 14 17 13 18 12 19 11 20 10 21
REMARK SMILES IDX 9 22 8 23 7 24 6 25 5 26 4 27 3 28 2 29 1 30
REMARK H PARENT
REMARK Flexibility Score: inf
ROOT
ATOM      1  C   UNL     1     103.779  97.666  98.193  1.00  0.00     0.000 C 
ENDROOT
BRANCH   1   2
ATOM      2  C   UNL     1     103.873  97.546  96.655  1.00  0.00     0.000 C 
BRANCH   2   3
ATOM      3  C   UNL     1     102.809  98.361  95.895  1.00  0.00     0.000 C 
BRANCH   3   4
ATOM      4  C   UNL     1     103.353  99.291  94.794  1.00  0.00     0.000 C 
BRANCH   4   5
ATOM      5  C   UNL     1     102.493 100.534  94.501  1.00  0.00     0.000 C 
BRANCH   5   6
ATOM      6  C   UNL     1     101.034 100.375  94.951  1.00  0.00     0.000 C 
BRANCH   6   7
ATOM      7  C   UNL     1     100.564 101.611  95.734  1.00  0.00     0.000 C 
BRANCH   7   8
ATOM      8  C   UNL     1     101.668 102.202  96.633  1.00  0.00     0.000 C 
BRANCH   8   9
ATOM      9  C   UNL     1     101.721 101.590  98.047  1.00  0.00     0.000 C 
BRANCH   9  10
ATOM     10  C   UNL     1     103.150 101.289  98.548  1.00  0.00     0.000 C 
BRANCH  10  11
ATOM     11  C   UNL     1     104.246 101.712  97.553  1.00  0.00     0.000 C 
BRANCH  11  12
ATOM     12  C   UNL     1     105.514 100.848  97.683  1.00  0.00     0.006 C 
BRANCH  12  13
ATOM     13  C   UNL     1     106.254 100.700  96.347  1.00  0.00     0.053 C 
BRANCH  13  14
ATOM     14  C   UNL     1     107.105  99.467  96.313  1.00  0.00     0.041 C 
ATOM     15  O   UNL     1     107.146  98.698  97.310  1.00  0.00    -0.550 OA
ATOM     16  O   UNL     1     107.870  99.180  95.189  1.00  0.00    -0.550 OA
ENDBRANCH  13  14
ENDBRANCH  12  13
ENDBRANCH  11  12
ENDBRANCH  10  11
ENDBRANCH   9  10
ENDBRANCH   8   9
ENDBRANCH   7   8
ENDBRANCH   6   7
ENDBRANCH   5   6
ENDBRANCH   4   5
ENDBRANCH   3   4
ENDBRANCH   2   3
ENDBRANCH   1   2
BRANCH   1  17
ATOM     17  C   UNL     1     102.349  97.600  98.769  1.00  0.00     0.000 C 
BRANCH  17  18
ATOM     18  C   UNL     1     101.560  96.308  98.465  1.00  0.00     0.000 C 
BRANCH  18  19
ATOM     19  C   UNL     1     100.083  96.517  98.089  1.00  0.00     0.000 C 
BRANCH  19  20
ATOM     20  C   UNL     1      99.344  95.193  97.834  1.00  0.00     0.000 C 
BRANCH  20  21
ATOM     21  C   UNL     1      98.772  95.097  96.408  1.00  0.00     0.000 C 
BRANCH  21  22
ATOM     22  C   UNL     1      99.288  96.173  95.431  1.00  0.00    -0.000 C 
BRANCH  22  23
ATOM     23  C   UNL     1      98.244  97.227  95.011  1.00  0.00    -0.000 C 
BRANCH  23  24
ATOM     24  C   UNL     1      96.944  97.228  95.841  1.00  0.00    -0.000 C 
BRANCH  24  25
ATOM     25  C   UNL     1      96.930  98.204  97.033  1.00  0.00    -0.000 C 
BRANCH  25  26
ATOM     26  C   UNL     1      97.956  99.342  96.886  1.00  0.00    -0.000 C 
BRANCH  26  27
ATOM     27  C   UNL     1      98.386  99.922  98.243  1.00  0.00    -0.000 C 
BRANCH  27  28
ATOM     28  C   UNL     1      97.539  99.387  99.412  1.00  0.00    -0.000 C 
BRANCH  28  29
ATOM     29  C   UNL     1      98.400  98.897 100.587  1.00  0.00    -0.003 C 
ATOM     30  C   UNL     1      99.821  99.460 100.553  1.00  0.00     0.004 C 
ENDBRANCH  28  29
ENDBRANCH  27  28
ENDBRANCH  26  27
ENDBRANCH  25  26
ENDBRANCH  24  25
ENDBRANCH  23  24
ENDBRANCH  22  23
ENDBRANCH  21  22
ENDBRANCH  20  21
ENDBRANCH  19  20
ENDBRANCH  18  19
ENDBRANCH  17  18
ENDBRANCH   1  17
TORSDOF 26
ENDMDL
MODEL 3
REMARK VINA RESULT:    -3.793      1.873      4.489
REMARK INTER + INTRA:         -14.744
REMARK INTER:                  -9.447
REMARK INTRA:                  -5.298
REMARK UNBOUND:                -5.187
REMARK SMILES CCCCCCCCCCCCCCCCCCCCCCCCCCCC(=O)[O-]
REMARK SMILES IDX 15 1 16 2 17 3 18 4 19 5 20 6 21 7 22 8 23 9 24 10 25 11
REMARK SMILES IDX 26 12 27 13 28 14 29 15 30 16 14 17 13 18 12 19 11 20 10 21
REMARK SMILES IDX 9 22 8 23 7 24 6 25 5 26 4 27 3 28 2 29 1 30
REMARK H PARENT
REMARK Flexibility Score: inf
ROOT
ATOM      1  C   UNL     1     102.251  98.008 101.453  1.00  0.00     0.000 C 
ENDROOT
BRANCH   1   2
ATOM      2  C   UNL     1     101.250  99.120 101.843  1.00  0.00     0.000 C 
BRANCH   2   3
ATOM      3  C   UNL     1     100.064  99.268 100.871  1.00  0.00     0.000 C 
BRANCH   3   4
ATOM      4  C   UNL     1      99.960 100.631 100.160  1.00  0.00     0.000 C 
BRANCH   4   5
ATOM      5  C   UNL     1     101.303 101.333  99.891  1.00  0.00     0.000 C 
BRANCH   5   6
ATOM      6  C   UNL     1     101.484 101.743  98.422  1.00  0.00     0.000 C 
BRANCH   6   7
ATOM      7  C   UNL     1     102.588 100.909  97.753  1.00  0.00     0.000 C 
BRANCH   7   8
ATOM      8  C   UNL     1     102.028  99.818  96.818  1.00  0.00     0.000 C 
BRANCH   8   9
ATOM      9  C   UNL     1     102.720  99.754  95.442  1.00  0.00     0.000 C 
BRANCH   9  10
ATOM     10  C   UNL     1     103.368  98.388  95.129  1.00  0.00     0.000 C 
BRANCH  10  11
ATOM     11  C   UNL     1     104.154  97.800  96.315  1.00  0.00     0.000 C 
BRANCH  11  12
ATOM     12  C   UNL     1     105.522  97.240  95.885  1.00  0.00     0.006 C 
BRANCH  12  13
ATOM     13  C   UNL     1     106.685  97.948  96.593  1.00  0.00     0.053 C 
BRANCH  13  14
ATOM     14  C   UNL     1     107.400  98.899  95.681  1.00  0.00     0.041 C 
ATOM     15  O   UNL     1     106.899  99.204  94.567  1.00  0.00    -0.550 OA
ATOM     16  O   UNL     1     108.630  99.428  96.052  1.00  0.00    -0.550 OA
ENDBRANCH  13  14
ENDBRANCH  12  13
ENDBRANCH  11  12
ENDBRANCH  10  11
ENDBRANCH   9  10
ENDBRANCH   8   9
ENDBRANCH   7   8
ENDBRANCH   6   7
ENDBRANCH   5   6
ENDBRANCH   4   5
ENDBRANCH   3   4
ENDBRANCH   2   3
ENDBRANCH   1   2
BRANCH   1  17
ATOM     17  C   UNL     1     102.451  97.812  99.936  1.00  0.00     0.000 C 
BRANCH  17  18
ATOM     18  C   UNL     1     102.731  96.365  99.476  1.00  0.00     0.000 C 
BRANCH  18  19
ATOM     19  C   UNL     1     101.791  95.834  98.380  1.00  0.00     0.000 C 
BRANCH  19  20
ATOM     20  C   UNL     1     100.611  96.780  98.100  1.00  0.00     0.000 C 
BRANCH  20  21
ATOM     21  C   UNL     1     100.032  96.606  96.685  1.00  0.00     0.000 C 
BRANCH  21  22
ATOM     22  C   UNL     1      98.930  95.534  96.565  1.00  0.00    -0.000 C 
BRANCH  22  23
ATOM     23  C   UNL     1      98.328  95.065  97.904  1.00  0.00    -0.000 C 
BRANCH  23  24
ATOM     24  C   UNL     1      96.989  95.728  98.288  1.00  0.00    -0.000 C 
BRANCH  24  25
ATOM     25  C   UNL     1      97.078  96.777  99.412  1.00  0.00    -0.000 C 
BRANCH  25  26
ATOM     26  C   UNL     1      97.099  98.222  98.881  1.00  0.00    -0.000 C 
BRANCH  26  27
ATOM     27  C   UNL     1      96.412  98.354  97.512  1.00  0.00    -0.000 C 
BRANCH  27  28
ATOM     28  C   UNL     1      97.347  98.932  96.434  1.00  0.00    -0.000 C 
BRANCH  28  29
ATOM     29  C   UNL     1      98.291 100.010  96.991  1.00  0.00    -0.003 C 
ATOM     30  C   UNL     1      98.658 101.068  95.952  1.00  0.00     0.004 C 
ENDBRANCH  28  29
ENDBRANCH  27  28
ENDBRANCH  26  27
ENDBRANCH  25  26
ENDBRANCH  24  25
ENDBRANCH  23  24
ENDBRANCH  22  23
ENDBRANCH  21  22
ENDBRANCH  20  21
ENDBRANCH  19  20
ENDBRANCH  18  19
ENDBRANCH  17  18
ENDBRANCH   1  17
TORSDOF 26
ENDMDL
MODEL 4
REMARK VINA RESULT:    -3.787      1.444      3.684
REMARK INTER + INTRA:         -14.731
REMARK INTER:                  -9.869
REMARK INTRA:                  -4.861
REMARK UNBOUND:                -5.187
REMARK SMILES CCCCCCCCCCCCCCCCCCCCCCCCCCCC(=O)[O-]
REMARK SMILES IDX 15 1 16 2 17 3 18 4 19 5 20 6 21 7 22 8 23 9 24 10 25 11
REMARK SMILES IDX 26 12 27 13 28 14 29 15 30 16 14 17 13 18 12 19 11 20 10 21
REMARK SMILES IDX 9 22 8 23 7 24 6 25 5 26 4 27 3 28 2 29 1 30
REMARK H PARENT
REMARK Flexibility Score: inf
ROOT
ATOM      1  C   UNL     1     103.618  96.075  98.378  1.00  0.00     0.000 C 
ENDROOT
BRANCH   1   2
ATOM      2  C   UNL     1     104.025  97.174  97.370  1.00  0.00     0.000 C 
BRANCH   2   3
ATOM      3  C   UNL     1     105.287  96.840  96.551  1.00  0.00     0.000 C 
BRANCH   3   4
ATOM      4  C   UNL     1     105.417  97.583  95.208  1.00  0.00     0.000 C 
BRANCH   4   5
ATOM      5  C   UNL     1     104.461  98.776  95.024  1.00  0.00     0.000 C 
BRANCH   5   6
ATOM      6  C   UNL     1     105.153 100.135  95.199  1.00  0.00     0.000 C 
BRANCH   6   7
ATOM      7  C   UNL     1     104.998 100.648  96.640  1.00  0.00     0.000 C 
BRANCH   7   8
ATOM      8  C   UNL     1     105.987 101.781  96.979  1.00  0.00     0.000 C 
BRANCH   8   9
ATOM      9  C   UNL     1     107.214 101.843  96.047  1.00  0.00     0.000 C 
BRANCH   9  10
ATOM     10  C   UNL     1     108.495 101.231  96.654  1.00  0.00     0.000 C 
BRANCH  10  11
ATOM     11  C   UNL     1     108.688  99.746  96.300  1.00  0.00     0.000 C 
BRANCH  11  12
ATOM     12  C   UNL     1     108.213  98.813  97.428  1.00  0.00     0.006 C 
BRANCH  12  13
ATOM     13  C   UNL     1     108.378  99.450  98.814  1.00  0.00     0.053 C 
BRANCH  13  14
ATOM     14  C   UNL     1     109.653  99.025  99.478  1.00  0.00     0.041 C 
ATOM     15  O   UNL     1     109.628  98.189 100.420  1.00  0.00    -0.550 OA
ATOM     16  O   UNL     1     110.865  99.569  99.071  1.00  0.00    -0.550 OA
ENDBRANCH  13  14
ENDBRANCH  12  13
ENDBRANCH  11  12
ENDBRANCH  10  11
ENDBRANCH   9  10
ENDBRANCH   8   9
ENDBRANCH   7   8
ENDBRANCH   6   7
ENDBRANCH   5   6
ENDBRANCH   4   5
ENDBRANCH   3   4
ENDBRANCH   2   3
ENDBRANCH   1   2
BRANCH   1  17
ATOM     17  C   UNL     1     102.603  96.517  99.453  1.00  0.00     0.000 C 
BRANCH  17  18
ATOM     18  C   UNL     1     102.595  98.023  99.793  1.00  0.00     0.000 C 
BRANCH  18  19
ATOM     19  C   UNL     1     101.233  98.587 100.234  1.00  0.00     0.000 C 
BRANCH  19  20
ATOM     20  C   UNL     1     100.728  99.708  99.310  1.00  0.00     0.000 C 
BRANCH  20  21
ATOM     21  C   UNL     1     101.770 100.125  98.258  1.00  0.00     0.000 C 
BRANCH  21  22
ATOM     22  C   UNL     1     101.383  99.802  96.801  1.00  0.00    -0.000 C 
BRANCH  22  23
ATOM     23  C   UNL     1     100.202  98.824  96.642  1.00  0.00    -0.000 C 
BRANCH  23  24
ATOM     24  C   UNL     1     100.596  97.370  96.308  1.00  0.00    -0.000 C 
BRANCH  24  25
ATOM     25  C   UNL     1      99.456  96.495  95.753  1.00  0.00    -0.000 C 
BRANCH  25  26
ATOM     26  C   UNL     1      98.921  95.485  96.784  1.00  0.00    -0.000 C 
BRANCH  26  27
ATOM     27  C   UNL     1      97.502  95.831  97.262  1.00  0.00    -0.000 C 
BRANCH  27  28
ATOM     28  C   UNL     1      97.429  96.064  98.782  1.00  0.00    -0.000 C 
BRANCH  28  29
ATOM     29  C   UNL     1      97.762  97.514  99.170  1.00  0.00    -0.003 C 
ATOM     30  C   UNL     1      96.973  98.540  98.357  1.00  0.00     0.004 C 
ENDBRANCH  28  29
ENDBRANCH  27  28
ENDBRANCH  26  27
ENDBRANCH  25  26
ENDBRANCH  24  25
ENDBRANCH  23  24
ENDBRANCH  22  23
ENDBRANCH  21  22
ENDBRANCH  20  21
ENDBRANCH  19  20
ENDBRANCH  18  19
ENDBRANCH  17  18
ENDBRANCH   1  17
TORSDOF 26
ENDMDL
MODEL 5
REMARK VINA RESULT:    -3.777      1.723      4.496
REMARK INTER + INTRA:         -14.707
REMARK INTER:                  -9.684
REMARK INTRA:                  -5.022
REMARK UNBOUND:                -5.187
REMARK SMILES CCCCCCCCCCCCCCCCCCCCCCCCCCCC(=O)[O-]
REMARK SMILES IDX 15 1 16 2 17 3 18 4 19 5 20 6 21 7 22 8 23 9 24 10 25 11
REMARK SMILES IDX 26 12 27 13 28 14 29 15 30 16 14 17 13 18 12 19 11 20 10 21
REMARK SMILES IDX 9 22 8 23 7 24 6 25 5 26 4 27 3 28 2 29 1 30
REMARK H PARENT
REMARK Flexibility Score: inf
ROOT
ATOM      1  C   UNL     1     102.632  96.818  99.358  1.00  0.00     0.000 C 
ENDROOT
BRANCH   1   2
ATOM      2  C   UNL     1     103.153  95.491  98.761  1.00  0.00     0.000 C 
BRANCH   2   3
ATOM      3  C   UNL     1     104.394  95.650  97.862  1.00  0.00     0.000 C 
BRANCH   3   4
ATOM      4  C   UNL     1     104.653  97.076  97.340  1.00  0.00     0.000 C 
BRANCH   4   5
ATOM      5  C   UNL     1     105.186  97.160  95.899  1.00  0.00     0.000 C 
BRANCH   5   6
ATOM      6  C   UNL     1     104.368  98.104  95.008  1.00  0.00     0.000 C 
BRANCH   6   7
ATOM      7  C   UNL     1     102.999  98.404  95.639  1.00  0.00     0.000 C 
BRANCH   7   8
ATOM      8  C   UNL     1     102.736  99.914  95.804  1.00  0.00     0.000 C 
BRANCH   8   9
ATOM      9  C   UNL     1     102.634 100.376  97.271  1.00  0.00     0.000 C 
BRANCH   9  10
ATOM     10  C   UNL     1     103.999 100.578  97.963  1.00  0.00     0.000 C 
BRANCH  10  11
ATOM     11  C   UNL     1     104.896 101.608  97.253  1.00  0.00     0.000 C 
BRANCH  11  12
ATOM     12  C   UNL     1     106.148 100.959  96.635  1.00  0.00     0.006 C 
BRANCH  12  13
ATOM     13  C   UNL     1     106.934 100.127  97.657  1.00  0.00     0.053 C 
BRANCH  13  14
ATOM     14  C   UNL     1     107.842  99.137  96.992  1.00  0.00     0.041 C 
ATOM     15  O   UNL     1     108.235  98.118  97.620  1.00  0.00    -0.550 OA
ATOM     16  O   UNL     1     108.272  99.352  95.689  1.00  0.00    -0.550 OA
ENDBRANCH  13  14
ENDBRANCH  12  13
ENDBRANCH  11  12
ENDBRANCH  10  11
ENDBRANCH   9  10
ENDBRANCH   8   9
ENDBRANCH   7   8
ENDBRANCH   6   7
ENDBRANCH   5   6
ENDBRANCH   4   5
ENDBRANCH   3   4
ENDBRANCH   2   3
ENDBRANCH   1   2
BRANCH   1  17
ATOM     17  C   UNL     1     101.259  97.280  98.828  1.00  0.00     0.000 C 
BRANCH  17  18
ATOM     18  C   UNL     1     100.744  96.551  97.567  1.00  0.00     0.000 C 
BRANCH  18  19
ATOM     19  C   UNL     1      99.661  95.489  97.822  1.00  0.00     0.000 C 
BRANCH  19  20
ATOM     20  C   UNL     1      98.240  96.079  97.821  1.00  0.00     0.000 C 
BRANCH  20  21
ATOM     21  C   UNL     1      97.268  95.287  98.714  1.00  0.00     0.000 C 
BRANCH  21  22
ATOM     22  C   UNL     1      96.558  96.124  99.797  1.00  0.00    -0.000 C 
BRANCH  22  23
ATOM     23  C   UNL     1      96.528  97.643  99.532  1.00  0.00    -0.000 C 
BRANCH  23  24
ATOM     24  C   UNL     1      97.290  98.502 100.562  1.00  0.00    -0.000 C 
BRANCH  24  25
ATOM     25  C   UNL     1      98.620  99.096 100.061  1.00  0.00    -0.000 C 
BRANCH  25  26
ATOM     26  C   UNL     1      98.533 100.607  99.781  1.00  0.00    -0.000 C 
BRANCH  26  27
ATOM     27  C   UNL     1      98.448 100.922  98.278  1.00  0.00    -0.000 C 
BRANCH  27  28
ATOM     28  C   UNL     1      98.906  99.744  97.400  1.00  0.00    -0.000 C 
BRANCH  28  29
ATOM     29  C   UNL     1      98.988 100.118  95.911  1.00  0.00    -0.003 C 
ATOM     30  C   UNL     1      99.388 101.576  95.689  1.00  0.00     0.004 C 
ENDBRANCH  28  29
ENDBRANCH  27  28
ENDBRANCH  26  27
ENDBRANCH  25  26
ENDBRANCH  24  25
ENDBRANCH  23  24
ENDBRANCH  22  23
ENDBRANCH  21  22
ENDBRANCH  20  21
ENDBRANCH  19  20
ENDBRANCH  18  19
ENDBRANCH  17  18
ENDBRANCH   1  17
TORSDOF 26
ENDMDL
MODEL 6
REMARK VINA RESULT:    -3.744      3.312      6.765
REMARK INTER + INTRA:         -14.622
REMARK INTER:                  -8.883
REMARK INTRA:                  -5.739
REMARK UNBOUND:                -5.187
REMARK SMILES CCCCCCCCCCCCCCCCCCCCCCCCCCCC(=O)[O-]
REMARK SMILES IDX 15 1 16 2 17 3 18 4 19 5 20 6 21 7 22 8 23 9 24 10 25 11
REMARK SMILES IDX 26 12 27 13 28 14 29 15 30 16 14 17 13 18 12 19 11 20 10 21
REMARK SMILES IDX 9 22 8 23 7 24 6 25 5 26 4 27 3 28 2 29 1 30
REMARK H PARENT
REMARK Flexibility Score: inf
ROOT
ATOM      1  C   UNL     1     103.342  96.157  98.410  1.00  0.00     0.000 C 
ENDROOT
BRANCH   1   2
ATOM      2  C   UNL     1     102.381  96.748  99.467  1.00  0.00     0.000 C 
BRANCH   2   3
ATOM      3  C   UNL     1     102.779  98.151  99.964  1.00  0.00     0.000 C 
BRANCH   3   4
ATOM      4  C   UNL     1     101.657  98.949 100.656  1.00  0.00     0.000 C 
BRANCH   4   5
ATOM      5  C   UNL     1     100.267  98.821 100.007  1.00  0.00     0.000 C 
BRANCH   5   6
ATOM      6  C   UNL     1      99.699 100.166  99.532  1.00  0.00     0.000 C 
BRANCH   6   7
ATOM      7  C   UNL     1     100.829 101.129  99.135  1.00  0.00     0.000 C 
BRANCH   7   8
ATOM      8  C   UNL     1     100.980 101.274  97.608  1.00  0.00     0.000 C 
BRANCH   8   9
ATOM      9  C   UNL     1     101.740 100.111  96.939  1.00  0.00     0.000 C 
BRANCH   9  10
ATOM     10  C   UNL     1     100.897  99.314  95.920  1.00  0.00     0.000 C 
BRANCH  10  11
ATOM     11  C   UNL     1     100.903  97.797  96.179  1.00  0.00     0.000 C 
BRANCH  11  12
ATOM     12  C   UNL     1      99.551  97.294  96.718  1.00  0.00     0.006 C 
BRANCH  12  13
ATOM     13  C   UNL     1      99.255  95.853  96.283  1.00  0.00     0.053 C 
BRANCH  13  14
ATOM     14  C   UNL     1      98.613  95.058  97.380  1.00  0.00     0.041 C 
ATOM     15  O   UNL     1      98.549  93.804  97.299  1.00  0.00    -0.550 OA
ATOM     16  O   UNL     1      98.066  95.707  98.480  1.00  0.00    -0.550 OA
ENDBRANCH  13  14
ENDBRANCH  12  13
ENDBRANCH  11  12
ENDBRANCH  10  11
ENDBRANCH   9  10
ENDBRANCH   8   9
ENDBRANCH   7   8
ENDBRANCH   6   7
ENDBRANCH   5   6
ENDBRANCH   4   5
ENDBRANCH   3   4
ENDBRANCH   2   3
ENDBRANCH   1   2
BRANCH   1  17
ATOM     17  C   UNL     1     104.104  97.198  97.563  1.00  0.00     0.000 C 
BRANCH  17  18
ATOM     18  C   UNL     1     105.266  96.650  96.708  1.00  0.00     0.000 C 
BRANCH  18  19
ATOM     19  C   UNL     1     105.461  97.341  95.348  1.00  0.00     0.000 C 
BRANCH  19  20
ATOM     20  C   UNL     1     104.519  98.541  95.152  1.00  0.00     0.000 C 
BRANCH  20  21
ATOM     21  C   UNL     1     105.277  99.865  94.947  1.00  0.00     0.000 C 
BRANCH  21  22
ATOM     22  C   UNL     1     106.799  99.714  94.754  1.00  0.00    -0.000 C 
BRANCH  22  23
ATOM     23  C   UNL     1     107.663 100.356  95.858  1.00  0.00    -0.000 C 
BRANCH  23  24
ATOM     24  C   UNL     1     107.714  99.574  97.187  1.00  0.00    -0.000 C 
BRANCH  24  25
ATOM     25  C   UNL     1     107.275 100.369  98.430  1.00  0.00    -0.000 C 
BRANCH  25  26
ATOM     26  C   UNL     1     105.858 100.000  98.907  1.00  0.00    -0.000 C 
BRANCH  26  27
ATOM     27  C   UNL     1     104.786 100.952  98.351  1.00  0.00    -0.000 C 
BRANCH  27  28
ATOM     28  C   UNL     1     104.416 102.070  99.342  1.00  0.00    -0.000 C 
BRANCH  28  29
ATOM     29  C   UNL     1     104.240 101.549 100.778  1.00  0.00    -0.003 C 
ATOM     30  C   UNL     1     104.964 102.411 101.812  1.00  0.00     0.004 C 
ENDBRANCH  28  29
ENDBRANCH  27  28
ENDBRANCH  26  27
ENDBRANCH  25  26
ENDBRANCH  24  25
ENDBRANCH  23  24
ENDBRANCH  22  23
ENDBRANCH  21  22
ENDBRANCH  20  21
ENDBRANCH  19  20
ENDBRANCH  18  19
ENDBRANCH  17  18
ENDBRANCH   1  17
TORSDOF 26
ENDMDL
MODEL 7
REMARK VINA RESULT:    -3.743      2.453      5.064
REMARK INTER + INTRA:         -14.619
REMARK INTER:                  -8.931
REMARK INTRA:                  -5.688
REMARK UNBOUND:                -5.187
REMARK SMILES CCCCCCCCCCCCCCCCCCCCCCCCCCCC(=O)[O-]
REMARK SMILES IDX 15 1 16 2 17 3 18 4 19 5 20 6 21 7 22 8 23 9 24 10 25 11
REMARK SMILES IDX 26 12 27 13 28 14 29 15 30 16 14 17 13 18 12 19 11 20 10 21
REMARK SMILES IDX 9 22 8 23 7 24 6 25 5 26 4 27 3 28 2 29 1 30
REMARK H PARENT
REMARK Flexibility Score: inf
ROOT
ATOM      1  C   UNL     1     103.156  96.224  98.446  1.00  0.00     0.000 C 
ENDROOT
BRANCH   1   2
ATOM      2  C   UNL     1     104.163  96.928  97.508  1.00  0.00     0.000 C 
BRANCH   2   3
ATOM      3  C   UNL     1     103.510  97.858  96.468  1.00  0.00     0.000 C 
BRANCH   3   4
ATOM      4  C   UNL     1     104.283  98.012  95.144  1.00  0.00     0.000 C 
BRANCH   4   5
ATOM      5  C   UNL     1     105.705  97.423  95.143  1.00  0.00     0.000 C 
BRANCH   5   6
ATOM      6  C   UNL     1     106.799  98.492  95.271  1.00  0.00     0.000 C 
BRANCH   6   7
ATOM      7  C   UNL     1     107.401  98.494  96.686  1.00  0.00     0.000 C 
BRANCH   7   8
ATOM      8  C   UNL     1     107.303  99.871  97.373  1.00  0.00     0.000 C 
BRANCH   8   9
ATOM      9  C   UNL     1     105.936 100.150  98.029  1.00  0.00     0.000 C 
BRANCH   9  10
ATOM     10  C   UNL     1     105.048 101.133  97.237  1.00  0.00     0.000 C 
BRANCH  10  11
ATOM     11  C   UNL     1     103.636 101.292  97.829  1.00  0.00     0.000 C 
BRANCH  11  12
ATOM     12  C   UNL     1     103.404 100.364  99.035  1.00  0.00     0.006 C 
BRANCH  12  13
ATOM     13  C   UNL     1     102.814 101.113 100.237  1.00  0.00     0.053 C 
BRANCH  13  14
ATOM     14  C   UNL     1     102.109 100.187 101.182  1.00  0.00     0.041 C 
ATOM     15  O   UNL     1     101.071 100.568 101.784  1.00  0.00    -0.550 OA
ATOM     16  O   UNL     1     102.612  98.913 101.413  1.00  0.00    -0.550 OA
ENDBRANCH  13  14
ENDBRANCH  12  13
ENDBRANCH  11  12
ENDBRANCH  10  11
ENDBRANCH   9  10
ENDBRANCH   8   9
ENDBRANCH   7   8
ENDBRANCH   6   7
ENDBRANCH   5   6
ENDBRANCH   4   5
ENDBRANCH   3   4
ENDBRANCH   2   3
ENDBRANCH   1   2
BRANCH   1  17
ATOM     17  C   UNL     1     101.792  96.931  98.590  1.00  0.00     0.000 C 
BRANCH  17  18
ATOM     18  C   UNL     1     100.585  96.197  97.967  1.00  0.00     0.000 C 
BRANCH  18  19
ATOM     19  C   UNL     1     100.127  96.734  96.600  1.00  0.00     0.000 C 
BRANCH  19  20
ATOM     20  C   UNL     1      98.908  95.978  96.044  1.00  0.00     0.000 C 
BRANCH  20  21
ATOM     21  C   UNL     1      97.802  96.922  95.541  1.00  0.00     0.000 C 
BRANCH  21  22
ATOM     22  C   UNL     1      96.791  97.365  96.617  1.00  0.00    -0.000 C 
BRANCH  22  23
ATOM     23  C   UNL     1      96.874  96.591  97.947  1.00  0.00    -0.000 C 
BRANCH  23  24
ATOM     24  C   UNL     1      97.332  97.424  99.162  1.00  0.00    -0.000 C 
BRANCH  24  25
ATOM     25  C   UNL     1      97.609  98.910  98.868  1.00  0.00    -0.000 C 
BRANCH  25  26
ATOM     26  C   UNL     1      99.067  99.314  99.152  1.00  0.00    -0.000 C 
BRANCH  26  27
ATOM     27  C   UNL     1      99.702 100.078  97.979  1.00  0.00    -0.000 C 
BRANCH  27  28
ATOM     28  C   UNL     1      98.706 100.345  96.837  1.00  0.00    -0.000 C 
BRANCH  28  29
ATOM     29  C   UNL     1      99.398 100.465  95.469  1.00  0.00    -0.003 C 
ATOM     30  C   UNL     1     100.914 100.288  95.556  1.00  0.00     0.004 C 
ENDBRANCH  28  29
ENDBRANCH  27  28
ENDBRANCH  26  27
ENDBRANCH  25  26
ENDBRANCH  24  25
ENDBRANCH  23  24
ENDBRANCH  22  23
ENDBRANCH  21  22
ENDBRANCH  20  21
ENDBRANCH  19  20
ENDBRANCH  18  19
ENDBRANCH  17  18
ENDBRANCH   1  17
TORSDOF 26
ENDMDL
MODEL 8
REMARK VINA RESULT:    -3.727      2.782      6.421
REMARK INTER + INTRA:         -14.578
REMARK INTER:                  -8.643
REMARK INTRA:                  -5.935
REMARK UNBOUND:                -5.187
REMARK SMILES CCCCCCCCCCCCCCCCCCCCCCCCCCCC(=O)[O-]
REMARK SMILES IDX 15 1 16 2 17 3 18 4 19 5 20 6 21 7 22 8 23 9 24 10 25 11
REMARK SMILES IDX 26 12 27 13 28 14 29 15 30 16 14 17 13 18 12 19 11 20 10 21
REMARK SMILES IDX 9 22 8 23 7 24 6 25 5 26 4 27 3 28 2 29 1 30
REMARK H PARENT
REMARK Flexibility Score: inf
ROOT
ATOM      1  C   UNL     1     101.949  95.991  98.377  1.00  0.00     0.000 C 
ENDROOT
BRANCH   1   2
ATOM      2  C   UNL     1     100.606  96.693  98.072  1.00  0.00     0.000 C 
BRANCH   2   3
ATOM      3  C   UNL     1     100.380  96.995  96.578  1.00  0.00     0.000 C 
BRANCH   3   4
ATOM      4  C   UNL     1      99.992  98.450  96.251  1.00  0.00     0.000 C 
BRANCH   4   5
ATOM      5  C   UNL     1      98.914  99.061  97.164  1.00  0.00     0.000 C 
BRANCH   5   6
ATOM      6  C   UNL     1      98.746 100.574  96.968  1.00  0.00     0.000 C 
BRANCH   6   7
ATOM      7  C   UNL     1      99.359 101.025  95.632  1.00  0.00     0.000 C 
BRANCH   7   8
ATOM      8  C   UNL     1     100.232 102.287  95.773  1.00  0.00     0.000 C 
BRANCH   8   9
ATOM      9  C   UNL     1     100.291 102.854  97.206  1.00  0.00     0.000 C 
BRANCH   9  10
ATOM     10  C   UNL     1     101.725 103.058  97.741  1.00  0.00     0.000 C 
BRANCH  10  11
ATOM     11  C   UNL     1     101.875 102.701  99.231  1.00  0.00     0.000 C 
BRANCH  11  12
ATOM     12  C   UNL     1     101.039 101.468  99.620  1.00  0.00     0.006 C 
BRANCH  12  13
ATOM     13  C   UNL     1     100.662 101.471 101.107  1.00  0.00     0.053 C 
BRANCH  13  14
ATOM     14  C   UNL     1     101.096 100.213 101.797  1.00  0.00     0.041 C 
ATOM     15  O   UNL     1     100.326  99.217 101.841  1.00  0.00    -0.550 OA
ATOM     16  O   UNL     1     102.341 100.148 102.409  1.00  0.00    -0.550 OA
ENDBRANCH  13  14
ENDBRANCH  12  13
ENDBRANCH  11  12
ENDBRANCH  10  11
ENDBRANCH   9  10
ENDBRANCH   8   9
ENDBRANCH   7   8
ENDBRANCH   6   7
ENDBRANCH   5   6
ENDBRANCH   4   5
ENDBRANCH   3   4
ENDBRANCH   2   3
ENDBRANCH   1   2
BRANCH   1  17
ATOM     17  C   UNL     1     102.953  96.828  99.197  1.00  0.00     0.000 C 
BRANCH  17  18
ATOM     18  C   UNL     1     102.810  98.360  99.074  1.00  0.00     0.000 C 
BRANCH  18  19
ATOM     19  C   UNL     1     104.135  99.142  99.067  1.00  0.00     0.000 C 
BRANCH  19  20
ATOM     20  C   UNL     1     104.207 100.177  97.931  1.00  0.00     0.000 C 
BRANCH  20  21
ATOM     21  C   UNL     1     103.096  99.987  96.883  1.00  0.00     0.000 C 
BRANCH  21  22
ATOM     22  C   UNL     1     103.597  99.652  95.464  1.00  0.00    -0.000 C 
BRANCH  22  23
ATOM     23  C   UNL     1     103.654  98.148  95.130  1.00  0.00    -0.000 C 
BRANCH  23  24
ATOM     24  C   UNL     1     105.071  97.539  95.090  1.00  0.00    -0.000 C 
BRANCH  24  25
ATOM     25  C   UNL     1     105.628  97.090  96.453  1.00  0.00    -0.000 C 
BRANCH  25  26
ATOM     26  C   UNL     1     106.954  97.782  96.815  1.00  0.00    -0.000 C 
BRANCH  26  27
ATOM     27  C   UNL     1     107.422  98.760  95.725  1.00  0.00    -0.000 C 
BRANCH  27  28
ATOM     28  C   UNL     1     107.444 100.221  96.210  1.00  0.00    -0.000 C 
BRANCH  28  29
ATOM     29  C   UNL     1     107.458 101.226  95.046  1.00  0.00    -0.003 C 
ATOM     30  C   UNL     1     106.803 100.674  93.781  1.00  0.00     0.004 C 
ENDBRANCH  28  29
ENDBRANCH  27  28
ENDBRANCH  26  27
ENDBRANCH  25  26
ENDBRANCH  24  25
ENDBRANCH  23  24
ENDBRANCH  22  23
ENDBRANCH  21  22
ENDBRANCH  20  21
ENDBRANCH  19  20
ENDBRANCH  18  19
ENDBRANCH  17  18
ENDBRANCH   1  17
TORSDOF 26
ENDMDL
MODEL 9
REMARK VINA RESULT:    -3.726      3.062      6.622
REMARK INTER + INTRA:         -14.576
REMARK INTER:                  -9.037
REMARK INTRA:                  -5.539
REMARK UNBOUND:                -5.187
REMARK SMILES CCCCCCCCCCCCCCCCCCCCCCCCCCCC(=O)[O-]
REMARK SMILES IDX 15 1 16 2 17 3 18 4 19 5 20 6 21 7 22 8 23 9 24 10 25 11
REMARK SMILES IDX 26 12 27 13 28 14 29 15 30 16 14 17 13 18 12 19 11 20 10 21
REMARK SMILES IDX 9 22 8 23 7 24 6 25 5 26 4 27 3 28 2 29 1 30
REMARK H PARENT
REMARK Flexibility Score: inf
ROOT
ATOM      1  C   UNL     1     103.115  99.923  94.590  1.00  0.00     0.000 C 
ENDROOT
BRANCH   1   2
ATOM      2  C   UNL     1     102.132 100.989  95.127  1.00  0.00     0.000 C 
BRANCH   2   3
ATOM      3  C   UNL     1     100.813 100.409  95.674  1.00  0.00     0.000 C 
BRANCH   3   4
ATOM      4  C   UNL     1     100.633 100.505  97.201  1.00  0.00     0.000 C 
BRANCH   4   5
ATOM      5  C   UNL     1      99.340  99.874  97.749  1.00  0.00     0.000 C 
BRANCH   5   6
ATOM      6  C   UNL     1      99.107 100.176  99.236  1.00  0.00     0.000 C 
BRANCH   6   7
ATOM      7  C   UNL     1      99.519  98.980 100.109  1.00  0.00     0.000 C 
BRANCH   7   8
ATOM      8  C   UNL     1     100.569  99.353 101.174  1.00  0.00     0.000 C 
BRANCH   8   9
ATOM      9  C   UNL     1     101.885  98.555 101.065  1.00  0.00     0.000 C 
BRANCH   9  10
ATOM     10  C   UNL     1     102.230  98.106  99.629  1.00  0.00     0.000 C 
BRANCH  10  11
ATOM     11  C   UNL     1     102.686  96.639  99.542  1.00  0.00     0.000 C 
BRANCH  11  12
ATOM     12  C   UNL     1     101.814  95.816  98.576  1.00  0.00     0.006 C 
BRANCH  12  13
ATOM     13  C   UNL     1     100.929  96.706  97.694  1.00  0.00     0.053 C 
BRANCH  13  14
ATOM     14  C   UNL     1      99.677  96.001  97.267  1.00  0.00     0.041 C 
ATOM     15  O   UNL     1      99.063  95.257  98.076  1.00  0.00    -0.550 OA
ATOM     16  O   UNL     1      99.203  96.149  95.969  1.00  0.00    -0.550 OA
ENDBRANCH  13  14
ENDBRANCH  12  13
ENDBRANCH  11  12
ENDBRANCH  10  11
ENDBRANCH   9  10
ENDBRANCH   8   9
ENDBRANCH   7   8
ENDBRANCH   6   7
ENDBRANCH   5   6
ENDBRANCH   4   5
ENDBRANCH   3   4
ENDBRANCH   2   3
ENDBRANCH   1   2
BRANCH   1  17
ATOM     17  C   UNL     1     103.024  98.544  95.276  1.00  0.00     0.000 C 
BRANCH  17  18
ATOM     18  C   UNL     1     104.038  98.291  96.414  1.00  0.00     0.000 C 
BRANCH  18  19
ATOM     19  C   UNL     1     105.046  97.159  96.151  1.00  0.00     0.000 C 
BRANCH  19  20
ATOM     20  C   UNL     1     106.043  97.501  95.031  1.00  0.00     0.000 C 
BRANCH  20  21
ATOM     21  C   UNL     1     106.646  98.909  95.182  1.00  0.00     0.000 C 
BRANCH  21  22
ATOM     22  C   UNL     1     107.904  98.981  96.072  1.00  0.00    -0.000 C 
BRANCH  22  23
ATOM     23  C   UNL     1     107.850 100.039  97.192  1.00  0.00    -0.000 C 
BRANCH  23  24
ATOM     24  C   UNL     1     106.432 100.501  97.589  1.00  0.00    -0.000 C 
BRANCH  24  25
ATOM     25  C   UNL     1     106.090 101.955  97.213  1.00  0.00    -0.000 C 
BRANCH  25  26
ATOM     26  C   UNL     1     104.691 102.383  97.690  1.00  0.00    -0.000 C 
BRANCH  26  27
ATOM     27  C   UNL     1     103.941 101.246  98.405  1.00  0.00    -0.000 C 
BRANCH  27  28
ATOM     28  C   UNL     1     103.350 101.685  99.757  1.00  0.00    -0.000 C 
BRANCH  28  29
ATOM     29  C   UNL     1     104.408 101.740 100.871  1.00  0.00    -0.003 C 
ATOM     30  C   UNL     1     105.115 100.401 101.081  1.00  0.00     0.004 C 
ENDBRANCH  28  29
ENDBRANCH  27  28
ENDBRANCH  26  27
ENDBRANCH  25  26
ENDBRANCH  24  25
ENDBRANCH  23  24
ENDBRANCH  22  23
ENDBRANCH  21  22
ENDBRANCH  20  21
ENDBRANCH  19  20
ENDBRANCH  18  19
ENDBRANCH  17  18
ENDBRANCH   1  17
TORSDOF 26
ENDMDL
