MODEL 1
REMARK VINA RESULT:    -5.459      0.000      0.000
REMARK INTER + INTRA:          -6.305
REMARK INTER:                  -6.256
REMARK INTRA:                  -0.049
REMARK UNBOUND:                -0.049
REMARK SMILES O=C([O-])c1cc(O)c(O)c(O)c1
REMARK SMILES IDX 4 1 5 2 12 3 6 4 10 5 8 6 2 7 1 8 3 9 7 10 11 12 9 14
REMARK H PARENT 7 11 11 13 9 15
REMARK Flexibility Score: inf
ROOT
ATOM      1  C   UNL     1      30.935 -91.401  37.180  1.00  0.00     0.005 A 
ATOM      2  C   UNL     1      31.935 -90.584  36.626  1.00  0.00     0.060 A 
ATOM      3  C   UNL     1      29.730 -90.813  37.596  1.00  0.00     0.060 A 
ATOM      4  C   UNL     1      31.742 -89.204  36.485  1.00  0.00     0.162 A 
ATOM      5  C   UNL     1      29.526 -89.435  37.462  1.00  0.00     0.162 A 
ATOM      6  C   UNL     1      30.524 -88.621  36.907  1.00  0.00     0.200 A 
ENDROOT
BRANCH   1   7
ATOM      7  C   UNL     1      31.145 -92.858  37.326  1.00  0.00     0.072 C 
ATOM      8  O   UNL     1      30.209 -93.668  37.087  1.00  0.00    -0.545 OA
ATOM      9  O   UNL     1      32.378 -93.356  37.731  1.00  0.00    -0.545 OA
ENDBRANCH   1   7
BRANCH   4  10
ATOM     10  O   UNL     1      32.781 -88.457  35.924  1.00  0.00    -0.504 OA
ATOM     11  H   UNL     1      33.732 -88.466  36.263  1.00  0.00     0.293 HD
ENDBRANCH   4  10
BRANCH   5  12
ATOM     12  O   UNL     1      28.326 -88.860  37.878  1.00  0.00    -0.504 OA
ATOM     13  H   UNL     1      27.573 -89.422  38.258  1.00  0.00     0.293 HD
ENDBRANCH   5  12
BRANCH   6  14
ATOM     14  O   UNL     1      30.269 -87.253  36.796  1.00  0.00    -0.502 OA
ATOM     15  H   UNL     1      30.633 -86.667  36.058  1.00  0.00     0.293 HD
ENDBRANCH   6  14
TORSDOF 4
ENDMDL
MODEL 2
REMARK VINA RESULT:    -5.388      0.051      2.436
REMARK INTER + INTRA:          -6.225
REMARK INTER:                  -6.175
REMARK INTRA:                  -0.049
REMARK UNBOUND:                -0.049
REMARK SMILES O=C([O-])c1cc(O)c(O)c(O)c1
REMARK SMILES IDX 4 1 5 2 12 3 6 4 10 5 8 6 2 7 1 8 3 9 7 10 11 12 9 14
REMARK H PARENT 7 11 11 13 9 15
REMARK Flexibility Score: inf
ROOT
ATOM      1  C   UNL     1      30.931 -91.414  37.180  1.00  0.00     0.005 A 
ATOM      2  C   UNL     1      29.722 -90.823  37.582  1.00  0.00     0.060 A 
ATOM      3  C   UNL     1      31.939 -90.602  36.638  1.00  0.00     0.060 A 
ATOM      4  C   UNL     1      29.514 -89.445  37.449  1.00  0.00     0.162 A 
ATOM      5  C   UNL     1      31.743 -89.222  36.499  1.00  0.00     0.162 A 
ATOM      6  C   UNL     1      30.536 -88.633  36.902  1.00  0.00     0.200 A 
ENDROOT
BRANCH   1   7
ATOM      7  C   UNL     1      31.144 -92.872  37.323  1.00  0.00     0.072 C 
ATOM      8  O   UNL     1      30.209 -93.683  37.083  1.00  0.00    -0.545 OA
ATOM      9  O   UNL     1      32.378 -93.368  37.726  1.00  0.00    -0.545 OA
ENDBRANCH   1   7
BRANCH   4  10
ATOM     10  O   UNL     1      28.287 -88.929  37.871  1.00  0.00    -0.504 OA
ATOM     11  H   UNL     1      28.136 -87.964  38.125  1.00  0.00     0.293 HD
ENDBRANCH   4  10
BRANCH   5  12
ATOM     12  O   UNL     1      32.751 -88.423  35.960  1.00  0.00    -0.504 OA
ATOM     13  H   UNL     1      32.893 -87.469  36.269  1.00  0.00     0.293 HD
ENDBRANCH   5  12
BRANCH   6  14
ATOM     14  O   UNL     1      30.394 -87.253  36.741  1.00  0.00    -0.502 OA
ATOM     15  H   UNL     1      29.908 -86.820  35.968  1.00  0.00     0.293 HD
ENDBRANCH   6  14
TORSDOF 4
ENDMDL
MODEL 3
REMARK VINA RESULT:    -4.995      0.977      4.054
REMARK INTER + INTRA:          -5.774
REMARK INTER:                  -5.721
REMARK INTRA:                  -0.053
REMARK UNBOUND:                -0.049
REMARK SMILES O=C([O-])c1cc(O)c(O)c(O)c1
REMARK SMILES IDX 4 1 5 2 12 3 6 4 10 5 8 6 2 7 1 8 3 9 7 10 11 12 9 14
REMARK H PARENT 7 11 11 13 9 15
REMARK Flexibility Score: inf
ROOT
ATOM      1  C   UNL     1      30.249 -89.818  37.372  1.00  0.00     0.005 A 
ATOM      2  C   UNL     1      31.552 -89.535  36.929  1.00  0.00     0.060 A 
ATOM      3  C   UNL     1      29.888 -91.153  37.614  1.00  0.00     0.060 A 
ATOM      4  C   UNL     1      32.484 -90.560  36.728  1.00  0.00     0.162 A 
ATOM      5  C   UNL     1      30.811 -92.187  37.416  1.00  0.00     0.162 A 
ATOM      6  C   UNL     1      32.111 -91.902  36.975  1.00  0.00     0.200 A 
ENDROOT
BRANCH   1   7
ATOM      7  C   UNL     1      29.268 -88.730  37.582  1.00  0.00     0.072 C 
ATOM      8  O   UNL     1      29.623 -87.523  37.496  1.00  0.00    -0.545 OA
ATOM      9  O   UNL     1      27.943 -89.023  37.877  1.00  0.00    -0.545 OA
ENDBRANCH   1   7
BRANCH   4  10
ATOM     10  O   UNL     1      33.760 -90.200  36.287  1.00  0.00    -0.504 OA
ATOM     11  H   UNL     1      34.329 -89.488  36.721  1.00  0.00     0.293 HD
ENDBRANCH   4  10
BRANCH   5  12
ATOM     12  O   UNL     1      30.443 -93.510  37.659  1.00  0.00    -0.504 OA
ATOM     13  H   UNL     1      29.708 -93.744  38.316  1.00  0.00     0.293 HD
ENDBRANCH   5  12
BRANCH   6  14
ATOM     14  O   UNL     1      32.992 -92.971  36.794  1.00  0.00    -0.502 OA
ATOM     15  H   UNL     1      33.919 -93.014  37.191  1.00  0.00     0.293 HD
ENDBRANCH   6  14
TORSDOF 4
ENDMDL
MODEL 4
REMARK VINA RESULT:    -4.824      1.008      4.546
REMARK INTER + INTRA:          -5.578
REMARK INTER:                  -5.525
REMARK INTRA:                  -0.053
REMARK UNBOUND:                -0.049
REMARK SMILES O=C([O-])c1cc(O)c(O)c(O)c1
REMARK SMILES IDX 4 1 5 2 12 3 6 4 10 5 8 6 2 7 1 8 3 9 7 10 11 12 9 14
REMARK H PARENT 7 11 11 13 9 15
REMARK Flexibility Score: inf
ROOT
ATOM      1  C   UNL     1      30.203 -89.868  37.374  1.00  0.00     0.005 A 
ATOM      2  C   UNL     1      29.803 -91.204  37.545  1.00  0.00     0.060 A 
ATOM      3  C   UNL     1      31.528 -89.598  36.997  1.00  0.00     0.060 A 
ATOM      4  C   UNL     1      30.702 -92.258  37.344  1.00  0.00     0.162 A 
ATOM      5  C   UNL     1      32.437 -90.643  36.794  1.00  0.00     0.162 A 
ATOM      6  C   UNL     1      32.035 -91.976  36.964  1.00  0.00     0.200 A 
ENDROOT
BRANCH   1   7
ATOM      7  C   UNL     1      29.247 -88.759  37.589  1.00  0.00     0.072 C 
ATOM      8  O   UNL     1      28.041 -88.997  37.867  1.00  0.00    -0.545 OA
ATOM      9  O   UNL     1      29.666 -87.438  37.486  1.00  0.00    -0.545 OA
ENDBRANCH   1   7
BRANCH   4  10
ATOM     10  O   UNL     1      30.231 -93.559  37.532  1.00  0.00    -0.504 OA
ATOM     11  H   UNL     1      30.132 -94.238  36.792  1.00  0.00     0.293 HD
ENDBRANCH   4  10
BRANCH   5  12
ATOM     12  O   UNL     1      33.751 -90.366  36.419  1.00  0.00    -0.504 OA
ATOM     13  H   UNL     1      34.008 -89.478  36.003  1.00  0.00     0.293 HD
ENDBRANCH   5  12
BRANCH   6  14
ATOM     14  O   UNL     1      32.982 -92.980  36.748  1.00  0.00    -0.502 OA
ATOM     15  H   UNL     1      32.846 -93.762  36.125  1.00  0.00     0.293 HD
ENDBRANCH   6  14
TORSDOF 4
ENDMDL
MODEL 5
REMARK VINA RESULT:    -4.634     13.265     15.136
REMARK INTER + INTRA:          -5.361
REMARK INTER:                  -5.308
REMARK INTRA:                  -0.053
REMARK UNBOUND:                -0.049
REMARK SMILES O=C([O-])c1cc(O)c(O)c(O)c1
REMARK SMILES IDX 4 1 5 2 12 3 6 4 10 5 8 6 2 7 1 8 3 9 7 10 11 12 9 14
REMARK H PARENT 7 11 11 13 9 15
REMARK Flexibility Score: inf
ROOT
ATOM      1  C   UNL     1      40.732 -79.782  40.055  1.00  0.00     0.005 A 
ATOM      2  C   UNL     1      41.784 -79.064  39.461  1.00  0.00     0.060 A 
ATOM      3  C   UNL     1      40.247 -80.933  39.415  1.00  0.00     0.060 A 
ATOM      4  C   UNL     1      42.348 -79.481  38.250  1.00  0.00     0.162 A 
ATOM      5  C   UNL     1      40.802 -81.360  38.203  1.00  0.00     0.162 A 
ATOM      6  C   UNL     1      41.852 -80.643  37.612  1.00  0.00     0.200 A 
ENDROOT
BRANCH   1   7
ATOM      7  C   UNL     1      40.140 -79.334  41.336  1.00  0.00     0.072 C 
ATOM      8  O   UNL     1      40.435 -78.208  41.819  1.00  0.00    -0.545 OA
ATOM      9  O   UNL     1      39.252 -80.151  42.025  1.00  0.00    -0.545 OA
ENDBRANCH   1   7
BRANCH   4  10
ATOM     10  O   UNL     1      43.391 -78.717  37.721  1.00  0.00    -0.504 OA
ATOM     11  H   UNL     1      43.705 -77.841  38.112  1.00  0.00     0.293 HD
ENDBRANCH   4  10
BRANCH   5  12
ATOM     12  O   UNL     1      40.314 -82.505  37.574  1.00  0.00    -0.504 OA
ATOM     13  H   UNL     1      40.499 -83.431  37.940  1.00  0.00     0.293 HD
ENDBRANCH   5  12
BRANCH   6  14
ATOM     14  O   UNL     1      42.369 -81.113  36.402  1.00  0.00    -0.502 OA
ATOM     15  H   UNL     1      43.348 -81.300  36.239  1.00  0.00     0.293 HD
ENDBRANCH   6  14
TORSDOF 4
ENDMDL
MODEL 6
REMARK VINA RESULT:    -4.629     13.412     15.464
REMARK INTER + INTRA:          -5.355
REMARK INTER:                  -5.302
REMARK INTRA:                  -0.052
REMARK UNBOUND:                -0.049
REMARK SMILES O=C([O-])c1cc(O)c(O)c(O)c1
REMARK SMILES IDX 4 1 5 2 12 3 6 4 10 5 8 6 2 7 1 8 3 9 7 10 11 12 9 14
REMARK H PARENT 7 11 11 13 9 15
REMARK Flexibility Score: inf
ROOT
ATOM      1  C   UNL     1      40.867 -79.587  40.047  1.00  0.00     0.005 A 
ATOM      2  C   UNL     1      40.367 -80.751  39.440  1.00  0.00     0.060 A 
ATOM      3  C   UNL     1      41.909 -78.887  39.419  1.00  0.00     0.060 A 
ATOM      4  C   UNL     1      40.891 -81.215  38.227  1.00  0.00     0.162 A 
ATOM      5  C   UNL     1      42.442 -79.340  38.206  1.00  0.00     0.162 A 
ATOM      6  C   UNL     1      41.941 -80.502  37.602  1.00  0.00     0.200 A 
ENDROOT
BRANCH   1   7
ATOM      7  C   UNL     1      40.308 -79.103  41.329  1.00  0.00     0.072 C 
ATOM      8  O   UNL     1      40.528 -77.925  41.719  1.00  0.00    -0.545 OA
ATOM      9  O   UNL     1      39.534 -79.942  42.122  1.00  0.00    -0.545 OA
ENDBRANCH   1   7
BRANCH   4  10
ATOM     10  O   UNL     1      40.342 -82.379  37.684  1.00  0.00    -0.504 OA
ATOM     11  H   UNL     1      40.155 -83.217  38.215  1.00  0.00     0.293 HD
ENDBRANCH   4  10
BRANCH   5  12
ATOM     12  O   UNL     1      43.477 -78.638  37.590  1.00  0.00    -0.504 OA
ATOM     13  H   UNL     1      44.448 -78.819  37.814  1.00  0.00     0.293 HD
ENDBRANCH   5  12
BRANCH   6  14
ATOM     14  O   UNL     1      42.509 -80.910  36.393  1.00  0.00    -0.502 OA
ATOM     15  H   UNL     1      42.537 -80.340  35.559  1.00  0.00     0.293 HD
ENDBRANCH   6  14
TORSDOF 4
ENDMDL
MODEL 7
REMARK VINA RESULT:    -4.598     13.909     16.153
REMARK INTER + INTRA:          -5.319
REMARK INTER:                  -5.267
REMARK INTRA:                  -0.053
REMARK UNBOUND:                -0.049
REMARK SMILES O=C([O-])c1cc(O)c(O)c(O)c1
REMARK SMILES IDX 4 1 5 2 12 3 6 4 10 5 8 6 2 7 1 8 3 9 7 10 11 12 9 14
REMARK H PARENT 7 11 11 13 9 15
REMARK Flexibility Score: inf
ROOT
ATOM      1  C   UNL     1      42.012 -78.619  39.783  1.00  0.00     0.005 A 
ATOM      2  C   UNL     1      40.930 -79.291  40.376  1.00  0.00     0.060 A 
ATOM      3  C   UNL     1      42.499 -79.074  38.547  1.00  0.00     0.060 A 
ATOM      4  C   UNL     1      40.339 -80.397  39.754  1.00  0.00     0.162 A 
ATOM      5  C   UNL     1      41.917 -80.179  37.916  1.00  0.00     0.162 A 
ATOM      6  C   UNL     1      40.837 -80.847  38.509  1.00  0.00     0.200 A 
ENDROOT
BRANCH   1   7
ATOM      7  C   UNL     1      42.632 -77.451  40.446  1.00  0.00     0.072 C 
ATOM      8  O   UNL     1      43.628 -76.875  39.931  1.00  0.00    -0.545 OA
ATOM      9  O   UNL     1      42.126 -76.972  41.648  1.00  0.00    -0.545 OA
ENDBRANCH   1   7
BRANCH   4  10
ATOM     10  O   UNL     1      39.267 -81.012  40.405  1.00  0.00    -0.504 OA
ATOM     11  H   UNL     1      38.308 -80.957  40.093  1.00  0.00     0.293 HD
ENDBRANCH   4  10
BRANCH   5  12
ATOM     12  O   UNL     1      42.408 -80.623  36.688  1.00  0.00    -0.504 OA
ATOM     13  H   UNL     1      41.887 -80.493  35.830  1.00  0.00     0.293 HD
ENDBRANCH   5  12
BRANCH   6  14
ATOM     14  O   UNL     1      40.294 -81.945  37.836  1.00  0.00    -0.502 OA
ATOM     15  H   UNL     1      39.369 -81.960  37.432  1.00  0.00     0.293 HD
ENDBRANCH   6  14
TORSDOF 4
ENDMDL
MODEL 8
REMARK VINA RESULT:    -4.577     13.920     15.996
REMARK INTER + INTRA:          -5.295
REMARK INTER:                  -5.242
REMARK INTRA:                  -0.053
REMARK UNBOUND:                -0.049
REMARK SMILES O=C([O-])c1cc(O)c(O)c(O)c1
REMARK SMILES IDX 4 1 5 2 12 3 6 4 10 5 8 6 2 7 1 8 3 9 7 10 11 12 9 14
REMARK H PARENT 7 11 11 13 9 15
REMARK Flexibility Score: inf
ROOT
ATOM      1  C   UNL     1      42.052 -78.623  39.743  1.00  0.00     0.005 A 
ATOM      2  C   UNL     1      42.542 -79.091  38.512  1.00  0.00     0.060 A 
ATOM      3  C   UNL     1      40.943 -79.260  40.320  1.00  0.00     0.060 A 
ATOM      4  C   UNL     1      41.941 -80.177  37.863  1.00  0.00     0.162 A 
ATOM      5  C   UNL     1      40.333 -80.346  39.681  1.00  0.00     0.162 A 
ATOM      6  C   UNL     1      40.824 -80.813  38.453  1.00  0.00     0.200 A 
ENDROOT
BRANCH   1   7
ATOM      7  C   UNL     1      42.692 -77.475  40.423  1.00  0.00     0.072 C 
ATOM      8  O   UNL     1      43.768 -76.987  39.982  1.00  0.00    -0.545 OA
ATOM      9  O   UNL     1      42.116 -76.918  41.559  1.00  0.00    -0.545 OA
ENDBRANCH   1   7
BRANCH   4  10
ATOM     10  O   UNL     1      42.485 -80.586  36.643  1.00  0.00    -0.504 OA
ATOM     11  H   UNL     1      42.706 -79.960  35.883  1.00  0.00     0.293 HD
ENDBRANCH   4  10
BRANCH   5  12
ATOM     12  O   UNL     1      39.231 -80.973  40.262  1.00  0.00    -0.504 OA
ATOM     13  H   UNL     1      38.648 -81.614  39.738  1.00  0.00     0.293 HD
ENDBRANCH   5  12
BRANCH   6  14
ATOM     14  O   UNL     1      40.177 -81.899  37.859  1.00  0.00    -0.502 OA
ATOM     15  H   UNL     1      40.235 -82.848  38.199  1.00  0.00     0.293 HD
ENDBRANCH   6  14
TORSDOF 4
ENDMDL
MODEL 9
REMARK VINA RESULT:    -4.434     11.240     13.198
REMARK INTER + INTRA:          -5.131
REMARK INTER:                  -5.080
REMARK INTRA:                  -0.052
REMARK UNBOUND:                -0.049
REMARK SMILES O=C([O-])c1cc(O)c(O)c(O)c1
REMARK SMILES IDX 4 1 5 2 12 3 6 4 10 5 8 6 2 7 1 8 3 9 7 10 11 12 9 14
REMARK H PARENT 7 11 11 13 9 15
REMARK Flexibility Score: inf
ROOT
ATOM      1  C   UNL     1      26.814 -80.234  41.997  1.00  0.00     0.005 A 
ATOM      2  C   UNL     1      26.187 -80.638  43.187  1.00  0.00     0.060 A 
ATOM      3  C   UNL     1      26.511 -78.972  41.463  1.00  0.00     0.060 A 
ATOM      4  C   UNL     1      25.273 -79.803  43.840  1.00  0.00     0.162 A 
ATOM      5  C   UNL     1      25.597 -78.128  42.106  1.00  0.00     0.162 A 
ATOM      6  C   UNL     1      24.973 -78.533  43.295  1.00  0.00     0.200 A 
ENDROOT
BRANCH   1   7
ATOM      7  C   UNL     1      27.780 -81.122  41.312  1.00  0.00     0.072 C 
ATOM      8  O   UNL     1      28.030 -80.971  40.085  1.00  0.00    -0.545 OA
ATOM      9  O   UNL     1      28.424 -82.135  42.011  1.00  0.00    -0.545 OA
ENDBRANCH   1   7
BRANCH   4  10
ATOM     10  O   UNL     1      24.690 -80.274  45.019  1.00  0.00    -0.504 OA
ATOM     11  H   UNL     1      24.027 -79.750  45.571  1.00  0.00     0.293 HD
ENDBRANCH   4  10
BRANCH   5  12
ATOM     12  O   UNL     1      25.302 -76.875  41.568  1.00  0.00    -0.504 OA
ATOM     13  H   UNL     1      24.352 -76.524  41.532  1.00  0.00     0.293 HD
ENDBRANCH   5  12
BRANCH   6  14
ATOM     14  O   UNL     1      24.070 -77.652  43.895  1.00  0.00    -0.502 OA
ATOM     15  H   UNL     1      24.341 -76.821  44.400  1.00  0.00     0.293 HD
ENDBRANCH   6  14
TORSDOF 4
ENDMDL
