MODEL 1
REMARK VINA RESULT:    -4.264      0.000      0.000
REMARK INTER + INTRA:         -10.122
REMARK INTER:                  -8.004
REMARK INTRA:                  -2.119
REMARK UNBOUND:                -2.119
REMARK SMILES O=C([O-])CCCCCCCCCCCCCCC(=O)[O-]
REMARK SMILES IDX 10 1 9 2 8 3 7 4 6 5 5 6 4 7 2 8 1 9 3 10 11 11 12 12 13 13
REMARK SMILES IDX 14 14 15 15 16 16 17 17 18 18 19 19 20 20
REMARK H PARENT
REMARK Flexibility Score: inf
ROOT
ATOM      1  C   UNL     1      -9.276  -3.454   5.530  1.00  0.00     0.000 C 
ENDROOT
BRANCH   1   2
ATOM      2  C   UNL     1      -8.379  -4.355   6.396  1.00  0.00     0.000 C 
BRANCH   2   3
ATOM      3  C   UNL     1      -9.130  -5.566   6.980  1.00  0.00     0.000 C 
BRANCH   3   4
ATOM      4  C   UNL     1      -8.923  -6.890   6.223  1.00  0.00     0.000 C 
BRANCH   4   5
ATOM      5  C   UNL     1      -9.763  -6.987   4.942  1.00  0.00     0.000 C 
BRANCH   5   6
ATOM      6  C   UNL     1     -11.252  -7.150   5.272  1.00  0.00     0.006 C 
BRANCH   6   7
ATOM      7  C   UNL     1     -12.084  -6.042   4.620  1.00  0.00     0.053 C 
BRANCH   7   8
ATOM      8  C   UNL     1     -12.539  -5.055   5.649  1.00  0.00     0.041 C 
ATOM      9  O   UNL     1     -12.846  -3.882   5.311  1.00  0.00    -0.550 OA
ATOM     10  O   UNL     1     -12.668  -5.445   6.976  1.00  0.00    -0.550 OA
ENDBRANCH   7   8
ENDBRANCH   6   7
ENDBRANCH   5   6
ENDBRANCH   4   5
ENDBRANCH   3   4
ENDBRANCH   2   3
ENDBRANCH   1   2
BRANCH   1  11
ATOM     11  C   UNL     1      -8.876  -3.476   4.045  1.00  0.00     0.000 C 
BRANCH  11  12
ATOM     12  C   UNL     1     -10.072  -3.265   3.105  1.00  0.00     0.000 C 
BRANCH  12  13
ATOM     13  C   UNL     1      -9.826  -2.079   2.163  1.00  0.00     0.000 C 
BRANCH  13  14
ATOM     14  C   UNL     1      -8.623  -1.246   2.630  1.00  0.00     0.000 C 
BRANCH  14  15
ATOM     15  C   UNL     1      -8.940   0.256   2.713  1.00  0.00     0.000 C 
BRANCH  15  16
ATOM     16  C   UNL     1     -10.439   0.536   2.889  1.00  0.00     0.006 C 
BRANCH  16  17
ATOM     17  C   UNL     1     -10.831   0.513   4.370  1.00  0.00     0.053 C 
BRANCH  17  18
ATOM     18  C   UNL     1     -12.055  -0.322   4.578  1.00  0.00     0.041 C 
ATOM     19  O   UNL     1     -12.412  -0.641   5.741  1.00  0.00    -0.550 OA
ATOM     20  O   UNL     1     -12.828  -0.706   3.490  1.00  0.00    -0.550 OA
ENDBRANCH  17  18
ENDBRANCH  16  17
ENDBRANCH  15  16
ENDBRANCH  14  15
ENDBRANCH  13  14
ENDBRANCH  12  13
ENDBRANCH  11  12
ENDBRANCH   1  11
TORSDOF 15
ENDMDL
MODEL 2
REMARK VINA RESULT:    -4.254      1.583      4.846
REMARK INTER + INTRA:         -10.104
REMARK INTER:                  -7.845
REMARK INTRA:                  -2.259
REMARK UNBOUND:                -2.119
REMARK SMILES O=C([O-])CCCCCCCCCCCCCCC(=O)[O-]
REMARK SMILES IDX 10 1 9 2 8 3 7 4 6 5 5 6 4 7 2 8 1 9 3 10 11 11 12 12 13 13
REMARK SMILES IDX 14 14 15 15 16 16 17 17 18 18 19 19 20 20
REMARK H PARENT
REMARK Flexibility Score: inf
ROOT
ATOM      1  C   UNL     1      -9.168  -5.500   6.939  1.00  0.00     0.000 C 
ENDROOT
BRANCH   1   2
ATOM      2  C   UNL     1      -8.275  -4.381   6.376  1.00  0.00     0.000 C 
BRANCH   2   3
ATOM      3  C   UNL     1      -9.058  -3.355   5.534  1.00  0.00     0.000 C 
BRANCH   3   4
ATOM      4  C   UNL     1      -8.620  -3.247   4.063  1.00  0.00     0.000 C 
BRANCH   4   5
ATOM      5  C   UNL     1      -9.756  -2.801   3.130  1.00  0.00     0.000 C 
BRANCH   5   6
ATOM      6  C   UNL     1      -9.273  -1.720   2.155  1.00  0.00     0.006 C 
BRANCH   6   7
ATOM      7  C   UNL     1      -8.823  -0.464   2.906  1.00  0.00     0.053 C 
BRANCH   7   8
ATOM      8  C   UNL     1      -9.996   0.415   3.206  1.00  0.00     0.041 C 
ATOM      9  O   UNL     1     -10.583   1.030   2.278  1.00  0.00    -0.550 OA
ATOM     10  O   UNL     1     -10.473   0.517   4.507  1.00  0.00    -0.550 OA
ENDBRANCH   7   8
ENDBRANCH   6   7
ENDBRANCH   5   6
ENDBRANCH   4   5
ENDBRANCH   3   4
ENDBRANCH   2   3
ENDBRANCH   1   2
BRANCH   1  11
ATOM     11  C   UNL     1      -9.049  -6.808   6.139  1.00  0.00     0.000 C 
BRANCH  11  12
ATOM     12  C   UNL     1      -9.938  -6.820   4.887  1.00  0.00     0.000 C 
BRANCH  12  13
ATOM     13  C   UNL     1     -11.373  -6.398   5.229  1.00  0.00     0.000 C 
BRANCH  13  14
ATOM     14  C   UNL     1     -11.933  -5.440   4.166  1.00  0.00     0.000 C 
BRANCH  14  15
ATOM     15  C   UNL     1     -13.179  -4.682   4.650  1.00  0.00     0.000 C 
BRANCH  15  16
ATOM     16  C   UNL     1     -12.900  -3.812   5.885  1.00  0.00     0.006 C 
BRANCH  16  17
ATOM     17  C   UNL     1     -12.471  -2.400   5.475  1.00  0.00     0.053 C 
BRANCH  17  18
ATOM     18  C   UNL     1     -13.439  -1.822   4.490  1.00  0.00     0.041 C 
ATOM     19  O   UNL     1     -13.036  -1.428   3.365  1.00  0.00    -0.550 OA
ATOM     20  O   UNL     1     -14.792  -1.766   4.796  1.00  0.00    -0.550 OA
ENDBRANCH  17  18
ENDBRANCH  16  17
ENDBRANCH  15  16
ENDBRANCH  14  15
ENDBRANCH  13  14
ENDBRANCH  12  13
ENDBRANCH  11  12
ENDBRANCH   1  11
TORSDOF 15
ENDMDL
MODEL 3
REMARK VINA RESULT:    -4.247      1.953      5.669
REMARK INTER + INTRA:         -10.090
REMARK INTER:                  -8.348
REMARK INTRA:                  -1.742
REMARK UNBOUND:                -2.119
REMARK SMILES O=C([O-])CCCCCCCCCCCCCCC(=O)[O-]
REMARK SMILES IDX 10 1 9 2 8 3 7 4 6 5 5 6 4 7 2 8 1 9 3 10 11 11 12 12 13 13
REMARK SMILES IDX 14 14 15 15 16 16 17 17 18 18 19 19 20 20
REMARK H PARENT
REMARK Flexibility Score: inf
ROOT
ATOM      1  C   UNL     1      -9.079  -5.660   6.920  1.00  0.00     0.000 C 
ENDROOT
BRANCH   1   2
ATOM      2  C   UNL     1      -8.327  -4.419   6.407  1.00  0.00     0.000 C 
BRANCH   2   3
ATOM      3  C   UNL     1      -9.214  -3.487   5.561  1.00  0.00     0.000 C 
BRANCH   3   4
ATOM      4  C   UNL     1      -8.659  -3.145   4.166  1.00  0.00     0.000 C 
BRANCH   4   5
ATOM      5  C   UNL     1      -9.710  -3.276   3.054  1.00  0.00     0.000 C 
BRANCH   5   6
ATOM      6  C   UNL     1      -9.819  -1.977   2.247  1.00  0.00     0.006 C 
BRANCH   6   7
ATOM      7  C   UNL     1      -9.046  -0.842   2.924  1.00  0.00     0.053 C 
BRANCH   7   8
ATOM      8  C   UNL     1      -9.943   0.331   3.166  1.00  0.00     0.041 C 
ATOM      9  O   UNL     1     -10.342   1.034   2.202  1.00  0.00    -0.550 OA
ATOM     10  O   UNL     1     -10.377   0.619   4.454  1.00  0.00    -0.550 OA
ENDBRANCH   7   8
ENDBRANCH   6   7
ENDBRANCH   5   6
ENDBRANCH   4   5
ENDBRANCH   3   4
ENDBRANCH   2   3
ENDBRANCH   1   2
BRANCH   1  11
ATOM     11  C   UNL     1      -8.893  -6.882   6.005  1.00  0.00     0.000 C 
BRANCH  11  12
ATOM     12  C   UNL     1     -10.013  -7.018   4.963  1.00  0.00     0.000 C 
BRANCH  12  13
ATOM     13  C   UNL     1     -11.248  -7.697   5.569  1.00  0.00     0.000 C 
BRANCH  13  14
ATOM     14  C   UNL     1     -12.530  -6.931   5.208  1.00  0.00     0.000 C 
BRANCH  14  15
ATOM     15  C   UNL     1     -12.266  -5.449   4.897  1.00  0.00     0.000 C 
BRANCH  15  16
ATOM     16  C   UNL     1     -12.894  -5.002   3.569  1.00  0.00     0.006 C 
BRANCH  16  17
ATOM     17  C   UNL     1     -13.931  -6.021   3.083  1.00  0.00     0.053 C 
BRANCH  17  18
ATOM     18  C   UNL     1     -15.311  -5.450   3.174  1.00  0.00     0.041 C 
ATOM     19  O   UNL     1     -16.206  -5.828   2.374  1.00  0.00    -0.550 OA
ATOM     20  O   UNL     1     -15.622  -4.537   4.174  1.00  0.00    -0.550 OA
ENDBRANCH  17  18
ENDBRANCH  16  17
ENDBRANCH  15  16
ENDBRANCH  14  15
ENDBRANCH  13  14
ENDBRANCH  12  13
ENDBRANCH  11  12
ENDBRANCH   1  11
TORSDOF 15
ENDMDL
MODEL 4
REMARK VINA RESULT:    -4.200      1.565      2.959
REMARK INTER + INTRA:         -10.001
REMARK INTER:                  -7.851
REMARK INTRA:                  -2.150
REMARK UNBOUND:                -2.119
REMARK SMILES O=C([O-])CCCCCCCCCCCCCCC(=O)[O-]
REMARK SMILES IDX 10 1 9 2 8 3 7 4 6 5 5 6 4 7 2 8 1 9 3 10 11 11 12 12 13 13
REMARK SMILES IDX 14 14 15 15 16 16 17 17 18 18 19 19 20 20
REMARK H PARENT
REMARK Flexibility Score: inf
ROOT
ATOM      1  C   UNL     1      -9.190  -5.656   6.849  1.00  0.00     0.000 C 
ENDROOT
BRANCH   1   2
ATOM      2  C   UNL     1      -9.084  -6.711   5.734  1.00  0.00     0.000 C 
BRANCH   2   3
ATOM      3  C   UNL     1     -10.417  -6.942   4.998  1.00  0.00     0.000 C 
BRANCH   3   4
ATOM      4  C   UNL     1     -11.562  -5.997   5.407  1.00  0.00     0.000 C 
BRANCH   4   5
ATOM      5  C   UNL     1     -12.629  -5.840   4.314  1.00  0.00     0.000 C 
BRANCH   5   6
ATOM      6  C   UNL     1     -12.868  -4.360   3.989  1.00  0.00     0.006 C 
BRANCH   6   7
ATOM      7  C   UNL     1     -12.717  -3.491   5.240  1.00  0.00     0.053 C 
BRANCH   7   8
ATOM      8  C   UNL     1     -13.131  -2.082   4.952  1.00  0.00     0.041 C 
ATOM      9  O   UNL     1     -14.110  -1.851   4.196  1.00  0.00    -0.550 OA
ATOM     10  O   UNL     1     -12.464  -1.025   5.557  1.00  0.00    -0.550 OA
ENDBRANCH   7   8
ENDBRANCH   6   7
ENDBRANCH   5   6
ENDBRANCH   4   5
ENDBRANCH   3   4
ENDBRANCH   2   3
ENDBRANCH   1   2
BRANCH   1  11
ATOM     11  C   UNL     1      -8.328  -4.415   6.570  1.00  0.00     0.000 C 
BRANCH  11  12
ATOM     12  C   UNL     1      -9.074  -3.344   5.760  1.00  0.00     0.000 C 
BRANCH  12  13
ATOM     13  C   UNL     1      -8.480  -3.208   4.352  1.00  0.00     0.000 C 
BRANCH  13  14
ATOM     14  C   UNL     1      -9.530  -3.532   3.279  1.00  0.00     0.000 C 
BRANCH  14  15
ATOM     15  C   UNL     1      -9.902  -2.309   2.426  1.00  0.00     0.000 C 
BRANCH  15  16
ATOM     16  C   UNL     1      -9.858  -0.997   3.222  1.00  0.00     0.006 C 
BRANCH  16  17
ATOM     17  C   UNL     1      -9.786   0.212   2.283  1.00  0.00     0.053 C 
BRANCH  17  18
ATOM     18  C   UNL     1     -11.088   0.949   2.275  1.00  0.00     0.041 C 
ATOM     19  O   UNL     1     -11.101   2.207   2.216  1.00  0.00    -0.550 OA
ATOM     20  O   UNL     1     -12.286   0.247   2.282  1.00  0.00    -0.550 OA
ENDBRANCH  17  18
ENDBRANCH  16  17
ENDBRANCH  15  16
ENDBRANCH  14  15
ENDBRANCH  13  14
ENDBRANCH  12  13
ENDBRANCH  11  12
ENDBRANCH   1  11
TORSDOF 15
ENDMDL
MODEL 5
REMARK VINA RESULT:    -4.197      2.295      4.721
REMARK INTER + INTRA:          -9.996
REMARK INTER:                  -7.617
REMARK INTRA:                  -2.379
REMARK UNBOUND:                -2.119
REMARK SMILES O=C([O-])CCCCCCCCCCCCCCC(=O)[O-]
REMARK SMILES IDX 10 1 9 2 8 3 7 4 6 5 5 6 4 7 2 8 1 9 3 10 11 11 12 12 13 13
REMARK SMILES IDX 14 14 15 15 16 16 17 17 18 18 19 19 20 20
REMARK H PARENT
REMARK Flexibility Score: inf
ROOT
ATOM      1  C   UNL     1      -9.616   0.363   3.322  1.00  0.00     0.000 C 
ENDROOT
BRANCH   1   2
ATOM      2  C   UNL     1      -8.853  -0.754   2.589  1.00  0.00     0.000 C 
BRANCH   2   3
ATOM      3  C   UNL     1      -9.766  -1.915   2.150  1.00  0.00     0.000 C 
BRANCH   3   4
ATOM      4  C   UNL     1      -9.823  -3.105   3.123  1.00  0.00     0.000 C 
BRANCH   4   5
ATOM      5  C   UNL     1      -8.661  -3.116   4.127  1.00  0.00     0.000 C 
BRANCH   5   6
ATOM      6  C   UNL     1      -9.144  -3.531   5.522  1.00  0.00     0.006 C 
BRANCH   6   7
ATOM      7  C   UNL     1     -10.255  -4.581   5.429  1.00  0.00     0.053 C 
BRANCH   7   8
ATOM      8  C   UNL     1      -9.686  -5.958   5.558  1.00  0.00     0.041 C 
ATOM      9  O   UNL     1      -9.781  -6.775   4.605  1.00  0.00    -0.550 OA
ATOM     10  O   UNL     1      -9.008  -6.325   6.714  1.00  0.00    -0.550 OA
ENDBRANCH   7   8
ENDBRANCH   6   7
ENDBRANCH   5   6
ENDBRANCH   4   5
ENDBRANCH   3   4
ENDBRANCH   2   3
ENDBRANCH   1   2
BRANCH   1  11
ATOM     11  C   UNL     1     -10.958   0.699   2.651  1.00  0.00     0.000 C 
BRANCH  11  12
ATOM     12  C   UNL     1     -12.153   0.538   3.603  1.00  0.00     0.000 C 
BRANCH  12  13
ATOM     13  C   UNL     1     -11.718  -0.108   4.925  1.00  0.00     0.000 C 
BRANCH  13  14
ATOM     14  C   UNL     1     -12.417  -1.460   5.132  1.00  0.00     0.000 C 
BRANCH  14  15
ATOM     15  C   UNL     1     -13.283  -1.869   3.930  1.00  0.00     0.000 C 
BRANCH  15  16
ATOM     16  C   UNL     1     -14.414  -2.834   4.317  1.00  0.00     0.006 C 
BRANCH  16  17
ATOM     17  C   UNL     1     -13.849  -4.158   4.840  1.00  0.00     0.053 C 
BRANCH  17  18
ATOM     18  C   UNL     1     -14.045  -5.248   3.833  1.00  0.00     0.041 C 
ATOM     19  O   UNL     1     -13.154  -6.120   3.663  1.00  0.00    -0.550 OA
ATOM     20  O   UNL     1     -15.233  -5.328   3.117  1.00  0.00    -0.550 OA
ENDBRANCH  17  18
ENDBRANCH  16  17
ENDBRANCH  15  16
ENDBRANCH  14  15
ENDBRANCH  13  14
ENDBRANCH  12  13
ENDBRANCH  11  12
ENDBRANCH   1  11
TORSDOF 15
ENDMDL
MODEL 6
REMARK VINA RESULT:    -4.175      2.379      5.196
REMARK INTER + INTRA:          -9.955
REMARK INTER:                  -7.634
REMARK INTRA:                  -2.321
REMARK UNBOUND:                -2.119
REMARK SMILES O=C([O-])CCCCCCCCCCCCCCC(=O)[O-]
REMARK SMILES IDX 10 1 9 2 8 3 7 4 6 5 5 6 4 7 2 8 1 9 3 10 11 11 12 12 13 13
REMARK SMILES IDX 14 14 15 15 16 16 17 17 18 18 19 19 20 20
REMARK H PARENT
REMARK Flexibility Score: inf
ROOT
ATOM      1  C   UNL     1     -10.982   0.351   3.166  1.00  0.00     0.000 C 
ENDROOT
BRANCH   1   2
ATOM      2  C   UNL     1     -12.310  -0.249   2.675  1.00  0.00     0.000 C 
BRANCH   2   3
ATOM      3  C   UNL     1     -13.135  -0.889   3.807  1.00  0.00     0.000 C 
BRANCH   3   4
ATOM      4  C   UNL     1     -12.318  -1.362   5.023  1.00  0.00     0.000 C 
BRANCH   4   5
ATOM      5  C   UNL     1     -12.511  -2.854   5.332  1.00  0.00     0.000 C 
BRANCH   5   6
ATOM      6  C   UNL     1     -13.453  -3.508   4.313  1.00  0.00     0.006 C 
BRANCH   6   7
ATOM      7  C   UNL     1     -12.768  -4.681   3.606  1.00  0.00     0.053 C 
BRANCH   7   8
ATOM      8  C   UNL     1     -13.520  -5.951   3.849  1.00  0.00     0.041 C 
ATOM      9  O   UNL     1     -12.977  -6.902   4.468  1.00  0.00    -0.550 OA
ATOM     10  O   UNL     1     -14.841  -6.066   3.433  1.00  0.00    -0.550 OA
ENDBRANCH   7   8
ENDBRANCH   6   7
ENDBRANCH   5   6
ENDBRANCH   4   5
ENDBRANCH   3   4
ENDBRANCH   2   3
ENDBRANCH   1   2
BRANCH   1  11
ATOM     11  C   UNL     1      -9.763  -0.239   2.437  1.00  0.00     0.000 C 
BRANCH  11  12
ATOM     12  C   UNL     1      -9.108  -1.390   3.214  1.00  0.00     0.000 C 
BRANCH  12  13
ATOM     13  C   UNL     1      -9.604  -2.749   2.704  1.00  0.00     0.000 C 
BRANCH  13  14
ATOM     14  C   UNL     1      -9.364  -3.850   3.749  1.00  0.00     0.000 C 
BRANCH  14  15
ATOM     15  C   UNL     1      -8.706  -3.316   5.031  1.00  0.00     0.000 C 
BRANCH  15  16
ATOM     16  C   UNL     1      -8.565  -4.394   6.116  1.00  0.00     0.006 C 
BRANCH  16  17
ATOM     17  C   UNL     1      -9.798  -5.303   6.148  1.00  0.00     0.053 C 
BRANCH  17  18
ATOM     18  C   UNL     1      -9.398  -6.736   5.990  1.00  0.00     0.041 C 
ATOM     19  O   UNL     1      -9.423  -7.279   4.855  1.00  0.00    -0.550 OA
ATOM     20  O   UNL     1      -8.950  -7.458   7.089  1.00  0.00    -0.550 OA
ENDBRANCH  17  18
ENDBRANCH  16  17
ENDBRANCH  15  16
ENDBRANCH  14  15
ENDBRANCH  13  14
ENDBRANCH  12  13
ENDBRANCH  11  12
ENDBRANCH   1  11
TORSDOF 15
ENDMDL
MODEL 7
REMARK VINA RESULT:    -4.166      1.774      2.628
REMARK INTER + INTRA:          -9.937
REMARK INTER:                  -8.122
REMARK INTRA:                  -1.815
REMARK UNBOUND:                -2.119
REMARK SMILES O=C([O-])CCCCCCCCCCCCCCC(=O)[O-]
REMARK SMILES IDX 10 1 9 2 8 3 7 4 6 5 5 6 4 7 2 8 1 9 3 10 11 11 12 12 13 13
REMARK SMILES IDX 14 14 15 15 16 16 17 17 18 18 19 19 20 20
REMARK H PARENT
REMARK Flexibility Score: inf
ROOT
ATOM      1  C   UNL     1      -8.520  -4.788   6.371  1.00  0.00     0.000 C 
ENDROOT
BRANCH   1   2
ATOM      2  C   UNL     1      -9.619  -5.830   6.641  1.00  0.00     0.000 C 
BRANCH   2   3
ATOM      3  C   UNL     1      -9.987  -6.652   5.392  1.00  0.00     0.000 C 
BRANCH   3   4
ATOM      4  C   UNL     1     -11.462  -6.564   4.963  1.00  0.00     0.000 C 
BRANCH   4   5
ATOM      5  C   UNL     1     -12.227  -5.435   5.670  1.00  0.00     0.000 C 
BRANCH   5   6
ATOM      6  C   UNL     1     -13.025  -4.598   4.663  1.00  0.00     0.006 C 
BRANCH   6   7
ATOM      7  C   UNL     1     -13.222  -5.360   3.349  1.00  0.00     0.053 C 
BRANCH   7   8
ATOM      8  C   UNL     1     -14.672  -5.654   3.127  1.00  0.00     0.041 C 
ATOM      9  O   UNL     1     -15.021  -6.692   2.505  1.00  0.00    -0.550 OA
ATOM     10  O   UNL     1     -15.641  -4.805   3.648  1.00  0.00    -0.550 OA
ENDBRANCH   7   8
ENDBRANCH   6   7
ENDBRANCH   5   6
ENDBRANCH   4   5
ENDBRANCH   3   4
ENDBRANCH   2   3
ENDBRANCH   1   2
BRANCH   1  11
ATOM     11  C   UNL     1      -9.071  -3.502   5.733  1.00  0.00     0.000 C 
BRANCH  11  12
ATOM     12  C   UNL     1      -8.629  -3.328   4.272  1.00  0.00     0.000 C 
BRANCH  12  13
ATOM     13  C   UNL     1      -9.819  -3.487   3.316  1.00  0.00     0.000 C 
BRANCH  13  14
ATOM     14  C   UNL     1      -9.886  -2.317   2.323  1.00  0.00     0.000 C 
BRANCH  14  15
ATOM     15  C   UNL     1      -8.972  -1.147   2.723  1.00  0.00     0.000 C 
BRANCH  15  16
ATOM     16  C   UNL     1      -9.444   0.196   2.147  1.00  0.00     0.006 C 
BRANCH  16  17
ATOM     17  C   UNL     1     -10.956   0.186   1.902  1.00  0.00     0.053 C 
BRANCH  17  18
ATOM     18  C   UNL     1     -11.675   0.868   3.024  1.00  0.00     0.041 C 
ATOM     19  O   UNL     1     -12.919   0.731   3.153  1.00  0.00    -0.550 OA
ATOM     20  O   UNL     1     -10.963   1.614   3.954  1.00  0.00    -0.550 OA
ENDBRANCH  17  18
ENDBRANCH  16  17
ENDBRANCH  15  16
ENDBRANCH  14  15
ENDBRANCH  13  14
ENDBRANCH  12  13
ENDBRANCH  11  12
ENDBRANCH   1  11
TORSDOF 15
ENDMDL
MODEL 8
REMARK VINA RESULT:    -4.115      2.010      5.996
REMARK INTER + INTRA:          -9.842
REMARK INTER:                  -8.164
REMARK INTRA:                  -1.678
REMARK UNBOUND:                -2.119
REMARK SMILES O=C([O-])CCCCCCCCCCCCCCC(=O)[O-]
REMARK SMILES IDX 10 1 9 2 8 3 7 4 6 5 5 6 4 7 2 8 1 9 3 10 11 11 12 12 13 13
REMARK SMILES IDX 14 14 15 15 16 16 17 17 18 18 19 19 20 20
REMARK H PARENT
REMARK Flexibility Score: inf
ROOT
ATOM      1  C   UNL     1      -9.123  -3.510   5.713  1.00  0.00     0.000 C 
ENDROOT
BRANCH   1   2
ATOM      2  C   UNL     1      -8.824  -3.462   4.204  1.00  0.00     0.000 C 
BRANCH   2   3
ATOM      3  C   UNL     1     -10.059  -3.099   3.359  1.00  0.00     0.000 C 
BRANCH   3   4
ATOM      4  C   UNL     1      -9.815  -2.047   2.263  1.00  0.00     0.000 C 
BRANCH   4   5
ATOM      5  C   UNL     1      -8.539  -1.224   2.495  1.00  0.00     0.000 C 
BRANCH   5   6
ATOM      6  C   UNL     1      -8.836   0.280   2.430  1.00  0.00     0.006 C 
BRANCH   6   7
ATOM      7  C   UNL     1     -10.336   0.551   2.583  1.00  0.00     0.053 C 
BRANCH   7   8
ATOM      8  C   UNL     1     -10.636   1.073   3.953  1.00  0.00     0.041 C 
ATOM      9  O   UNL     1     -10.914   0.278   4.888  1.00  0.00    -0.550 OA
ATOM     10  O   UNL     1     -10.562   2.436   4.208  1.00  0.00    -0.550 OA
ENDBRANCH   7   8
ENDBRANCH   6   7
ENDBRANCH   5   6
ENDBRANCH   4   5
ENDBRANCH   3   4
ENDBRANCH   2   3
ENDBRANCH   1   2
BRANCH   1  11
ATOM     11  C   UNL     1      -8.594  -4.791   6.378  1.00  0.00     0.000 C 
BRANCH  11  12
ATOM     12  C   UNL     1      -9.365  -6.047   5.943  1.00  0.00     0.000 C 
BRANCH  12  13
ATOM     13  C   UNL     1     -10.765  -6.077   6.571  1.00  0.00     0.000 C 
BRANCH  13  14
ATOM     14  C   UNL     1     -11.854  -6.024   5.490  1.00  0.00     0.000 C 
BRANCH  14  15
ATOM     15  C   UNL     1     -12.681  -4.729   5.545  1.00  0.00     0.000 C 
BRANCH  15  16
ATOM     16  C   UNL     1     -13.303  -4.366   4.188  1.00  0.00     0.006 C 
BRANCH  16  17
ATOM     17  C   UNL     1     -13.533  -5.620   3.339  1.00  0.00     0.053 C 
BRANCH  17  18
ATOM     18  C   UNL     1     -14.981  -5.757   2.985  1.00  0.00     0.041 C 
ATOM     19  O   UNL     1     -15.363  -6.692   2.234  1.00  0.00    -0.550 OA
ATOM     20  O   UNL     1     -15.914  -4.881   3.524  1.00  0.00    -0.550 OA
ENDBRANCH  17  18
ENDBRANCH  16  17
ENDBRANCH  15  16
ENDBRANCH  14  15
ENDBRANCH  13  14
ENDBRANCH  12  13
ENDBRANCH  11  12
ENDBRANCH   1  11
TORSDOF 15
ENDMDL
MODEL 9
REMARK VINA RESULT:    -4.029      1.784      5.405
REMARK INTER + INTRA:          -9.681
REMARK INTER:                  -7.243
REMARK INTRA:                  -2.438
REMARK UNBOUND:                -2.119
REMARK SMILES O=C([O-])CCCCCCCCCCCCCCC(=O)[O-]
REMARK SMILES IDX 10 1 9 2 8 3 7 4 6 5 5 6 4 7 2 8 1 9 3 10 11 11 12 12 13 13
REMARK SMILES IDX 14 14 15 15 16 16 17 17 18 18 19 19 20 20
REMARK H PARENT
REMARK Flexibility Score: inf
ROOT
ATOM      1  C   UNL     1      -8.875  -3.503   5.672  1.00  0.00     0.000 C 
ENDROOT
BRANCH   1   2
ATOM      2  C   UNL     1      -8.632  -3.295   4.167  1.00  0.00     0.000 C 
BRANCH   2   3
ATOM      3  C   UNL     1      -9.103  -1.916   3.669  1.00  0.00     0.000 C 
BRANCH   3   4
ATOM      4  C   UNL     1      -9.543  -1.869   2.195  1.00  0.00     0.000 C 
BRANCH   4   5
ATOM      5  C   UNL     1     -10.444  -0.667   1.876  1.00  0.00     0.000 C 
BRANCH   5   6
ATOM      6  C   UNL     1     -10.640   0.217   3.114  1.00  0.00     0.006 C 
BRANCH   6   7
ATOM      7  C   UNL     1     -10.893   1.673   2.716  1.00  0.00     0.053 C 
BRANCH   7   8
ATOM      8  C   UNL     1     -12.319   2.046   2.972  1.00  0.00     0.041 C 
ATOM      9  O   UNL     1     -12.598   3.132   3.545  1.00  0.00    -0.550 OA
ATOM     10  O   UNL     1     -13.343   1.215   2.536  1.00  0.00    -0.550 OA
ENDBRANCH   7   8
ENDBRANCH   6   7
ENDBRANCH   5   6
ENDBRANCH   4   5
ENDBRANCH   3   4
ENDBRANCH   2   3
ENDBRANCH   1   2
BRANCH   1  11
ATOM     11  C   UNL     1      -8.998  -4.989   6.049  1.00  0.00     0.000 C 
BRANCH  11  12
ATOM     12  C   UNL     1      -9.817  -5.794   5.029  1.00  0.00     0.000 C 
BRANCH  12  13
ATOM     13  C   UNL     1     -11.166  -6.220   5.621  1.00  0.00     0.000 C 
BRANCH  13  14
ATOM     14  C   UNL     1     -12.253  -5.177   5.323  1.00  0.00     0.000 C 
BRANCH  14  15
ATOM     15  C   UNL     1     -12.136  -4.589   3.907  1.00  0.00     0.000 C 
BRANCH  15  16
ATOM     16  C   UNL     1     -12.629  -3.137   3.827  1.00  0.00     0.006 C 
BRANCH  16  17
ATOM     17  C   UNL     1     -12.440  -2.420   5.168  1.00  0.00     0.053 C 
BRANCH  17  18
ATOM     18  C   UNL     1     -13.272  -1.177   5.221  1.00  0.00     0.041 C 
ATOM     19  O   UNL     1     -14.398  -1.145   4.660  1.00  0.00    -0.550 OA
ATOM     20  O   UNL     1     -12.825  -0.070   5.931  1.00  0.00    -0.550 OA
ENDBRANCH  17  18
ENDBRANCH  16  17
ENDBRANCH  15  16
ENDBRANCH  14  15
ENDBRANCH  13  14
ENDBRANCH  12  13
ENDBRANCH  11  12
ENDBRANCH   1  11
TORSDOF 15
ENDMDL
