MODEL 1
REMARK VINA RESULT:    -5.076      0.000      0.000
REMARK INTER + INTRA:         -15.889
REMARK INTER:                 -13.384
REMARK INTRA:                  -2.505
REMARK UNBOUND:                -2.505
REMARK SMILES CCCCCCCCCCCCCCCCCCCCCCCCCCCCCC(=O)[O-]
REMARK SMILES IDX 16 1 17 2 18 3 19 4 20 5 21 6 22 7 23 8 24 9 25 10 26 11
REMARK SMILES IDX 27 12 28 13 29 14 30 15 31 16 32 17 15 18 14 19 13 20 12 21
REMARK SMILES IDX 11 22 10 23 9 24 8 25 7 26 6 27 5 28 4 29 3 30 2 31 1 32
REMARK H PARENT
REMARK Flexibility Score: inf
ROOT
ATOM      1  C   UNL     1      -0.008  -6.078  -1.273  1.00  0.00     0.000 C 
ENDROOT
BRANCH   1   2
ATOM      2  C   UNL     1       0.181  -5.138  -2.484  1.00  0.00     0.000 C 
BRANCH   2   3
ATOM      3  C   UNL     1       0.734  -3.763  -2.070  1.00  0.00     0.000 C 
BRANCH   3   4
ATOM      4  C   UNL     1       0.959  -3.647  -0.548  1.00  0.00     0.000 C 
BRANCH   4   5
ATOM      5  C   UNL     1       0.304  -2.407   0.090  1.00  0.00     0.000 C 
BRANCH   5   6
ATOM      6  C   UNL     1       1.143  -1.712   1.177  1.00  0.00     0.000 C 
BRANCH   6   7
ATOM      7  C   UNL     1       0.736  -0.259   1.484  1.00  0.00     0.000 C 
BRANCH   7   8
ATOM      8  C   UNL     1      -0.006   0.442   0.324  1.00  0.00     0.000 C 
BRANCH   8   9
ATOM      9  C   UNL     1      -0.588   1.826   0.675  1.00  0.00     0.000 C 
BRANCH   9  10
ATOM     10  C   UNL     1      -1.968   2.147   0.060  1.00  0.00     0.000 C 
BRANCH  10  11
ATOM     11  C   UNL     1      -2.053   3.483  -0.696  1.00  0.00     0.000 C 
BRANCH  11  12
ATOM     12  C   UNL     1      -1.043   3.577  -1.852  1.00  0.00     0.000 C 
BRANCH  12  13
ATOM     13  C   UNL     1      -1.050   2.328  -2.751  1.00  0.00     0.006 C 
BRANCH  13  14
ATOM     14  C   UNL     1       0.339   1.914  -3.263  1.00  0.00     0.053 C 
BRANCH  14  15
ATOM     15  C   UNL     1       0.947   2.958  -4.148  1.00  0.00     0.041 C 
ATOM     16  O   UNL     1       1.052   2.757  -5.387  1.00  0.00    -0.550 OA
ATOM     17  O   UNL     1       1.374   4.166  -3.609  1.00  0.00    -0.550 OA
ENDBRANCH  14  15
ENDBRANCH  13  14
ENDBRANCH  12  13
ENDBRANCH  11  12
ENDBRANCH  10  11
ENDBRANCH   9  10
ENDBRANCH   8   9
ENDBRANCH   7   8
ENDBRANCH   6   7
ENDBRANCH   5   6
ENDBRANCH   4   5
ENDBRANCH   3   4
ENDBRANCH   2   3
ENDBRANCH   1   2
BRANCH   1  18
ATOM     18  C   UNL     1      -1.003  -7.221  -1.535  1.00  0.00     0.000 C 
BRANCH  18  19
ATOM     19  C   UNL     1      -0.697  -8.475  -0.700  1.00  0.00     0.000 C 
BRANCH  19  20
ATOM     20  C   UNL     1       0.808  -8.671  -0.458  1.00  0.00     0.000 C 
BRANCH  20  21
ATOM     21  C   UNL     1       1.400  -9.829  -1.280  1.00  0.00     0.000 C 
BRANCH  21  22
ATOM     22  C   UNL     1       0.921  -9.822  -2.741  1.00  0.00     0.000 C 
BRANCH  22  23
ATOM     23  C   UNL     1       2.062  -9.556  -3.735  1.00  0.00     0.000 C 
BRANCH  23  24
ATOM     24  C   UNL     1       3.406  -9.406  -3.007  1.00  0.00    -0.000 C 
BRANCH  24  25
ATOM     25  C   UNL     1       4.481  -8.725  -3.869  1.00  0.00    -0.000 C 
BRANCH  25  26
ATOM     26  C   UNL     1       5.197  -9.706  -4.811  1.00  0.00    -0.000 C 
BRANCH  26  27
ATOM     27  C   UNL     1       5.344  -9.158  -6.242  1.00  0.00    -0.000 C 
BRANCH  27  28
ATOM     28  C   UNL     1       4.104  -9.340  -7.139  1.00  0.00    -0.000 C 
BRANCH  28  29
ATOM     29  C   UNL     1       3.468  -8.032  -7.649  1.00  0.00    -0.000 C 
BRANCH  29  30
ATOM     30  C   UNL     1       2.260  -7.560  -6.812  1.00  0.00    -0.000 C 
BRANCH  30  31
ATOM     31  C   UNL     1       2.641  -6.474  -5.795  1.00  0.00    -0.003 C 
ATOM     32  C   UNL     1       1.871  -5.183  -6.055  1.00  0.00     0.004 C 
ENDBRANCH  30  31
ENDBRANCH  29  30
ENDBRANCH  28  29
ENDBRANCH  27  28
ENDBRANCH  26  27
ENDBRANCH  25  26
ENDBRANCH  24  25
ENDBRANCH  23  24
ENDBRANCH  22  23
ENDBRANCH  21  22
ENDBRANCH  20  21
ENDBRANCH  19  20
ENDBRANCH  18  19
ENDBRANCH   1  18
TORSDOF 28
ENDMDL
MODEL 2
REMARK VINA RESULT:    -4.905      0.933      4.091
REMARK INTER + INTRA:         -15.439
REMARK INTER:                 -13.247
REMARK INTRA:                  -2.192
REMARK UNBOUND:                -2.505
REMARK SMILES CCCCCCCCCCCCCCCCCCCCCCCCCCCCCC(=O)[O-]
REMARK SMILES IDX 16 1 17 2 18 3 19 4 20 5 21 6 22 7 23 8 24 9 25 10 26 11
REMARK SMILES IDX 27 12 28 13 29 14 30 15 31 16 32 17 15 18 14 19 13 20 12 21
REMARK SMILES IDX 11 22 10 23 9 24 8 25 7 26 6 27 5 28 4 29 3 30 2 31 1 32
REMARK H PARENT
REMARK Flexibility Score: inf
ROOT
ATOM      1  C   UNL     1       0.415  -4.978  -5.375  1.00  0.00     0.000 C 
ENDROOT
BRANCH   1   2
ATOM      2  C   UNL     1       0.613  -3.847  -4.342  1.00  0.00     0.000 C 
BRANCH   2   3
ATOM      3  C   UNL     1       0.498  -4.358  -2.895  1.00  0.00     0.000 C 
BRANCH   3   4
ATOM      4  C   UNL     1       0.811  -3.262  -1.853  1.00  0.00     0.000 C 
BRANCH   4   5
ATOM      5  C   UNL     1       0.878  -3.777  -0.403  1.00  0.00     0.000 C 
BRANCH   5   6
ATOM      6  C   UNL     1       1.310  -2.732   0.642  1.00  0.00     0.000 C 
BRANCH   6   7
ATOM      7  C   UNL     1       0.378  -1.513   0.767  1.00  0.00     0.000 C 
BRANCH   7   8
ATOM      8  C   UNL     1       1.092  -0.225   1.238  1.00  0.00     0.000 C 
BRANCH   8   9
ATOM      9  C   UNL     1       0.245   1.058   1.121  1.00  0.00     0.000 C 
BRANCH   9  10
ATOM     10  C   UNL     1      -0.778   1.081  -0.035  1.00  0.00     0.000 C 
BRANCH  10  11
ATOM     11  C   UNL     1      -1.723   2.296  -0.050  1.00  0.00     0.000 C 
BRANCH  11  12
ATOM     12  C   UNL     1      -2.075   2.757  -1.475  1.00  0.00     0.000 C 
BRANCH  12  13
ATOM     13  C   UNL     1      -0.948   2.477  -2.486  1.00  0.00     0.006 C 
BRANCH  13  14
ATOM     14  C   UNL     1       0.093   3.602  -2.594  1.00  0.00     0.053 C 
BRANCH  14  15
ATOM     15  C   UNL     1       1.083   3.350  -3.690  1.00  0.00     0.041 C 
ATOM     16  O   UNL     1       1.772   4.297  -4.153  1.00  0.00    -0.550 OA
ATOM     17  O   UNL     1       1.262   2.064  -4.185  1.00  0.00    -0.550 OA
ENDBRANCH  14  15
ENDBRANCH  13  14
ENDBRANCH  12  13
ENDBRANCH  11  12
ENDBRANCH  10  11
ENDBRANCH   9  10
ENDBRANCH   8   9
ENDBRANCH   7   8
ENDBRANCH   6   7
ENDBRANCH   5   6
ENDBRANCH   4   5
ENDBRANCH   3   4
ENDBRANCH   2   3
ENDBRANCH   1   2
BRANCH   1  18
ATOM     18  C   UNL     1       1.575  -5.099  -6.379  1.00  0.00     0.000 C 
BRANCH  18  19
ATOM     19  C   UNL     1       2.631  -6.127  -5.942  1.00  0.00     0.000 C 
BRANCH  19  20
ATOM     20  C   UNL     1       2.432  -7.497  -6.610  1.00  0.00     0.000 C 
BRANCH  20  21
ATOM     21  C   UNL     1       3.652  -7.942  -7.435  1.00  0.00     0.000 C 
BRANCH  21  22
ATOM     22  C   UNL     1       3.782  -9.471  -7.520  1.00  0.00     0.000 C 
BRANCH  22  23
ATOM     23  C   UNL     1       4.398 -10.083  -6.253  1.00  0.00     0.000 C 
BRANCH  23  24
ATOM     24  C   UNL     1       5.191  -9.032  -5.461  1.00  0.00    -0.000 C 
BRANCH  24  25
ATOM     25  C   UNL     1       4.658  -8.830  -4.034  1.00  0.00    -0.000 C 
BRANCH  25  26
ATOM     26  C   UNL     1       3.452  -9.731  -3.717  1.00  0.00    -0.000 C 
BRANCH  26  27
ATOM     27  C   UNL     1       2.330  -8.984  -2.973  1.00  0.00    -0.000 C 
BRANCH  27  28
ATOM     28  C   UNL     1       1.332  -9.889  -2.224  1.00  0.00    -0.000 C 
BRANCH  28  29
ATOM     29  C   UNL     1       1.459  -9.872  -0.689  1.00  0.00    -0.000 C 
BRANCH  29  30
ATOM     30  C   UNL     1       0.203  -9.342   0.034  1.00  0.00    -0.000 C 
BRANCH  30  31
ATOM     31  C   UNL     1      -0.471  -8.193  -0.729  1.00  0.00    -0.003 C 
ATOM     32  C   UNL     1      -1.943  -8.069  -0.349  1.00  0.00     0.004 C 
ENDBRANCH  30  31
ENDBRANCH  29  30
ENDBRANCH  28  29
ENDBRANCH  27  28
ENDBRANCH  26  27
ENDBRANCH  25  26
ENDBRANCH  24  25
ENDBRANCH  23  24
ENDBRANCH  22  23
ENDBRANCH  21  22
ENDBRANCH  20  21
ENDBRANCH  19  20
ENDBRANCH  18  19
ENDBRANCH   1  18
TORSDOF 28
ENDMDL
MODEL 3
REMARK VINA RESULT:    -4.865      3.522     11.176
REMARK INTER + INTRA:         -15.334
REMARK INTER:                 -12.910
REMARK INTRA:                  -2.424
REMARK UNBOUND:                -2.505
REMARK SMILES CCCCCCCCCCCCCCCCCCCCCCCCCCCCCC(=O)[O-]
REMARK SMILES IDX 16 1 17 2 18 3 19 4 20 5 21 6 22 7 23 8 24 9 25 10 26 11
REMARK SMILES IDX 27 12 28 13 29 14 30 15 31 16 32 17 15 18 14 19 13 20 12 21
REMARK SMILES IDX 11 22 10 23 9 24 8 25 7 26 6 27 5 28 4 29 3 30 2 31 1 32
REMARK H PARENT
REMARK Flexibility Score: inf
ROOT
ATOM      1  C   UNL     1       0.270  -4.526  -3.225  1.00  0.00     0.000 C 
ENDROOT
BRANCH   1   2
ATOM      2  C   UNL     1       0.462  -4.238  -4.730  1.00  0.00     0.000 C 
BRANCH   2   3
ATOM      3  C   UNL     1       1.875  -4.608  -5.216  1.00  0.00     0.000 C 
BRANCH   3   4
ATOM      4  C   UNL     1       1.859  -5.685  -6.321  1.00  0.00     0.000 C 
BRANCH   4   5
ATOM      5  C   UNL     1       2.630  -6.969  -5.957  1.00  0.00     0.000 C 
BRANCH   5   6
ATOM      6  C   UNL     1       3.057  -7.835  -7.155  1.00  0.00     0.000 C 
BRANCH   6   7
ATOM      7  C   UNL     1       3.781  -9.144  -6.786  1.00  0.00     0.000 C 
BRANCH   7   8
ATOM      8  C   UNL     1       4.904  -8.964  -5.739  1.00  0.00     0.000 C 
BRANCH   8   9
ATOM      9  C   UNL     1       4.685  -9.737  -4.423  1.00  0.00     0.000 C 
BRANCH   9  10
ATOM     10  C   UNL     1       3.960  -8.958  -3.303  1.00  0.00     0.000 C 
BRANCH  10  11
ATOM     11  C   UNL     1       2.481  -9.329  -3.098  1.00  0.00     0.000 C 
BRANCH  11  12
ATOM     12  C   UNL     1       2.073  -9.344  -1.616  1.00  0.00     0.000 C 
BRANCH  12  13
ATOM     13  C   UNL     1       0.703 -10.007  -1.383  1.00  0.00     0.006 C 
BRANCH  13  14
ATOM     14  C   UNL     1       0.203  -9.924   0.068  1.00  0.00     0.053 C 
BRANCH  14  15
ATOM     15  C   UNL     1      -1.221  -9.467   0.147  1.00  0.00     0.041 C 
ATOM     16  O   UNL     1      -1.898  -9.676   1.189  1.00  0.00    -0.550 OA
ATOM     17  O   UNL     1      -1.795  -8.787  -0.920  1.00  0.00    -0.550 OA
ENDBRANCH  14  15
ENDBRANCH  13  14
ENDBRANCH  12  13
ENDBRANCH  11  12
ENDBRANCH  10  11
ENDBRANCH   9  10
ENDBRANCH   8   9
ENDBRANCH   7   8
ENDBRANCH   6   7
ENDBRANCH   5   6
ENDBRANCH   4   5
ENDBRANCH   3   4
ENDBRANCH   2   3
ENDBRANCH   1   2
BRANCH   1  18
ATOM     18  C   UNL     1       0.799  -3.404  -2.316  1.00  0.00     0.000 C 
BRANCH  18  19
ATOM     19  C   UNL     1       0.809  -3.801  -0.830  1.00  0.00     0.000 C 
BRANCH  19  20
ATOM     20  C   UNL     1       1.304  -2.665   0.080  1.00  0.00     0.000 C 
BRANCH  20  21
ATOM     21  C   UNL     1       0.173  -1.725   0.531  1.00  0.00     0.000 C 
BRANCH  21  22
ATOM     22  C   UNL     1       0.699  -0.393   1.089  1.00  0.00     0.000 C 
BRANCH  22  23
ATOM     23  C   UNL     1       0.117   0.825   0.355  1.00  0.00     0.000 C 
BRANCH  23  24
ATOM     24  C   UNL     1      -0.700   0.393  -0.872  1.00  0.00    -0.000 C 
BRANCH  24  25
ATOM     25  C   UNL     1      -1.838   1.371  -1.207  1.00  0.00    -0.000 C 
BRANCH  25  26
ATOM     26  C   UNL     1      -2.215   2.272  -0.019  1.00  0.00    -0.000 C 
BRANCH  26  27
ATOM     27  C   UNL     1      -1.767   3.732  -0.214  1.00  0.00    -0.000 C 
BRANCH  27  28
ATOM     28  C   UNL     1      -1.212   4.061  -1.614  1.00  0.00    -0.000 C 
BRANCH  28  29
ATOM     29  C   UNL     1       0.324   4.130  -1.710  1.00  0.00    -0.000 C 
BRANCH  29  30
ATOM     30  C   UNL     1       0.862   4.043  -3.154  1.00  0.00    -0.000 C 
BRANCH  30  31
ATOM     31  C   UNL     1       0.271   2.857  -3.929  1.00  0.00    -0.003 C 
ATOM     32  C   UNL     1       1.364   1.891  -4.374  1.00  0.00     0.004 C 
ENDBRANCH  30  31
ENDBRANCH  29  30
ENDBRANCH  28  29
ENDBRANCH  27  28
ENDBRANCH  26  27
ENDBRANCH  25  26
ENDBRANCH  24  25
ENDBRANCH  23  24
ENDBRANCH  22  23
ENDBRANCH  21  22
ENDBRANCH  20  21
ENDBRANCH  19  20
ENDBRANCH  18  19
ENDBRANCH   1  18
TORSDOF 28
ENDMDL
MODEL 4
REMARK VINA RESULT:    -4.780      2.199     10.120
REMARK INTER + INTRA:         -15.109
REMARK INTER:                 -12.651
REMARK INTRA:                  -2.458
REMARK UNBOUND:                -2.505
REMARK SMILES CCCCCCCCCCCCCCCCCCCCCCCCCCCCCC(=O)[O-]
REMARK SMILES IDX 16 1 17 2 18 3 19 4 20 5 21 6 22 7 23 8 24 9 25 10 26 11
REMARK SMILES IDX 27 12 28 13 29 14 30 15 31 16 32 17 15 18 14 19 13 20 12 21
REMARK SMILES IDX 11 22 10 23 9 24 8 25 7 26 6 27 5 28 4 29 3 30 2 31 1 32
REMARK H PARENT
REMARK Flexibility Score: inf
ROOT
ATOM      1  C   UNL     1      -0.992  -7.384  -1.506  1.00  0.00     0.000 C 
ENDROOT
BRANCH   1   2
ATOM      2  C   UNL     1      -1.181  -8.343  -0.310  1.00  0.00     0.000 C 
BRANCH   2   3
ATOM      3  C   UNL     1      -0.863  -9.802  -0.681  1.00  0.00     0.000 C 
BRANCH   3   4
ATOM      4  C   UNL     1      -0.905 -10.050  -2.204  1.00  0.00     0.000 C 
BRANCH   4   5
ATOM      5  C   UNL     1       0.479 -10.033  -2.881  1.00  0.00     0.000 C 
BRANCH   5   6
ATOM      6  C   UNL     1       1.674  -9.899  -1.921  1.00  0.00     0.000 C 
BRANCH   6   7
ATOM      7  C   UNL     1       2.841  -9.044  -2.449  1.00  0.00     0.000 C 
BRANCH   7   8
ATOM      8  C   UNL     1       3.424  -9.541  -3.791  1.00  0.00     0.000 C 
BRANCH   8   9
ATOM      9  C   UNL     1       4.796  -8.940  -4.158  1.00  0.00     0.000 C 
BRANCH   9  10
ATOM     10  C   UNL     1       5.171  -8.993  -5.655  1.00  0.00     0.000 C 
BRANCH  10  11
ATOM     11  C   UNL     1       4.096  -9.592  -6.578  1.00  0.00     0.000 C 
BRANCH  11  12
ATOM     12  C   UNL     1       3.351  -8.523  -7.395  1.00  0.00     0.000 C 
BRANCH  12  13
ATOM     13  C   UNL     1       3.389  -7.135  -6.732  1.00  0.00     0.006 C 
BRANCH  13  14
ATOM     14  C   UNL     1       2.100  -6.762  -5.981  1.00  0.00     0.053 C 
BRANCH  14  15
ATOM     15  C   UNL     1       1.846  -5.285  -5.998  1.00  0.00     0.041 C 
ATOM     16  O   UNL     1       0.737  -4.837  -6.392  1.00  0.00    -0.550 OA
ATOM     17  O   UNL     1       2.825  -4.405  -5.554  1.00  0.00    -0.550 OA
ENDBRANCH  14  15
ENDBRANCH  13  14
ENDBRANCH  12  13
ENDBRANCH  11  12
ENDBRANCH  10  11
ENDBRANCH   9  10
ENDBRANCH   8   9
ENDBRANCH   7   8
ENDBRANCH   6   7
ENDBRANCH   5   6
ENDBRANCH   4   5
ENDBRANCH   3   4
ENDBRANCH   2   3
ENDBRANCH   1   2
BRANCH   1  18
ATOM     18  C   UNL     1      -0.003  -6.240  -1.221  1.00  0.00     0.000 C 
BRANCH  18  19
ATOM     19  C   UNL     1       0.096  -5.239  -2.384  1.00  0.00     0.000 C 
BRANCH  19  20
ATOM     20  C   UNL     1       0.745  -3.911  -1.965  1.00  0.00     0.000 C 
BRANCH  20  21
ATOM     21  C   UNL     1       0.739  -3.697  -0.441  1.00  0.00     0.000 C 
BRANCH  21  22
ATOM     22  C   UNL     1       0.343  -2.266  -0.047  1.00  0.00     0.000 C 
BRANCH  22  23
ATOM     23  C   UNL     1       1.135  -1.745   1.162  1.00  0.00     0.000 C 
BRANCH  23  24
ATOM     24  C   UNL     1       0.559  -0.413   1.668  1.00  0.00    -0.000 C 
BRANCH  24  25
ATOM     25  C   UNL     1       0.630   0.706   0.617  1.00  0.00    -0.000 C 
BRANCH  25  26
ATOM     26  C   UNL     1      -0.711   1.436   0.435  1.00  0.00    -0.000 C 
BRANCH  26  27
ATOM     27  C   UNL     1      -1.278   1.294  -0.989  1.00  0.00    -0.000 C 
BRANCH  27  28
ATOM     28  C   UNL     1      -1.887   2.581  -1.579  1.00  0.00    -0.000 C 
BRANCH  28  29
ATOM     29  C   UNL     1      -0.981   3.825  -1.505  1.00  0.00    -0.000 C 
BRANCH  29  30
ATOM     30  C   UNL     1       0.478   3.560  -1.931  1.00  0.00    -0.000 C 
BRANCH  30  31
ATOM     31  C   UNL     1       0.676   3.678  -3.449  1.00  0.00    -0.003 C 
ATOM     32  C   UNL     1       0.945   2.314  -4.077  1.00  0.00     0.004 C 
ENDBRANCH  30  31
ENDBRANCH  29  30
ENDBRANCH  28  29
ENDBRANCH  27  28
ENDBRANCH  26  27
ENDBRANCH  25  26
ENDBRANCH  24  25
ENDBRANCH  23  24
ENDBRANCH  22  23
ENDBRANCH  21  22
ENDBRANCH  20  21
ENDBRANCH  19  20
ENDBRANCH  18  19
ENDBRANCH   1  18
TORSDOF 28
ENDMDL
MODEL 5
REMARK VINA RESULT:    -4.599      1.200      4.018
REMARK INTER + INTRA:         -14.633
REMARK INTER:                 -12.261
REMARK INTRA:                  -2.371
REMARK UNBOUND:                -2.505
REMARK SMILES CCCCCCCCCCCCCCCCCCCCCCCCCCCCCC(=O)[O-]
REMARK SMILES IDX 16 1 17 2 18 3 19 4 20 5 21 6 22 7 23 8 24 9 25 10 26 11
REMARK SMILES IDX 27 12 28 13 29 14 30 15 31 16 32 17 15 18 14 19 13 20 12 21
REMARK SMILES IDX 11 22 10 23 9 24 8 25 7 26 6 27 5 28 4 29 3 30 2 31 1 32
REMARK H PARENT
REMARK Flexibility Score: inf
ROOT
ATOM      1  C   UNL     1       0.374  -4.460  -2.797  1.00  0.00     0.000 C 
ENDROOT
BRANCH   1   2
ATOM      2  C   UNL     1       1.223  -3.773  -1.705  1.00  0.00     0.000 C 
BRANCH   2   3
ATOM      3  C   UNL     1       0.418  -3.523  -0.416  1.00  0.00     0.000 C 
BRANCH   3   4
ATOM      4  C   UNL     1       0.305  -2.024  -0.068  1.00  0.00     0.000 C 
BRANCH   4   5
ATOM      5  C   UNL     1       1.140  -1.600   1.155  1.00  0.00     0.000 C 
BRANCH   5   6
ATOM      6  C   UNL     1       0.756  -0.242   1.769  1.00  0.00     0.000 C 
BRANCH   6   7
ATOM      7  C   UNL     1       0.624   0.915   0.760  1.00  0.00     0.000 C 
BRANCH   7   8
ATOM      8  C   UNL     1      -0.802   1.504   0.668  1.00  0.00     0.000 C 
BRANCH   8   9
ATOM      9  C   UNL     1      -1.568   1.135  -0.619  1.00  0.00     0.000 C 
BRANCH   9  10
ATOM     10  C   UNL     1      -2.226   2.314  -1.366  1.00  0.00     0.000 C 
BRANCH  10  11
ATOM     11  C   UNL     1      -1.977   3.702  -0.750  1.00  0.00     0.000 C 
BRANCH  11  12
ATOM     12  C   UNL     1      -0.963   4.534  -1.552  1.00  0.00     0.000 C 
BRANCH  12  13
ATOM     13  C   UNL     1       0.339   3.767  -1.842  1.00  0.00     0.006 C 
BRANCH  13  14
ATOM     14  C   UNL     1       0.859   3.932  -3.279  1.00  0.00     0.053 C 
BRANCH  14  15
ATOM     15  C   UNL     1       0.765   2.657  -4.061  1.00  0.00     0.041 C 
ATOM     16  O   UNL     1       1.120   2.627  -5.269  1.00  0.00    -0.550 OA
ATOM     17  O   UNL     1       0.309   1.496  -3.449  1.00  0.00    -0.550 OA
ENDBRANCH  14  15
ENDBRANCH  13  14
ENDBRANCH  12  13
ENDBRANCH  11  12
ENDBRANCH  10  11
ENDBRANCH   9  10
ENDBRANCH   8   9
ENDBRANCH   7   8
ENDBRANCH   6   7
ENDBRANCH   5   6
ENDBRANCH   4   5
ENDBRANCH   3   4
ENDBRANCH   2   3
ENDBRANCH   1   2
BRANCH   1  18
ATOM     18  C   UNL     1       0.384  -3.709  -4.140  1.00  0.00     0.000 C 
BRANCH  18  19
ATOM     19  C   UNL     1      -0.375  -4.463  -5.245  1.00  0.00     0.000 C 
BRANCH  19  20
ATOM     20  C   UNL     1       0.531  -4.844  -6.427  1.00  0.00     0.000 C 
BRANCH  20  21
ATOM     21  C   UNL     1       1.943  -5.267  -5.986  1.00  0.00     0.000 C 
BRANCH  21  22
ATOM     22  C   UNL     1       2.286  -6.706  -6.405  1.00  0.00     0.000 C 
BRANCH  22  23
ATOM     23  C   UNL     1       3.011  -7.486  -5.298  1.00  0.00     0.000 C 
BRANCH  23  24
ATOM     24  C   UNL     1       3.644  -8.772  -5.853  1.00  0.00    -0.000 C 
BRANCH  24  25
ATOM     25  C   UNL     1       3.614  -9.935  -4.848  1.00  0.00    -0.000 C 
BRANCH  25  26
ATOM     26  C   UNL     1       3.518  -9.458  -3.389  1.00  0.00    -0.000 C 
BRANCH  26  27
ATOM     27  C   UNL     1       2.259  -9.980  -2.674  1.00  0.00    -0.000 C 
BRANCH  27  28
ATOM     28  C   UNL     1       1.643  -9.008  -1.648  1.00  0.00    -0.000 C 
BRANCH  28  29
ATOM     29  C   UNL     1       0.186  -8.596  -1.931  1.00  0.00    -0.000 C 
BRANCH  29  30
ATOM     30  C   UNL     1      -0.470  -7.800  -0.783  1.00  0.00    -0.000 C 
BRANCH  30  31
ATOM     31  C   UNL     1      -1.785  -8.434  -0.307  1.00  0.00    -0.003 C 
ATOM     32  C   UNL     1      -1.728  -9.955  -0.402  1.00  0.00     0.004 C 
ENDBRANCH  30  31
ENDBRANCH  29  30
ENDBRANCH  28  29
ENDBRANCH  27  28
ENDBRANCH  26  27
ENDBRANCH  25  26
ENDBRANCH  24  25
ENDBRANCH  23  24
ENDBRANCH  22  23
ENDBRANCH  21  22
ENDBRANCH  20  21
ENDBRANCH  19  20
ENDBRANCH  18  19
ENDBRANCH   1  18
TORSDOF 28
ENDMDL
MODEL 6
REMARK VINA RESULT:    -4.543      3.569     11.011
REMARK INTER + INTRA:         -14.485
REMARK INTER:                 -12.008
REMARK INTRA:                  -2.476
REMARK UNBOUND:                -2.505
REMARK SMILES CCCCCCCCCCCCCCCCCCCCCCCCCCCCCC(=O)[O-]
REMARK SMILES IDX 16 1 17 2 18 3 19 4 20 5 21 6 22 7 23 8 24 9 25 10 26 11
REMARK SMILES IDX 27 12 28 13 29 14 30 15 31 16 32 17 15 18 14 19 13 20 12 21
REMARK SMILES IDX 11 22 10 23 9 24 8 25 7 26 6 27 5 28 4 29 3 30 2 31 1 32
REMARK H PARENT
REMARK Flexibility Score: inf
ROOT
ATOM      1  C   UNL     1       1.050  -3.651  -1.855  1.00  0.00     0.000 C 
ENDROOT
BRANCH   1   2
ATOM      2  C   UNL     1       0.403  -4.930  -2.429  1.00  0.00     0.000 C 
BRANCH   2   3
ATOM      3  C   UNL     1      -0.340  -4.662  -3.750  1.00  0.00     0.000 C 
BRANCH   3   4
ATOM      4  C   UNL     1       0.563  -4.006  -4.816  1.00  0.00     0.000 C 
BRANCH   4   5
ATOM      5  C   UNL     1       0.933  -4.940  -5.984  1.00  0.00     0.000 C 
BRANCH   5   6
ATOM      6  C   UNL     1       2.365  -5.501  -5.943  1.00  0.00     0.000 C 
BRANCH   6   7
ATOM      7  C   UNL     1       2.474  -7.023  -6.157  1.00  0.00     0.000 C 
BRANCH   7   8
ATOM      8  C   UNL     1       3.292  -7.751  -5.066  1.00  0.00     0.000 C 
BRANCH   8   9
ATOM      9  C   UNL     1       3.210  -9.290  -5.120  1.00  0.00     0.000 C 
BRANCH   9  10
ATOM     10  C   UNL     1       2.676  -9.976  -3.844  1.00  0.00     0.000 C 
BRANCH  10  11
ATOM     11  C   UNL     1       2.168  -9.021  -2.750  1.00  0.00     0.000 C 
BRANCH  11  12
ATOM     12  C   UNL     1       1.586  -9.765  -1.536  1.00  0.00     0.000 C 
BRANCH  12  13
ATOM     13  C   UNL     1       1.039  -8.810  -0.460  1.00  0.00     0.006 C 
BRANCH  13  14
ATOM     14  C   UNL     1      -0.261  -8.093  -0.858  1.00  0.00     0.053 C 
BRANCH  14  15
ATOM     15  C   UNL     1      -1.428  -9.032  -0.911  1.00  0.00     0.041 C 
ATOM     16  O   UNL     1      -1.801  -9.518  -2.012  1.00  0.00    -0.550 OA
ATOM     17  O   UNL     1      -2.088  -9.390   0.258  1.00  0.00    -0.550 OA
ENDBRANCH  14  15
ENDBRANCH  13  14
ENDBRANCH  12  13
ENDBRANCH  11  12
ENDBRANCH  10  11
ENDBRANCH   9  10
ENDBRANCH   8   9
ENDBRANCH   7   8
ENDBRANCH   6   7
ENDBRANCH   5   6
ENDBRANCH   4   5
ENDBRANCH   3   4
ENDBRANCH   2   3
ENDBRANCH   1   2
BRANCH   1  18
ATOM     18  C   UNL     1       0.773  -3.446  -0.355  1.00  0.00     0.000 C 
BRANCH  18  19
ATOM     19  C   UNL     1       0.316  -2.016  -0.027  1.00  0.00     0.000 C 
BRANCH  19  20
ATOM     20  C   UNL     1       0.939  -1.481   1.273  1.00  0.00     0.000 C 
BRANCH  20  21
ATOM     21  C   UNL     1       0.782   0.041   1.428  1.00  0.00     0.000 C 
BRANCH  21  22
ATOM     22  C   UNL     1       0.053   0.685   0.239  1.00  0.00     0.000 C 
BRANCH  22  23
ATOM     23  C   UNL     1      -0.808   1.888   0.654  1.00  0.00     0.000 C 
BRANCH  23  24
ATOM     24  C   UNL     1      -2.201   1.819   0.010  1.00  0.00    -0.000 C 
BRANCH  24  25
ATOM     25  C   UNL     1      -2.646   3.160  -0.596  1.00  0.00    -0.000 C 
BRANCH  25  26
ATOM     26  C   UNL     1      -1.585   4.262  -0.444  1.00  0.00    -0.000 C 
BRANCH  26  27
ATOM     27  C   UNL     1      -0.938   4.655  -1.785  1.00  0.00    -0.000 C 
BRANCH  27  28
ATOM     28  C   UNL     1       0.497   4.133  -1.992  1.00  0.00    -0.000 C 
BRANCH  28  29
ATOM     29  C   UNL     1       0.943   4.010  -3.462  1.00  0.00    -0.000 C 
BRANCH  29  30
ATOM     30  C   UNL     1       0.716   2.607  -4.066  1.00  0.00    -0.000 C 
BRANCH  30  31
ATOM     31  C   UNL     1       0.103   1.627  -3.055  1.00  0.00    -0.003 C 
ATOM     32  C   UNL     1      -1.390   1.440  -3.306  1.00  0.00     0.004 C 
ENDBRANCH  30  31
ENDBRANCH  29  30
ENDBRANCH  28  29
ENDBRANCH  27  28
ENDBRANCH  26  27
ENDBRANCH  25  26
ENDBRANCH  24  25
ENDBRANCH  23  24
ENDBRANCH  22  23
ENDBRANCH  21  22
ENDBRANCH  20  21
ENDBRANCH  19  20
ENDBRANCH  18  19
ENDBRANCH   1  18
TORSDOF 28
ENDMDL
MODEL 7
REMARK VINA RESULT:    -4.434      2.185     10.067
REMARK INTER + INTRA:         -14.198
REMARK INTER:                 -12.662
REMARK INTRA:                  -1.537
REMARK UNBOUND:                -2.505
REMARK SMILES CCCCCCCCCCCCCCCCCCCCCCCCCCCCCC(=O)[O-]
REMARK SMILES IDX 16 1 17 2 18 3 19 4 20 5 21 6 22 7 23 8 24 9 25 10 26 11
REMARK SMILES IDX 27 12 28 13 29 14 30 15 31 16 32 17 15 18 14 19 13 20 12 21
REMARK SMILES IDX 11 22 10 23 9 24 8 25 7 26 6 27 5 28 4 29 3 30 2 31 1 32
REMARK H PARENT
REMARK Flexibility Score: inf
ROOT
ATOM      1  C   UNL     1      -0.253  -6.194  -0.946  1.00  0.00     0.000 C 
ENDROOT
BRANCH   1   2
ATOM      2  C   UNL     1      -0.962  -7.488  -1.401  1.00  0.00     0.000 C 
BRANCH   2   3
ATOM      3  C   UNL     1      -2.212  -7.792  -0.556  1.00  0.00     0.000 C 
BRANCH   3   4
ATOM      4  C   UNL     1      -1.906  -8.710   0.646  1.00  0.00     0.000 C 
BRANCH   4   5
ATOM      5  C   UNL     1      -1.158 -10.005   0.272  1.00  0.00     0.000 C 
BRANCH   5   6
ATOM      6  C   UNL     1       0.265 -10.125   0.844  1.00  0.00     0.000 C 
BRANCH   6   7
ATOM      7  C   UNL     1       1.368  -9.469  -0.008  1.00  0.00     0.000 C 
BRANCH   7   8
ATOM      8  C   UNL     1       1.302  -9.838  -1.507  1.00  0.00     0.000 C 
BRANCH   8   9
ATOM      9  C   UNL     1       2.201  -8.979  -2.421  1.00  0.00     0.000 C 
BRANCH   9  10
ATOM     10  C   UNL     1       2.967  -9.749  -3.518  1.00  0.00     0.000 C 
BRANCH  10  11
ATOM     11  C   UNL     1       4.220  -9.040  -4.062  1.00  0.00     0.000 C 
BRANCH  11  12
ATOM     12  C   UNL     1       3.946  -8.268  -5.364  1.00  0.00     0.000 C 
BRANCH  12  13
ATOM     13  C   UNL     1       2.649  -7.442  -5.305  1.00  0.00     0.006 C 
BRANCH  13  14
ATOM     14  C   UNL     1       2.555  -6.342  -6.374  1.00  0.00     0.053 C 
BRANCH  14  15
ATOM     15  C   UNL     1       2.084  -5.040  -5.801  1.00  0.00     0.041 C 
ATOM     16  O   UNL     1       0.879  -4.893  -5.465  1.00  0.00    -0.550 OA
ATOM     17  O   UNL     1       2.982  -3.996  -5.613  1.00  0.00    -0.550 OA
ENDBRANCH  14  15
ENDBRANCH  13  14
ENDBRANCH  12  13
ENDBRANCH  11  12
ENDBRANCH  10  11
ENDBRANCH   9  10
ENDBRANCH   8   9
ENDBRANCH   7   8
ENDBRANCH   6   7
ENDBRANCH   5   6
ENDBRANCH   4   5
ENDBRANCH   3   4
ENDBRANCH   2   3
ENDBRANCH   1   2
BRANCH   1  18
ATOM     18  C   UNL     1       0.395  -5.413  -2.102  1.00  0.00     0.000 C 
BRANCH  18  19
ATOM     19  C   UNL     1       0.365  -3.892  -1.879  1.00  0.00     0.000 C 
BRANCH  19  20
ATOM     20  C   UNL     1       0.995  -3.480  -0.539  1.00  0.00     0.000 C 
BRANCH  20  21
ATOM     21  C   UNL     1       0.241  -2.328   0.147  1.00  0.00     0.000 C 
BRANCH  21  22
ATOM     22  C   UNL     1       1.170  -1.415   0.962  1.00  0.00     0.000 C 
BRANCH  22  23
ATOM     23  C   UNL     1       0.507  -0.082   1.339  1.00  0.00     0.000 C 
BRANCH  23  24
ATOM     24  C   UNL     1      -0.043   0.633   0.095  1.00  0.00    -0.000 C 
BRANCH  24  25
ATOM     25  C   UNL     1      -1.421   1.271   0.332  1.00  0.00    -0.000 C 
BRANCH  25  26
ATOM     26  C   UNL     1      -1.899   2.113  -0.864  1.00  0.00    -0.000 C 
BRANCH  26  27
ATOM     27  C   UNL     1      -1.900   3.623  -0.566  1.00  0.00    -0.000 C 
BRANCH  27  28
ATOM     28  C   UNL     1      -1.006   4.470  -1.493  1.00  0.00    -0.000 C 
BRANCH  28  29
ATOM     29  C   UNL     1       0.210   3.730  -2.083  1.00  0.00    -0.000 C 
BRANCH  29  30
ATOM     30  C   UNL     1      -0.155   2.717  -3.189  1.00  0.00    -0.000 C 
BRANCH  30  31
ATOM     31  C   UNL     1       1.076   2.238  -3.974  1.00  0.00    -0.003 C 
ATOM     32  C   UNL     1       1.105   2.844  -5.374  1.00  0.00     0.004 C 
ENDBRANCH  30  31
ENDBRANCH  29  30
ENDBRANCH  28  29
ENDBRANCH  27  28
ENDBRANCH  26  27
ENDBRANCH  25  26
ENDBRANCH  24  25
ENDBRANCH  23  24
ENDBRANCH  22  23
ENDBRANCH  21  22
ENDBRANCH  20  21
ENDBRANCH  19  20
ENDBRANCH  18  19
ENDBRANCH   1  18
TORSDOF 28
ENDMDL
MODEL 8
REMARK VINA RESULT:    -4.287      2.268      9.492
REMARK INTER + INTRA:         -13.810
REMARK INTER:                 -10.904
REMARK INTRA:                  -2.906
REMARK UNBOUND:                -2.505
REMARK SMILES CCCCCCCCCCCCCCCCCCCCCCCCCCCCCC(=O)[O-]
REMARK SMILES IDX 16 1 17 2 18 3 19 4 20 5 21 6 22 7 23 8 24 9 25 10 26 11
REMARK SMILES IDX 27 12 28 13 29 14 30 15 31 16 32 17 15 18 14 19 13 20 12 21
REMARK SMILES IDX 11 22 10 23 9 24 8 25 7 26 6 27 5 28 4 29 3 30 2 31 1 32
REMARK H PARENT
REMARK Flexibility Score: inf
ROOT
ATOM      1  C   UNL     1      -0.715 -10.108  -0.850  1.00  0.00     0.000 C 
ENDROOT
BRANCH   1   2
ATOM      2  C   UNL     1       0.662 -10.112  -0.152  1.00  0.00     0.000 C 
BRANCH   2   3
ATOM      3  C   UNL     1       1.819  -9.924  -1.151  1.00  0.00     0.000 C 
BRANCH   3   4
ATOM      4  C   UNL     1       1.357 -10.028  -2.619  1.00  0.00     0.000 C 
BRANCH   4   5
ATOM      5  C   UNL     1       2.465  -9.730  -3.648  1.00  0.00     0.000 C 
BRANCH   5   6
ATOM      6  C   UNL     1       3.696  -8.997  -3.087  1.00  0.00     0.000 C 
BRANCH   6   7
ATOM      7  C   UNL     1       4.815  -8.726  -4.111  1.00  0.00     0.000 C 
BRANCH   7   8
ATOM      8  C   UNL     1       4.992  -9.851  -5.157  1.00  0.00     0.000 C 
BRANCH   8   9
ATOM      9  C   UNL     1       5.182  -9.358  -6.605  1.00  0.00     0.000 C 
BRANCH   9  10
ATOM     10  C   UNL     1       3.883  -9.124  -7.408  1.00  0.00     0.000 C 
BRANCH  10  11
ATOM     11  C   UNL     1       3.351  -7.681  -7.387  1.00  0.00     0.000 C 
BRANCH  11  12
ATOM     12  C   UNL     1       2.274  -7.461  -6.311  1.00  0.00     0.000 C 
BRANCH  12  13
ATOM     13  C   UNL     1       2.433  -6.117  -5.577  1.00  0.00     0.006 C 
BRANCH  13  14
ATOM     14  C   UNL     1       1.865  -4.911  -6.342  1.00  0.00     0.053 C 
BRANCH  14  15
ATOM     15  C   UNL     1       0.474  -4.570  -5.900  1.00  0.00     0.041 C 
ATOM     16  O   UNL     1      -0.429  -4.364  -6.752  1.00  0.00    -0.550 OA
ATOM     17  O   UNL     1       0.170  -4.503  -4.546  1.00  0.00    -0.550 OA
ENDBRANCH  14  15
ENDBRANCH  13  14
ENDBRANCH  12  13
ENDBRANCH  11  12
ENDBRANCH  10  11
ENDBRANCH   9  10
ENDBRANCH   8   9
ENDBRANCH   7   8
ENDBRANCH   6   7
ENDBRANCH   5   6
ENDBRANCH   4   5
ENDBRANCH   3   4
ENDBRANCH   2   3
ENDBRANCH   1   2
BRANCH   1  18
ATOM     18  C   UNL     1      -1.814  -9.412  -0.029  1.00  0.00     0.000 C 
BRANCH  18  19
ATOM     19  C   UNL     1      -1.830  -7.888  -0.233  1.00  0.00     0.000 C 
BRANCH  19  20
ATOM     20  C   UNL     1      -1.258  -7.470  -1.597  1.00  0.00     0.000 C 
BRANCH  20  21
ATOM     21  C   UNL     1       0.069  -6.700  -1.477  1.00  0.00     0.000 C 
BRANCH  21  22
ATOM     22  C   UNL     1      -0.068  -5.412  -0.650  1.00  0.00     0.000 C 
BRANCH  22  23
ATOM     23  C   UNL     1       0.545  -4.191  -1.352  1.00  0.00     0.000 C 
BRANCH  23  24
ATOM     24  C   UNL     1       1.391  -3.359  -0.376  1.00  0.00    -0.000 C 
BRANCH  24  25
ATOM     25  C   UNL     1       0.538  -2.561   0.623  1.00  0.00    -0.000 C 
BRANCH  25  26
ATOM     26  C   UNL     1       0.174  -1.159   0.106  1.00  0.00    -0.000 C 
BRANCH  26  27
ATOM     27  C   UNL     1       0.680  -0.034   1.028  1.00  0.00    -0.000 C 
BRANCH  27  28
ATOM     28  C   UNL     1       0.052   1.349   0.772  1.00  0.00    -0.000 C 
BRANCH  28  29
ATOM     29  C   UNL     1      -1.133   1.357  -0.213  1.00  0.00    -0.000 C 
BRANCH  29  30
ATOM     30  C   UNL     1      -0.859   2.146  -1.511  1.00  0.00    -0.000 C 
BRANCH  30  31
ATOM     31  C   UNL     1       0.462   2.926  -1.455  1.00  0.00    -0.003 C 
ATOM     32  C   UNL     1       0.376   4.214  -2.267  1.00  0.00     0.004 C 
ENDBRANCH  30  31
ENDBRANCH  29  30
ENDBRANCH  28  29
ENDBRANCH  27  28
ENDBRANCH  26  27
ENDBRANCH  25  26
ENDBRANCH  24  25
ENDBRANCH  23  24
ENDBRANCH  22  23
ENDBRANCH  21  22
ENDBRANCH  20  21
ENDBRANCH  19  20
ENDBRANCH  18  19
ENDBRANCH   1  18
TORSDOF 28
ENDMDL
MODEL 9
REMARK VINA RESULT:    -4.276      1.111      2.136
REMARK INTER + INTRA:         -13.782
REMARK INTER:                 -11.579
REMARK INTRA:                  -2.203
REMARK UNBOUND:                -2.505
REMARK SMILES CCCCCCCCCCCCCCCCCCCCCCCCCCCCCC(=O)[O-]
REMARK SMILES IDX 16 1 17 2 18 3 19 4 20 5 21 6 22 7 23 8 24 9 25 10 26 11
REMARK SMILES IDX 27 12 28 13 29 14 30 15 31 16 32 17 15 18 14 19 13 20 12 21
REMARK SMILES IDX 11 22 10 23 9 24 8 25 7 26 6 27 5 28 4 29 3 30 2 31 1 32
REMARK H PARENT
REMARK Flexibility Score: inf
ROOT
ATOM      1  C   UNL     1      -0.571  -7.473  -1.520  1.00  0.00     0.000 C 
ENDROOT
BRANCH   1   2
ATOM      2  C   UNL     1      -0.254  -6.237  -0.650  1.00  0.00     0.000 C 
BRANCH   2   3
ATOM      3  C   UNL     1       0.750  -5.290  -1.331  1.00  0.00     0.000 C 
BRANCH   3   4
ATOM      4  C   UNL     1       0.335  -3.808  -1.221  1.00  0.00     0.000 C 
BRANCH   4   5
ATOM      5  C   UNL     1       1.159  -3.000  -0.200  1.00  0.00     0.000 C 
BRANCH   5   6
ATOM      6  C   UNL     1       0.338  -2.087   0.727  1.00  0.00     0.000 C 
BRANCH   6   7
ATOM      7  C   UNL     1       1.135  -0.953   1.398  1.00  0.00     0.000 C 
BRANCH   7   8
ATOM      8  C   UNL     1       0.337   0.361   1.560  1.00  0.00     0.000 C 
BRANCH   8   9
ATOM      9  C   UNL     1       0.203   1.195   0.269  1.00  0.00     0.000 C 
BRANCH   9  10
ATOM     10  C   UNL     1      -0.963   0.800  -0.663  1.00  0.00     0.000 C 
BRANCH  10  11
ATOM     11  C   UNL     1      -2.014   1.899  -0.899  1.00  0.00     0.000 C 
BRANCH  11  12
ATOM     12  C   UNL     1      -1.560   3.275  -0.384  1.00  0.00     0.000 C 
BRANCH  12  13
ATOM     13  C   UNL     1      -1.099   4.211  -1.516  1.00  0.00     0.006 C 
BRANCH  13  14
ATOM     14  C   UNL     1       0.355   3.990  -1.962  1.00  0.00     0.053 C 
BRANCH  14  15
ATOM     15  C   UNL     1       0.437   3.359  -3.318  1.00  0.00     0.041 C 
ATOM     16  O   UNL     1       1.483   3.476  -4.010  1.00  0.00    -0.550 OA
ATOM     17  O   UNL     1      -0.632   2.619  -3.808  1.00  0.00    -0.550 OA
ENDBRANCH  14  15
ENDBRANCH  13  14
ENDBRANCH  12  13
ENDBRANCH  11  12
ENDBRANCH  10  11
ENDBRANCH   9  10
ENDBRANCH   8   9
ENDBRANCH   7   8
ENDBRANCH   6   7
ENDBRANCH   5   6
ENDBRANCH   4   5
ENDBRANCH   3   4
ENDBRANCH   2   3
ENDBRANCH   1   2
BRANCH   1  18
ATOM     18  C   UNL     1      -0.514  -8.799  -0.742  1.00  0.00     0.000 C 
BRANCH  18  19
ATOM     19  C   UNL     1       0.894  -9.417  -0.727  1.00  0.00     0.000 C 
BRANCH  19  20
ATOM     20  C   UNL     1       1.776  -8.903  -1.876  1.00  0.00     0.000 C 
BRANCH  20  21
ATOM     21  C   UNL     1       1.662  -9.763  -3.147  1.00  0.00     0.000 C 
BRANCH  21  22
ATOM     22  C   UNL     1       3.033 -10.125  -3.739  1.00  0.00     0.000 C 
BRANCH  22  23
ATOM     23  C   UNL     1       4.095  -9.047  -3.475  1.00  0.00     0.000 C 
BRANCH  23  24
ATOM     24  C   UNL     1       4.901  -8.742  -4.747  1.00  0.00    -0.000 C 
BRANCH  24  25
ATOM     25  C   UNL     1       4.444  -9.571  -5.958  1.00  0.00    -0.000 C 
BRANCH  25  26
ATOM     26  C   UNL     1       4.041  -8.697  -7.158  1.00  0.00    -0.000 C 
BRANCH  26  27
ATOM     27  C   UNL     1       2.674  -8.014  -6.965  1.00  0.00    -0.000 C 
BRANCH  27  28
ATOM     28  C   UNL     1       2.661  -6.864  -5.940  1.00  0.00    -0.000 C 
BRANCH  28  29
ATOM     29  C   UNL     1       1.989  -5.564  -6.424  1.00  0.00    -0.000 C 
BRANCH  29  30
ATOM     30  C   UNL     1       1.788  -4.515  -5.310  1.00  0.00    -0.000 C 
BRANCH  30  31
ATOM     31  C   UNL     1       0.357  -4.516  -4.755  1.00  0.00    -0.003 C 
ATOM     32  C   UNL     1      -0.643  -4.055  -5.811  1.00  0.00     0.004 C 
ENDBRANCH  30  31
ENDBRANCH  29  30
ENDBRANCH  28  29
ENDBRANCH  27  28
ENDBRANCH  26  27
ENDBRANCH  25  26
ENDBRANCH  24  25
ENDBRANCH  23  24
ENDBRANCH  22  23
ENDBRANCH  21  22
ENDBRANCH  20  21
ENDBRANCH  19  20
ENDBRANCH  18  19
ENDBRANCH   1  18
TORSDOF 28
ENDMDL
