MODEL 1
REMARK VINA RESULT:    -2.995      0.000      0.000
REMARK INTER + INTRA:          -3.258
REMARK INTER:                  -3.258
REMARK INTRA:                   0.000
REMARK UNBOUND:                 0.000
REMARK SMILES Cc1cc(O)c2c(c1)C(=O)c1cc(O)cc(O)c1C2=O
REMARK SMILES IDX 1 1 2 2 8 3 7 4 6 5 4 6 3 7 19 8 20 9 18 10 11 11 9 12 10 13
REMARK SMILES IDX 12 14 13 15 15 16 16 17 5 18 17 20 14 22
REMARK H PARENT 5 19 17 21 14 23
REMARK Flexibility Score: inf
ROOT
ATOM      1  C   UNL     1     -10.967 -20.601  14.540  1.00  0.00     0.044 C 
ATOM      2  C   UNL     1     -10.776 -20.229  15.981  1.00  0.00    -0.047 A 
ATOM      3  C   UNL     1     -10.447 -21.209  16.923  1.00  0.00     0.016 A 
ATOM      4  C   UNL     1     -10.312 -20.882  18.283  1.00  0.00     0.038 A 
ATOM      5  C   UNL     1     -10.537 -19.553  18.714  1.00  0.00     0.076 A 
ATOM      6  C   UNL     1     -10.811 -18.552  17.743  1.00  0.00     0.127 A 
ATOM      7  C   UNL     1     -10.965 -18.909  16.400  1.00  0.00     0.050 A 
ATOM      8  C   UNL     1     -10.539 -19.274  20.177  1.00  0.00     0.201 C 
ATOM      9  O   UNL     1     -11.124 -18.253  20.627  1.00  0.00    -0.288 OA
ATOM     10  C   UNL     1      -9.953 -20.258  21.126  1.00  0.00     0.076 A 
ATOM     11  C   UNL     1      -9.672 -21.564  20.673  1.00  0.00     0.041 A 
ATOM     12  C   UNL     1      -9.927 -21.926  19.261  1.00  0.00     0.194 C 
ATOM     13  O   UNL     1      -9.797 -23.124  18.886  1.00  0.00    -0.289 OA
ATOM     14  C   UNL     1      -9.154 -22.518  21.569  1.00  0.00     0.059 A 
ATOM     15  C   UNL     1      -8.908 -22.178  22.902  1.00  0.00     0.120 A 
ATOM     16  C   UNL     1      -9.177 -20.885  23.350  1.00  0.00     0.093 A 
ATOM     17  C   UNL     1      -9.695 -19.921  22.475  1.00  0.00     0.131 A 
ENDROOT
BRANCH   6  18
ATOM     18  O   UNL     1     -10.903 -17.193  18.054  1.00  0.00    -0.507 OA
ATOM     19  H   UNL     1     -11.624 -16.800  18.642  1.00  0.00     0.293 HD
ENDBRANCH   6  18
BRANCH  17  20
ATOM     20  O   UNL     1      -9.942 -18.633  22.948  1.00  0.00    -0.507 OA
ATOM     21  H   UNL     1      -9.201 -18.049  23.319  1.00  0.00     0.293 HD
ENDBRANCH  17  20
BRANCH  15  22
ATOM     22  O   UNL     1      -8.393 -23.119  23.791  1.00  0.00    -0.508 OA
ATOM     23  H   UNL     1      -8.936 -23.923  24.085  1.00  0.00     0.293 HD
ENDBRANCH  15  22
TORSDOF 3
ENDMDL
MODEL 2
REMARK VINA RESULT:    -2.184      3.615      6.314
REMARK INTER + INTRA:          -2.375
REMARK INTER:                  -2.375
REMARK INTRA:                   0.000
REMARK UNBOUND:                 0.000
REMARK SMILES Cc1cc(O)c2c(c1)C(=O)c1cc(O)cc(O)c1C2=O
REMARK SMILES IDX 1 1 2 2 8 3 7 4 6 5 4 6 3 7 19 8 20 9 18 10 11 11 9 12 10 13
REMARK SMILES IDX 12 14 13 15 15 16 16 17 5 18 17 20 14 22
REMARK H PARENT 5 19 17 21 14 23
REMARK Flexibility Score: inf
ROOT
ATOM      1  C   UNL     1      -9.255 -23.117  23.861  1.00  0.00     0.044 C 
ATOM      2  C   UNL     1      -9.051 -22.891  22.391  1.00  0.00    -0.047 A 
ATOM      3  C   UNL     1      -7.770 -22.979  21.837  1.00  0.00     0.016 A 
ATOM      4  C   UNL     1      -7.558 -22.723  20.471  1.00  0.00     0.038 A 
ATOM      5  C   UNL     1      -8.645 -22.344  19.649  1.00  0.00     0.076 A 
ATOM      6  C   UNL     1      -9.952 -22.316  20.207  1.00  0.00     0.127 A 
ATOM      7  C   UNL     1     -10.131 -22.550  21.573  1.00  0.00     0.050 A 
ATOM      8  C   UNL     1      -8.361 -21.929  18.247  1.00  0.00     0.201 C 
ATOM      9  O   UNL     1      -9.184 -21.209  17.619  1.00  0.00    -0.288 OA
ATOM     10  C   UNL     1      -7.055 -22.262  17.619  1.00  0.00     0.076 A 
ATOM     11  C   UNL     1      -5.993 -22.700  18.438  1.00  0.00     0.041 A 
ATOM     12  C   UNL     1      -6.200 -22.857  19.894  1.00  0.00     0.194 C 
ATOM     13  O   UNL     1      -5.220 -23.125  20.644  1.00  0.00    -0.289 OA
ATOM     14  C   UNL     1      -4.739 -22.982  17.864  1.00  0.00     0.059 A 
ATOM     15  C   UNL     1      -4.541 -22.839  16.487  1.00  0.00     0.120 A 
ATOM     16  C   UNL     1      -5.592 -22.414  15.675  1.00  0.00     0.093 A 
ATOM     17  C   UNL     1      -6.847 -22.126  16.227  1.00  0.00     0.131 A 
ENDROOT
BRANCH   6  18
ATOM     18  O   UNL     1     -11.102 -22.097  19.443  1.00  0.00    -0.507 OA
ATOM     19  H   UNL     1     -11.277 -22.540  18.552  1.00  0.00     0.293 HD
ENDBRANCH   6  18
BRANCH  17  20
ATOM     20  O   UNL     1      -7.884 -21.716  15.388  1.00  0.00    -0.507 OA
ATOM     21  H   UNL     1      -8.752 -22.235  15.321  1.00  0.00     0.293 HD
ENDBRANCH  17  20
BRANCH  15  22
ATOM     22  O   UNL     1      -3.302 -23.119  15.916  1.00  0.00    -0.508 OA
ATOM     23  H   UNL     1      -2.854 -22.472  15.277  1.00  0.00     0.293 HD
ENDBRANCH  15  22
TORSDOF 3
ENDMDL
MODEL 3
REMARK VINA RESULT:    -2.076      1.602      6.108
REMARK INTER + INTRA:          -2.258
REMARK INTER:                  -2.258
REMARK INTRA:                   0.000
REMARK UNBOUND:                 0.000
REMARK SMILES Cc1cc(O)c2c(c1)C(=O)c1cc(O)cc(O)c1C2=O
REMARK SMILES IDX 1 1 2 2 8 3 7 4 6 5 4 6 3 7 19 8 20 9 18 10 11 11 9 12 10 13
REMARK SMILES IDX 12 14 13 15 15 16 16 17 5 18 17 20 14 22
REMARK H PARENT 5 19 17 21 14 23
REMARK Flexibility Score: inf
ROOT
ATOM      1  C   UNL     1      -9.798 -17.118  23.979  1.00  0.00     0.044 C 
ATOM      2  C   UNL     1      -9.790 -18.169  22.909  1.00  0.00    -0.047 A 
ATOM      3  C   UNL     1     -10.234 -17.863  21.618  1.00  0.00     0.016 A 
ATOM      4  C   UNL     1     -10.277 -18.850  20.619  1.00  0.00     0.038 A 
ATOM      5  C   UNL     1      -9.893 -20.178  20.923  1.00  0.00     0.076 A 
ATOM      6  C   UNL     1      -9.386 -20.466  22.220  1.00  0.00     0.127 A 
ATOM      7  C   UNL     1      -9.379 -19.472  23.202  1.00  0.00     0.050 A 
ATOM      8  C   UNL     1     -10.099 -21.229  19.888  1.00  0.00     0.201 C 
ATOM      9  O   UNL     1     -10.174 -22.442  20.222  1.00  0.00    -0.288 OA
ATOM     10  C   UNL     1     -10.333 -20.846  18.471  1.00  0.00     0.076 A 
ATOM     11  C   UNL     1     -10.653 -19.506  18.166  1.00  0.00     0.041 A 
ATOM     12  C   UNL     1     -10.715 -18.498  19.248  1.00  0.00     0.194 C 
ATOM     13  O   UNL     1     -11.125 -17.331  18.997  1.00  0.00    -0.289 OA
ATOM     14  C   UNL     1     -10.915 -19.136  16.834  1.00  0.00     0.059 A 
ATOM     15  C   UNL     1     -10.853 -20.084  15.809  1.00  0.00     0.120 A 
ATOM     16  C   UNL     1     -10.529 -21.407  16.107  1.00  0.00     0.093 A 
ATOM     17  C   UNL     1     -10.266 -21.797  17.426  1.00  0.00     0.131 A 
ENDROOT
BRANCH   6  18
ATOM     18  O   UNL     1      -8.849 -21.709  22.568  1.00  0.00    -0.507 OA
ATOM     19  H   UNL     1      -9.195 -22.276  23.328  1.00  0.00     0.293 HD
ENDBRANCH   6  18
BRANCH  17  20
ATOM     20  O   UNL     1      -9.931 -23.125  17.693  1.00  0.00    -0.507 OA
ATOM     21  H   UNL     1      -8.990 -23.476  17.553  1.00  0.00     0.293 HD
ENDBRANCH  17  20
BRANCH  15  22
ATOM     22  O   UNL     1     -11.111 -19.721  14.490  1.00  0.00    -0.508 OA
ATOM     23  H   UNL     1     -11.906 -20.094  13.982  1.00  0.00     0.293 HD
ENDBRANCH  15  22
TORSDOF 3
ENDMDL
MODEL 4
REMARK VINA RESULT:    -1.804      3.434      4.525
REMARK INTER + INTRA:          -1.963
REMARK INTER:                  -1.963
REMARK INTRA:                   0.000
REMARK UNBOUND:                 0.000
REMARK SMILES Cc1cc(O)c2c(c1)C(=O)c1cc(O)cc(O)c1C2=O
REMARK SMILES IDX 1 1 2 2 8 3 7 4 6 5 4 6 3 7 19 8 20 9 18 10 11 11 9 12 10 13
REMARK SMILES IDX 12 14 13 15 15 16 16 17 5 18 17 20 14 22
REMARK H PARENT 5 19 17 21 14 23
REMARK Flexibility Score: inf
ROOT
ATOM      1  C   UNL     1      -3.564 -22.061  15.615  1.00  0.00     0.044 C 
ATOM      2  C   UNL     1      -4.881 -22.108  16.332  1.00  0.00    -0.047 A 
ATOM      3  C   UNL     1      -4.932 -22.444  17.689  1.00  0.00     0.016 A 
ATOM      4  C   UNL     1      -6.163 -22.538  18.361  1.00  0.00     0.038 A 
ATOM      5  C   UNL     1      -7.370 -22.321  17.654  1.00  0.00     0.076 A 
ATOM      6  C   UNL     1      -7.306 -21.922  16.292  1.00  0.00     0.127 A 
ATOM      7  C   UNL     1      -6.070 -21.860  15.641  1.00  0.00     0.050 A 
ATOM      8  C   UNL     1      -8.657 -22.582  18.356  1.00  0.00     0.201 C 
ATOM      9  O   UNL     1      -9.705 -22.809  17.694  1.00  0.00    -0.288 OA
ATOM     10  C   UNL     1      -8.692 -22.693  19.838  1.00  0.00     0.076 A 
ATOM     11  C   UNL     1      -7.478 -22.847  20.543  1.00  0.00     0.041 A 
ATOM     12  C   UNL     1      -6.195 -22.858  19.807  1.00  0.00     0.194 C 
ATOM     13  O   UNL     1      -5.122 -23.122  20.418  1.00  0.00    -0.289 OA
ATOM     14  C   UNL     1      -7.497 -22.992  21.942  1.00  0.00     0.059 A 
ATOM     15  C   UNL     1      -8.708 -22.977  22.641  1.00  0.00     0.120 A 
ATOM     16  C   UNL     1      -9.907 -22.817  21.947  1.00  0.00     0.093 A 
ATOM     17  C   UNL     1      -9.911 -22.673  20.554  1.00  0.00     0.131 A 
ENDROOT
BRANCH   6  18
ATOM     18  O   UNL     1      -8.432 -21.545  15.555  1.00  0.00    -0.507 OA
ATOM     19  H   UNL     1      -8.494 -20.688  15.024  1.00  0.00     0.293 HD
ENDBRANCH   6  18
BRANCH  17  20
ATOM     20  O   UNL     1     -11.125 -22.501  19.888  1.00  0.00    -0.507 OA
ATOM     21  H   UNL     1     -11.980 -22.283  20.386  1.00  0.00     0.293 HD
ENDBRANCH  17  20
BRANCH  15  22
ATOM     22  O   UNL     1      -8.730 -23.120  24.026  1.00  0.00    -0.508 OA
ATOM     23  H   UNL     1      -7.887 -23.027  24.582  1.00  0.00     0.293 HD
ENDBRANCH  15  22
TORSDOF 3
ENDMDL
MODEL 5
REMARK VINA RESULT:    -1.289      1.205      3.378
REMARK INTER + INTRA:          -1.402
REMARK INTER:                  -1.402
REMARK INTRA:                   0.000
REMARK UNBOUND:                 0.000
REMARK SMILES Cc1cc(O)c2c(c1)C(=O)c1cc(O)cc(O)c1C2=O
REMARK SMILES IDX 1 1 2 2 8 3 7 4 6 5 4 6 3 7 19 8 20 9 18 10 11 11 9 12 10 13
REMARK SMILES IDX 12 14 13 15 15 16 16 17 5 18 17 20 14 22
REMARK H PARENT 5 19 17 21 14 23
REMARK Flexibility Score: inf
ROOT
ATOM      1  C   UNL     1     -10.963 -19.439  14.336  1.00  0.00     0.044 C 
ATOM      2  C   UNL     1     -10.720 -19.953  15.724  1.00  0.00    -0.047 A 
ATOM      3  C   UNL     1     -10.864 -19.102  16.825  1.00  0.00     0.016 A 
ATOM      4  C   UNL     1     -10.593 -19.558  18.127  1.00  0.00     0.038 A 
ATOM      5  C   UNL     1     -10.142 -20.884  18.329  1.00  0.00     0.076 A 
ATOM      6  C   UNL     1     -10.056 -21.759  17.212  1.00  0.00     0.127 A 
ATOM      7  C   UNL     1     -10.307 -21.273  15.926  1.00  0.00     0.050 A 
ATOM      8  C   UNL     1      -9.715 -21.285  19.699  1.00  0.00     0.201 C 
ATOM      9  O   UNL     1      -8.941 -22.267  19.860  1.00  0.00    -0.288 OA
ATOM     10  C   UNL     1     -10.104 -20.461  20.874  1.00  0.00     0.076 A 
ATOM     11  C   UNL     1     -10.613 -19.162  20.662  1.00  0.00     0.041 A 
ATOM     12  C   UNL     1     -10.787 -18.653  19.284  1.00  0.00     0.194 C 
ATOM     13  O   UNL     1     -11.120 -17.451  19.095  1.00  0.00    -0.289 OA
ATOM     14  C   UNL     1     -10.949 -18.356  21.765  1.00  0.00     0.059 A 
ATOM     15  C   UNL     1     -10.790 -18.835  23.069  1.00  0.00     0.120 A 
ATOM     16  C   UNL     1     -10.295 -20.122  23.280  1.00  0.00     0.093 A 
ATOM     17  C   UNL     1      -9.953 -20.940  22.196  1.00  0.00     0.131 A 
ENDROOT
BRANCH   6  18
ATOM     18  O   UNL     1      -9.762 -23.120  17.332  1.00  0.00    -0.507 OA
ATOM     19  H   UNL     1     -10.426 -23.811  17.651  1.00  0.00     0.293 HD
ENDBRANCH   6  18
BRANCH  17  20
ATOM     20  O   UNL     1      -9.472 -22.227  22.437  1.00  0.00    -0.507 OA
ATOM     21  H   UNL     1      -9.489 -22.638  23.363  1.00  0.00     0.293 HD
ENDBRANCH  17  20
BRANCH  15  22
ATOM     22  O   UNL     1     -11.123 -18.040  24.163  1.00  0.00    -0.508 OA
ATOM     23  H   UNL     1     -11.024 -18.377  25.114  1.00  0.00     0.293 HD
ENDBRANCH  15  22
TORSDOF 3
ENDMDL
MODEL 6
REMARK VINA RESULT:    -1.118     17.703     19.098
REMARK INTER + INTRA:          -1.216
REMARK INTER:                  -1.216
REMARK INTRA:                   0.000
REMARK UNBOUND:                 0.000
REMARK SMILES Cc1cc(O)c2c(c1)C(=O)c1cc(O)cc(O)c1C2=O
REMARK SMILES IDX 1 1 2 2 8 3 7 4 6 5 4 6 3 7 19 8 20 9 18 10 11 11 9 12 10 13
REMARK SMILES IDX 12 14 13 15 15 16 16 17 5 18 17 20 14 22
REMARK H PARENT 5 19 17 21 14 23
REMARK Flexibility Score: inf
ROOT
ATOM      1  C   UNL     1       5.010 -21.958  17.610  1.00  0.00     0.044 C 
ATOM      2  C   UNL     1       5.737 -21.991  16.298  1.00  0.00    -0.047 A 
ATOM      3  C   UNL     1       5.064 -22.364  15.130  1.00  0.00     0.016 A 
ATOM      4  C   UNL     1       5.744 -22.444  13.903  1.00  0.00     0.038 A 
ATOM      5  C   UNL     1       7.132 -22.174  13.848  1.00  0.00     0.076 A 
ATOM      6  C   UNL     1       7.795 -21.738  15.027  1.00  0.00     0.127 A 
ATOM      7  C   UNL     1       7.100 -21.691  16.239  1.00  0.00     0.050 A 
ATOM      8  C   UNL     1       7.851 -22.421  12.567  1.00  0.00     0.201 C 
ATOM      9  O   UNL     1       9.098 -22.600  12.564  1.00  0.00    -0.288 OA
ATOM     10  C   UNL     1       7.089 -22.574  11.300  1.00  0.00     0.076 A 
ATOM     11  C   UNL     1       5.694 -22.780  11.359  1.00  0.00     0.041 A 
ATOM     12  C   UNL     1       5.007 -22.805  12.669  1.00  0.00     0.194 C 
ATOM     13  O   UNL     1       3.785 -23.115  12.733  1.00  0.00    -0.289 OA
ATOM     14  C   UNL     1       4.964 -22.965  10.170  1.00  0.00     0.059 A 
ATOM     15  C   UNL     1       5.609 -22.938   8.930  1.00  0.00     0.120 A 
ATOM     16  C   UNL     1       6.986 -22.726   8.869  1.00  0.00     0.093 A 
ATOM     17  C   UNL     1       7.731 -22.541  10.040  1.00  0.00     0.131 A 
ENDROOT
BRANCH   6  18
ATOM     18  O   UNL     1       9.125 -21.310  15.039  1.00  0.00    -0.507 OA
ATOM     19  H   UNL     1       9.562 -20.859  15.830  1.00  0.00     0.293 HD
ENDBRANCH   6  18
BRANCH  17  20
ATOM     20  O   UNL     1       9.105 -22.318   9.948  1.00  0.00    -0.507 OA
ATOM     21  H   UNL     1       9.547 -22.070   9.070  1.00  0.00     0.293 HD
ENDBRANCH  17  20
BRANCH  15  22
ATOM     22  O   UNL     1       4.889 -23.119   7.752  1.00  0.00    -0.508 OA
ATOM     23  H   UNL     1       4.461 -24.010   7.523  1.00  0.00     0.293 HD
ENDBRANCH  15  22
TORSDOF 3
ENDMDL
MODEL 7
REMARK VINA RESULT:    -0.994      2.237      3.645
REMARK INTER + INTRA:          -1.081
REMARK INTER:                  -1.081
REMARK INTRA:                   0.000
REMARK UNBOUND:                 0.000
REMARK SMILES Cc1cc(O)c2c(c1)C(=O)c1cc(O)cc(O)c1C2=O
REMARK SMILES IDX 1 1 2 2 8 3 7 4 6 5 4 6 3 7 19 8 20 9 18 10 11 11 9 12 10 13
REMARK SMILES IDX 12 14 13 15 15 16 16 17 5 18 17 20 14 22
REMARK H PARENT 5 19 17 21 14 23
REMARK Flexibility Score: inf
ROOT
ATOM      1  C   UNL     1      -9.753 -20.180  13.527  1.00  0.00     0.044 C 
ATOM      2  C   UNL     1      -9.248 -20.720  14.832  1.00  0.00    -0.047 A 
ATOM      3  C   UNL     1      -9.892 -20.386  16.029  1.00  0.00     0.016 A 
ATOM      4  C   UNL     1      -9.401 -20.846  17.262  1.00  0.00     0.038 A 
ATOM      5  C   UNL     1      -8.226 -21.634  17.304  1.00  0.00     0.076 A 
ATOM      6  C   UNL     1      -7.613 -22.019  16.080  1.00  0.00     0.127 A 
ATOM      7  C   UNL     1      -8.107 -21.526  14.869  1.00  0.00     0.050 A 
ATOM      8  C   UNL     1      -7.647 -21.972  18.633  1.00  0.00     0.201 C 
ATOM      9  O   UNL     1      -6.432 -22.292  18.733  1.00  0.00    -0.288 OA
ATOM     10  C   UNL     1      -8.466 -21.822  19.865  1.00  0.00     0.076 A 
ATOM     11  C   UNL     1      -9.669 -21.088  19.803  1.00  0.00     0.041 A 
ATOM     12  C   UNL     1     -10.117 -20.512  18.516  1.00  0.00     0.194 C 
ATOM     13  O   UNL     1     -11.123 -19.750  18.483  1.00  0.00    -0.289 OA
ATOM     14  C   UNL     1     -10.436 -20.904  20.969  1.00  0.00     0.059 A 
ATOM     15  C   UNL     1     -10.018 -21.450  22.186  1.00  0.00     0.120 A 
ATOM     16  C   UNL     1      -8.834 -22.183  22.248  1.00  0.00     0.093 A 
ATOM     17  C   UNL     1      -8.055 -22.376  21.100  1.00  0.00     0.131 A 
ENDROOT
BRANCH   6  18
ATOM     18  O   UNL     1      -6.540 -22.911  16.014  1.00  0.00    -0.507 OA
ATOM     19  H   UNL     1      -6.221 -23.465  16.796  1.00  0.00     0.293 HD
ENDBRANCH   6  18
BRANCH  17  20
ATOM     20  O   UNL     1      -6.881 -23.125  21.188  1.00  0.00    -0.507 OA
ATOM     21  H   UNL     1      -6.885 -24.088  21.506  1.00  0.00     0.293 HD
ENDBRANCH  17  20
BRANCH  15  22
ATOM     22  O   UNL     1     -10.776 -21.271  23.341  1.00  0.00    -0.508 OA
ATOM     23  H   UNL     1     -10.695 -20.432  23.904  1.00  0.00     0.293 HD
ENDBRANCH  15  22
TORSDOF 3
ENDMDL
MODEL 8
REMARK VINA RESULT:    -0.801     16.599     17.560
REMARK INTER + INTRA:          -0.871
REMARK INTER:                  -0.871
REMARK INTRA:                   0.000
REMARK UNBOUND:                 0.000
REMARK SMILES Cc1cc(O)c2c(c1)C(=O)c1cc(O)cc(O)c1C2=O
REMARK SMILES IDX 1 1 2 2 8 3 7 4 6 5 4 6 3 7 19 8 20 9 18 10 11 11 9 12 10 13
REMARK SMILES IDX 12 14 13 15 15 16 16 17 5 18 17 20 14 22
REMARK H PARENT 5 19 17 21 14 23
REMARK Flexibility Score: inf
ROOT
ATOM      1  C   UNL     1       0.528 -22.809  15.130  1.00  0.00     0.044 C 
ATOM      2  C   UNL     1       2.010 -22.586  15.040  1.00  0.00    -0.047 A 
ATOM      3  C   UNL     1       2.676 -22.765  13.824  1.00  0.00     0.016 A 
ATOM      4  C   UNL     1       4.070 -22.606  13.738  1.00  0.00     0.038 A 
ATOM      5  C   UNL     1       4.816 -22.288  14.897  1.00  0.00     0.076 A 
ATOM      6  C   UNL     1       4.124 -22.048  16.115  1.00  0.00     0.127 A 
ATOM      7  C   UNL     1       2.741 -22.238  16.179  1.00  0.00     0.050 A 
ATOM      8  C   UNL     1       6.302 -22.281  14.802  1.00  0.00     0.201 C 
ATOM      9  O   UNL     1       7.005 -22.418  15.840  1.00  0.00    -0.288 OA
ATOM     10  C   UNL     1       6.966 -22.229  13.473  1.00  0.00     0.076 A 
ATOM     11  C   UNL     1       6.202 -22.485  12.315  1.00  0.00     0.041 A 
ATOM     12  C   UNL     1       4.754 -22.764  12.433  1.00  0.00     0.194 C 
ATOM     13  O   UNL     1       4.096 -23.117  11.415  1.00  0.00    -0.289 OA
ATOM     14  C   UNL     1       6.824 -22.478  11.052  1.00  0.00     0.059 A 
ATOM     15  C   UNL     1       8.192 -22.211  10.937  1.00  0.00     0.120 A 
ATOM     16  C   UNL     1       8.947 -21.950  12.080  1.00  0.00     0.093 A 
ATOM     17  C   UNL     1       8.348 -21.953  13.346  1.00  0.00     0.131 A 
ENDROOT
BRANCH   6  18
ATOM     18  O   UNL     1       4.757 -21.588  17.273  1.00  0.00    -0.507 OA
ATOM     19  H   UNL     1       5.760 -21.515  17.373  1.00  0.00     0.293 HD
ENDBRANCH   6  18
BRANCH  17  20
ATOM     20  O   UNL     1       9.125 -21.675  14.470  1.00  0.00    -0.507 OA
ATOM     21  H   UNL     1       9.858 -20.975  14.452  1.00  0.00     0.293 HD
ENDBRANCH  17  20
BRANCH  15  22
ATOM     22  O   UNL     1       8.810 -22.202   9.688  1.00  0.00    -0.508 OA
ATOM     23  H   UNL     1       9.244 -21.365   9.317  1.00  0.00     0.293 HD
ENDBRANCH  15  22
TORSDOF 3
ENDMDL
MODEL 9
REMARK VINA RESULT:    -0.662     16.581     17.355
REMARK INTER + INTRA:          -0.720
REMARK INTER:                  -0.720
REMARK INTRA:                   0.000
REMARK UNBOUND:                 0.000
REMARK SMILES Cc1cc(O)c2c(c1)C(=O)c1cc(O)cc(O)c1C2=O
REMARK SMILES IDX 1 1 2 2 8 3 7 4 6 5 4 6 3 7 19 8 20 9 18 10 11 11 9 12 10 13
REMARK SMILES IDX 12 14 13 15 15 16 16 17 5 18 17 20 14 22
REMARK H PARENT 5 19 17 21 14 23
REMARK Flexibility Score: inf
ROOT
ATOM      1  C   UNL     1       8.779 -23.094   9.309  1.00  0.00     0.044 C 
ATOM      2  C   UNL     1       8.112 -22.940  10.645  1.00  0.00    -0.047 A 
ATOM      3  C   UNL     1       6.717 -22.966  10.743  1.00  0.00     0.016 A 
ATOM      4  C   UNL     1       6.080 -22.776  11.981  1.00  0.00     0.038 A 
ATOM      5  C   UNL     1       6.852 -22.528  13.141  1.00  0.00     0.076 A 
ATOM      6  C   UNL     1       8.270 -22.563  13.043  1.00  0.00     0.127 A 
ATOM      7  C   UNL     1       8.878 -22.729  11.795  1.00  0.00     0.050 A 
ATOM      8  C   UNL     1       6.143 -22.176  14.402  1.00  0.00     0.201 C 
ATOM      9  O   UNL     1       6.747 -21.557  15.318  1.00  0.00    -0.288 OA
ATOM     10  C   UNL     1       4.688 -22.448  14.542  1.00  0.00     0.076 A 
ATOM     11  C   UNL     1       3.934 -22.758  13.389  1.00  0.00     0.041 A 
ATOM     12  C   UNL     1       4.603 -22.843  12.072  1.00  0.00     0.194 C 
ATOM     13  O   UNL     1       3.913 -22.994  11.025  1.00  0.00    -0.289 OA
ATOM     14  C   UNL     1       2.549 -22.980  13.499  1.00  0.00     0.059 A 
ATOM     15  C   UNL     1       1.915 -22.904  14.743  1.00  0.00     0.120 A 
ATOM     16  C   UNL     1       2.659 -22.607  15.884  1.00  0.00     0.093 A 
ATOM     17  C   UNL     1       4.039 -22.380  15.796  1.00  0.00     0.131 A 
ENDROOT
BRANCH   6  18
ATOM     18  O   UNL     1       9.112 -22.475  14.154  1.00  0.00    -0.507 OA
ATOM     19  H   UNL     1       8.896 -21.936  14.981  1.00  0.00     0.293 HD
ENDBRANCH   6  18
BRANCH  17  20
ATOM     20  O   UNL     1       4.760 -22.098  16.956  1.00  0.00    -0.507 OA
ATOM     21  H   UNL     1       5.085 -22.832  17.575  1.00  0.00     0.293 HD
ENDBRANCH  17  20
BRANCH  15  22
ATOM     22  O   UNL     1       0.544 -23.125  14.855  1.00  0.00    -0.508 OA
ATOM     23  H   UNL     1       0.172 -24.036  15.099  1.00  0.00     0.293 HD
ENDBRANCH  15  22
TORSDOF 3
ENDMDL
