MODEL 1
REMARK VINA RESULT:    -4.947      0.000      0.000
REMARK INTER + INTRA:          -5.983
REMARK INTER:                  -5.670
REMARK INTRA:                  -0.313
REMARK UNBOUND:                -0.313
REMARK SMILES O=C1C[C@@H](c2ccc(O)cc2)Oc2cc(O)cc(O)c21
REMARK SMILES IDX 3 1 4 2 12 3 13 4 14 5 15 6 17 7 18 8 20 9 2 10 1 11 5 12
REMARK SMILES IDX 6 13 11 14 7 15 10 16 8 17 9 18 19 20 16 22
REMARK H PARENT 9 19 19 21 16 23
REMARK Flexibility Score: inf
ROOT
ATOM      1  C   UNL     1      -6.030 -16.562  -6.500  1.00  0.00     0.131 C 
ATOM      2  C   UNL     1      -5.679 -18.056  -6.557  1.00  0.00     0.211 C 
ATOM      3  O   UNL     1      -4.331 -18.274  -6.128  1.00  0.00    -0.484 OA
ATOM      4  C   UNL     1      -3.756 -17.572  -5.058  1.00  0.00     0.138 A 
ATOM      5  C   UNL     1      -2.549 -18.028  -4.523  1.00  0.00     0.093 A 
ATOM      6  C   UNL     1      -1.959 -17.358  -3.447  1.00  0.00     0.123 A 
ATOM      7  C   UNL     1      -2.565 -16.213  -2.926  1.00  0.00     0.093 A 
ATOM      8  C   UNL     1      -3.754 -15.716  -3.473  1.00  0.00     0.133 A 
ATOM      9  C   UNL     1      -4.382 -16.421  -4.534  1.00  0.00     0.102 A 
ATOM     10  C   UNL     1      -5.677 -16.027  -5.144  1.00  0.00     0.174 C 
ATOM     11  O   UNL     1      -6.505 -15.303  -4.531  1.00  0.00    -0.294 OA
ENDROOT
BRANCH   2  12
ATOM     12  C   UNL     1      -5.869 -18.596  -7.953  1.00  0.00    -0.007 A 
ATOM     13  C   UNL     1      -7.155 -18.656  -8.519  1.00  0.00     0.011 A 
ATOM     14  C   UNL     1      -4.762 -18.989  -8.726  1.00  0.00     0.011 A 
ATOM     15  C   UNL     1      -7.331 -19.127  -9.823  1.00  0.00     0.046 A 
ATOM     16  C   UNL     1      -4.943 -19.459 -10.031  1.00  0.00     0.046 A 
ATOM     17  C   UNL     1      -6.228 -19.530 -10.582  1.00  0.00     0.115 A 
BRANCH  17  18
ATOM     18  O   UNL     1      -6.421 -19.997 -11.880  1.00  0.00    -0.508 OA
ATOM     19  H   UNL     1      -5.873 -19.642 -12.656  1.00  0.00     0.293 HD
ENDBRANCH  17  18
ENDBRANCH   2  12
BRANCH   8  20
ATOM     20  O   UNL     1      -4.246 -14.516  -2.957  1.00  0.00    -0.507 OA
ATOM     21  H   UNL     1      -4.563 -14.399  -2.005  1.00  0.00     0.293 HD
ENDBRANCH   8  20
BRANCH   6  22
ATOM     22  O   UNL     1      -0.767 -17.817  -2.892  1.00  0.00    -0.508 OA
ATOM     23  H   UNL     1      -0.153 -17.201  -2.372  1.00  0.00     0.293 HD
ENDBRANCH   6  22
TORSDOF 4
ENDMDL
MODEL 2
REMARK VINA RESULT:    -4.781      1.585      3.022
REMARK INTER + INTRA:          -5.793
REMARK INTER:                  -5.482
REMARK INTRA:                  -0.311
REMARK UNBOUND:                -0.313
REMARK SMILES O=C1C[C@@H](c2ccc(O)cc2)Oc2cc(O)cc(O)c21
REMARK SMILES IDX 3 1 4 2 12 3 13 4 14 5 15 6 17 7 18 8 20 9 2 10 1 11 5 12
REMARK SMILES IDX 6 13 11 14 7 15 10 16 8 17 9 18 19 20 16 22
REMARK H PARENT 9 19 19 21 16 23
REMARK Flexibility Score: inf
ROOT
ATOM      1  C   UNL     1      -4.981 -19.715  -7.066  1.00  0.00     0.131 C 
ATOM      2  C   UNL     1      -5.126 -18.444  -7.914  1.00  0.00     0.211 C 
ATOM      3  O   UNL     1      -5.683 -17.380  -7.136  1.00  0.00    -0.484 OA
ATOM      4  C   UNL     1      -5.332 -17.159  -5.796  1.00  0.00     0.138 A 
ATOM      5  C   UNL     1      -5.696 -15.954  -5.192  1.00  0.00     0.093 A 
ATOM      6  C   UNL     1      -5.348 -15.700  -3.862  1.00  0.00     0.123 A 
ATOM      7  C   UNL     1      -4.659 -16.667  -3.128  1.00  0.00     0.093 A 
ATOM      8  C   UNL     1      -4.319 -17.898  -3.702  1.00  0.00     0.133 A 
ATOM      9  C   UNL     1      -4.628 -18.141  -5.066  1.00  0.00     0.102 A 
ATOM     10  C   UNL     1      -4.255 -19.379  -5.797  1.00  0.00     0.174 C 
ATOM     11  O   UNL     1      -3.314 -20.119  -5.409  1.00  0.00    -0.294 OA
ENDROOT
BRANCH   2  12
ATOM     12  C   UNL     1      -5.989 -18.705  -9.124  1.00  0.00    -0.007 A 
ATOM     13  C   UNL     1      -7.225 -18.050  -9.265  1.00  0.00     0.011 A 
ATOM     14  C   UNL     1      -5.544 -19.558 -10.149  1.00  0.00     0.011 A 
ATOM     15  C   UNL     1      -8.013 -18.267 -10.399  1.00  0.00     0.046 A 
ATOM     16  C   UNL     1      -6.336 -19.772 -11.283  1.00  0.00     0.046 A 
ATOM     17  C   UNL     1      -7.572 -19.128 -11.410  1.00  0.00     0.115 A 
BRANCH  17  18
ATOM     18  O   UNL     1      -8.370 -19.333 -12.534  1.00  0.00    -0.508 OA
ATOM     19  H   UNL     1      -8.062 -19.923 -13.299  1.00  0.00     0.293 HD
ENDBRANCH  17  18
ENDBRANCH   2  12
BRANCH   8  20
ATOM     20  O   UNL     1      -3.714 -18.847  -2.875  1.00  0.00    -0.507 OA
ATOM     21  H   UNL     1      -4.217 -19.581  -2.397  1.00  0.00     0.293 HD
ENDBRANCH   8  20
BRANCH   6  22
ATOM     22  O   UNL     1      -5.687 -14.491  -3.258  1.00  0.00    -0.508 OA
ATOM     23  H   UNL     1      -6.547 -14.006  -3.489  1.00  0.00     0.293 HD
ENDBRANCH   6  22
TORSDOF 4
ENDMDL
MODEL 3
REMARK VINA RESULT:    -4.720      1.245      1.473
REMARK INTER + INTRA:          -5.723
REMARK INTER:                  -5.406
REMARK INTRA:                  -0.318
REMARK UNBOUND:                -0.313
REMARK SMILES O=C1C[C@@H](c2ccc(O)cc2)Oc2cc(O)cc(O)c21
REMARK SMILES IDX 3 1 4 2 12 3 13 4 14 5 15 6 17 7 18 8 20 9 2 10 1 11 5 12
REMARK SMILES IDX 6 13 11 14 7 15 10 16 8 17 9 18 19 20 16 22
REMARK H PARENT 9 19 19 21 16 23
REMARK Flexibility Score: inf
ROOT
ATOM      1  C   UNL     1      -7.525 -16.692  -6.650  1.00  0.00     0.131 C 
ATOM      2  C   UNL     1      -6.657 -17.950  -6.797  1.00  0.00     0.211 C 
ATOM      3  O   UNL     1      -5.303 -17.674  -6.428  1.00  0.00    -0.484 OA
ATOM      4  C   UNL     1      -4.968 -16.849  -5.344  1.00  0.00     0.138 A 
ATOM      5  C   UNL     1      -3.652 -16.850  -4.876  1.00  0.00     0.093 A 
ATOM      6  C   UNL     1      -3.291 -16.049  -3.789  1.00  0.00     0.123 A 
ATOM      7  C   UNL     1      -4.244 -15.225  -3.188  1.00  0.00     0.093 A 
ATOM      8  C   UNL     1      -5.559 -15.179  -3.666  1.00  0.00     0.133 A 
ATOM      9  C   UNL     1      -5.941 -16.026  -4.739  1.00  0.00     0.102 A 
ATOM     10  C   UNL     1      -7.321 -16.113  -5.281  1.00  0.00     0.174 C 
ATOM     11  O   UNL     1      -8.322 -15.765  -4.602  1.00  0.00    -0.294 OA
ENDROOT
BRANCH   2  12
ATOM     12  C   UNL     1      -6.711 -18.472  -8.212  1.00  0.00    -0.007 A 
ATOM     13  C   UNL     1      -7.857 -18.264  -8.999  1.00  0.00     0.011 A 
ATOM     14  C   UNL     1      -5.599 -19.120  -8.778  1.00  0.00     0.011 A 
ATOM     15  C   UNL     1      -7.898 -18.720 -10.320  1.00  0.00     0.046 A 
ATOM     16  C   UNL     1      -5.644 -19.574 -10.100  1.00  0.00     0.046 A 
ATOM     17  C   UNL     1      -6.794 -19.376 -10.874  1.00  0.00     0.115 A 
BRANCH  17  18
ATOM     18  O   UNL     1      -6.851 -19.824 -12.192  1.00  0.00    -0.508 OA
ATOM     19  H   UNL     1      -7.440 -20.604 -12.460  1.00  0.00     0.293 HD
ENDBRANCH  17  18
ENDBRANCH   2  12
BRANCH   8  20
ATOM     20  O   UNL     1      -6.427 -14.261  -3.071  1.00  0.00    -0.507 OA
ATOM     21  H   UNL     1      -6.265 -13.265  -3.048  1.00  0.00     0.293 HD
ENDBRANCH   8  20
BRANCH   6  22
ATOM     22  O   UNL     1      -1.985 -16.059  -3.302  1.00  0.00    -0.508 OA
ATOM     23  H   UNL     1      -1.634 -15.311  -2.715  1.00  0.00     0.293 HD
ENDBRANCH   6  22
TORSDOF 4
ENDMDL
MODEL 4
REMARK VINA RESULT:    -4.524     13.902     15.609
REMARK INTER + INTRA:          -5.498
REMARK INTER:                  -5.186
REMARK INTRA:                  -0.312
REMARK UNBOUND:                -0.313
REMARK SMILES O=C1C[C@@H](c2ccc(O)cc2)Oc2cc(O)cc(O)c21
REMARK SMILES IDX 3 1 4 2 12 3 13 4 14 5 15 6 17 7 18 8 20 9 2 10 1 11 5 12
REMARK SMILES IDX 6 13 11 14 7 15 10 16 8 17 9 18 19 20 16 22
REMARK H PARENT 9 19 19 21 16 23
REMARK Flexibility Score: inf
ROOT
ATOM      1  C   UNL     1      -5.447  -0.795  -6.888  1.00  0.00     0.131 C 
ATOM      2  C   UNL     1      -6.792  -1.534  -6.944  1.00  0.00     0.211 C 
ATOM      3  O   UNL     1      -6.660  -2.860  -6.423  1.00  0.00    -0.484 OA
ATOM      4  C   UNL     1      -5.868  -3.157  -5.304  1.00  0.00     0.138 A 
ATOM      5  C   UNL     1      -6.006  -4.405  -4.691  1.00  0.00     0.093 A 
ATOM      6  C   UNL     1      -5.241  -4.724  -3.566  1.00  0.00     0.123 A 
ATOM      7  C   UNL     1      -4.316  -3.803  -3.071  1.00  0.00     0.093 A 
ATOM      8  C   UNL     1      -4.133  -2.563  -3.694  1.00  0.00     0.133 A 
ATOM      9  C   UNL     1      -4.942  -2.215  -4.808  1.00  0.00     0.102 A 
ATOM     10  C   UNL     1      -4.884  -0.904  -5.502  1.00  0.00     0.174 C 
ATOM     11  O   UNL     1      -4.427   0.125  -4.938  1.00  0.00    -0.294 OA
ENDROOT
BRANCH   2  12
ATOM     12  C   UNL     1      -7.315  -1.584  -8.358  1.00  0.00    -0.007 A 
ATOM     13  C   UNL     1      -7.790  -2.795  -8.893  1.00  0.00     0.011 A 
ATOM     14  C   UNL     1      -7.388  -0.416  -9.137  1.00  0.00     0.011 A 
ATOM     15  C   UNL     1      -8.303  -2.839 -10.193  1.00  0.00     0.046 A 
ATOM     16  C   UNL     1      -7.901  -0.464 -10.437  1.00  0.00     0.046 A 
ATOM     17  C   UNL     1      -8.359  -1.676 -10.968  1.00  0.00     0.115 A 
BRANCH  17  18
ATOM     18  O   UNL     1      -8.873  -1.737 -12.262  1.00  0.00    -0.508 OA
ATOM     19  H   UNL     1      -8.603  -1.064 -12.970  1.00  0.00     0.293 HD
ENDBRANCH  17  18
ENDBRANCH   2  12
BRANCH   8  20
ATOM     20  O   UNL     1      -3.124  -1.737  -3.195  1.00  0.00    -0.507 OA
ATOM     21  H   UNL     1      -2.790  -1.766  -2.243  1.00  0.00     0.293 HD
ENDBRANCH   8  20
BRANCH   6  22
ATOM     22  O   UNL     1      -5.388  -5.958  -2.934  1.00  0.00    -0.508 OA
ATOM     23  H   UNL     1      -4.646  -6.353  -2.367  1.00  0.00     0.293 HD
ENDBRANCH   6  22
TORSDOF 4
ENDMDL
MODEL 5
REMARK VINA RESULT:    -4.357     15.309     15.985
REMARK INTER + INTRA:          -5.308
REMARK INTER:                  -5.018
REMARK INTRA:                  -0.289
REMARK UNBOUND:                -0.313
REMARK SMILES O=C1C[C@@H](c2ccc(O)cc2)Oc2cc(O)cc(O)c21
REMARK SMILES IDX 3 1 4 2 12 3 13 4 14 5 15 6 17 7 18 8 20 9 2 10 1 11 5 12
REMARK SMILES IDX 6 13 11 14 7 15 10 16 8 17 9 18 19 20 16 22
REMARK H PARENT 9 19 19 21 16 23
REMARK Flexibility Score: inf
ROOT
ATOM      1  C   UNL     1      -8.631  -1.619  -7.532  1.00  0.00     0.131 C 
ATOM      2  C   UNL     1      -7.775  -2.533  -8.420  1.00  0.00     0.211 C 
ATOM      3  O   UNL     1      -6.385  -2.360  -8.129  1.00  0.00    -0.484 OA
ATOM      4  C   UNL     1      -5.902  -2.183  -6.824  1.00  0.00     0.138 A 
ATOM      5  C   UNL     1      -4.530  -2.300  -6.590  1.00  0.00     0.093 A 
ATOM      6  C   UNL     1      -4.021  -2.143  -5.298  1.00  0.00     0.123 A 
ATOM      7  C   UNL     1      -4.885  -1.840  -4.244  1.00  0.00     0.093 A 
ATOM      8  C   UNL     1      -6.258  -1.680  -4.463  1.00  0.00     0.133 A 
ATOM      9  C   UNL     1      -6.786  -1.886  -5.765  1.00  0.00     0.102 A 
ATOM     10  C   UNL     1      -8.231  -1.811  -6.099  1.00  0.00     0.174 C 
ATOM     11  O   UNL     1      -9.122  -1.958  -5.223  1.00  0.00    -0.294 OA
ENDROOT
BRANCH   2  12
ATOM     12  C   UNL     1      -8.036  -2.255  -9.880  1.00  0.00    -0.007 A 
ATOM     13  C   UNL     1      -7.806  -0.971 -10.407  1.00  0.00     0.011 A 
ATOM     14  C   UNL     1      -8.454  -3.284 -10.742  1.00  0.00     0.011 A 
ATOM     15  C   UNL     1      -8.017  -0.718 -11.765  1.00  0.00     0.046 A 
ATOM     16  C   UNL     1      -8.664  -3.026 -12.100  1.00  0.00     0.046 A 
ATOM     17  C   UNL     1      -8.447  -1.742 -12.615  1.00  0.00     0.115 A 
BRANCH  17  18
ATOM     18  O   UNL     1      -8.653  -1.473 -13.966  1.00  0.00    -0.508 OA
ATOM     19  H   UNL     1      -8.825  -0.531 -14.297  1.00  0.00     0.293 HD
ENDBRANCH  17  18
ENDBRANCH   2  12
BRANCH   8  20
ATOM     20  O   UNL     1      -7.040  -1.286  -3.375  1.00  0.00    -0.507 OA
ATOM     21  H   UNL     1      -6.673  -1.106  -2.452  1.00  0.00     0.293 HD
ENDBRANCH   8  20
BRANCH   6  22
ATOM     22  O   UNL     1      -2.657  -2.279  -5.051  1.00  0.00    -0.508 OA
ATOM     23  H   UNL     1      -2.143  -1.586  -4.519  1.00  0.00     0.293 HD
ENDBRANCH   6  22
TORSDOF 4
ENDMDL
MODEL 6
REMARK VINA RESULT:    -3.862      2.067      2.345
REMARK INTER + INTRA:          -4.739
REMARK INTER:                  -4.424
REMARK INTRA:                  -0.315
REMARK UNBOUND:                -0.313
REMARK SMILES O=C1C[C@@H](c2ccc(O)cc2)Oc2cc(O)cc(O)c21
REMARK SMILES IDX 3 1 4 2 12 3 13 4 14 5 15 6 17 7 18 8 20 9 2 10 1 11 5 12
REMARK SMILES IDX 6 13 11 14 7 15 10 16 8 17 9 18 19 20 16 22
REMARK H PARENT 9 19 19 21 16 23
REMARK Flexibility Score: inf
ROOT
ATOM      1  C   UNL     1      -7.340 -18.083  -6.759  1.00  0.00     0.131 C 
ATOM      2  C   UNL     1      -6.922 -19.400  -7.429  1.00  0.00     0.211 C 
ATOM      3  O   UNL     1      -5.523 -19.638  -7.244  1.00  0.00    -0.484 OA
ATOM      4  C   UNL     1      -4.860 -19.349  -6.042  1.00  0.00     0.138 A 
ATOM      5  C   UNL     1      -3.576 -19.860  -5.840  1.00  0.00     0.093 A 
ATOM      6  C   UNL     1      -2.896 -19.601  -4.647  1.00  0.00     0.123 A 
ATOM      7  C   UNL     1      -3.492 -18.807  -3.666  1.00  0.00     0.093 A 
ATOM      8  C   UNL     1      -4.762 -18.252  -3.864  1.00  0.00     0.133 A 
ATOM      9  C   UNL     1      -5.476 -18.552  -5.054  1.00  0.00     0.102 A 
ATOM     10  C   UNL     1      -6.854 -18.078  -5.340  1.00  0.00     0.174 C 
ATOM     11  O   UNL     1      -7.638 -17.727  -4.420  1.00  0.00    -0.294 OA
ENDROOT
BRANCH   2  12
ATOM     12  C   UNL     1      -7.252 -19.378  -8.901  1.00  0.00    -0.007 A 
ATOM     13  C   UNL     1      -8.583 -19.218  -9.325  1.00  0.00     0.011 A 
ATOM     14  C   UNL     1      -6.231 -19.459  -9.864  1.00  0.00     0.011 A 
ATOM     15  C   UNL     1      -8.887 -19.166 -10.689  1.00  0.00     0.046 A 
ATOM     16  C   UNL     1      -6.540 -19.407 -11.227  1.00  0.00     0.046 A 
ATOM     17  C   UNL     1      -7.869 -19.262 -11.643  1.00  0.00     0.115 A 
BRANCH  17  18
ATOM     18  O   UNL     1      -8.189 -19.209 -12.998  1.00  0.00    -0.508 OA
ATOM     19  H   UNL     1      -7.979 -19.980 -13.621  1.00  0.00     0.293 HD
ENDBRANCH  17  18
ENDBRANCH   2  12
BRANCH   8  20
ATOM     20  O   UNL     1      -5.249 -17.394  -2.876  1.00  0.00    -0.507 OA
ATOM     21  H   UNL     1      -5.866 -17.684  -2.131  1.00  0.00     0.293 HD
ENDBRANCH   8  20
BRANCH   6  22
ATOM     22  O   UNL     1      -1.623 -20.124  -4.427  1.00  0.00    -0.508 OA
ATOM     23  H   UNL     1      -1.482 -20.959  -3.869  1.00  0.00     0.293 HD
ENDBRANCH   6  22
TORSDOF 4
ENDMDL
MODEL 7
REMARK VINA RESULT:    -3.758     15.300     16.267
REMARK INTER + INTRA:          -4.621
REMARK INTER:                  -4.311
REMARK INTRA:                  -0.310
REMARK UNBOUND:                -0.313
REMARK SMILES O=C1C[C@@H](c2ccc(O)cc2)Oc2cc(O)cc(O)c21
REMARK SMILES IDX 3 1 4 2 12 3 13 4 14 5 15 6 17 7 18 8 20 9 2 10 1 11 5 12
REMARK SMILES IDX 6 13 11 14 7 15 10 16 8 17 9 18 19 20 16 22
REMARK H PARENT 9 19 19 21 16 23
REMARK Flexibility Score: inf
ROOT
ATOM      1  C   UNL     1      -6.116  -1.086  -8.130  1.00  0.00     0.131 C 
ATOM      2  C   UNL     1      -7.636  -1.128  -8.350  1.00  0.00     0.211 C 
ATOM      3  O   UNL     1      -8.257  -2.005  -7.406  1.00  0.00    -0.484 OA
ATOM      4  C   UNL     1      -7.852  -2.082  -6.065  1.00  0.00     0.138 A 
ATOM      5  C   UNL     1      -8.673  -2.741  -5.148  1.00  0.00     0.093 A 
ATOM      6  C   UNL     1      -8.302  -2.822  -3.803  1.00  0.00     0.123 A 
ATOM      7  C   UNL     1      -7.093  -2.265  -3.381  1.00  0.00     0.093 A 
ATOM      8  C   UNL     1      -6.236  -1.634  -4.291  1.00  0.00     0.133 A 
ATOM      9  C   UNL     1      -6.631  -1.508  -5.649  1.00  0.00     0.102 A 
ATOM     10  C   UNL     1      -5.837  -0.799  -6.685  1.00  0.00     0.174 C 
ATOM     11  O   UNL     1      -4.979   0.070  -6.382  1.00  0.00    -0.294 OA
ENDROOT
BRANCH   2  12
ATOM     12  C   UNL     1      -7.959  -1.570  -9.756  1.00  0.00    -0.007 A 
ATOM     13  C   UNL     1      -7.799  -0.680 -10.832  1.00  0.00     0.011 A 
ATOM     14  C   UNL     1      -8.368  -2.891 -10.015  1.00  0.00     0.011 A 
ATOM     15  C   UNL     1      -8.069  -1.096 -12.139  1.00  0.00     0.046 A 
ATOM     16  C   UNL     1      -8.637  -3.304 -11.323  1.00  0.00     0.046 A 
ATOM     17  C   UNL     1      -8.489  -2.407 -12.389  1.00  0.00     0.115 A 
BRANCH  17  18
ATOM     18  O   UNL     1      -8.754  -2.806 -13.697  1.00  0.00    -0.508 OA
ATOM     19  H   UNL     1      -8.087  -3.356 -14.227  1.00  0.00     0.293 HD
ENDBRANCH  17  18
ENDBRANCH   2  12
BRANCH   8  20
ATOM     20  O   UNL     1      -5.005  -1.186  -3.809  1.00  0.00    -0.507 OA
ATOM     21  H   UNL     1      -4.902  -0.493  -3.083  1.00  0.00     0.293 HD
ENDBRANCH   8  20
BRANCH   6  22
ATOM     22  O   UNL     1      -9.125  -3.459  -2.876  1.00  0.00    -0.508 OA
ATOM     23  H   UNL     1      -8.748  -3.875  -2.032  1.00  0.00     0.293 HD
ENDBRANCH   6  22
TORSDOF 4
ENDMDL
