MODEL 1
REMARK VINA RESULT:    -2.455      0.000      0.000
REMARK INTER + INTRA:          -2.455
REMARK INTER:                  -2.455
REMARK INTRA:                   0.000
REMARK UNBOUND:                 0.000
REMARK SMILES CC(=O)[O-]
REMARK SMILES IDX 1 1 2 2 3 3 4 4
REMARK H PARENT
REMARK Flexibility Score: inf
ROOT
ATOM      1  C   UNL     1      34.854 158.380 107.269  1.00  0.00     0.063 C 
ATOM      2  C   UNL     1      34.793 159.056 105.942  1.00  0.00     0.038 C 
ATOM      3  O   UNL     1      34.991 158.397 104.887  1.00  0.00    -0.550 OA
ATOM      4  O   UNL     1      34.571 160.425 105.868  1.00  0.00    -0.550 OA
ENDROOT
TORSDOF 0
ENDMDL
MODEL 2
REMARK VINA RESULT:    -2.453     14.344     14.700
REMARK INTER + INTRA:          -2.453
REMARK INTER:                  -2.453
REMARK INTRA:                   0.000
REMARK UNBOUND:                 0.000
REMARK SMILES CC(=O)[O-]
REMARK SMILES IDX 1 1 2 2 3 3 4 4
REMARK H PARENT
REMARK Flexibility Score: inf
ROOT
ATOM      1  C   UNL     1      33.969 145.024 109.708  1.00  0.00     0.063 C 
ATOM      2  C   UNL     1      32.842 144.896 108.741  1.00  0.00     0.038 C 
ATOM      3  O   UNL     1      31.809 145.604 108.877  1.00  0.00    -0.550 OA
ATOM      4  O   UNL     1      32.905 143.957 107.720  1.00  0.00    -0.550 OA
ENDROOT
TORSDOF 0
ENDMDL
MODEL 3
REMARK VINA RESULT:    -2.429     14.611     14.929
REMARK INTER + INTRA:          -2.429
REMARK INTER:                  -2.429
REMARK INTRA:                   0.000
REMARK UNBOUND:                 0.000
REMARK SMILES CC(=O)[O-]
REMARK SMILES IDX 1 1 2 2 3 3 4 4
REMARK H PARENT
REMARK Flexibility Score: inf
ROOT
ATOM      1  C   UNL     1      32.667 144.748 109.193  1.00  0.00     0.063 C 
ATOM      2  C   UNL     1      34.121 144.729 109.519  1.00  0.00     0.038 C 
ATOM      3  O   UNL     1      34.572 145.457 110.441  1.00  0.00    -0.550 OA
ATOM      4  O   UNL     1      34.992 143.947 108.770  1.00  0.00    -0.550 OA
ENDROOT
TORSDOF 0
ENDMDL
MODEL 4
REMARK VINA RESULT:    -2.312     14.351     14.736
REMARK INTER + INTRA:          -2.312
REMARK INTER:                  -2.312
REMARK INTRA:                   0.000
REMARK UNBOUND:                 0.000
REMARK SMILES CC(=O)[O-]
REMARK SMILES IDX 1 1 2 2 3 3 4 4
REMARK H PARENT
REMARK Flexibility Score: inf
ROOT
ATOM      1  C   UNL     1      32.784 144.094 107.535  1.00  0.00     0.063 C 
ATOM      2  C   UNL     1      32.617 144.912 108.770  1.00  0.00     0.038 C 
ATOM      3  O   UNL     1      31.647 145.707 108.876  1.00  0.00    -0.550 OA
ATOM      4  O   UNL     1      33.562 144.839 109.786  1.00  0.00    -0.550 OA
ENDROOT
TORSDOF 0
ENDMDL
MODEL 5
REMARK VINA RESULT:    -2.302      1.382      1.765
REMARK INTER + INTRA:          -2.302
REMARK INTER:                  -2.302
REMARK INTRA:                   0.000
REMARK UNBOUND:                 0.000
REMARK SMILES CC(=O)[O-]
REMARK SMILES IDX 1 1 2 2 3 3 4 4
REMARK H PARENT
REMARK Flexibility Score: inf
ROOT
ATOM      1  C   UNL     1      34.523 160.473 105.896  1.00  0.00     0.063 C 
ATOM      2  C   UNL     1      34.814 159.014 105.995  1.00  0.00     0.038 C 
ATOM      3  O   UNL     1      35.018 158.338 104.952  1.00  0.00    -0.550 OA
ATOM      4  O   UNL     1      34.808 158.386 107.233  1.00  0.00    -0.550 OA
ENDROOT
TORSDOF 0
ENDMDL
MODEL 6
REMARK VINA RESULT:    -2.180      2.377      2.795
REMARK INTER + INTRA:          -2.180
REMARK INTER:                  -2.180
REMARK INTRA:                   0.000
REMARK UNBOUND:                 0.000
REMARK SMILES CC(=O)[O-]
REMARK SMILES IDX 1 1 2 2 3 3 4 4
REMARK H PARENT
REMARK Flexibility Score: inf
ROOT
ATOM      1  C   UNL     1      34.586 159.846 105.709  1.00  0.00     0.063 C 
ATOM      2  C   UNL     1      34.201 161.286 105.690  1.00  0.00     0.038 C 
ATOM      3  O   UNL     1      34.548 162.046 106.632  1.00  0.00    -0.550 OA
ATOM      4  O   UNL     1      33.412 161.782 104.660  1.00  0.00    -0.550 OA
ENDROOT
TORSDOF 0
ENDMDL
MODEL 7
REMARK VINA RESULT:    -2.064     14.657     14.937
REMARK INTER + INTRA:          -2.064
REMARK INTER:                  -2.064
REMARK INTRA:                   0.000
REMARK UNBOUND:                 0.000
REMARK SMILES CC(=O)[O-]
REMARK SMILES IDX 1 1 2 2 3 3 4 4
REMARK H PARENT
REMARK Flexibility Score: inf
ROOT
ATOM      1  C   UNL     1      34.604 145.536 110.150  1.00  0.00     0.063 C 
ATOM      2  C   UNL     1      34.085 144.515 109.196  1.00  0.00     0.038 C 
ATOM      3  O   UNL     1      34.884 143.760 108.582  1.00  0.00    -0.550 OA
ATOM      4  O   UNL     1      32.722 144.430 108.942  1.00  0.00    -0.550 OA
ENDROOT
TORSDOF 0
ENDMDL
