MODEL 1
REMARK VINA RESULT:    -3.984      0.000      0.000
REMARK INTER + INTRA:          -9.183
REMARK INTER:                  -7.477
REMARK INTRA:                  -1.705
REMARK UNBOUND:                -1.705
REMARK SMILES CCCCCCCCC=CCCCCCCCC(=O)[O-]
REMARK SMILES IDX 10 1 9 2 11 3 12 4 13 5 14 6 15 7 16 8 17 9 18 10 19 11
REMARK SMILES IDX 20 12 8 13 7 14 6 15 5 16 4 17 3 18 2 19 1 20
REMARK H PARENT
REMARK Flexibility Score: inf
ROOT
ATOM      1  C   UNL     1     155.881 156.749 150.248  1.00  0.00    -0.031 C 
ATOM      2  C   UNL     1     157.083 157.186 150.657  1.00  0.00    -0.031 C 
ENDROOT
BRANCH   1   3
ATOM      3  C   UNL     1     155.608 155.285 150.038  1.00  0.00     0.027 C 
BRANCH   3   4
ATOM      4  C   UNL     1     154.895 154.677 151.255  1.00  0.00     0.004 C 
BRANCH   4   5
ATOM      5  C   UNL     1     155.871 154.101 152.296  1.00  0.00     0.000 C 
BRANCH   5   6
ATOM      6  C   UNL     1     157.155 153.487 151.709  1.00  0.00     0.000 C 
BRANCH   6   7
ATOM      7  C   UNL     1     158.428 154.242 152.132  1.00  0.00     0.000 C 
BRANCH   7   8
ATOM      8  C   UNL     1     158.214 155.103 153.386  1.00  0.00     0.006 C 
BRANCH   8   9
ATOM      9  C   UNL     1     158.600 154.371 154.678  1.00  0.00     0.053 C 
BRANCH   9  10
ATOM     10  C   UNL     1     160.050 154.005 154.656  1.00  0.00     0.041 C 
ATOM     11  O   UNL     1     160.406 152.810 154.833  1.00  0.00    -0.550 OA
ATOM     12  O   UNL     1     161.008 154.975 154.389  1.00  0.00    -0.550 OA
ENDBRANCH   9  10
ENDBRANCH   8   9
ENDBRANCH   7   8
ENDBRANCH   6   7
ENDBRANCH   5   6
ENDBRANCH   4   5
ENDBRANCH   3   4
ENDBRANCH   1   3
BRANCH   2  13
ATOM     13  C   UNL     1     157.354 158.648 150.883  1.00  0.00     0.027 C 
BRANCH  13  14
ATOM     14  C   UNL     1     158.826 158.986 150.603  1.00  0.00     0.004 C 
BRANCH  14  15
ATOM     15  C   UNL     1     159.628 157.768 150.116  1.00  0.00     0.000 C 
BRANCH  15  16
ATOM     16  C   UNL     1     160.939 157.574 150.898  1.00  0.00     0.000 C 
BRANCH  16  17
ATOM     17  C   UNL     1     162.101 158.411 150.334  1.00  0.00    -0.000 C 
BRANCH  17  18
ATOM     18  C   UNL     1     162.530 159.599 151.215  1.00  0.00    -0.000 C 
BRANCH  18  19
ATOM     19  C   UNL     1     164.045 159.851 151.186  1.00  0.00    -0.003 C 
ATOM     20  C   UNL     1     164.791 158.817 152.023  1.00  0.00     0.004 C 
ENDBRANCH  18  19
ENDBRANCH  17  18
ENDBRANCH  16  17
ENDBRANCH  15  16
ENDBRANCH  14  15
ENDBRANCH  13  14
ENDBRANCH   2  13
TORSDOF 15
ENDMDL
MODEL 2
REMARK VINA RESULT:    -3.847     12.176     14.890
REMARK INTER + INTRA:          -8.926
REMARK INTER:                  -6.780
REMARK INTRA:                  -2.146
REMARK UNBOUND:                -1.705
REMARK SMILES CCCCCCCCC=CCCCCCCCC(=O)[O-]
REMARK SMILES IDX 10 1 9 2 11 3 12 4 13 5 14 6 15 7 16 8 17 9 18 10 19 11
REMARK SMILES IDX 20 12 8 13 7 14 6 15 5 16 4 17 3 18 2 19 1 20
REMARK H PARENT
REMARK Flexibility Score: inf
ROOT
ATOM      1  C   UNL     1     164.023 153.686 164.094  1.00  0.00    -0.031 C 
ATOM      2  C   UNL     1     163.410 154.193 163.014  1.00  0.00    -0.031 C 
ENDROOT
BRANCH   1   3
ATOM      3  C   UNL     1     165.264 154.317 164.661  1.00  0.00     0.027 C 
BRANCH   3   4
ATOM      4  C   UNL     1     164.954 155.690 165.276  1.00  0.00     0.004 C 
BRANCH   4   5
ATOM      5  C   UNL     1     164.004 155.605 166.484  1.00  0.00     0.000 C 
BRANCH   5   6
ATOM      6  C   UNL     1     162.859 156.636 166.481  1.00  0.00     0.000 C 
BRANCH   6   7
ATOM      7  C   UNL     1     161.701 156.242 165.547  1.00  0.00     0.000 C 
BRANCH   7   8
ATOM      8  C   UNL     1     161.456 157.279 164.441  1.00  0.00     0.006 C 
BRANCH   8   9
ATOM      9  C   UNL     1     161.352 158.709 164.987  1.00  0.00     0.053 C 
BRANCH   9  10
ATOM     10  C   UNL     1     159.948 159.211 164.868  1.00  0.00     0.041 C 
ATOM     11  O   UNL     1     159.247 158.905 163.867  1.00  0.00    -0.550 OA
ATOM     12  O   UNL     1     159.394 159.975 165.887  1.00  0.00    -0.550 OA
ENDBRANCH   9  10
ENDBRANCH   8   9
ENDBRANCH   7   8
ENDBRANCH   6   7
ENDBRANCH   5   6
ENDBRANCH   4   5
ENDBRANCH   3   4
ENDBRANCH   1   3
BRANCH   2  13
ATOM     13  C   UNL     1     162.159 153.573 162.454  1.00  0.00     0.027 C 
BRANCH  13  14
ATOM     14  C   UNL     1     161.175 153.206 163.575  1.00  0.00     0.004 C 
BRANCH  14  15
ATOM     15  C   UNL     1     161.016 151.687 163.745  1.00  0.00     0.000 C 
BRANCH  15  16
ATOM     16  C   UNL     1     161.726 150.891 162.636  1.00  0.00     0.000 C 
BRANCH  16  17
ATOM     17  C   UNL     1     162.898 150.043 163.165  1.00  0.00    -0.000 C 
BRANCH  17  18
ATOM     18  C   UNL     1     163.038 150.020 164.698  1.00  0.00    -0.000 C 
BRANCH  18  19
ATOM     19  C   UNL     1     163.107 148.597 165.272  1.00  0.00    -0.003 C 
ATOM     20  C   UNL     1     161.918 148.313 166.184  1.00  0.00     0.004 C 
ENDBRANCH  18  19
ENDBRANCH  17  18
ENDBRANCH  16  17
ENDBRANCH  15  16
ENDBRANCH  14  15
ENDBRANCH  13  14
ENDBRANCH   2  13
TORSDOF 15
ENDMDL
MODEL 3
REMARK VINA RESULT:    -3.823     10.324     13.881
REMARK INTER + INTRA:          -8.880
REMARK INTER:                  -6.018
REMARK INTRA:                  -2.862
REMARK UNBOUND:                -1.705
REMARK SMILES CCCCCCCCC=CCCCCCCCC(=O)[O-]
REMARK SMILES IDX 10 1 9 2 11 3 12 4 13 5 14 6 15 7 16 8 17 9 18 10 19 11
REMARK SMILES IDX 20 12 8 13 7 14 6 15 5 16 4 17 3 18 2 19 1 20
REMARK H PARENT
REMARK Flexibility Score: inf
ROOT
ATOM      1  C   UNL     1     160.938 155.264 164.526  1.00  0.00    -0.031 C 
ATOM      2  C   UNL     1     161.382 154.076 164.085  1.00  0.00    -0.031 C 
ENDROOT
BRANCH   1   3
ATOM      3  C   UNL     1     161.889 156.346 164.955  1.00  0.00     0.027 C 
BRANCH   3   4
ATOM      4  C   UNL     1     162.458 156.059 166.353  1.00  0.00     0.004 C 
BRANCH   4   5
ATOM      5  C   UNL     1     163.959 155.720 166.332  1.00  0.00     0.000 C 
BRANCH   5   6
ATOM      6  C   UNL     1     164.705 156.163 165.060  1.00  0.00     0.000 C 
BRANCH   6   7
ATOM      7  C   UNL     1     165.317 154.983 164.284  1.00  0.00     0.000 C 
BRANCH   7   8
ATOM      8  C   UNL     1     165.180 153.649 165.033  1.00  0.00     0.006 C 
BRANCH   8   9
ATOM      9  C   UNL     1     166.274 152.643 164.653  1.00  0.00     0.053 C 
BRANCH   9  10
ATOM     10  C   UNL     1     165.987 151.306 165.258  1.00  0.00     0.041 C 
ATOM     11  O   UNL     1     165.989 150.271 164.540  1.00  0.00    -0.550 OA
ATOM     12  O   UNL     1     165.767 151.194 166.625  1.00  0.00    -0.550 OA
ENDBRANCH   9  10
ENDBRANCH   8   9
ENDBRANCH   7   8
ENDBRANCH   6   7
ENDBRANCH   5   6
ENDBRANCH   4   5
ENDBRANCH   3   4
ENDBRANCH   1   3
BRANCH   2  13
ATOM     13  C   UNL     1     160.433 152.997 163.640  1.00  0.00     0.027 C 
BRANCH  13  14
ATOM     14  C   UNL     1     161.175 151.673 163.403  1.00  0.00     0.004 C 
BRANCH  14  15
ATOM     15  C   UNL     1     162.700 151.825 163.510  1.00  0.00     0.000 C 
BRANCH  15  16
ATOM     16  C   UNL     1     163.435 151.286 162.269  1.00  0.00     0.000 C 
BRANCH  16  17
ATOM     17  C   UNL     1     163.403 152.267 161.083  1.00  0.00    -0.000 C 
BRANCH  17  18
ATOM     18  C   UNL     1     163.718 153.730 161.446  1.00  0.00    -0.000 C 
BRANCH  18  19
ATOM     19  C   UNL     1     162.932 154.741 160.598  1.00  0.00    -0.003 C 
ATOM     20  C   UNL     1     161.497 154.275 160.375  1.00  0.00     0.004 C 
ENDBRANCH  18  19
ENDBRANCH  17  18
ENDBRANCH  16  17
ENDBRANCH  15  16
ENDBRANCH  14  15
ENDBRANCH  13  14
ENDBRANCH   2  13
TORSDOF 15
ENDMDL
MODEL 4
REMARK VINA RESULT:    -3.811     10.790     13.995
REMARK INTER + INTRA:          -8.859
REMARK INTER:                  -6.541
REMARK INTRA:                  -2.318
REMARK UNBOUND:                -1.705
REMARK SMILES CCCCCCCCC=CCCCCCCCC(=O)[O-]
REMARK SMILES IDX 10 1 9 2 11 3 12 4 13 5 14 6 15 7 16 8 17 9 18 10 19 11
REMARK SMILES IDX 20 12 8 13 7 14 6 15 5 16 4 17 3 18 2 19 1 20
REMARK H PARENT
REMARK Flexibility Score: inf
ROOT
ATOM      1  C   UNL     1     165.115 153.040 161.920  1.00  0.00    -0.031 C 
ATOM      2  C   UNL     1     164.429 154.161 161.649  1.00  0.00    -0.031 C 
ENDROOT
BRANCH   1   3
ATOM      3  C   UNL     1     166.132 152.990 163.026  1.00  0.00     0.027 C 
BRANCH   3   4
ATOM      4  C   UNL     1     165.629 153.734 164.272  1.00  0.00     0.004 C 
BRANCH   4   5
ATOM      5  C   UNL     1     166.232 155.143 164.415  1.00  0.00     0.000 C 
BRANCH   5   6
ATOM      6  C   UNL     1     165.219 156.248 164.765  1.00  0.00     0.000 C 
BRANCH   6   7
ATOM      7  C   UNL     1     164.071 155.747 165.659  1.00  0.00     0.000 C 
BRANCH   7   8
ATOM      8  C   UNL     1     163.070 156.857 166.012  1.00  0.00     0.006 C 
BRANCH   8   9
ATOM      9  C   UNL     1     162.938 157.907 164.902  1.00  0.00     0.053 C 
BRANCH   9  10
ATOM     10  C   UNL     1     161.581 158.536 164.937  1.00  0.00     0.041 C 
ATOM     11  O   UNL     1     160.566 157.876 164.590  1.00  0.00    -0.550 OA
ATOM     12  O   UNL     1     161.429 159.836 165.403  1.00  0.00    -0.550 OA
ENDBRANCH   9  10
ENDBRANCH   8   9
ENDBRANCH   7   8
ENDBRANCH   6   7
ENDBRANCH   5   6
ENDBRANCH   4   5
ENDBRANCH   3   4
ENDBRANCH   1   3
BRANCH   2  13
ATOM     13  C   UNL     1     163.400 154.210 160.553  1.00  0.00     0.027 C 
BRANCH  13  14
ATOM     14  C   UNL     1     162.013 154.559 161.112  1.00  0.00     0.004 C 
BRANCH  14  15
ATOM     15  C   UNL     1     162.089 155.307 162.452  1.00  0.00     0.000 C 
BRANCH  15  16
ATOM     16  C   UNL     1     161.316 154.590 163.573  1.00  0.00     0.000 C 
BRANCH  16  17
ATOM     17  C   UNL     1     161.537 153.066 163.570  1.00  0.00    -0.000 C 
BRANCH  17  18
ATOM     18  C   UNL     1     160.250 152.226 163.466  1.00  0.00    -0.000 C 
BRANCH  18  19
ATOM     19  C   UNL     1     158.975 153.055 163.677  1.00  0.00    -0.003 C 
ATOM     20  C   UNL     1     157.737 152.164 163.701  1.00  0.00     0.004 C 
ENDBRANCH  18  19
ENDBRANCH  17  18
ENDBRANCH  16  17
ENDBRANCH  15  16
ENDBRANCH  14  15
ENDBRANCH  13  14
ENDBRANCH   2  13
TORSDOF 15
ENDMDL
MODEL 5
REMARK VINA RESULT:    -3.753      2.687      3.664
REMARK INTER + INTRA:          -8.749
REMARK INTER:                  -6.032
REMARK INTRA:                  -2.717
REMARK UNBOUND:                -1.705
REMARK SMILES CCCCCCCCC=CCCCCCCCC(=O)[O-]
REMARK SMILES IDX 10 1 9 2 11 3 12 4 13 5 14 6 15 7 16 8 17 9 18 10 19 11
REMARK SMILES IDX 20 12 8 13 7 14 6 15 5 16 4 17 3 18 2 19 1 20
REMARK H PARENT
REMARK Flexibility Score: inf
ROOT
ATOM      1  C   UNL     1     156.594 156.811 149.935  1.00  0.00    -0.031 C 
ATOM      2  C   UNL     1     156.864 157.747 150.858  1.00  0.00    -0.031 C 
ENDROOT
BRANCH   1   3
ATOM      3  C   UNL     1     155.328 156.001 149.985  1.00  0.00     0.027 C 
BRANCH   3   4
ATOM      4  C   UNL     1     155.129 155.375 151.373  1.00  0.00     0.004 C 
BRANCH   4   5
ATOM      5  C   UNL     1     155.696 153.947 151.475  1.00  0.00     0.000 C 
BRANCH   5   6
ATOM      6  C   UNL     1     155.749 153.371 152.902  1.00  0.00     0.000 C 
BRANCH   6   7
ATOM      7  C   UNL     1     156.891 152.357 153.095  1.00  0.00     0.000 C 
BRANCH   7   8
ATOM      8  C   UNL     1     157.395 152.305 154.545  1.00  0.00     0.006 C 
BRANCH   8   9
ATOM      9  C   UNL     1     156.963 153.528 155.364  1.00  0.00     0.053 C 
BRANCH   9  10
ATOM     10  C   UNL     1     156.172 153.103 156.560  1.00  0.00     0.041 C 
ATOM     11  O   UNL     1     155.045 152.560 156.416  1.00  0.00    -0.550 OA
ATOM     12  O   UNL     1     156.702 153.259 157.835  1.00  0.00    -0.550 OA
ENDBRANCH   9  10
ENDBRANCH   8   9
ENDBRANCH   7   8
ENDBRANCH   6   7
ENDBRANCH   5   6
ENDBRANCH   4   5
ENDBRANCH   3   4
ENDBRANCH   1   3
BRANCH   2  13
ATOM     13  C   UNL     1     158.122 158.570 150.802  1.00  0.00     0.027 C 
BRANCH  13  14
ATOM     14  C   UNL     1     159.164 157.922 149.878  1.00  0.00     0.004 C 
BRANCH  14  15
ATOM     15  C   UNL     1     160.072 156.928 150.619  1.00  0.00     0.000 C 
BRANCH  15  16
ATOM     16  C   UNL     1     159.801 155.468 150.215  1.00  0.00     0.000 C 
BRANCH  16  17
ATOM     17  C   UNL     1     159.273 154.613 151.382  1.00  0.00    -0.000 C 
BRANCH  17  18
ATOM     18  C   UNL     1     159.123 155.365 152.718  1.00  0.00    -0.000 C 
BRANCH  18  19
ATOM     19  C   UNL     1     160.101 154.875 153.795  1.00  0.00    -0.003 C 
ATOM     20  C   UNL     1     160.783 153.579 153.371  1.00  0.00     0.004 C 
ENDBRANCH  18  19
ENDBRANCH  17  18
ENDBRANCH  16  17
ENDBRANCH  15  16
ENDBRANCH  14  15
ENDBRANCH  13  14
ENDBRANCH   2  13
TORSDOF 15
ENDMDL
MODEL 6
REMARK VINA RESULT:    -3.728     11.453     14.663
REMARK INTER + INTRA:          -8.702
REMARK INTER:                  -6.618
REMARK INTRA:                  -2.084
REMARK UNBOUND:                -1.705
REMARK SMILES CCCCCCCCC=CCCCCCCCC(=O)[O-]
REMARK SMILES IDX 10 1 9 2 11 3 12 4 13 5 14 6 15 7 16 8 17 9 18 10 19 11
REMARK SMILES IDX 20 12 8 13 7 14 6 15 5 16 4 17 3 18 2 19 1 20
REMARK H PARENT
REMARK Flexibility Score: inf
ROOT
ATOM      1  C   UNL     1     164.314 152.263 164.222  1.00  0.00    -0.031 C 
ATOM      2  C   UNL     1     164.424 150.928 164.133  1.00  0.00    -0.031 C 
ENDROOT
BRANCH   1   3
ATOM      3  C   UNL     1     165.353 153.091 164.927  1.00  0.00     0.027 C 
BRANCH   3   4
ATOM      4  C   UNL     1     165.640 154.388 164.157  1.00  0.00     0.004 C 
BRANCH   4   5
ATOM      5  C   UNL     1     165.269 155.653 164.954  1.00  0.00     0.000 C 
BRANCH   5   6
ATOM      6  C   UNL     1     163.771 155.798 165.278  1.00  0.00     0.000 C 
BRANCH   6   7
ATOM      7  C   UNL     1     163.510 156.160 166.751  1.00  0.00     0.000 C 
BRANCH   7   8
ATOM      8  C   UNL     1     162.643 157.418 166.906  1.00  0.00     0.006 C 
BRANCH   8   9
ATOM      9  C   UNL     1     162.812 158.398 165.738  1.00  0.00     0.053 C 
BRANCH   9  10
ATOM     10  C   UNL     1     161.481 158.749 165.154  1.00  0.00     0.041 C 
ATOM     11  O   UNL     1     160.984 159.890 165.346  1.00  0.00    -0.550 OA
ATOM     12  O   UNL     1     160.811 157.833 164.352  1.00  0.00    -0.550 OA
ENDBRANCH   9  10
ENDBRANCH   8   9
ENDBRANCH   7   8
ENDBRANCH   6   7
ENDBRANCH   5   6
ENDBRANCH   4   5
ENDBRANCH   3   4
ENDBRANCH   1   3
BRANCH   2  13
ATOM     13  C   UNL     1     163.395 150.099 163.415  1.00  0.00     0.027 C 
BRANCH  13  14
ATOM     14  C   UNL     1     162.009 150.261 164.058  1.00  0.00     0.004 C 
BRANCH  14  15
ATOM     15  C   UNL     1     160.929 150.654 163.037  1.00  0.00     0.000 C 
BRANCH  15  16
ATOM     16  C   UNL     1     159.808 151.502 163.663  1.00  0.00     0.000 C 
BRANCH  16  17
ATOM     17  C   UNL     1     159.818 152.961 163.169  1.00  0.00    -0.000 C 
BRANCH  17  18
ATOM     18  C   UNL     1     160.885 153.858 163.823  1.00  0.00    -0.000 C 
BRANCH  18  19
ATOM     19  C   UNL     1     161.717 154.644 162.800  1.00  0.00    -0.003 C 
ATOM     20  C   UNL     1     162.122 153.760 161.624  1.00  0.00     0.004 C 
ENDBRANCH  18  19
ENDBRANCH  17  18
ENDBRANCH  16  17
ENDBRANCH  15  16
ENDBRANCH  14  15
ENDBRANCH  13  14
ENDBRANCH   2  13
TORSDOF 15
ENDMDL
MODEL 7
REMARK VINA RESULT:    -3.704     11.401     13.972
REMARK INTER + INTRA:          -8.657
REMARK INTER:                  -5.675
REMARK INTRA:                  -2.982
REMARK UNBOUND:                -1.705
REMARK SMILES CCCCCCCCC=CCCCCCCCC(=O)[O-]
REMARK SMILES IDX 10 1 9 2 11 3 12 4 13 5 14 6 15 7 16 8 17 9 18 10 19 11
REMARK SMILES IDX 20 12 8 13 7 14 6 15 5 16 4 17 3 18 2 19 1 20
REMARK H PARENT
REMARK Flexibility Score: inf
ROOT
ATOM      1  C   UNL     1     164.155 154.051 160.952  1.00  0.00    -0.031 C 
ATOM      2  C   UNL     1     163.339 154.954 161.518  1.00  0.00    -0.031 C 
ENDROOT
BRANCH   1   3
ATOM      3  C   UNL     1     165.611 154.345 160.719  1.00  0.00     0.027 C 
BRANCH   3   4
ATOM      4  C   UNL     1     166.437 154.082 161.987  1.00  0.00     0.004 C 
BRANCH   4   5
ATOM      5  C   UNL     1     166.968 155.373 162.637  1.00  0.00     0.000 C 
BRANCH   5   6
ATOM      6  C   UNL     1     166.153 155.874 163.844  1.00  0.00     0.000 C 
BRANCH   6   7
ATOM      7  C   UNL     1     165.563 154.727 164.684  1.00  0.00     0.000 C 
BRANCH   7   8
ATOM      8  C   UNL     1     164.441 155.199 165.621  1.00  0.00     0.006 C 
BRANCH   8   9
ATOM      9  C   UNL     1     163.931 156.602 165.270  1.00  0.00     0.053 C 
BRANCH   9  10
ATOM     10  C   UNL     1     162.874 157.031 166.239  1.00  0.00     0.041 C 
ATOM     11  O   UNL     1     162.456 156.230 167.117  1.00  0.00    -0.550 OA
ATOM     12  O   UNL     1     162.388 158.331 166.206  1.00  0.00    -0.550 OA
ENDBRANCH   9  10
ENDBRANCH   8   9
ENDBRANCH   7   8
ENDBRANCH   6   7
ENDBRANCH   5   6
ENDBRANCH   4   5
ENDBRANCH   3   4
ENDBRANCH   1   3
BRANCH   2  13
ATOM     13  C   UNL     1     161.886 154.657 161.765  1.00  0.00     0.027 C 
BRANCH  13  14
ATOM     14  C   UNL     1     161.473 155.067 163.187  1.00  0.00     0.004 C 
BRANCH  14  15
ATOM     15  C   UNL     1     161.435 153.875 164.156  1.00  0.00     0.000 C 
BRANCH  15  16
ATOM     16  C   UNL     1     161.051 152.558 163.458  1.00  0.00     0.000 C 
BRANCH  16  17
ATOM     17  C   UNL     1     161.975 151.388 163.841  1.00  0.00    -0.000 C 
BRANCH  17  18
ATOM     18  C   UNL     1     162.949 150.944 162.734  1.00  0.00    -0.000 C 
BRANCH  18  19
ATOM     19  C   UNL     1     164.423 151.124 163.124  1.00  0.00    -0.003 C 
ATOM     20  C   UNL     1     164.583 151.228 164.638  1.00  0.00     0.004 C 
ENDBRANCH  18  19
ENDBRANCH  17  18
ENDBRANCH  16  17
ENDBRANCH  15  16
ENDBRANCH  14  15
ENDBRANCH  13  14
ENDBRANCH   2  13
TORSDOF 15
ENDMDL
MODEL 8
REMARK VINA RESULT:    -3.678     10.058     13.809
REMARK INTER + INTRA:          -8.608
REMARK INTER:                  -6.244
REMARK INTRA:                  -2.364
REMARK UNBOUND:                -1.705
REMARK SMILES CCCCCCCCC=CCCCCCCCC(=O)[O-]
REMARK SMILES IDX 10 1 9 2 11 3 12 4 13 5 14 6 15 7 16 8 17 9 18 10 19 11
REMARK SMILES IDX 20 12 8 13 7 14 6 15 5 16 4 17 3 18 2 19 1 20
REMARK H PARENT
REMARK Flexibility Score: inf
ROOT
ATOM      1  C   UNL     1     164.908 156.073 165.301  1.00  0.00    -0.031 C 
ATOM      2  C   UNL     1     164.105 155.520 166.224  1.00  0.00    -0.031 C 
ENDROOT
BRANCH   1   3
ATOM      3  C   UNL     1     165.880 155.244 164.508  1.00  0.00     0.027 C 
BRANCH   3   4
ATOM      4  C   UNL     1     166.864 156.136 163.737  1.00  0.00     0.004 C 
BRANCH   4   5
ATOM      5  C   UNL     1     167.928 155.331 162.968  1.00  0.00     0.000 C 
BRANCH   5   6
ATOM      6  C   UNL     1     167.374 154.424 161.854  1.00  0.00     0.000 C 
BRANCH   6   7
ATOM      7  C   UNL     1     166.916 155.213 160.614  1.00  0.00     0.000 C 
BRANCH   7   8
ATOM      8  C   UNL     1     165.790 154.503 159.846  1.00  0.00     0.006 C 
BRANCH   8   9
ATOM      9  C   UNL     1     164.479 154.447 160.641  1.00  0.00     0.053 C 
BRANCH   9  10
ATOM     10  C   UNL     1     163.401 153.807 159.825  1.00  0.00     0.041 C 
ATOM     11  O   UNL     1     163.694 152.960 158.939  1.00  0.00    -0.550 OA
ATOM     12  O   UNL     1     162.068 154.105 160.077  1.00  0.00    -0.550 OA
ENDBRANCH   9  10
ENDBRANCH   8   9
ENDBRANCH   7   8
ENDBRANCH   6   7
ENDBRANCH   5   6
ENDBRANCH   4   5
ENDBRANCH   3   4
ENDBRANCH   1   3
BRANCH   2  13
ATOM     13  C   UNL     1     163.121 156.344 167.008  1.00  0.00     0.027 C 
BRANCH  13  14
ATOM     14  C   UNL     1     162.514 157.455 166.138  1.00  0.00     0.004 C 
BRANCH  14  15
ATOM     15  C   UNL     1     161.353 156.952 165.265  1.00  0.00     0.000 C 
BRANCH  15  16
ATOM     16  C   UNL     1     161.716 156.908 163.770  1.00  0.00     0.000 C 
BRANCH  16  17
ATOM     17  C   UNL     1     161.833 155.472 163.226  1.00  0.00    -0.000 C 
BRANCH  17  18
ATOM     18  C   UNL     1     161.199 154.389 164.118  1.00  0.00    -0.000 C 
BRANCH  18  19
ATOM     19  C   UNL     1     161.637 152.967 163.737  1.00  0.00    -0.003 C 
ATOM     20  C   UNL     1     163.158 152.852 163.697  1.00  0.00     0.004 C 
ENDBRANCH  18  19
ENDBRANCH  17  18
ENDBRANCH  16  17
ENDBRANCH  15  16
ENDBRANCH  14  15
ENDBRANCH  13  14
ENDBRANCH   2  13
TORSDOF 15
ENDMDL
MODEL 9
REMARK VINA RESULT:    -3.660     12.330     14.474
REMARK INTER + INTRA:          -8.575
REMARK INTER:                  -5.970
REMARK INTRA:                  -2.605
REMARK UNBOUND:                -1.705
REMARK SMILES CCCCCCCCC=CCCCCCCCC(=O)[O-]
REMARK SMILES IDX 10 1 9 2 11 3 12 4 13 5 14 6 15 7 16 8 17 9 18 10 19 11
REMARK SMILES IDX 20 12 8 13 7 14 6 15 5 16 4 17 3 18 2 19 1 20
REMARK H PARENT
REMARK Flexibility Score: inf
ROOT
ATOM      1  C   UNL     1     164.524 155.593 166.074  1.00  0.00    -0.031 C 
ATOM      2  C   UNL     1     165.040 156.071 164.931  1.00  0.00    -0.031 C 
ENDROOT
BRANCH   1   3
ATOM      3  C   UNL     1     163.124 155.930 166.505  1.00  0.00     0.027 C 
BRANCH   3   4
ATOM      4  C   UNL     1     162.565 157.108 165.692  1.00  0.00     0.004 C 
BRANCH   4   5
ATOM      5  C   UNL     1     161.311 156.735 164.880  1.00  0.00     0.000 C 
BRANCH   5   6
ATOM      6  C   UNL     1     161.525 155.631 163.829  1.00  0.00     0.000 C 
BRANCH   6   7
ATOM      7  C   UNL     1     160.715 154.356 164.126  1.00  0.00     0.000 C 
BRANCH   7   8
ATOM      8  C   UNL     1     161.477 153.074 163.760  1.00  0.00     0.006 C 
BRANCH   8   9
ATOM      9  C   UNL     1     162.992 153.293 163.674  1.00  0.00     0.053 C 
BRANCH   9  10
ATOM     10  C   UNL     1     163.505 152.874 162.333  1.00  0.00     0.041 C 
ATOM     11  O   UNL     1     163.877 151.687 162.138  1.00  0.00    -0.550 OA
ATOM     12  O   UNL     1     163.523 153.782 161.282  1.00  0.00    -0.550 OA
ENDBRANCH   9  10
ENDBRANCH   8   9
ENDBRANCH   7   8
ENDBRANCH   6   7
ENDBRANCH   5   6
ENDBRANCH   4   5
ENDBRANCH   3   4
ENDBRANCH   1   3
BRANCH   2  13
ATOM     13  C   UNL     1     166.435 155.723 164.490  1.00  0.00     0.027 C 
BRANCH  13  14
ATOM     14  C   UNL     1     166.453 155.262 163.025  1.00  0.00     0.004 C 
BRANCH  14  15
ATOM     15  C   UNL     1     167.037 153.851 162.858  1.00  0.00     0.000 C 
BRANCH  15  16
ATOM     16  C   UNL     1     167.296 153.156 164.206  1.00  0.00     0.000 C 
BRANCH  16  17
ATOM     17  C   UNL     1     166.747 151.718 164.253  1.00  0.00    -0.000 C 
BRANCH  17  18
ATOM     18  C   UNL     1     165.621 151.489 165.278  1.00  0.00    -0.000 C 
BRANCH  18  19
ATOM     19  C   UNL     1     165.219 150.013 165.407  1.00  0.00    -0.003 C 
ATOM     20  C   UNL     1     163.719 149.831 165.199  1.00  0.00     0.004 C 
ENDBRANCH  18  19
ENDBRANCH  17  18
ENDBRANCH  16  17
ENDBRANCH  15  16
ENDBRANCH  14  15
ENDBRANCH  13  14
ENDBRANCH   2  13
TORSDOF 15
ENDMDL
