MODEL 1
REMARK VINA RESULT:    -4.195      0.000      0.000
REMARK INTER + INTRA:          -5.590
REMARK INTER:                  -5.421
REMARK INTRA:                  -0.169
REMARK UNBOUND:                -0.169
REMARK SMILES CCCCCCC(=O)[O-]
REMARK SMILES IDX 5 1 6 2 7 3 8 4 9 5 4 6 3 7 2 8 1 9
REMARK H PARENT
REMARK Flexibility Score: inf
ROOT
ATOM      1  C   UNL     1      13.804  -3.412  16.584  1.00  0.00     0.006 C 
ENDROOT
BRANCH   1   2
ATOM      2  C   UNL     1      13.922  -3.210  15.068  1.00  0.00     0.053 C 
BRANCH   2   3
ATOM      3  C   UNL     1      12.709  -2.539  14.499  1.00  0.00     0.041 C 
ATOM      4  O   UNL     1      12.835  -1.592  13.679  1.00  0.00    -0.550 OA
ATOM      5  O   UNL     1      11.440  -2.980  14.852  1.00  0.00    -0.550 OA
ENDBRANCH   2   3
ENDBRANCH   1   2
BRANCH   1   6
ATOM      6  C   UNL     1      15.098  -3.028  17.322  1.00  0.00     0.000 C 
BRANCH   6   7
ATOM      7  C   UNL     1      16.328  -3.035  16.401  1.00  0.00    -0.000 C 
BRANCH   7   8
ATOM      8  C   UNL     1      17.571  -3.630  17.078  1.00  0.00    -0.003 C 
ATOM      9  C   UNL     1      17.774  -3.040  18.471  1.00  0.00     0.004 C 
ENDBRANCH   7   8
ENDBRANCH   6   7
ENDBRANCH   1   6
TORSDOF 5
ENDMDL
MODEL 2
REMARK VINA RESULT:    -4.175     14.219     15.353
REMARK INTER + INTRA:          -5.564
REMARK INTER:                  -5.426
REMARK INTRA:                  -0.138
REMARK UNBOUND:                -0.169
REMARK SMILES CCCCCCC(=O)[O-]
REMARK SMILES IDX 5 1 6 2 7 3 8 4 9 5 4 6 3 7 2 8 1 9
REMARK H PARENT
REMARK Flexibility Score: inf
ROOT
ATOM      1  C   UNL     1      21.812 -14.543  13.228  1.00  0.00     0.006 C 
ENDROOT
BRANCH   1   2
ATOM      2  C   UNL     1      22.474 -15.661  14.044  1.00  0.00     0.053 C 
BRANCH   2   3
ATOM      3  C   UNL     1      23.795 -15.232  14.606  1.00  0.00     0.041 C 
ATOM      4  O   UNL     1      24.267 -15.804  15.625  1.00  0.00    -0.550 OA
ATOM      5  O   UNL     1      24.520 -14.222  13.987  1.00  0.00    -0.550 OA
ENDBRANCH   2   3
ENDBRANCH   1   2
BRANCH   1   6
ATOM      6  C   UNL     1      21.124 -15.081  11.961  1.00  0.00     0.000 C 
BRANCH   6   7
ATOM      7  C   UNL     1      19.822 -14.332  11.633  1.00  0.00    -0.000 C 
BRANCH   7   8
ATOM      8  C   UNL     1      19.492 -14.349  10.133  1.00  0.00    -0.003 C 
ATOM      9  C   UNL     1      20.616 -14.998   9.331  1.00  0.00     0.004 C 
ENDBRANCH   7   8
ENDBRANCH   6   7
ENDBRANCH   1   6
TORSDOF 5
ENDMDL
MODEL 3
REMARK VINA RESULT:    -4.157      5.230      5.754
REMARK INTER + INTRA:          -5.542
REMARK INTER:                  -5.389
REMARK INTRA:                  -0.152
REMARK UNBOUND:                -0.169
REMARK SMILES CCCCCCC(=O)[O-]
REMARK SMILES IDX 5 1 6 2 7 3 8 4 9 5 4 6 3 7 2 8 1 9
REMARK H PARENT
REMARK Flexibility Score: inf
ROOT
ATOM      1  C   UNL     1      16.432  -5.662  10.316  1.00  0.00     0.006 C 
ENDROOT
BRANCH   1   2
ATOM      2  C   UNL     1      15.199  -4.997  10.942  1.00  0.00     0.053 C 
BRANCH   2   3
ATOM      3  C   UNL     1      13.965  -5.229  10.124  1.00  0.00     0.041 C 
ATOM      4  O   UNL     1      12.884  -4.660  10.432  1.00  0.00    -0.550 OA
ATOM      5  O   UNL     1      14.017  -6.048   9.005  1.00  0.00    -0.550 OA
ENDBRANCH   2   3
ENDBRANCH   1   2
BRANCH   1   6
ATOM      6  C   UNL     1      17.494  -6.022  11.369  1.00  0.00     0.000 C 
BRANCH   6   7
ATOM      7  C   UNL     1      17.654  -4.934  12.443  1.00  0.00    -0.000 C 
BRANCH   7   8
ATOM      8  C   UNL     1      19.104  -4.448  12.581  1.00  0.00    -0.003 C 
ATOM      9  C   UNL     1      19.153  -2.970  12.959  1.00  0.00     0.004 C 
ENDBRANCH   7   8
ENDBRANCH   6   7
ENDBRANCH   1   6
TORSDOF 5
ENDMDL
MODEL 4
REMARK VINA RESULT:    -4.155     10.096     11.512
REMARK INTER + INTRA:          -5.538
REMARK INTER:                  -5.402
REMARK INTRA:                  -0.136
REMARK UNBOUND:                -0.169
REMARK SMILES CCCCCCC(=O)[O-]
REMARK SMILES IDX 5 1 6 2 7 3 8 4 9 5 4 6 3 7 2 8 1 9
REMARK H PARENT
REMARK Flexibility Score: inf
ROOT
ATOM      1  C   UNL     1       7.502  -9.721  21.546  1.00  0.00     0.006 C 
ENDROOT
BRANCH   1   2
ATOM      2  C   UNL     1       9.002  -9.831  21.846  1.00  0.00     0.053 C 
BRANCH   2   3
ATOM      3  C   UNL     1       9.475  -8.725  22.738  1.00  0.00     0.041 C 
ATOM      4  O   UNL     1      10.645  -8.273  22.623  1.00  0.00    -0.550 OA
ATOM      5  O   UNL     1       8.614  -8.172  23.677  1.00  0.00    -0.550 OA
ENDBRANCH   2   3
ENDBRANCH   1   2
BRANCH   1   6
ATOM      6  C   UNL     1       6.887 -11.075  21.155  1.00  0.00     0.000 C 
BRANCH   6   7
ATOM      7  C   UNL     1       6.748 -11.245  19.634  1.00  0.00    -0.000 C 
BRANCH   7   8
ATOM      8  C   UNL     1       6.729  -9.903  18.888  1.00  0.00    -0.003 C 
ATOM      9  C   UNL     1       8.037  -9.675  18.135  1.00  0.00     0.004 C 
ENDBRANCH   7   8
ENDBRANCH   6   7
ENDBRANCH   1   6
TORSDOF 5
ENDMDL
MODEL 5
REMARK VINA RESULT:    -4.147     13.629     14.352
REMARK INTER + INTRA:          -5.529
REMARK INTER:                  -5.378
REMARK INTRA:                  -0.151
REMARK UNBOUND:                -0.169
REMARK SMILES CCCCCCC(=O)[O-]
REMARK SMILES IDX 5 1 6 2 7 3 8 4 9 5 4 6 3 7 2 8 1 9
REMARK H PARENT
REMARK Flexibility Score: inf
ROOT
ATOM      1  C   UNL     1      21.820 -15.124  11.663  1.00  0.00     0.006 C 
ENDROOT
BRANCH   1   2
ATOM      2  C   UNL     1      20.337 -14.741  11.565  1.00  0.00     0.053 C 
BRANCH   2   3
ATOM      3  C   UNL     1      19.905 -14.550  10.143  1.00  0.00     0.041 C 
ATOM      4  O   UNL     1      20.564 -15.070   9.204  1.00  0.00    -0.550 OA
ATOM      5  O   UNL     1      18.756 -13.824   9.858  1.00  0.00    -0.550 OA
ENDBRANCH   2   3
ENDBRANCH   1   2
BRANCH   1   6
ATOM      6  C   UNL     1      22.215 -15.552  13.087  1.00  0.00     0.000 C 
BRANCH   6   7
ATOM      7  C   UNL     1      22.378 -14.356  14.039  1.00  0.00    -0.000 C 
BRANCH   7   8
ATOM      8  C   UNL     1      23.844 -14.089  14.409  1.00  0.00    -0.003 C 
ATOM      9  C   UNL     1      24.753 -15.198  13.886  1.00  0.00     0.004 C 
ENDBRANCH   7   8
ENDBRANCH   6   7
ENDBRANCH   1   6
TORSDOF 5
ENDMDL
MODEL 6
REMARK VINA RESULT:    -4.070      3.063      3.312
REMARK INTER + INTRA:          -5.429
REMARK INTER:                  -5.152
REMARK INTRA:                  -0.278
REMARK UNBOUND:                -0.169
REMARK SMILES CCCCCCC(=O)[O-]
REMARK SMILES IDX 5 1 6 2 7 3 8 4 9 5 4 6 3 7 2 8 1 9
REMARK H PARENT
REMARK Flexibility Score: inf
ROOT
ATOM      1  C   UNL     1      15.079  -3.545  15.485  1.00  0.00     0.006 C 
ENDROOT
BRANCH   1   2
ATOM      2  C   UNL     1      14.643  -4.912  14.943  1.00  0.00     0.053 C 
BRANCH   2   3
ATOM      3  C   UNL     1      15.427  -6.031  15.559  1.00  0.00     0.041 C 
ATOM      4  O   UNL     1      16.673  -5.925  15.709  1.00  0.00    -0.550 OA
ATOM      5  O   UNL     1      14.776  -7.178  15.994  1.00  0.00    -0.550 OA
ENDBRANCH   2   3
ENDBRANCH   1   2
BRANCH   1   6
ATOM      6  C   UNL     1      14.575  -3.302  16.918  1.00  0.00     0.000 C 
BRANCH   6   7
ATOM      7  C   UNL     1      15.616  -2.592  17.799  1.00  0.00    -0.000 C 
BRANCH   7   8
ATOM      8  C   UNL     1      17.058  -2.980  17.441  1.00  0.00    -0.003 C 
ATOM      9  C   UNL     1      17.923  -3.092  18.693  1.00  0.00     0.004 C 
ENDBRANCH   7   8
ENDBRANCH   6   7
ENDBRANCH   1   6
TORSDOF 5
ENDMDL
MODEL 7
REMARK VINA RESULT:    -4.022      3.437      5.097
REMARK INTER + INTRA:          -5.367
REMARK INTER:                  -5.181
REMARK INTRA:                  -0.186
REMARK UNBOUND:                -0.169
REMARK SMILES CCCCCCC(=O)[O-]
REMARK SMILES IDX 5 1 6 2 7 3 8 4 9 5 4 6 3 7 2 8 1 9
REMARK H PARENT
REMARK Flexibility Score: inf
ROOT
ATOM      1  C   UNL     1      15.247  -2.956  17.359  1.00  0.00     0.006 C 
ENDROOT
BRANCH   1   2
ATOM      2  C   UNL     1      16.553  -3.329  16.645  1.00  0.00     0.053 C 
BRANCH   2   3
ATOM      3  C   UNL     1      17.753  -3.046  17.496  1.00  0.00     0.041 C 
ATOM      4  O   UNL     1      18.901  -3.004  16.979  1.00  0.00    -0.550 OA
ATOM      5  O   UNL     1      17.601  -2.798  18.854  1.00  0.00    -0.550 OA
ENDBRANCH   2   3
ENDBRANCH   1   2
BRANCH   1   6
ATOM      6  C   UNL     1      14.008  -3.480  16.613  1.00  0.00     0.000 C 
BRANCH   6   7
ATOM      7  C   UNL     1      14.264  -3.683  15.111  1.00  0.00    -0.000 C 
BRANCH   7   8
ATOM      8  C   UNL     1      13.323  -2.847  14.231  1.00  0.00    -0.003 C 
ATOM      9  C   UNL     1      11.899  -2.863  14.782  1.00  0.00     0.004 C 
ENDBRANCH   7   8
ENDBRANCH   6   7
ENDBRANCH   1   6
TORSDOF 5
ENDMDL
MODEL 8
REMARK VINA RESULT:    -4.006      2.313      2.757
REMARK INTER + INTRA:          -5.346
REMARK INTER:                  -5.087
REMARK INTRA:                  -0.259
REMARK UNBOUND:                -0.169
REMARK SMILES CCCCCCC(=O)[O-]
REMARK SMILES IDX 5 1 6 2 7 3 8 4 9 5 4 6 3 7 2 8 1 9
REMARK H PARENT
REMARK Flexibility Score: inf
ROOT
ATOM      1  C   UNL     1      15.046  -4.515  15.981  1.00  0.00     0.006 C 
ENDROOT
BRANCH   1   2
ATOM      2  C   UNL     1      14.602  -4.461  14.514  1.00  0.00     0.053 C 
BRANCH   2   3
ATOM      3  C   UNL     1      15.712  -4.015  13.612  1.00  0.00     0.041 C 
ATOM      4  O   UNL     1      16.338  -4.856  12.913  1.00  0.00    -0.550 OA
ATOM      5  O   UNL     1      16.037  -2.668  13.521  1.00  0.00    -0.550 OA
ENDBRANCH   2   3
ENDBRANCH   1   2
BRANCH   1   6
ATOM      6  C   UNL     1      14.421  -3.385  16.818  1.00  0.00     0.000 C 
BRANCH   6   7
ATOM      7  C   UNL     1      15.441  -2.699  17.740  1.00  0.00    -0.000 C 
BRANCH   7   8
ATOM      8  C   UNL     1      16.893  -3.032  17.369  1.00  0.00    -0.003 C 
ATOM      9  C   UNL     1      17.781  -3.074  18.610  1.00  0.00     0.004 C 
ENDBRANCH   7   8
ENDBRANCH   6   7
ENDBRANCH   1   6
TORSDOF 5
ENDMDL
MODEL 9
REMARK VINA RESULT:    -3.973      5.339      7.009
REMARK INTER + INTRA:          -5.304
REMARK INTER:                  -5.088
REMARK INTRA:                  -0.216
REMARK UNBOUND:                -0.169
REMARK SMILES CCCCCCC(=O)[O-]
REMARK SMILES IDX 5 1 6 2 7 3 8 4 9 5 4 6 3 7 2 8 1 9
REMARK H PARENT
REMARK Flexibility Score: inf
ROOT
ATOM      1  C   UNL     1      17.493  -5.771  11.373  1.00  0.00     0.006 C 
ENDROOT
BRANCH   1   2
ATOM      2  C   UNL     1      17.171  -5.482  12.845  1.00  0.00     0.053 C 
BRANCH   2   3
ATOM      3  C   UNL     1      17.949  -4.313  13.367  1.00  0.00     0.041 C 
ATOM      4  O   UNL     1      18.836  -3.772  12.654  1.00  0.00    -0.550 OA
ATOM      5  O   UNL     1      17.673  -3.800  14.627  1.00  0.00    -0.550 OA
ENDBRANCH   2   3
ENDBRANCH   1   2
BRANCH   1   6
ATOM      6  C   UNL     1      16.257  -5.624  10.470  1.00  0.00     0.000 C 
BRANCH   6   7
ATOM      7  C   UNL     1      14.986  -5.270  11.259  1.00  0.00    -0.000 C 
BRANCH   7   8
ATOM      8  C   UNL     1      13.747  -5.145  10.361  1.00  0.00    -0.003 C 
ATOM      9  C   UNL     1      13.897  -5.989   9.098  1.00  0.00     0.004 C 
ENDBRANCH   7   8
ENDBRANCH   6   7
ENDBRANCH   1   6
TORSDOF 5
ENDMDL
