MODEL 1
REMARK VINA RESULT:     3.402      0.000      0.000
REMARK INTER + INTRA:           4.613
REMARK INTER:                   4.098
REMARK INTRA:                   0.515
REMARK UNBOUND:                 0.515
REMARK SMILES O=c1c(O)c(-c2ccc(O)cc2O)oc2cc(O)cc(O)c12
REMARK SMILES IDX 5 1 3 2 2 3 1 4 22 5 20 6 19 7 17 8 16 9 15 10 14 11 6 12
REMARK SMILES IDX 8 13 7 14 9 15 11 16 12 17 10 18 13 20 4 22 21 24 18 26
REMARK H PARENT 10 19 13 21 4 23 21 25 18 27
REMARK Flexibility Score: inf
ROOT
ATOM      1  C   UNL     1     -18.622   9.076  25.912  1.00  0.00     0.184 A 
ATOM      2  C   UNL     1     -17.752   8.360  26.755  1.00  0.00     0.208 A 
ATOM      3  C   UNL     1     -18.133   8.128  28.086  1.00  0.00     0.238 A 
ATOM      4  O   UNL     1     -17.358   7.496  28.853  1.00  0.00    -0.285 OA
ATOM      5  C   UNL     1     -19.381   8.600  28.545  1.00  0.00     0.111 A 
ATOM      6  C   UNL     1     -19.843   8.406  29.869  1.00  0.00     0.134 A 
ATOM      7  C   UNL     1     -21.100   8.900  30.246  1.00  0.00     0.093 A 
ATOM      8  C   UNL     1     -21.904   9.583  29.326  1.00  0.00     0.123 A 
ATOM      9  C   UNL     1     -21.452   9.777  28.019  1.00  0.00     0.094 A 
ATOM     10  C   UNL     1     -20.201   9.294  27.623  1.00  0.00     0.146 A 
ATOM     11  O   UNL     1     -19.795   9.497  26.376  1.00  0.00    -0.451 OA
ENDROOT
BRANCH   1  12
ATOM     12  C   UNL     1     -18.275   9.372  24.503  1.00  0.00     0.063 A 
ATOM     13  C   UNL     1     -18.866   9.378  22.141  1.00  0.00     0.047 A 
ATOM     14  C   UNL     1     -19.203   9.126  23.473  1.00  0.00     0.020 A 
ATOM     15  C   UNL     1     -17.597   9.868  21.817  1.00  0.00     0.119 A 
ATOM     16  C   UNL     1     -16.664  10.102  22.831  1.00  0.00     0.093 A 
ATOM     17  C   UNL     1     -16.993   9.854  24.171  1.00  0.00     0.130 A 
BRANCH  15  18
ATOM     18  O   UNL     1     -17.251  10.123  20.491  1.00  0.00    -0.508 OA
ATOM     19  H   UNL     1     -16.286  10.103  20.183  1.00  0.00     0.293 HD
ENDBRANCH  15  18
BRANCH  17  20
ATOM     20  O   UNL     1     -16.053  10.097  25.173  1.00  0.00    -0.507 OA
ATOM     21  H   UNL     1     -15.346  10.815  25.075  1.00  0.00     0.293 HD
ENDBRANCH  17  20
ENDBRANCH   1  12
BRANCH   2  22
ATOM     22  O   UNL     1     -16.539   7.870  26.263  1.00  0.00    -0.502 OA
ATOM     23  H   UNL     1     -15.969   7.213  26.782  1.00  0.00     0.293 HD
ENDBRANCH   2  22
BRANCH   6  24
ATOM     24  O   UNL     1     -19.065   7.729  30.808  1.00  0.00    -0.507 OA
ATOM     25  H   UNL     1     -18.870   8.122  31.721  1.00  0.00     0.293 HD
ENDBRANCH   6  24
BRANCH   8  26
ATOM     26  O   UNL     1     -23.153  10.073  29.700  1.00  0.00    -0.508 OA
ATOM     27  H   UNL     1     -23.607  10.817  29.183  1.00  0.00     0.293 HD
ENDBRANCH   8  26
TORSDOF 6
ENDMDL
MODEL 2
REMARK VINA RESULT:     4.210      1.407      1.951
REMARK INTER + INTRA:           5.586
REMARK INTER:                   5.088
REMARK INTRA:                   0.498
REMARK UNBOUND:                 0.515
REMARK SMILES O=c1c(O)c(-c2ccc(O)cc2O)oc2cc(O)cc(O)c12
REMARK SMILES IDX 5 1 3 2 2 3 1 4 22 5 20 6 19 7 17 8 16 9 15 10 14 11 6 12
REMARK SMILES IDX 8 13 7 14 9 15 11 16 12 17 10 18 13 20 4 22 21 24 18 26
REMARK H PARENT 10 19 13 21 4 23 21 25 18 27
REMARK Flexibility Score: inf
ROOT
ATOM      1  C   UNL     1     -18.487   8.747  26.757  1.00  0.00     0.184 A 
ATOM      2  C   UNL     1     -18.086   7.861  27.775  1.00  0.00     0.208 A 
ATOM      3  C   UNL     1     -18.968   7.599  28.835  1.00  0.00     0.238 A 
ATOM      4  O   UNL     1     -18.616   6.814  29.756  1.00  0.00    -0.285 OA
ATOM      5  C   UNL     1     -20.239   8.212  28.850  1.00  0.00     0.111 A 
ATOM      6  C   UNL     1     -21.189   7.999  29.878  1.00  0.00     0.134 A 
ATOM      7  C   UNL     1     -22.434   8.640  29.817  1.00  0.00     0.093 A 
ATOM      8  C   UNL     1     -22.749   9.489  28.750  1.00  0.00     0.123 A 
ATOM      9  C   UNL     1     -21.815   9.702  27.734  1.00  0.00     0.094 A 
ATOM     10  C   UNL     1     -20.567   9.073  27.776  1.00  0.00     0.146 A 
ATOM     11  O   UNL     1     -19.697   9.298  26.799  1.00  0.00    -0.451 OA
ENDROOT
BRANCH   1  12
ATOM     12  C   UNL     1     -17.600   9.082  25.620  1.00  0.00     0.063 A 
ATOM     13  C   UNL     1     -15.385   9.112  24.609  1.00  0.00     0.047 A 
ATOM     14  C   UNL     1     -16.228   8.771  25.669  1.00  0.00     0.020 A 
ATOM     15  C   UNL     1     -15.897   9.778  23.490  1.00  0.00     0.119 A 
ATOM     16  C   UNL     1     -17.255  10.104  23.437  1.00  0.00     0.093 A 
ATOM     17  C   UNL     1     -18.109   9.763  24.496  1.00  0.00     0.130 A 
BRANCH  15  18
ATOM     18  O   UNL     1     -15.065  10.123  22.427  1.00  0.00    -0.508 OA
ATOM     19  H   UNL     1     -15.381  10.735  21.684  1.00  0.00     0.293 HD
ENDBRANCH  15  18
BRANCH  17  20
ATOM     20  O   UNL     1     -19.464  10.090  24.427  1.00  0.00    -0.507 OA
ATOM     21  H   UNL     1     -19.892  10.401  23.564  1.00  0.00     0.293 HD
ENDBRANCH  17  20
ENDBRANCH   1  12
BRANCH   2  22
ATOM     22  O   UNL     1     -16.837   7.237  27.713  1.00  0.00    -0.502 OA
ATOM     23  H   UNL     1     -15.981   7.710  27.977  1.00  0.00     0.293 HD
ENDBRANCH   2  22
BRANCH   6  24
ATOM     24  O   UNL     1     -20.905   7.158  30.954  1.00  0.00    -0.507 OA
ATOM     25  H   UNL     1     -20.466   7.504  31.800  1.00  0.00     0.293 HD
ENDBRANCH   6  24
BRANCH   8  26
ATOM     26  O   UNL     1     -23.986  10.125  28.689  1.00  0.00    -0.508 OA
ATOM     27  H   UNL     1     -24.066  11.135  28.727  1.00  0.00     0.293 HD
ENDBRANCH   8  26
TORSDOF 6
ENDMDL
MODEL 3
REMARK VINA RESULT:     4.744      1.931      2.614
REMARK INTER + INTRA:           6.229
REMARK INTER:                   6.663
REMARK INTRA:                  -0.434
REMARK UNBOUND:                 0.515
REMARK SMILES O=c1c(O)c(-c2ccc(O)cc2O)oc2cc(O)cc(O)c12
REMARK SMILES IDX 5 1 3 2 2 3 1 4 22 5 20 6 19 7 17 8 16 9 15 10 14 11 6 12
REMARK SMILES IDX 8 13 7 14 9 15 11 16 12 17 10 18 13 20 4 22 21 24 18 26
REMARK H PARENT 10 19 13 21 4 23 21 25 18 27
REMARK Flexibility Score: inf
ROOT
ATOM      1  C   UNL     1     -18.205   8.671  26.059  1.00  0.00     0.184 A 
ATOM      2  C   UNL     1     -19.265   7.800  25.746  1.00  0.00     0.208 A 
ATOM      3  C   UNL     1     -20.237   7.533  26.723  1.00  0.00     0.238 A 
ATOM      4  O   UNL     1     -21.186   6.748  26.457  1.00  0.00    -0.285 OA
ATOM      5  C   UNL     1     -20.141   8.153  27.987  1.00  0.00     0.111 A 
ATOM      6  C   UNL     1     -21.079   7.941  29.026  1.00  0.00     0.134 A 
ATOM      7  C   UNL     1     -20.918   8.601  30.253  1.00  0.00     0.093 A 
ATOM      8  C   UNL     1     -19.839   9.468  30.461  1.00  0.00     0.123 A 
ATOM      9  C   UNL     1     -18.911   9.678  29.439  1.00  0.00     0.094 A 
ATOM     10  C   UNL     1     -19.052   9.030  28.209  1.00  0.00     0.146 A 
ATOM     11  O   UNL     1     -18.153   9.246  27.257  1.00  0.00    -0.451 OA
ENDROOT
BRANCH   1  12
ATOM     12  C   UNL     1     -17.137   8.983  25.082  1.00  0.00     0.063 A 
ATOM     13  C   UNL     1     -16.388  10.123  23.065  1.00  0.00     0.047 A 
ATOM     14  C   UNL     1     -17.387   9.852  24.003  1.00  0.00     0.020 A 
ATOM     15  C   UNL     1     -15.130   9.525  23.184  1.00  0.00     0.119 A 
ATOM     16  C   UNL     1     -14.875   8.649  24.244  1.00  0.00     0.093 A 
ATOM     17  C   UNL     1     -15.872   8.372  25.191  1.00  0.00     0.130 A 
BRANCH  15  18
ATOM     18  O   UNL     1     -14.126   9.789  22.254  1.00  0.00    -0.508 OA
ATOM     19  H   UNL     1     -13.302  10.323  22.502  1.00  0.00     0.293 HD
ENDBRANCH  15  18
BRANCH  17  20
ATOM     20  O   UNL     1     -15.601   7.501  26.247  1.00  0.00    -0.507 OA
ATOM     21  H   UNL     1     -16.282   6.820  26.562  1.00  0.00     0.293 HD
ENDBRANCH  17  20
ENDBRANCH   1  12
BRANCH   2  22
ATOM     22  O   UNL     1     -19.357   7.232  24.472  1.00  0.00    -0.502 OA
ATOM     23  H   UNL     1     -18.549   6.867  23.982  1.00  0.00     0.293 HD
ENDBRANCH   2  22
BRANCH   6  24
ATOM     24  O   UNL     1     -22.166   7.085  28.849  1.00  0.00    -0.507 OA
ATOM     25  H   UNL     1     -23.108   7.437  28.726  1.00  0.00     0.293 HD
ENDBRANCH   6  24
BRANCH   8  26
ATOM     26  O   UNL     1     -19.679  10.124  31.679  1.00  0.00    -0.508 OA
ATOM     27  H   UNL     1     -19.933   9.683  32.556  1.00  0.00     0.293 HD
ENDBRANCH   8  26
TORSDOF 6
ENDMDL
MODEL 4
REMARK VINA RESULT:     4.899      2.041      2.967
REMARK INTER + INTRA:           6.417
REMARK INTER:                   6.786
REMARK INTRA:                  -0.369
REMARK UNBOUND:                 0.515
REMARK SMILES O=c1c(O)c(-c2ccc(O)cc2O)oc2cc(O)cc(O)c12
REMARK SMILES IDX 5 1 3 2 2 3 1 4 22 5 20 6 19 7 17 8 16 9 15 10 14 11 6 12
REMARK SMILES IDX 8 13 7 14 9 15 11 16 12 17 10 18 13 20 4 22 21 24 18 26
REMARK H PARENT 10 19 13 21 4 23 21 25 18 27
REMARK Flexibility Score: inf
ROOT
ATOM      1  C   UNL     1     -19.089   9.238  27.662  1.00  0.00     0.184 A 
ATOM      2  C   UNL     1     -18.775   9.263  29.034  1.00  0.00     0.208 A 
ATOM      3  C   UNL     1     -19.805   9.481  29.962  1.00  0.00     0.238 A 
ATOM      4  O   UNL     1     -19.535   9.514  31.193  1.00  0.00    -0.285 OA
ATOM      5  C   UNL     1     -21.129   9.654  29.506  1.00  0.00     0.111 A 
ATOM      6  C   UNL     1     -22.225   9.875  30.375  1.00  0.00     0.134 A 
ATOM      7  C   UNL     1     -23.513  10.030  29.843  1.00  0.00     0.093 A 
ATOM      8  C   UNL     1     -23.727   9.968  28.461  1.00  0.00     0.123 A 
ATOM      9  C   UNL     1     -22.649   9.752  27.601  1.00  0.00     0.094 A 
ATOM     10  C   UNL     1     -21.356   9.595  28.110  1.00  0.00     0.146 A 
ATOM     11  O   UNL     1     -20.350   9.394  27.268  1.00  0.00    -0.451 OA
ENDROOT
BRANCH   1  12
ATOM     12  C   UNL     1     -18.050   9.030  26.627  1.00  0.00     0.063 A 
ATOM     13  C   UNL     1     -16.560   9.927  24.923  1.00  0.00     0.047 A 
ATOM     14  C   UNL     1     -17.520  10.125  25.919  1.00  0.00     0.020 A 
ATOM     15  C   UNL     1     -16.124   8.635  24.614  1.00  0.00     0.119 A 
ATOM     16  C   UNL     1     -16.654   7.540  25.302  1.00  0.00     0.093 A 
ATOM     17  C   UNL     1     -17.617   7.729  26.304  1.00  0.00     0.130 A 
BRANCH  15  18
ATOM     18  O   UNL     1     -15.167   8.426  23.622  1.00  0.00    -0.508 OA
ATOM     19  H   UNL     1     -15.317   7.760  22.874  1.00  0.00     0.293 HD
ENDBRANCH  15  18
BRANCH  17  20
ATOM     20  O   UNL     1     -18.132   6.627  26.987  1.00  0.00    -0.507 OA
ATOM     21  H   UNL     1     -17.528   5.926  27.399  1.00  0.00     0.293 HD
ENDBRANCH  17  20
ENDBRANCH   1  12
BRANCH   2  22
ATOM     22  O   UNL     1     -17.461   9.048  29.459  1.00  0.00    -0.502 OA
ATOM     23  H   UNL     1     -17.244   8.596  30.339  1.00  0.00     0.293 HD
ENDBRANCH   2  22
BRANCH   6  24
ATOM     24  O   UNL     1     -22.043   9.941  31.756  1.00  0.00    -0.507 OA
ATOM     25  H   UNL     1     -22.790   9.719  32.403  1.00  0.00     0.293 HD
ENDBRANCH   6  24
BRANCH   8  26
ATOM     26  O   UNL     1     -25.006  10.122  27.933  1.00  0.00    -0.508 OA
ATOM     27  H   UNL     1     -25.575   9.321  27.682  1.00  0.00     0.293 HD
ENDBRANCH   8  26
TORSDOF 6
ENDMDL
MODEL 5
REMARK VINA RESULT:     4.983      2.008      2.775
REMARK INTER + INTRA:           6.518
REMARK INTER:                   6.744
REMARK INTRA:                  -0.226
REMARK UNBOUND:                 0.515
REMARK SMILES O=c1c(O)c(-c2ccc(O)cc2O)oc2cc(O)cc(O)c12
REMARK SMILES IDX 5 1 3 2 2 3 1 4 22 5 20 6 19 7 17 8 16 9 15 10 14 11 6 12
REMARK SMILES IDX 8 13 7 14 9 15 11 16 12 17 10 18 13 20 4 22 21 24 18 26
REMARK H PARENT 10 19 13 21 4 23 21 25 18 27
REMARK Flexibility Score: inf
ROOT
ATOM      1  C   UNL     1     -18.177   8.730  26.116  1.00  0.00     0.184 A 
ATOM      2  C   UNL     1     -19.231   7.864  25.772  1.00  0.00     0.208 A 
ATOM      3  C   UNL     1     -20.223   7.588  26.727  1.00  0.00     0.238 A 
ATOM      4  O   UNL     1     -21.167   6.807  26.432  1.00  0.00    -0.285 OA
ATOM      5  C   UNL     1     -20.152   8.195  27.998  1.00  0.00     0.111 A 
ATOM      6  C   UNL     1     -21.112   7.973  29.016  1.00  0.00     0.134 A 
ATOM      7  C   UNL     1     -20.975   8.620  30.252  1.00  0.00     0.093 A 
ATOM      8  C   UNL     1     -19.899   9.482  30.492  1.00  0.00     0.123 A 
ATOM      9  C   UNL     1     -18.950   9.702  29.492  1.00  0.00     0.094 A 
ATOM     10  C   UNL     1     -19.067   9.067  28.252  1.00  0.00     0.146 A 
ATOM     11  O   UNL     1     -18.148   9.292  27.321  1.00  0.00    -0.451 OA
ENDROOT
BRANCH   1  12
ATOM     12  C   UNL     1     -17.088   9.050  25.164  1.00  0.00     0.063 A 
ATOM     13  C   UNL     1     -14.725   9.028  24.576  1.00  0.00     0.047 A 
ATOM     14  C   UNL     1     -15.756   8.701  25.460  1.00  0.00     0.020 A 
ATOM     15  C   UNL     1     -15.006   9.716  23.391  1.00  0.00     0.119 A 
ATOM     16  C   UNL     1     -16.323  10.080  23.095  1.00  0.00     0.093 A 
ATOM     17  C   UNL     1     -17.365   9.754  23.975  1.00  0.00     0.130 A 
BRANCH  15  18
ATOM     18  O   UNL     1     -13.985  10.047  22.502  1.00  0.00    -0.508 OA
ATOM     19  H   UNL     1     -14.098  10.786  21.818  1.00  0.00     0.293 HD
ENDBRANCH  15  18
BRANCH  17  20
ATOM     20  O   UNL     1     -18.676  10.118  23.664  1.00  0.00    -0.507 OA
ATOM     21  H   UNL     1     -19.439   9.959  24.310  1.00  0.00     0.293 HD
ENDBRANCH  17  20
ENDBRANCH   1  12
BRANCH   2  22
ATOM     22  O   UNL     1     -19.297   7.309  24.491  1.00  0.00    -0.502 OA
ATOM     23  H   UNL     1     -18.567   6.714  24.119  1.00  0.00     0.293 HD
ENDBRANCH   2  22
BRANCH   6  24
ATOM     24  O   UNL     1     -22.195   7.120  28.807  1.00  0.00    -0.507 OA
ATOM     25  H   UNL     1     -22.168   6.146  29.084  1.00  0.00     0.293 HD
ENDBRANCH   6  24
BRANCH   8  26
ATOM     26  O   UNL     1     -19.763  10.125  31.720  1.00  0.00    -0.508 OA
ATOM     27  H   UNL     1     -20.342   9.877  32.515  1.00  0.00     0.293 HD
ENDBRANCH   8  26
TORSDOF 6
ENDMDL
