MODEL 1
REMARK VINA RESULT:    -5.306      0.000      0.000
REMARK INTER + INTRA:          -6.231
REMARK INTER:                  -6.081
REMARK INTRA:                  -0.150
REMARK UNBOUND:                -0.150
REMARK SMILES O=C([O-])C=Cc1ccc(O)cc1
REMARK SMILES IDX 6 1 7 2 12 3 8 4 11 5 9 6 5 7 4 8 2 9 1 10 3 11 10 12
REMARK H PARENT 10 13
REMARK Flexibility Score: inf
ROOT
ATOM      1  C   UNL     1      -1.384 -22.227  49.325  1.00  0.00    -0.025 A 
ATOM      2  C   UNL     1      -0.328 -21.803  48.493  1.00  0.00     0.012 A 
ATOM      3  C   UNL     1      -1.107 -22.531  50.669  1.00  0.00     0.012 A 
ATOM      4  C   UNL     1       0.974 -21.711  48.994  1.00  0.00     0.047 A 
ATOM      5  C   UNL     1       0.196 -22.439  51.166  1.00  0.00     0.047 A 
ATOM      6  C   UNL     1       1.241 -22.031  50.328  1.00  0.00     0.115 A 
ENDROOT
BRANCH   1   7
ATOM      7  C   UNL     1      -2.786 -22.331  48.849  1.00  0.00     0.010 C 
ATOM      8  C   UNL     1      -3.695 -23.157  49.385  1.00  0.00     0.025 C 
BRANCH   8   9
ATOM      9  C   UNL     1      -5.079 -23.219  48.888  1.00  0.00     0.064 C 
ATOM     10  O   UNL     1      -5.720 -22.152  48.702  1.00  0.00    -0.545 OA
ATOM     11  O   UNL     1      -5.692 -24.439  48.622  1.00  0.00    -0.545 OA
ENDBRANCH   8   9
ENDBRANCH   1   7
BRANCH   6  12
ATOM     12  O   UNL     1       2.544 -21.936  50.811  1.00  0.00    -0.508 OA
ATOM     13  H   UNL     1       2.846 -22.457  51.626  1.00  0.00     0.293 HD
ENDBRANCH   6  12
TORSDOF 3
ENDMDL
MODEL 2
REMARK VINA RESULT:    -5.228      3.122      4.323
REMARK INTER + INTRA:          -6.141
REMARK INTER:                  -5.998
REMARK INTRA:                  -0.144
REMARK UNBOUND:                -0.150
REMARK SMILES O=C([O-])C=Cc1ccc(O)cc1
REMARK SMILES IDX 6 1 7 2 12 3 8 4 11 5 9 6 5 7 4 8 2 9 1 10 3 11 10 12
REMARK H PARENT 10 13
REMARK Flexibility Score: inf
ROOT
ATOM      1  C   UNL     1      -4.545 -22.300  48.770  1.00  0.00    -0.025 A 
ATOM      2  C   UNL     1      -4.688 -23.697  48.895  1.00  0.00     0.012 A 
ATOM      3  C   UNL     1      -3.500 -21.662  49.461  1.00  0.00     0.012 A 
ATOM      4  C   UNL     1      -3.820 -24.428  49.712  1.00  0.00     0.047 A 
ATOM      5  C   UNL     1      -2.634 -22.396  50.277  1.00  0.00     0.047 A 
ATOM      6  C   UNL     1      -2.794 -23.781  50.407  1.00  0.00     0.115 A 
ENDROOT
BRANCH   1   7
ATOM      7  C   UNL     1      -5.431 -21.478  47.908  1.00  0.00     0.010 C 
ATOM      8  C   UNL     1      -4.988 -20.712  46.902  1.00  0.00     0.025 C 
BRANCH   8   9
ATOM      9  C   UNL     1      -5.904 -19.921  46.065  1.00  0.00     0.064 C 
ATOM     10  O   UNL     1      -7.112 -20.262  45.973  1.00  0.00    -0.545 OA
ATOM     11  O   UNL     1      -5.456 -18.803  45.370  1.00  0.00    -0.545 OA
ENDBRANCH   8   9
ENDBRANCH   1   7
BRANCH   6  12
ATOM     12  O   UNL     1      -1.938 -24.523  51.217  1.00  0.00    -0.508 OA
ATOM     13  H   UNL     1      -0.943 -24.336  51.247  1.00  0.00     0.293 HD
ENDBRANCH   6  12
TORSDOF 3
ENDMDL
MODEL 3
REMARK VINA RESULT:    -5.117     12.897     14.038
REMARK INTER + INTRA:          -6.014
REMARK INTER:                  -5.873
REMARK INTRA:                  -0.142
REMARK UNBOUND:                -0.150
REMARK SMILES O=C([O-])C=Cc1ccc(O)cc1
REMARK SMILES IDX 6 1 7 2 12 3 8 4 11 5 9 6 5 7 4 8 2 9 1 10 3 11 10 12
REMARK H PARENT 10 13
REMARK Flexibility Score: inf
ROOT
ATOM      1  C   UNL     1      -7.795 -11.270  52.687  1.00  0.00    -0.025 A 
ATOM      2  C   UNL     1      -6.758 -11.815  51.902  1.00  0.00     0.012 A 
ATOM      3  C   UNL     1      -9.081 -11.160  52.129  1.00  0.00     0.012 A 
ATOM      4  C   UNL     1      -7.003 -12.215  50.585  1.00  0.00     0.047 A 
ATOM      5  C   UNL     1      -9.322 -11.561  50.812  1.00  0.00     0.047 A 
ATOM      6  C   UNL     1      -8.282 -12.087  50.036  1.00  0.00     0.115 A 
ENDROOT
BRANCH   1   7
ATOM      7  C   UNL     1      -7.594 -10.840  54.093  1.00  0.00     0.010 C 
ATOM      8  C   UNL     1      -8.281 -11.338  55.130  1.00  0.00     0.025 C 
BRANCH   8   9
ATOM      9  C   UNL     1      -8.040 -10.890  56.510  1.00  0.00     0.064 C 
ATOM     10  O   UNL     1      -6.863 -10.849  56.953  1.00  0.00    -0.545 OA
ATOM     11  O   UNL     1      -9.094 -10.514  57.337  1.00  0.00    -0.545 OA
ENDBRANCH   8   9
ENDBRANCH   1   7
BRANCH   6  12
ATOM     12  O   UNL     1      -8.509 -12.490  48.721  1.00  0.00    -0.508 OA
ATOM     13  H   UNL     1      -8.157 -11.955  47.936  1.00  0.00     0.293 HD
ENDBRANCH   6  12
TORSDOF 3
ENDMDL
MODEL 4
REMARK VINA RESULT:    -5.097      2.468      5.716
REMARK INTER + INTRA:          -5.991
REMARK INTER:                  -5.841
REMARK INTRA:                  -0.151
REMARK UNBOUND:                -0.150
REMARK SMILES O=C([O-])C=Cc1ccc(O)cc1
REMARK SMILES IDX 6 1 7 2 12 3 8 4 11 5 9 6 5 7 4 8 2 9 1 10 3 11 10 12
REMARK H PARENT 10 13
REMARK Flexibility Score: inf
ROOT
ATOM      1  C   UNL     1      -3.538 -21.421  48.814  1.00  0.00    -0.025 A 
ATOM      2  C   UNL     1      -4.121 -21.604  47.543  1.00  0.00     0.012 A 
ATOM      3  C   UNL     1      -4.180 -20.581  49.740  1.00  0.00     0.012 A 
ATOM      4  C   UNL     1      -5.305 -20.940  47.206  1.00  0.00     0.047 A 
ATOM      5  C   UNL     1      -5.363 -19.919  49.399  1.00  0.00     0.047 A 
ATOM      6  C   UNL     1      -5.927 -20.095  48.129  1.00  0.00     0.115 A 
ENDROOT
BRANCH   1   7
ATOM      7  C   UNL     1      -2.289 -22.110  49.228  1.00  0.00     0.010 C 
ATOM      8  C   UNL     1      -1.859 -22.171  50.496  1.00  0.00     0.025 C 
BRANCH   8   9
ATOM      9  C   UNL     1      -0.620 -22.875  50.863  1.00  0.00     0.064 C 
ATOM     10  O   UNL     1       0.371 -22.216  51.272  1.00  0.00    -0.545 OA
ATOM     11  O   UNL     1      -0.524 -24.259  50.763  1.00  0.00    -0.545 OA
ENDBRANCH   8   9
ENDBRANCH   1   7
BRANCH   6  12
ATOM     12  O   UNL     1      -7.105 -19.440  47.777  1.00  0.00    -0.508 OA
ATOM     13  H   UNL     1      -7.942 -19.517  48.343  1.00  0.00     0.293 HD
ENDBRANCH   6  12
TORSDOF 3
ENDMDL
MODEL 5
REMARK VINA RESULT:    -5.064      8.350     10.780
REMARK INTER + INTRA:          -5.954
REMARK INTER:                  -5.809
REMARK INTRA:                  -0.144
REMARK UNBOUND:                -0.150
REMARK SMILES O=C([O-])C=Cc1ccc(O)cc1
REMARK SMILES IDX 6 1 7 2 12 3 8 4 11 5 9 6 5 7 4 8 2 9 1 10 3 11 10 12
REMARK H PARENT 10 13
REMARK Flexibility Score: inf
ROOT
ATOM      1  C   UNL     1       1.740 -17.935  56.615  1.00  0.00    -0.025 A 
ATOM      2  C   UNL     1       0.461 -18.193  57.150  1.00  0.00     0.012 A 
ATOM      3  C   UNL     1       2.525 -19.019  56.184  1.00  0.00     0.012 A 
ATOM      4  C   UNL     1      -0.005 -19.506  57.269  1.00  0.00     0.047 A 
ATOM      5  C   UNL     1       2.056 -20.330  56.306  1.00  0.00     0.047 A 
ATOM      6  C   UNL     1       0.790 -20.576  56.852  1.00  0.00     0.115 A 
ENDROOT
BRANCH   1   7
ATOM      7  C   UNL     1       2.278 -16.561  56.455  1.00  0.00     0.010 C 
ATOM      8  C   UNL     1       3.543 -16.220  56.739  1.00  0.00     0.025 C 
BRANCH   8   9
ATOM      9  C   UNL     1       4.037 -14.846  56.554  1.00  0.00     0.064 C 
ATOM     10  O   UNL     1       3.470 -13.895  57.151  1.00  0.00    -0.545 OA
ATOM     11  O   UNL     1       5.122 -14.580  55.724  1.00  0.00    -0.545 OA
ENDBRANCH   8   9
ENDBRANCH   1   7
BRANCH   6  12
ATOM     12  O   UNL     1       0.312 -21.879  56.979  1.00  0.00    -0.508 OA
ATOM     13  H   UNL     1       0.851 -22.674  56.656  1.00  0.00     0.293 HD
ENDBRANCH   6  12
TORSDOF 3
ENDMDL
MODEL 6
REMARK VINA RESULT:    -5.048      5.989      8.287
REMARK INTER + INTRA:          -5.935
REMARK INTER:                  -5.794
REMARK INTRA:                  -0.142
REMARK UNBOUND:                -0.150
REMARK SMILES O=C([O-])C=Cc1ccc(O)cc1
REMARK SMILES IDX 6 1 7 2 12 3 8 4 11 5 9 6 5 7 4 8 2 9 1 10 3 11 10 12
REMARK H PARENT 10 13
REMARK Flexibility Score: inf
ROOT
ATOM      1  C   UNL     1      -3.186 -27.443  45.276  1.00  0.00    -0.025 A 
ATOM      2  C   UNL     1      -2.899 -28.819  45.160  1.00  0.00     0.012 A 
ATOM      3  C   UNL     1      -4.440 -26.974  44.847  1.00  0.00     0.012 A 
ATOM      4  C   UNL     1      -3.839 -29.694  44.606  1.00  0.00     0.047 A 
ATOM      5  C   UNL     1      -5.377 -27.852  44.293  1.00  0.00     0.047 A 
ATOM      6  C   UNL     1      -5.077 -29.214  44.169  1.00  0.00     0.115 A 
ENDROOT
BRANCH   1   7
ATOM      7  C   UNL     1      -2.231 -26.473  45.866  1.00  0.00     0.010 C 
ATOM      8  C   UNL     1      -2.534 -25.654  46.883  1.00  0.00     0.025 C 
BRANCH   8   9
ATOM      9  C   UNL     1      -1.551 -24.715  47.445  1.00  0.00     0.064 C 
ATOM     10  O   UNL     1      -1.151 -24.869  48.628  1.00  0.00    -0.545 OA
ATOM     11  O   UNL     1      -1.057 -23.656  46.690  1.00  0.00    -0.545 OA
ENDBRANCH   8   9
ENDBRANCH   1   7
BRANCH   6  12
ATOM     12  O   UNL     1      -6.001 -30.099  43.618  1.00  0.00    -0.508 OA
ATOM     13  H   UNL     1      -5.819 -30.579  42.744  1.00  0.00     0.293 HD
ENDBRANCH   6  12
TORSDOF 3
ENDMDL
MODEL 7
REMARK VINA RESULT:    -5.003      2.839      3.397
REMARK INTER + INTRA:          -5.884
REMARK INTER:                  -5.733
REMARK INTRA:                  -0.152
REMARK UNBOUND:                -0.150
REMARK SMILES O=C([O-])C=Cc1ccc(O)cc1
REMARK SMILES IDX 6 1 7 2 12 3 8 4 11 5 9 6 5 7 4 8 2 9 1 10 3 11 10 12
REMARK H PARENT 10 13
REMARK Flexibility Score: inf
ROOT
ATOM      1  C   UNL     1      -1.231 -24.202  48.892  1.00  0.00    -0.025 A 
ATOM      2  C   UNL     1      -0.847 -24.439  50.228  1.00  0.00     0.012 A 
ATOM      3  C   UNL     1      -0.961 -22.945  48.323  1.00  0.00     0.012 A 
ATOM      4  C   UNL     1      -0.229 -23.432  50.977  1.00  0.00     0.047 A 
ATOM      5  C   UNL     1      -0.344 -21.941  49.075  1.00  0.00     0.047 A 
ATOM      6  C   UNL     1       0.021 -22.182  50.405  1.00  0.00     0.115 A 
ENDROOT
BRANCH   1   7
ATOM      7  C   UNL     1      -1.878 -25.238  48.049  1.00  0.00     0.010 C 
ATOM      8  C   UNL     1      -2.400 -24.994  46.839  1.00  0.00     0.025 C 
BRANCH   8   9
ATOM      9  C   UNL     1      -3.022 -26.055  46.032  1.00  0.00     0.064 C 
ATOM     10  O   UNL     1      -2.329 -27.033  45.650  1.00  0.00    -0.545 OA
ATOM     11  O   UNL     1      -4.368 -25.995  45.682  1.00  0.00    -0.545 OA
ENDBRANCH   8   9
ENDBRANCH   1   7
BRANCH   6  12
ATOM     12  O   UNL     1       0.635 -21.189  51.165  1.00  0.00    -0.508 OA
ATOM     13  H   UNL     1       1.140 -21.409  52.015  1.00  0.00     0.293 HD
ENDBRANCH   6  12
TORSDOF 3
ENDMDL
MODEL 8
REMARK VINA RESULT:    -4.931      4.014      5.101
REMARK INTER + INTRA:          -5.801
REMARK INTER:                  -5.665
REMARK INTRA:                  -0.136
REMARK UNBOUND:                -0.150
REMARK SMILES O=C([O-])C=Cc1ccc(O)cc1
REMARK SMILES IDX 6 1 7 2 12 3 8 4 11 5 9 6 5 7 4 8 2 9 1 10 3 11 10 12
REMARK H PARENT 10 13
REMARK Flexibility Score: inf
ROOT
ATOM      1  C   UNL     1      -3.608 -24.984  47.336  1.00  0.00    -0.025 A 
ATOM      2  C   UNL     1      -2.249 -25.206  47.641  1.00  0.00     0.012 A 
ATOM      3  C   UNL     1      -4.451 -24.469  48.336  1.00  0.00     0.012 A 
ATOM      4  C   UNL     1      -1.758 -24.940  48.923  1.00  0.00     0.047 A 
ATOM      5  C   UNL     1      -3.956 -24.205  49.617  1.00  0.00     0.047 A 
ATOM      6  C   UNL     1      -2.609 -24.442  49.914  1.00  0.00     0.115 A 
ENDROOT
BRANCH   1   7
ATOM      7  C   UNL     1      -4.178 -25.239  45.990  1.00  0.00     0.010 C 
ATOM      8  C   UNL     1      -3.942 -26.350  45.280  1.00  0.00     0.025 C 
BRANCH   8   9
ATOM      9  C   UNL     1      -4.539 -26.566  43.952  1.00  0.00     0.064 C 
ATOM     10  O   UNL     1      -5.446 -27.427  43.810  1.00  0.00    -0.545 OA
ATOM     11  O   UNL     1      -4.114 -25.835  42.847  1.00  0.00    -0.545 OA
ENDBRANCH   8   9
ENDBRANCH   1   7
BRANCH   6  12
ATOM     12  O   UNL     1      -2.105 -24.183  51.186  1.00  0.00    -0.508 OA
ATOM     13  H   UNL     1      -1.187 -23.774  51.319  1.00  0.00     0.293 HD
ENDBRANCH   6  12
TORSDOF 3
ENDMDL
MODEL 9
REMARK VINA RESULT:    -4.884      2.160      6.109
REMARK INTER + INTRA:          -5.748
REMARK INTER:                  -5.598
REMARK INTRA:                  -0.150
REMARK UNBOUND:                -0.150
REMARK SMILES O=C([O-])C=Cc1ccc(O)cc1
REMARK SMILES IDX 6 1 7 2 12 3 8 4 11 5 9 6 5 7 4 8 2 9 1 10 3 11 10 12
REMARK H PARENT 10 13
REMARK Flexibility Score: inf
ROOT
ATOM      1  C   UNL     1       0.353 -22.244  49.295  1.00  0.00    -0.025 A 
ATOM      2  C   UNL     1      -0.831 -22.253  48.529  1.00  0.00     0.012 A 
ATOM      3  C   UNL     1       0.401 -23.003  50.477  1.00  0.00     0.012 A 
ATOM      4  C   UNL     1      -1.943 -22.986  48.955  1.00  0.00     0.047 A 
ATOM      5  C   UNL     1      -0.713 -23.733  50.900  1.00  0.00     0.047 A 
ATOM      6  C   UNL     1      -1.889 -23.724  50.140  1.00  0.00     0.115 A 
ENDROOT
BRANCH   1   7
ATOM      7  C   UNL     1       1.566 -21.494  48.884  1.00  0.00     0.010 C 
ATOM      8  C   UNL     1       2.814 -21.862  49.207  1.00  0.00     0.025 C 
BRANCH   8   9
ATOM      9  C   UNL     1       3.989 -21.094  48.768  1.00  0.00     0.064 C 
ATOM     10  O   UNL     1       4.120 -20.799  47.551  1.00  0.00    -0.545 OA
ATOM     11  O   UNL     1       4.963 -20.689  49.676  1.00  0.00    -0.545 OA
ENDBRANCH   8   9
ENDBRANCH   1   7
BRANCH   6  12
ATOM     12  O   UNL     1      -3.007 -24.447  50.551  1.00  0.00    -0.508 OA
ATOM     13  H   UNL     1      -3.846 -24.493  49.984  1.00  0.00     0.293 HD
ENDBRANCH   6  12
TORSDOF 3
ENDMDL
