MODEL 1
REMARK VINA RESULT:    -3.615      0.000      0.000
REMARK INTER + INTRA:          -5.648
REMARK INTER:                  -4.884
REMARK INTRA:                  -0.765
REMARK UNBOUND:                -0.765
REMARK SMILES CC(=O)CCC=C(C)CCC=C(C)C
REMARK SMILES IDX 7 1 6 2 8 3 9 4 10 5 11 6 13 7 12 8 14 9 5 10 4 11 2 12 3 13
REMARK SMILES IDX 1 14
REMARK H PARENT
REMARK Flexibility Score: inf
ROOT
ATOM      1  C   UNL     1       8.992 -32.943  13.517  1.00  0.00    -0.077 C 
ATOM      2  C   UNL     1       9.943 -31.992  13.671  1.00  0.00    -0.028 C 
ATOM      3  C   UNL     1       9.340 -34.406  13.380  1.00  0.00     0.039 C 
ENDROOT
BRANCH   1   4
ATOM      4  C   UNL     1       7.536 -32.530  13.508  1.00  0.00     0.034 C 
BRANCH   4   5
ATOM      5  C   UNL     1       6.853 -32.915  14.824  1.00  0.00     0.032 C 
BRANCH   5   6
ATOM      6  C   UNL     1       7.437 -32.141  15.979  1.00  0.00    -0.028 C 
ATOM      7  C   UNL     1       8.680 -31.827  18.097  1.00  0.00     0.039 C 
ATOM      8  C   UNL     1       8.167 -32.693  16.974  1.00  0.00    -0.080 C 
ATOM      9  C   UNL     1       8.533 -34.157  16.984  1.00  0.00     0.039 C 
ENDBRANCH   5   6
ENDBRANCH   4   5
ENDBRANCH   1   4
BRANCH   2  10
ATOM     10  C   UNL     1      11.430 -32.258  13.667  1.00  0.00     0.035 C 
BRANCH  10  11
ATOM     11  C   UNL     1      12.223 -31.112  14.310  1.00  0.00     0.079 C 
BRANCH  11  12
ATOM     12  C   UNL     1      13.663 -31.111  13.867  1.00  0.00     0.130 C 
ATOM     13  O   UNL     1      14.228 -32.168  13.632  1.00  0.00    -0.300 OA
ATOM     14  C   UNL     1      14.420 -29.822  13.748  1.00  0.00     0.087 C 
ENDBRANCH  11  12
ENDBRANCH  10  11
ENDBRANCH   2  10
TORSDOF 6
ENDMDL
MODEL 2
REMARK VINA RESULT:    -3.296      1.046      1.545
REMARK INTER + INTRA:          -5.217
REMARK INTER:                  -4.594
REMARK INTRA:                  -0.623
REMARK UNBOUND:                -0.765
REMARK SMILES CC(=O)CCC=C(C)CCC=C(C)C
REMARK SMILES IDX 7 1 6 2 8 3 9 4 10 5 11 6 13 7 12 8 14 9 5 10 4 11 2 12 3 13
REMARK SMILES IDX 1 14
REMARK H PARENT
REMARK Flexibility Score: inf
ROOT
ATOM      1  C   UNL     1       9.624 -33.319  14.492  1.00  0.00    -0.077 C 
ATOM      2  C   UNL     1      10.127 -32.064  14.475  1.00  0.00    -0.028 C 
ATOM      3  C   UNL     1      10.293 -34.459  13.761  1.00  0.00     0.039 C 
ENDROOT
BRANCH   1   4
ATOM      4  C   UNL     1       8.368 -33.595  15.290  1.00  0.00     0.034 C 
BRANCH   4   5
ATOM      5  C   UNL     1       7.850 -32.313  15.952  1.00  0.00     0.032 C 
BRANCH   5   6
ATOM      6  C   UNL     1       8.039 -32.369  17.447  1.00  0.00    -0.028 C 
ATOM      7  C   UNL     1       9.110 -31.841  19.615  1.00  0.00     0.039 C 
ATOM      8  C   UNL     1       8.994 -31.688  18.121  1.00  0.00    -0.080 C 
ATOM      9  C   UNL     1       9.935 -30.732  17.430  1.00  0.00     0.039 C 
ENDBRANCH   5   6
ENDBRANCH   4   5
ENDBRANCH   1   4
BRANCH   2  10
ATOM     10  C   UNL     1      11.352 -31.642  13.698  1.00  0.00     0.035 C 
BRANCH  10  11
ATOM     11  C   UNL     1      12.464 -31.113  14.616  1.00  0.00     0.079 C 
BRANCH  11  12
ATOM     12  C   UNL     1      13.800 -31.087  13.919  1.00  0.00     0.130 C 
ATOM     13  O   UNL     1      14.332 -32.134  13.585  1.00  0.00    -0.300 OA
ATOM     14  C   UNL     1      14.498 -29.785  13.667  1.00  0.00     0.087 C 
ENDBRANCH  11  12
ENDBRANCH  10  11
ENDBRANCH   2  10
TORSDOF 6
ENDMDL
MODEL 3
REMARK VINA RESULT:    -3.265      2.922      4.858
REMARK INTER + INTRA:          -5.175
REMARK INTER:                  -4.218
REMARK INTRA:                  -0.956
REMARK UNBOUND:                -0.765
REMARK SMILES CC(=O)CCC=C(C)CCC=C(C)C
REMARK SMILES IDX 7 1 6 2 8 3 9 4 10 5 11 6 13 7 12 8 14 9 5 10 4 11 2 12 3 13
REMARK SMILES IDX 1 14
REMARK H PARENT
REMARK Flexibility Score: inf
ROOT
ATOM      1  C   UNL     1       7.116 -34.400  14.867  1.00  0.00    -0.077 C 
ATOM      2  C   UNL     1       8.002 -33.996  15.806  1.00  0.00    -0.028 C 
ATOM      3  C   UNL     1       6.016 -33.496  14.364  1.00  0.00     0.039 C 
ENDROOT
BRANCH   1   4
ATOM      4  C   UNL     1       7.248 -35.791  14.284  1.00  0.00     0.034 C 
BRANCH   4   5
ATOM      5  C   UNL     1       7.904 -35.741  12.900  1.00  0.00     0.032 C 
BRANCH   5   6
ATOM      6  C   UNL     1       9.374 -36.063  12.993  1.00  0.00    -0.028 C 
ATOM      7  C   UNL     1      11.801 -35.574  13.028  1.00  0.00     0.039 C 
ATOM      8  C   UNL     1      10.360 -35.138  12.956  1.00  0.00    -0.080 C 
ATOM      9  C   UNL     1      10.070 -33.658  12.889  1.00  0.00     0.039 C 
ENDBRANCH   5   6
ENDBRANCH   4   5
ENDBRANCH   1   4
BRANCH   2  10
ATOM     10  C   UNL     1       7.970 -32.651  16.493  1.00  0.00     0.035 C 
BRANCH  10  11
ATOM     11  C   UNL     1       9.249 -31.841  16.237  1.00  0.00     0.079 C 
BRANCH  11  12
ATOM     12  C   UNL     1       9.680 -31.075  17.461  1.00  0.00     0.130 C 
ATOM     13  O   UNL     1      10.512 -30.186  17.360  1.00  0.00    -0.300 OA
ATOM     14  C   UNL     1       9.123 -31.421  18.808  1.00  0.00     0.087 C 
ENDBRANCH  11  12
ENDBRANCH  10  11
ENDBRANCH   2  10
TORSDOF 6
ENDMDL
MODEL 4
REMARK VINA RESULT:    -3.041      1.663      2.731
REMARK INTER + INTRA:          -4.872
REMARK INTER:                  -4.321
REMARK INTRA:                  -0.551
REMARK UNBOUND:                -0.765
REMARK SMILES CC(=O)CCC=C(C)CCC=C(C)C
REMARK SMILES IDX 7 1 6 2 8 3 9 4 10 5 11 6 13 7 12 8 14 9 5 10 4 11 2 12 3 13
REMARK SMILES IDX 1 14
REMARK H PARENT
REMARK Flexibility Score: inf
ROOT
ATOM      1  C   UNL     1       7.729 -33.193  14.083  1.00  0.00    -0.077 C 
ATOM      2  C   UNL     1       8.625 -34.207  14.047  1.00  0.00    -0.028 C 
ATOM      3  C   UNL     1       7.509 -32.278  12.902  1.00  0.00     0.039 C 
ENDROOT
BRANCH   1   4
ATOM      4  C   UNL     1       6.904 -32.988  15.335  1.00  0.00     0.034 C 
BRANCH   4   5
ATOM      5  C   UNL     1       7.801 -32.942  16.577  1.00  0.00     0.032 C 
BRANCH   5   6
ATOM      6  C   UNL     1       8.968 -32.011  16.361  1.00  0.00    -0.028 C 
ATOM      7  C   UNL     1      10.715 -30.383  17.011  1.00  0.00     0.039 C 
ATOM      8  C   UNL     1       9.574 -31.308  17.345  1.00  0.00    -0.080 C 
ATOM      9  C   UNL     1       9.175 -31.449  18.793  1.00  0.00     0.039 C 
ENDBRANCH   5   6
ENDBRANCH   4   5
ENDBRANCH   1   4
BRANCH   2  10
ATOM     10  C   UNL     1       9.533 -34.506  12.877  1.00  0.00     0.035 C 
BRANCH  10  11
ATOM     11  C   UNL     1      10.978 -34.773  13.322  1.00  0.00     0.079 C 
BRANCH  11  12
ATOM     12  C   UNL     1      11.831 -33.534  13.229  1.00  0.00     0.130 C 
ATOM     13  O   UNL     1      12.996 -33.623  12.875  1.00  0.00    -0.300 OA
ATOM     14  C   UNL     1      11.269 -32.197  13.605  1.00  0.00     0.087 C 
ENDBRANCH  11  12
ENDBRANCH  10  11
ENDBRANCH   2  10
TORSDOF 6
ENDMDL
MODEL 5
REMARK VINA RESULT:    -2.986      2.043      3.213
REMARK INTER + INTRA:          -4.798
REMARK INTER:                  -3.838
REMARK INTRA:                  -0.959
REMARK UNBOUND:                -0.765
REMARK SMILES CC(=O)CCC=C(C)CCC=C(C)C
REMARK SMILES IDX 7 1 6 2 8 3 9 4 10 5 11 6 13 7 12 8 14 9 5 10 4 11 2 12 3 13
REMARK SMILES IDX 1 14
REMARK H PARENT
REMARK Flexibility Score: inf
ROOT
ATOM      1  C   UNL     1       8.288 -32.656  13.873  1.00  0.00    -0.077 C 
ATOM      2  C   UNL     1       9.343 -33.212  13.235  1.00  0.00    -0.028 C 
ATOM      3  C   UNL     1       8.340 -32.294  15.338  1.00  0.00     0.039 C 
ENDROOT
BRANCH   1   4
ATOM      4  C   UNL     1       7.027 -32.364  13.089  1.00  0.00     0.034 C 
BRANCH   4   5
ATOM      5  C   UNL     1       5.875 -33.260  13.557  1.00  0.00     0.032 C 
BRANCH   5   6
ATOM      6  C   UNL     1       6.006 -34.647  12.978  1.00  0.00    -0.028 C 
ATOM      7  C   UNL     1       6.492 -37.074  13.002  1.00  0.00     0.039 C 
ATOM      8  C   UNL     1       6.365 -35.739  13.690  1.00  0.00    -0.080 C 
ATOM      9  C   UNL     1       6.604 -35.683  15.179  1.00  0.00     0.039 C 
ENDBRANCH   5   6
ENDBRANCH   4   5
ENDBRANCH   1   4
BRANCH   2  10
ATOM     10  C   UNL     1      10.648 -33.583  13.899  1.00  0.00     0.035 C 
BRANCH  10  11
ATOM     11  C   UNL     1      11.847 -32.870  13.257  1.00  0.00     0.079 C 
BRANCH  11  12
ATOM     12  C   UNL     1      12.339 -31.727  14.106  1.00  0.00     0.130 C 
ATOM     13  O   UNL     1      11.567 -31.151  14.857  1.00  0.00    -0.300 OA
ATOM     14  C   UNL     1      13.762 -31.267  14.008  1.00  0.00     0.087 C 
ENDBRANCH  11  12
ENDBRANCH  10  11
ENDBRANCH   2  10
TORSDOF 6
ENDMDL
MODEL 6
REMARK VINA RESULT:    -2.931      3.036      5.113
REMARK INTER + INTRA:          -4.724
REMARK INTER:                  -3.967
REMARK INTRA:                  -0.757
REMARK UNBOUND:                -0.765
REMARK SMILES CC(=O)CCC=C(C)CCC=C(C)C
REMARK SMILES IDX 7 1 6 2 8 3 9 4 10 5 11 6 13 7 12 8 14 9 5 10 4 11 2 12 3 13
REMARK SMILES IDX 1 14
REMARK H PARENT
REMARK Flexibility Score: inf
ROOT
ATOM      1  C   UNL     1      10.550 -34.396  13.202  1.00  0.00    -0.077 C 
ATOM      2  C   UNL     1       9.311 -34.898  12.995  1.00  0.00    -0.028 C 
ATOM      3  C   UNL     1      11.769 -35.283  13.292  1.00  0.00     0.039 C 
ENDROOT
BRANCH   1   4
ATOM      4  C   UNL     1      10.723 -32.897  13.319  1.00  0.00     0.034 C 
BRANCH   4   5
ATOM      5  C   UNL     1       9.479 -32.252  13.940  1.00  0.00     0.032 C 
BRANCH   5   6
ATOM      6  C   UNL     1       9.577 -32.240  15.445  1.00  0.00    -0.028 C 
ATOM      7  C   UNL     1       8.725 -32.183  17.769  1.00  0.00     0.039 C 
ATOM      8  C   UNL     1       8.511 -32.223  16.278  1.00  0.00    -0.080 C 
ATOM      9  C   UNL     1       7.093 -32.286  15.766  1.00  0.00     0.039 C 
ENDBRANCH   5   6
ENDBRANCH   4   5
ENDBRANCH   1   4
BRANCH   2  10
ATOM     10  C   UNL     1       8.990 -36.371  12.890  1.00  0.00     0.035 C 
BRANCH  10  11
ATOM     11  C   UNL     1       7.480 -36.639  12.960  1.00  0.00     0.079 C 
BRANCH  11  12
ATOM     12  C   UNL     1       6.789 -35.702  13.916  1.00  0.00     0.130 C 
ATOM     13  O   UNL     1       6.066 -34.818  13.484  1.00  0.00    -0.300 OA
ATOM     14  C   UNL     1       7.013 -35.825  15.393  1.00  0.00     0.087 C 
ENDBRANCH  11  12
ENDBRANCH  10  11
ENDBRANCH   2  10
TORSDOF 6
ENDMDL
MODEL 7
REMARK VINA RESULT:    -2.875      2.355      5.123
REMARK INTER + INTRA:          -4.648
REMARK INTER:                  -4.636
REMARK INTRA:                  -0.012
REMARK UNBOUND:                -0.765
REMARK SMILES CC(=O)CCC=C(C)CCC=C(C)C
REMARK SMILES IDX 7 1 6 2 8 3 9 4 10 5 11 6 13 7 12 8 14 9 5 10 4 11 2 12 3 13
REMARK SMILES IDX 1 14
REMARK H PARENT
REMARK Flexibility Score: inf
ROOT
ATOM      1  C   UNL     1       8.717 -32.251  13.841  1.00  0.00    -0.077 C 
ATOM      2  C   UNL     1       8.968 -32.232  15.170  1.00  0.00    -0.028 C 
ATOM      3  C   UNL     1       7.310 -32.274  13.293  1.00  0.00     0.039 C 
ENDROOT
BRANCH   1   4
ATOM      4  C   UNL     1       9.882 -32.221  12.875  1.00  0.00     0.034 C 
BRANCH   4   5
ATOM      5  C   UNL     1      11.169 -32.693  13.559  1.00  0.00     0.032 C 
BRANCH   5   6
ATOM      6  C   UNL     1      11.948 -31.521  14.102  1.00  0.00    -0.028 C 
ATOM      7  C   UNL     1      13.969 -30.184  14.606  1.00  0.00     0.039 C 
ATOM      8  C   UNL     1      13.290 -31.385  14.001  1.00  0.00    -0.080 C 
ATOM      9  C   UNL     1      14.143 -32.382  13.256  1.00  0.00     0.039 C 
ENDBRANCH   5   6
ENDBRANCH   4   5
ENDBRANCH   1   4
BRANCH   2  10
ATOM     10  C   UNL     1       7.906 -32.289  16.244  1.00  0.00     0.035 C 
BRANCH  10  11
ATOM     11  C   UNL     1       8.503 -32.543  17.635  1.00  0.00     0.079 C 
BRANCH  11  12
ATOM     12  C   UNL     1       9.233 -31.334  18.160  1.00  0.00     0.130 C 
ATOM     13  O   UNL     1       8.859 -30.799  19.192  1.00  0.00    -0.300 OA
ATOM     14  C   UNL     1      10.394 -30.761  17.404  1.00  0.00     0.087 C 
ENDBRANCH  11  12
ENDBRANCH  10  11
ENDBRANCH   2  10
TORSDOF 6
ENDMDL
MODEL 8
REMARK VINA RESULT:    -2.747      2.952      5.249
REMARK INTER + INTRA:          -4.476
REMARK INTER:                  -3.971
REMARK INTRA:                  -0.505
REMARK UNBOUND:                -0.765
REMARK SMILES CC(=O)CCC=C(C)CCC=C(C)C
REMARK SMILES IDX 7 1 6 2 8 3 9 4 10 5 11 6 13 7 12 8 14 9 5 10 4 11 2 12 3 13
REMARK SMILES IDX 1 14
REMARK H PARENT
REMARK Flexibility Score: inf
ROOT
ATOM      1  C   UNL     1       8.969 -33.127  12.997  1.00  0.00    -0.077 C 
ATOM      2  C   UNL     1       7.663 -32.782  13.073  1.00  0.00    -0.028 C 
ATOM      3  C   UNL     1       9.410 -34.566  12.877  1.00  0.00     0.039 C 
ENDROOT
BRANCH   1   4
ATOM      4  C   UNL     1      10.018 -32.036  13.008  1.00  0.00     0.034 C 
BRANCH   4   5
ATOM      5  C   UNL     1      10.562 -31.816  14.423  1.00  0.00     0.032 C 
BRANCH   5   6
ATOM      6  C   UNL     1       9.522 -32.168  15.457  1.00  0.00    -0.028 C 
ATOM      7  C   UNL     1       8.425 -32.112  17.676  1.00  0.00     0.039 C 
ATOM      8  C   UNL     1       9.497 -31.668  16.714  1.00  0.00    -0.080 C 
ATOM      9  C   UNL     1      10.490 -30.635  17.185  1.00  0.00     0.039 C 
ENDBRANCH   5   6
ENDBRANCH   4   5
ENDBRANCH   1   4
BRANCH   2  10
ATOM     10  C   UNL     1       6.517 -33.766  13.104  1.00  0.00     0.035 C 
BRANCH  10  11
ATOM     11  C   UNL     1       6.133 -34.160  14.537  1.00  0.00     0.079 C 
BRANCH  11  12
ATOM     12  C   UNL     1       6.438 -35.608  14.820  1.00  0.00     0.130 C 
ATOM     13  O   UNL     1       6.828 -35.942  15.928  1.00  0.00    -0.300 OA
ATOM     14  C   UNL     1       6.301 -36.637  13.739  1.00  0.00     0.087 C 
ENDBRANCH  11  12
ENDBRANCH  10  11
ENDBRANCH   2  10
TORSDOF 6
ENDMDL
MODEL 9
REMARK VINA RESULT:    -2.656      2.596      5.959
REMARK INTER + INTRA:          -4.353
REMARK INTER:                  -3.688
REMARK INTRA:                  -0.665
REMARK UNBOUND:                -0.765
REMARK SMILES CC(=O)CCC=C(C)CCC=C(C)C
REMARK SMILES IDX 7 1 6 2 8 3 9 4 10 5 11 6 13 7 12 8 14 9 5 10 4 11 2 12 3 13
REMARK SMILES IDX 1 14
REMARK H PARENT
REMARK Flexibility Score: inf
ROOT
ATOM      1  C   UNL     1       8.709 -32.265  13.950  1.00  0.00    -0.077 C 
ATOM      2  C   UNL     1       7.616 -32.623  13.238  1.00  0.00    -0.028 C 
ATOM      3  C   UNL     1       8.714 -32.258  15.460  1.00  0.00     0.039 C 
ENDROOT
BRANCH   1   4
ATOM      4  C   UNL     1       9.974 -31.886  13.209  1.00  0.00     0.034 C 
BRANCH   4   5
ATOM      5  C   UNL     1      11.215 -32.344  13.983  1.00  0.00     0.032 C 
BRANCH   5   6
ATOM      6  C   UNL     1      12.136 -31.181  14.253  1.00  0.00    -0.028 C 
ATOM      7  C   UNL     1      14.296 -29.974  14.334  1.00  0.00     0.039 C 
ATOM      8  C   UNL     1      13.464 -31.184  13.995  1.00  0.00    -0.080 C 
ATOM      9  C   UNL     1      14.149 -32.353  13.332  1.00  0.00     0.039 C 
ENDBRANCH   5   6
ENDBRANCH   4   5
ENDBRANCH   1   4
BRANCH   2  10
ATOM     10  C   UNL     1       6.282 -32.993  13.845  1.00  0.00     0.035 C 
BRANCH  10  11
ATOM     11  C   UNL     1       5.950 -34.479  13.645  1.00  0.00     0.079 C 
BRANCH  11  12
ATOM     12  C   UNL     1       6.922 -35.373  14.370  1.00  0.00     0.130 C 
ATOM     13  O   UNL     1       6.876 -35.459  15.587  1.00  0.00    -0.300 OA
ATOM     14  C   UNL     1       7.969 -36.129  13.610  1.00  0.00     0.087 C 
ENDBRANCH  11  12
ENDBRANCH  10  11
ENDBRANCH   2  10
TORSDOF 6
ENDMDL
