MODEL 1
REMARK VINA RESULT:    -3.230      0.000      0.000
REMARK INTER + INTRA:          -3.838
REMARK INTER:                  -3.796
REMARK INTRA:                  -0.042
REMARK UNBOUND:                -0.042
REMARK SMILES CCCCC(=O)[O-]
REMARK SMILES IDX 4 1 5 2 6 3 7 4 3 5 2 6 1 7
REMARK H PARENT
REMARK Flexibility Score: inf
ROOT
ATOM      1  C   UNL     1      47.896  34.696 -13.814  1.00  0.00     0.053 C 
ENDROOT
BRANCH   1   2
ATOM      2  C   UNL     1      46.685  34.506 -12.953  1.00  0.00     0.041 C 
ATOM      3  O   UNL     1      45.618  34.055 -13.448  1.00  0.00    -0.550 OA
ATOM      4  O   UNL     1      46.726  34.857 -11.609  1.00  0.00    -0.550 OA
ENDBRANCH   1   2
BRANCH   1   5
ATOM      5  C   UNL     1      47.566  35.471 -15.096  1.00  0.00     0.006 C 
BRANCH   5   6
ATOM      6  C   UNL     1      48.031  34.732 -16.358  1.00  0.00    -0.003 C 
ATOM      7  C   UNL     1      49.394  35.238 -16.820  1.00  0.00     0.004 C 
ENDBRANCH   5   6
ENDBRANCH   1   5
TORSDOF 3
ENDMDL
MODEL 2
REMARK VINA RESULT:    -3.227      1.675      2.377
REMARK INTER + INTRA:          -3.835
REMARK INTER:                  -3.752
REMARK INTRA:                  -0.083
REMARK UNBOUND:                -0.042
REMARK SMILES CCCCC(=O)[O-]
REMARK SMILES IDX 4 1 5 2 6 3 7 4 3 5 2 6 1 7
REMARK H PARENT
REMARK Flexibility Score: inf
ROOT
ATOM      1  C   UNL     1      47.546  34.738 -16.041  1.00  0.00     0.053 C 
ENDROOT
BRANCH   1   2
ATOM      2  C   UNL     1      47.543  34.749 -14.543  1.00  0.00     0.041 C 
ATOM      3  O   UNL     1      48.602  34.996 -13.907  1.00  0.00    -0.550 OA
ATOM      4  O   UNL     1      46.376  34.455 -13.849  1.00  0.00    -0.550 OA
ENDBRANCH   1   2
BRANCH   1   5
ATOM      5  C   UNL     1      48.932  35.074 -16.608  1.00  0.00     0.006 C 
BRANCH   5   6
ATOM      6  C   UNL     1      49.018  36.521 -17.113  1.00  0.00    -0.003 C 
ATOM      7  C   UNL     1      47.655  37.020 -17.584  1.00  0.00     0.004 C 
ENDBRANCH   5   6
ENDBRANCH   1   5
TORSDOF 3
ENDMDL
MODEL 3
REMARK VINA RESULT:    -3.209     18.225     19.146
REMARK INTER + INTRA:          -3.814
REMARK INTER:                  -3.787
REMARK INTRA:                  -0.026
REMARK UNBOUND:                -0.042
REMARK SMILES CCCCC(=O)[O-]
REMARK SMILES IDX 4 1 5 2 6 3 7 4 3 5 2 6 1 7
REMARK H PARENT
REMARK Flexibility Score: inf
ROOT
ATOM      1  C   UNL     1      38.254  21.941 -24.458  1.00  0.00     0.053 C 
ENDROOT
BRANCH   1   2
ATOM      2  C   UNL     1      39.548  22.545 -24.910  1.00  0.00     0.041 C 
ATOM      3  O   UNL     1      40.566  21.821 -25.070  1.00  0.00    -0.550 OA
ATOM      4  O   UNL     1      39.638  23.915 -25.124  1.00  0.00    -0.550 OA
ENDBRANCH   1   2
BRANCH   1   5
ATOM      5  C   UNL     1      38.445  20.507 -23.947  1.00  0.00     0.006 C 
BRANCH   5   6
ATOM      6  C   UNL     1      37.616  20.224 -22.687  1.00  0.00    -0.003 C 
ATOM      7  C   UNL     1      37.255  18.745 -22.586  1.00  0.00     0.004 C 
ENDBRANCH   5   6
ENDBRANCH   1   5
TORSDOF 3
ENDMDL
MODEL 4
REMARK VINA RESULT:    -3.208     16.653     17.616
REMARK INTER + INTRA:          -3.812
REMARK INTER:                  -3.734
REMARK INTRA:                  -0.078
REMARK UNBOUND:                -0.042
REMARK SMILES CCCCC(=O)[O-]
REMARK SMILES IDX 4 1 5 2 6 3 7 4 3 5 2 6 1 7
REMARK H PARENT
REMARK Flexibility Score: inf
ROOT
ATOM      1  C   UNL     1      40.039  23.481 -24.958  1.00  0.00     0.053 C 
ENDROOT
BRANCH   1   2
ATOM      2  C   UNL     1      41.149  23.508 -23.953  1.00  0.00     0.041 C 
ATOM      3  O   UNL     1      41.491  24.594 -23.413  1.00  0.00    -0.550 OA
ATOM      4  O   UNL     1      41.829  22.338 -23.636  1.00  0.00    -0.550 OA
ENDBRANCH   1   2
BRANCH   1   5
ATOM      5  C   UNL     1      39.459  22.070 -25.125  1.00  0.00     0.006 C 
BRANCH   5   6
ATOM      6  C   UNL     1      38.145  21.887 -24.353  1.00  0.00    -0.003 C 
ATOM      7  C   UNL     1      38.179  20.620 -23.503  1.00  0.00     0.004 C 
ENDBRANCH   5   6
ENDBRANCH   1   5
TORSDOF 3
ENDMDL
MODEL 5
REMARK VINA RESULT:    -3.186      3.202      4.389
REMARK INTER + INTRA:          -3.787
REMARK INTER:                  -3.750
REMARK INTRA:                  -0.037
REMARK UNBOUND:                -0.042
REMARK SMILES CCCCC(=O)[O-]
REMARK SMILES IDX 4 1 5 2 6 3 7 4 3 5 2 6 1 7
REMARK H PARENT
REMARK Flexibility Score: inf
ROOT
ATOM      1  C   UNL     1      47.840  34.749 -16.280  1.00  0.00     0.053 C 
ENDROOT
BRANCH   1   2
ATOM      2  C   UNL     1      48.882  35.627 -16.902  1.00  0.00     0.041 C 
ATOM      3  O   UNL     1      48.628  36.834 -17.157  1.00  0.00    -0.550 OA
ATOM      4  O   UNL     1      50.126  35.102 -17.230  1.00  0.00    -0.550 OA
ENDBRANCH   1   2
BRANCH   1   5
ATOM      5  C   UNL     1      47.946  34.739 -14.749  1.00  0.00     0.006 C 
BRANCH   5   6
ATOM      6  C   UNL     1      46.707  35.348 -14.078  1.00  0.00    -0.003 C 
ATOM      7  C   UNL     1      45.903  34.283 -13.339  1.00  0.00     0.004 C 
ENDBRANCH   5   6
ENDBRANCH   1   5
TORSDOF 3
ENDMDL
MODEL 6
REMARK VINA RESULT:    -3.177      3.383      4.433
REMARK INTER + INTRA:          -3.776
REMARK INTER:                  -3.660
REMARK INTRA:                  -0.117
REMARK UNBOUND:                -0.042
REMARK SMILES CCCCC(=O)[O-]
REMARK SMILES IDX 4 1 5 2 6 3 7 4 3 5 2 6 1 7
REMARK H PARENT
REMARK Flexibility Score: inf
ROOT
ATOM      1  C   UNL     1      48.972  35.359 -16.793  1.00  0.00     0.053 C 
ENDROOT
BRANCH   1   2
ATOM      2  C   UNL     1      48.838  36.823 -17.078  1.00  0.00     0.041 C 
ATOM      3  O   UNL     1      49.601  37.652 -16.514  1.00  0.00    -0.550 OA
ATOM      4  O   UNL     1      47.850  37.276 -17.943  1.00  0.00    -0.550 OA
ENDBRANCH   1   2
BRANCH   1   5
ATOM      5  C   UNL     1      47.624  34.729 -16.414  1.00  0.00     0.006 C 
BRANCH   5   6
ATOM      6  C   UNL     1      47.188  35.104 -14.991  1.00  0.00    -0.003 C 
ATOM      7  C   UNL     1      48.268  34.747 -13.974  1.00  0.00     0.004 C 
ENDBRANCH   5   6
ENDBRANCH   1   5
TORSDOF 3
ENDMDL
MODEL 7
REMARK VINA RESULT:    -3.150     18.388     19.023
REMARK INTER + INTRA:          -3.745
REMARK INTER:                  -3.690
REMARK INTRA:                  -0.055
REMARK UNBOUND:                -0.042
REMARK SMILES CCCCC(=O)[O-]
REMARK SMILES IDX 4 1 5 2 6 3 7 4 3 5 2 6 1 7
REMARK H PARENT
REMARK Flexibility Score: inf
ROOT
ATOM      1  C   UNL     1      38.584  21.241 -24.231  1.00  0.00     0.053 C 
ENDROOT
BRANCH   1   2
ATOM      2  C   UNL     1      40.070  21.254 -24.413  1.00  0.00     0.041 C 
ATOM      3  O   UNL     1      40.768  20.283 -24.015  1.00  0.00    -0.550 OA
ATOM      4  O   UNL     1      40.690  22.353 -24.995  1.00  0.00    -0.550 OA
ENDBRANCH   1   2
BRANCH   1   5
ATOM      5  C   UNL     1      38.136  20.110 -23.295  1.00  0.00     0.006 C 
BRANCH   5   6
ATOM      6  C   UNL     1      37.801  20.622 -21.887  1.00  0.00    -0.003 C 
ATOM      7  C   UNL     1      36.501  21.420 -21.887  1.00  0.00     0.004 C 
ENDBRANCH   5   6
ENDBRANCH   1   5
TORSDOF 3
ENDMDL
MODEL 8
REMARK VINA RESULT:    -3.111      3.846      4.846
REMARK INTER + INTRA:          -3.699
REMARK INTER:                  -3.616
REMARK INTRA:                  -0.083
REMARK UNBOUND:                -0.042
REMARK SMILES CCCCC(=O)[O-]
REMARK SMILES IDX 4 1 5 2 6 3 7 4 3 5 2 6 1 7
REMARK H PARENT
REMARK Flexibility Score: inf
ROOT
ATOM      1  C   UNL     1      50.101  35.442 -17.191  1.00  0.00     0.053 C 
ENDROOT
BRANCH   1   2
ATOM      2  C   UNL     1      51.079  36.303 -16.450  1.00  0.00     0.041 C 
ATOM      3  O   UNL     1      50.696  37.010 -15.481  1.00  0.00    -0.550 OA
ATOM      4  O   UNL     1      52.408  36.348 -16.852  1.00  0.00    -0.550 OA
ENDBRANCH   1   2
BRANCH   1   5
ATOM      5  C   UNL     1      48.652  35.867 -16.919  1.00  0.00     0.006 C 
BRANCH   5   6
ATOM      6  C   UNL     1      47.795  34.705 -16.399  1.00  0.00    -0.003 C 
ATOM      7  C   UNL     1      47.458  34.889 -14.921  1.00  0.00     0.004 C 
ENDBRANCH   5   6
ENDBRANCH   1   5
TORSDOF 3
ENDMDL
MODEL 9
REMARK VINA RESULT:    -3.048     18.199     19.042
REMARK INTER + INTRA:          -3.624
REMARK INTER:                  -3.598
REMARK INTRA:                  -0.027
REMARK UNBOUND:                -0.042
REMARK SMILES CCCCC(=O)[O-]
REMARK SMILES IDX 4 1 5 2 6 3 7 4 3 5 2 6 1 7
REMARK H PARENT
REMARK Flexibility Score: inf
ROOT
ATOM      1  C   UNL     1      39.604  21.004 -22.468  1.00  0.00     0.053 C 
ENDROOT
BRANCH   1   2
ATOM      2  C   UNL     1      40.892  20.894 -23.226  1.00  0.00     0.041 C 
ATOM      3  O   UNL     1      41.634  21.902 -23.368  1.00  0.00    -0.550 OA
ATOM      4  O   UNL     1      41.256  19.684 -23.805  1.00  0.00    -0.550 OA
ENDBRANCH   1   2
BRANCH   1   5
ATOM      5  C   UNL     1      38.414  20.496 -23.293  1.00  0.00     0.006 C 
BRANCH   5   6
ATOM      6  C   UNL     1      37.303  19.914 -22.410  1.00  0.00    -0.003 C 
ATOM      7  C   UNL     1      37.200  18.401 -22.582  1.00  0.00     0.004 C 
ENDBRANCH   5   6
ENDBRANCH   1   5
TORSDOF 3
ENDMDL
