MODEL 1
REMARK VINA RESULT:    -3.774      0.000      0.000
REMARK INTER + INTRA:          -4.536
REMARK INTER:                  -4.436
REMARK INTRA:                  -0.100
REMARK UNBOUND:                -0.100
REMARK SMILES O=C([O-])CCC(=O)[O-]
REMARK SMILES IDX 4 1 2 2 1 3 3 4 5 5 6 6 7 7 8 8
REMARK H PARENT
REMARK Flexibility Score: inf
ROOT
ATOM      1  C   UNL     1      39.069  82.672  23.876  1.00  0.00     0.059 C 
ENDROOT
BRANCH   1   2
ATOM      2  C   UNL     1      37.612  82.487  23.593  1.00  0.00     0.042 C 
ATOM      3  O   UNL     1      36.978  81.540  24.128  1.00  0.00    -0.550 OA
ATOM      4  O   UNL     1      36.942  83.390  22.778  1.00  0.00    -0.550 OA
ENDBRANCH   1   2
BRANCH   1   5
ATOM      5  C   UNL     1      39.402  82.208  25.296  1.00  0.00     0.059 C 
BRANCH   5   6
ATOM      6  C   UNL     1      40.281  80.999  25.259  1.00  0.00     0.042 C 
ATOM      7  O   UNL     1      39.834  79.879  25.622  1.00  0.00    -0.550 OA
ATOM      8  O   UNL     1      41.580  81.098  24.777  1.00  0.00    -0.550 OA
ENDBRANCH   5   6
ENDBRANCH   1   5
TORSDOF 3
ENDMDL
MODEL 2
REMARK VINA RESULT:    -3.658      1.104      4.001
REMARK INTER + INTRA:          -4.400
REMARK INTER:                  -4.324
REMARK INTRA:                  -0.076
REMARK UNBOUND:                -0.100
REMARK SMILES O=C([O-])CCC(=O)[O-]
REMARK SMILES IDX 4 1 2 2 1 3 3 4 5 5 6 6 7 7 8 8
REMARK H PARENT
REMARK Flexibility Score: inf
ROOT
ATOM      1  C   UNL     1      39.550  80.781  25.404  1.00  0.00     0.059 C 
ENDROOT
BRANCH   1   2
ATOM      2  C   UNL     1      41.028  80.825  25.177  1.00  0.00     0.042 C 
ATOM      3  O   UNL     1      41.818  80.426  26.073  1.00  0.00    -0.550 OA
ATOM      4  O   UNL     1      41.533  81.261  23.959  1.00  0.00    -0.550 OA
ENDBRANCH   1   2
BRANCH   1   5
ATOM      5  C   UNL     1      38.959  82.192  25.356  1.00  0.00     0.059 C 
BRANCH   5   6
ATOM      6  C   UNL     1      37.979  82.310  24.233  1.00  0.00     0.042 C 
ATOM      7  O   UNL     1      38.124  83.202  23.355  1.00  0.00    -0.550 OA
ATOM      8  O   UNL     1      36.930  81.405  24.127  1.00  0.00    -0.550 OA
ENDBRANCH   5   6
ENDBRANCH   1   5
TORSDOF 3
ENDMDL
MODEL 3
REMARK VINA RESULT:    -3.332      1.601      4.283
REMARK INTER + INTRA:          -4.017
REMARK INTER:                  -3.908
REMARK INTRA:                  -0.109
REMARK UNBOUND:                -0.100
REMARK SMILES O=C([O-])CCC(=O)[O-]
REMARK SMILES IDX 4 1 2 2 1 3 3 4 5 5 6 6 7 7 8 8
REMARK H PARENT
REMARK Flexibility Score: inf
ROOT
ATOM      1  C   UNL     1      38.050  82.571  24.790  1.00  0.00     0.059 C 
ENDROOT
BRANCH   1   2
ATOM      2  C   UNL     1      39.498  82.281  24.551  1.00  0.00     0.042 C 
ATOM      3  O   UNL     1      40.062  82.694  23.504  1.00  0.00    -0.550 OA
ATOM      4  O   UNL     1      40.237  81.597  25.507  1.00  0.00    -0.550 OA
ENDBRANCH   1   2
BRANCH   1   5
ATOM      5  C   UNL     1      37.173  81.544  24.070  1.00  0.00     0.059 C 
BRANCH   5   6
ATOM      6  C   UNL     1      36.266  82.224  23.094  1.00  0.00     0.042 C 
ATOM      7  O   UNL     1      36.585  83.338  22.602  1.00  0.00    -0.550 OA
ATOM      8  O   UNL     1      35.089  81.605  22.691  1.00  0.00    -0.550 OA
ENDBRANCH   5   6
ENDBRANCH   1   5
TORSDOF 3
ENDMDL
MODEL 4
REMARK VINA RESULT:    -3.143     15.489     16.543
REMARK INTER + INTRA:          -3.795
REMARK INTER:                  -3.749
REMARK INTRA:                  -0.046
REMARK UNBOUND:                -0.100
REMARK SMILES O=C([O-])CCC(=O)[O-]
REMARK SMILES IDX 4 1 2 2 1 3 3 4 5 5 6 6 7 7 8 8
REMARK H PARENT
REMARK Flexibility Score: inf
ROOT
ATOM      1  C   UNL     1      36.208  76.073  10.205  1.00  0.00     0.059 C 
ENDROOT
BRANCH   1   2
ATOM      2  C   UNL     1      35.882  77.268  11.044  1.00  0.00     0.042 C 
ATOM      3  O   UNL     1      34.736  77.786  10.989  1.00  0.00    -0.550 OA
ATOM      4  O   UNL     1      36.828  77.780  11.922  1.00  0.00    -0.550 OA
ENDBRANCH   1   2
BRANCH   1   5
ATOM      5  C   UNL     1      35.300  76.019   8.974  1.00  0.00     0.059 C 
BRANCH   5   6
ATOM      6  C   UNL     1      36.003  75.351   7.836  1.00  0.00     0.042 C 
ATOM      7  O   UNL     1      37.195  74.965   7.964  1.00  0.00    -0.550 OA
ATOM      8  O   UNL     1      35.326  75.110   6.646  1.00  0.00    -0.550 OA
ENDBRANCH   5   6
ENDBRANCH   1   5
TORSDOF 3
ENDMDL
MODEL 5
REMARK VINA RESULT:    -3.083     15.678     16.642
REMARK INTER + INTRA:          -3.724
REMARK INTER:                  -3.685
REMARK INTRA:                  -0.039
REMARK UNBOUND:                -0.100
REMARK SMILES O=C([O-])CCC(=O)[O-]
REMARK SMILES IDX 4 1 2 2 1 3 3 4 5 5 6 6 7 7 8 8
REMARK H PARENT
REMARK Flexibility Score: inf
ROOT
ATOM      1  C   UNL     1      35.363  75.953   8.789  1.00  0.00     0.059 C 
ENDROOT
BRANCH   1   2
ATOM      2  C   UNL     1      36.035  75.268   7.641  1.00  0.00     0.042 C 
ATOM      3  O   UNL     1      37.218  74.853   7.757  1.00  0.00    -0.550 OA
ATOM      4  O   UNL     1      35.339  75.043   6.461  1.00  0.00    -0.550 OA
ENDBRANCH   1   2
BRANCH   1   5
ATOM      5  C   UNL     1      36.264  75.935  10.025  1.00  0.00     0.059 C 
BRANCH   5   6
ATOM      6  C   UNL     1      35.839  76.989  10.997  1.00  0.00     0.042 C 
ATOM      7  O   UNL     1      34.618  77.154  11.260  1.00  0.00    -0.550 OA
ATOM      8  O   UNL     1      36.794  77.758  11.651  1.00  0.00    -0.550 OA
ENDBRANCH   5   6
ENDBRANCH   1   5
TORSDOF 3
ENDMDL
MODEL 6
REMARK VINA RESULT:    -3.001     14.662     15.669
REMARK INTER + INTRA:          -3.627
REMARK INTER:                  -3.516
REMARK INTRA:                  -0.111
REMARK UNBOUND:                -0.100
REMARK SMILES O=C([O-])CCC(=O)[O-]
REMARK SMILES IDX 4 1 2 2 1 3 3 4 5 5 6 6 7 7 8 8
REMARK H PARENT
REMARK Flexibility Score: inf
ROOT
ATOM      1  C   UNL     1      34.182  78.186  10.163  1.00  0.00     0.059 C 
ENDROOT
BRANCH   1   2
ATOM      2  C   UNL     1      33.644  77.574   8.909  1.00  0.00     0.042 C 
ATOM      3  O   UNL     1      34.419  76.991   8.106  1.00  0.00    -0.550 OA
ATOM      4  O   UNL     1      32.279  77.605   8.649  1.00  0.00    -0.550 OA
ENDBRANCH   1   2
BRANCH   1   5
ATOM      5  C   UNL     1      34.683  77.099  11.116  1.00  0.00     0.059 C 
BRANCH   5   6
ATOM      6  C   UNL     1      36.179  77.069  11.134  1.00  0.00     0.042 C 
ATOM      7  O   UNL     1      36.818  77.791  11.944  1.00  0.00    -0.550 OA
ATOM      8  O   UNL     1      36.867  76.207  10.288  1.00  0.00    -0.550 OA
ENDBRANCH   5   6
ENDBRANCH   1   5
TORSDOF 3
ENDMDL
MODEL 7
REMARK VINA RESULT:    -2.954      8.068      9.555
REMARK INTER + INTRA:          -3.572
REMARK INTER:                  -3.541
REMARK INTRA:                  -0.031
REMARK UNBOUND:                -0.100
REMARK SMILES O=C([O-])CCC(=O)[O-]
REMARK SMILES IDX 4 1 2 2 1 3 3 4 5 5 6 6 7 7 8 8
REMARK H PARENT
REMARK Flexibility Score: inf
ROOT
ATOM      1  C   UNL     1      31.686  81.835  17.842  1.00  0.00     0.059 C 
ENDROOT
BRANCH   1   2
ATOM      2  C   UNL     1      32.492  81.774  16.583  1.00  0.00     0.042 C 
ATOM      3  O   UNL     1      33.045  82.812  16.134  1.00  0.00    -0.550 OA
ATOM      4  O   UNL     1      32.674  80.561  15.932  1.00  0.00    -0.550 OA
ENDBRANCH   1   2
BRANCH   1   5
ATOM      5  C   UNL     1      31.858  80.548  18.650  1.00  0.00     0.059 C 
BRANCH   5   6
ATOM      6  C   UNL     1      31.844  80.845  20.116  1.00  0.00     0.042 C 
ATOM      7  O   UNL     1      32.892  80.703  20.802  1.00  0.00    -0.550 OA
ATOM      8  O   UNL     1      30.688  81.325  20.718  1.00  0.00    -0.550 OA
ENDBRANCH   5   6
ENDBRANCH   1   5
TORSDOF 3
ENDMDL
MODEL 8
REMARK VINA RESULT:    -2.939      7.826      9.611
REMARK INTER + INTRA:          -3.555
REMARK INTER:                  -3.522
REMARK INTRA:                  -0.033
REMARK UNBOUND:                -0.100
REMARK SMILES O=C([O-])CCC(=O)[O-]
REMARK SMILES IDX 4 1 2 2 1 3 3 4 5 5 6 6 7 7 8 8
REMARK H PARENT
REMARK Flexibility Score: inf
ROOT
ATOM      1  C   UNL     1      31.998  80.650  18.888  1.00  0.00     0.059 C 
ENDROOT
BRANCH   1   2
ATOM      2  C   UNL     1      31.961  81.103  20.313  1.00  0.00     0.042 C 
ATOM      3  O   UNL     1      30.977  81.762  20.742  1.00  0.00    -0.550 OA
ATOM      4  O   UNL     1      32.989  80.757  21.180  1.00  0.00    -0.550 OA
ENDBRANCH   1   2
BRANCH   1   5
ATOM      5  C   UNL     1      31.625  81.800  17.950  1.00  0.00     0.059 C 
BRANCH   5   6
ATOM      6  C   UNL     1      32.465  81.760  16.713  1.00  0.00     0.042 C 
ATOM      7  O   UNL     1      32.700  80.662  16.142  1.00  0.00    -0.550 OA
ATOM      8  O   UNL     1      32.949  82.940  16.163  1.00  0.00    -0.550 OA
ENDBRANCH   5   6
ENDBRANCH   1   5
TORSDOF 3
ENDMDL
MODEL 9
REMARK VINA RESULT:    -2.879     10.128     11.402
REMARK INTER + INTRA:          -3.484
REMARK INTER:                  -3.349
REMARK INTRA:                  -0.136
REMARK UNBOUND:                -0.100
REMARK SMILES O=C([O-])CCC(=O)[O-]
REMARK SMILES IDX 4 1 2 2 1 3 3 4 5 5 6 6 7 7 8 8
REMARK H PARENT
REMARK Flexibility Score: inf
ROOT
ATOM      1  C   UNL     1      31.470  79.746  15.571  1.00  0.00     0.059 C 
ENDROOT
BRANCH   1   2
ATOM      2  C   UNL     1      32.653  79.005  15.036  1.00  0.00     0.042 C 
ATOM      3  O   UNL     1      33.529  78.558  15.822  1.00  0.00    -0.550 OA
ATOM      4  O   UNL     1      32.764  78.764  13.672  1.00  0.00    -0.550 OA
ENDBRANCH   1   2
BRANCH   1   5
ATOM      5  C   UNL     1      31.611  81.246  15.301  1.00  0.00     0.059 C 
BRANCH   5   6
ATOM      6  C   UNL     1      32.405  81.900  16.386  1.00  0.00     0.042 C 
ATOM      7  O   UNL     1      33.074  82.940  16.144  1.00  0.00    -0.550 OA
ATOM      8  O   UNL     1      32.370  81.390  17.678  1.00  0.00    -0.550 OA
ENDBRANCH   5   6
ENDBRANCH   1   5
TORSDOF 3
ENDMDL
