MODEL 1
REMARK VINA RESULT:    -5.998      0.000      0.000
REMARK INTER + INTRA:          -6.524
REMARK INTER:                  -6.524
REMARK INTRA:                   0.000
REMARK UNBOUND:                 0.000
REMARK SMILES Cc1cc(O)c2c(c1)C(=O)c1cc(O)cc(O)c1C2=O
REMARK SMILES IDX 1 1 2 2 8 3 7 4 6 5 4 6 3 7 19 8 20 9 18 10 11 11 9 12 10 13
REMARK SMILES IDX 12 14 13 15 15 16 16 17 5 18 17 20 14 22
REMARK H PARENT 5 19 17 21 14 23
REMARK Flexibility Score: inf
ROOT
ATOM      1  C   UNL     1      20.200  -7.489 -32.209  1.00  0.00     0.044 C 
ATOM      2  C   UNL     1      19.231  -6.733 -31.350  1.00  0.00    -0.047 A 
ATOM      3  C   UNL     1      17.994  -7.299 -31.016  1.00  0.00     0.016 A 
ATOM      4  C   UNL     1      17.063  -6.583 -30.243  1.00  0.00     0.038 A 
ATOM      5  C   UNL     1      17.372  -5.279 -29.803  1.00  0.00     0.076 A 
ATOM      6  C   UNL     1      18.610  -4.700 -30.165  1.00  0.00     0.127 A 
ATOM      7  C   UNL     1      19.524  -5.428 -30.937  1.00  0.00     0.050 A 
ATOM      8  C   UNL     1      16.393  -4.552 -28.952  1.00  0.00     0.201 C 
ATOM      9  O   UNL     1      16.781  -3.572 -28.262  1.00  0.00    -0.288 OA
ATOM     10  C   UNL     1      14.995  -5.049 -28.826  1.00  0.00     0.076 A 
ATOM     11  C   UNL     1      14.718  -6.381 -29.218  1.00  0.00     0.041 A 
ATOM     12  C   UNL     1      15.762  -7.192 -29.888  1.00  0.00     0.194 C 
ATOM     13  O   UNL     1      15.534  -8.401 -30.173  1.00  0.00    -0.289 OA
ATOM     14  C   UNL     1      13.446  -6.931 -28.978  1.00  0.00     0.059 A 
ATOM     15  C   UNL     1      12.446  -6.169 -28.371  1.00  0.00     0.120 A 
ATOM     16  C   UNL     1      12.699  -4.843 -28.026  1.00  0.00     0.093 A 
ATOM     17  C   UNL     1      13.946  -4.262 -28.277  1.00  0.00     0.131 A 
ENDROOT
BRANCH   6  18
ATOM     18  O   UNL     1      18.930  -3.401 -29.771  1.00  0.00    -0.507 OA
ATOM     19  H   UNL     1      18.745  -3.067 -28.832  1.00  0.00     0.293 HD
ENDBRANCH   6  18
BRANCH  17  20
ATOM     20  O   UNL     1      14.081  -2.900 -28.001  1.00  0.00    -0.507 OA
ATOM     21  H   UNL     1      13.517  -2.181 -28.433  1.00  0.00     0.293 HD
ENDBRANCH  17  20
BRANCH  15  22
ATOM     22  O   UNL     1      11.190  -6.717 -28.118  1.00  0.00    -0.508 OA
ATOM     23  H   UNL     1      11.086  -7.650 -27.736  1.00  0.00     0.293 HD
ENDBRANCH  15  22
TORSDOF 3
ENDMDL
MODEL 2
REMARK VINA RESULT:    -5.466      1.552      3.543
REMARK INTER + INTRA:          -5.945
REMARK INTER:                  -5.945
REMARK INTRA:                   0.000
REMARK UNBOUND:                 0.000
REMARK SMILES Cc1cc(O)c2c(c1)C(=O)c1cc(O)cc(O)c1C2=O
REMARK SMILES IDX 1 1 2 2 8 3 7 4 6 5 4 6 3 7 19 8 20 9 18 10 11 11 9 12 10 13
REMARK SMILES IDX 12 14 13 15 15 16 16 17 5 18 17 20 14 22
REMARK H PARENT 5 19 17 21 14 23
REMARK Flexibility Score: inf
ROOT
ATOM      1  C   UNL     1      19.659  -1.888 -29.740  1.00  0.00     0.044 C 
ATOM      2  C   UNL     1      18.857  -3.140 -29.931  1.00  0.00    -0.047 A 
ATOM      3  C   UNL     1      17.634  -3.302 -29.270  1.00  0.00     0.016 A 
ATOM      4  C   UNL     1      16.892  -4.488 -29.413  1.00  0.00     0.038 A 
ATOM      5  C   UNL     1      17.386  -5.530 -30.225  1.00  0.00     0.076 A 
ATOM      6  C   UNL     1      18.636  -5.375 -30.869  1.00  0.00     0.127 A 
ATOM      7  C   UNL     1      19.361  -4.187 -30.713  1.00  0.00     0.050 A 
ATOM      8  C   UNL     1      16.571  -6.761 -30.398  1.00  0.00     0.201 C 
ATOM      9  O   UNL     1      16.802  -7.525 -31.373  1.00  0.00    -0.288 OA
ATOM     10  C   UNL     1      15.416  -7.028 -29.495  1.00  0.00     0.076 A 
ATOM     11  C   UNL     1      14.898  -5.954 -28.733  1.00  0.00     0.041 A 
ATOM     12  C   UNL     1      15.596  -4.647 -28.716  1.00  0.00     0.194 C 
ATOM     13  O   UNL     1      15.093  -3.671 -28.092  1.00  0.00    -0.289 OA
ATOM     14  C   UNL     1      13.721  -6.132 -27.984  1.00  0.00     0.059 A 
ATOM     15  C   UNL     1      13.068  -7.366 -27.971  1.00  0.00     0.120 A 
ATOM     16  C   UNL     1      13.600  -8.439 -28.680  1.00  0.00     0.093 A 
ATOM     17  C   UNL     1      14.783  -8.298 -29.413  1.00  0.00     0.131 A 
ENDROOT
BRANCH   6  18
ATOM     18  O   UNL     1      19.165  -6.400 -31.652  1.00  0.00    -0.507 OA
ATOM     19  H   UNL     1      19.269  -7.344 -31.296  1.00  0.00     0.293 HD
ENDBRANCH   6  18
BRANCH  17  20
ATOM     20  O   UNL     1      15.306  -9.450 -30.007  1.00  0.00    -0.507 OA
ATOM     21  H   UNL     1      15.745  -9.461 -30.916  1.00  0.00     0.293 HD
ENDBRANCH  17  20
BRANCH  15  22
ATOM     22  O   UNL     1      11.893  -7.540 -27.241  1.00  0.00    -0.508 OA
ATOM     23  H   UNL     1      11.867  -7.401 -26.237  1.00  0.00     0.293 HD
ENDBRANCH  15  22
TORSDOF 3
ENDMDL
MODEL 3
REMARK VINA RESULT:    -5.387      3.013      6.790
REMARK INTER + INTRA:          -5.859
REMARK INTER:                  -5.859
REMARK INTRA:                   0.000
REMARK UNBOUND:                 0.000
REMARK SMILES Cc1cc(O)c2c(c1)C(=O)c1cc(O)cc(O)c1C2=O
REMARK SMILES IDX 1 1 2 2 8 3 7 4 6 5 4 6 3 7 19 8 20 9 18 10 11 11 9 12 10 13
REMARK SMILES IDX 12 14 13 15 15 16 16 17 5 18 17 20 14 22
REMARK H PARENT 5 19 17 21 14 23
REMARK Flexibility Score: inf
ROOT
ATOM      1  C   UNL     1      12.855  -6.644 -28.397  1.00  0.00     0.044 C 
ATOM      2  C   UNL     1      13.579  -6.811 -29.700  1.00  0.00    -0.047 A 
ATOM      3  C   UNL     1      14.973  -6.945 -29.719  1.00  0.00     0.016 A 
ATOM      4  C   UNL     1      15.665  -7.064 -30.937  1.00  0.00     0.038 A 
ATOM      5  C   UNL     1      14.952  -7.042 -32.154  1.00  0.00     0.076 A 
ATOM      6  C   UNL     1      13.547  -6.879 -32.132  1.00  0.00     0.127 A 
ATOM      7  C   UNL     1      12.875  -6.760 -30.909  1.00  0.00     0.050 A 
ATOM      8  C   UNL     1      15.694  -7.210 -33.431  1.00  0.00     0.201 C 
ATOM      9  O   UNL     1      15.070  -7.554 -34.470  1.00  0.00    -0.288 OA
ATOM     10  C   UNL     1      17.178  -7.087 -33.457  1.00  0.00     0.076 A 
ATOM     11  C   UNL     1      17.880  -7.170 -32.230  1.00  0.00     0.041 A 
ATOM     12  C   UNL     1      17.137  -7.212 -30.948  1.00  0.00     0.194 C 
ATOM     13  O   UNL     1      17.763  -7.357 -29.861  1.00  0.00    -0.289 OA
ATOM     14  C   UNL     1      19.285  -7.205 -32.230  1.00  0.00     0.059 A 
ATOM     15  C   UNL     1      19.998  -7.140 -33.429  1.00  0.00     0.120 A 
ATOM     16  C   UNL     1      19.314  -7.010 -34.635  1.00  0.00     0.093 A 
ATOM     17  C   UNL     1      17.917  -6.946 -34.663  1.00  0.00     0.131 A 
ENDROOT
BRANCH   6  18
ATOM     18  O   UNL     1      12.819  -6.822 -33.320  1.00  0.00    -0.507 OA
ATOM     19  H   UNL     1      11.930  -6.338 -33.378  1.00  0.00     0.293 HD
ENDBRANCH   6  18
BRANCH  17  20
ATOM     20  O   UNL     1      17.315  -6.707 -35.901  1.00  0.00    -0.507 OA
ATOM     21  H   UNL     1      17.481  -7.270 -36.723  1.00  0.00     0.293 HD
ENDBRANCH  17  20
BRANCH  15  22
ATOM     22  O   UNL     1      21.390  -7.191 -33.431  1.00  0.00    -0.508 OA
ATOM     23  H   UNL     1      21.926  -7.115 -32.574  1.00  0.00     0.293 HD
ENDBRANCH  15  22
TORSDOF 3
ENDMDL
MODEL 4
REMARK VINA RESULT:    -5.353      3.471      6.646
REMARK INTER + INTRA:          -5.822
REMARK INTER:                  -5.822
REMARK INTRA:                   0.000
REMARK UNBOUND:                 0.000
REMARK SMILES Cc1cc(O)c2c(c1)C(=O)c1cc(O)cc(O)c1C2=O
REMARK SMILES IDX 1 1 2 2 8 3 7 4 6 5 4 6 3 7 19 8 20 9 18 10 11 11 9 12 10 13
REMARK SMILES IDX 12 14 13 15 15 16 16 17 5 18 17 20 14 22
REMARK H PARENT 5 19 17 21 14 23
REMARK Flexibility Score: inf
ROOT
ATOM      1  C   UNL     1      11.108  -9.737 -34.159  1.00  0.00     0.044 C 
ATOM      2  C   UNL     1      12.271  -9.216 -33.367  1.00  0.00    -0.047 A 
ATOM      3  C   UNL     1      13.328  -8.564 -34.014  1.00  0.00     0.016 A 
ATOM      4  C   UNL     1      14.440  -8.105 -33.287  1.00  0.00     0.038 A 
ATOM      5  C   UNL     1      14.497  -8.306 -31.892  1.00  0.00     0.076 A 
ATOM      6  C   UNL     1      13.440  -8.989 -31.246  1.00  0.00     0.127 A 
ATOM      7  C   UNL     1      12.342  -9.441 -31.988  1.00  0.00     0.050 A 
ATOM      8  C   UNL     1      15.660  -7.778 -31.131  1.00  0.00     0.201 C 
ATOM      9  O   UNL     1      15.566  -7.621 -29.885  1.00  0.00    -0.288 OA
ATOM     10  C   UNL     1      16.885  -7.329 -31.851  1.00  0.00     0.076 A 
ATOM     11  C   UNL     1      16.791  -7.076 -33.241  1.00  0.00     0.041 A 
ATOM     12  C   UNL     1      15.550  -7.411 -33.977  1.00  0.00     0.194 C 
ATOM     13  O   UNL     1      15.445  -7.119 -35.201  1.00  0.00    -0.289 OA
ATOM     14  C   UNL     1      17.884  -6.513 -33.924  1.00  0.00     0.059 A 
ATOM     15  C   UNL     1      19.068  -6.216 -33.246  1.00  0.00     0.120 A 
ATOM     16  C   UNL     1      19.182  -6.508 -31.889  1.00  0.00     0.093 A 
ATOM     17  C   UNL     1      18.121  -7.093 -31.190  1.00  0.00     0.131 A 
ENDROOT
BRANCH   6  18
ATOM     18  O   UNL     1      13.484  -9.231 -29.873  1.00  0.00    -0.507 OA
ATOM     19  H   UNL     1      12.749  -9.743 -29.398  1.00  0.00     0.293 HD
ENDBRANCH   6  18
BRANCH  17  20
ATOM     20  O   UNL     1      18.355  -7.451 -29.861  1.00  0.00    -0.507 OA
ATOM     21  H   UNL     1      18.912  -6.902 -29.222  1.00  0.00     0.293 HD
ENDBRANCH  17  20
BRANCH  15  22
ATOM     22  O   UNL     1      20.146  -5.644 -33.918  1.00  0.00    -0.508 OA
ATOM     23  H   UNL     1      20.244  -4.639 -34.007  1.00  0.00     0.293 HD
ENDBRANCH  15  22
TORSDOF 3
ENDMDL
MODEL 5
REMARK VINA RESULT:    -5.310      2.974      6.335
REMARK INTER + INTRA:          -5.776
REMARK INTER:                  -5.776
REMARK INTRA:                   0.000
REMARK UNBOUND:                 0.000
REMARK SMILES Cc1cc(O)c2c(c1)C(=O)c1cc(O)cc(O)c1C2=O
REMARK SMILES IDX 1 1 2 2 8 3 7 4 6 5 4 6 3 7 19 8 20 9 18 10 11 11 9 12 10 13
REMARK SMILES IDX 12 14 13 15 15 16 16 17 5 18 17 20 14 22
REMARK H PARENT 5 19 17 21 14 23
REMARK Flexibility Score: inf
ROOT
ATOM      1  C   UNL     1      10.935  -7.714 -32.352  1.00  0.00     0.044 C 
ATOM      2  C   UNL     1      12.344  -7.393 -31.951  1.00  0.00    -0.047 A 
ATOM      3  C   UNL     1      13.371  -7.421 -32.903  1.00  0.00     0.016 A 
ATOM      4  C   UNL     1      14.701  -7.158 -32.530  1.00  0.00     0.038 A 
ATOM      5  C   UNL     1      15.009  -6.870 -31.184  1.00  0.00     0.076 A 
ATOM      6  C   UNL     1      13.973  -6.871 -30.221  1.00  0.00     0.127 A 
ATOM      7  C   UNL     1      12.654  -7.136 -30.611  1.00  0.00     0.050 A 
ATOM      8  C   UNL     1      16.413  -6.555 -30.814  1.00  0.00     0.201 C 
ATOM      9  O   UNL     1      16.649  -5.954 -29.733  1.00  0.00    -0.288 OA
ATOM     10  C   UNL     1      17.522  -6.843 -31.767  1.00  0.00     0.076 A 
ATOM     11  C   UNL     1      17.197  -7.071 -33.126  1.00  0.00     0.041 A 
ATOM     12  C   UNL     1      15.779  -7.183 -33.544  1.00  0.00     0.194 C 
ATOM     13  O   UNL     1      15.491  -7.316 -34.766  1.00  0.00    -0.289 OA
ATOM     14  C   UNL     1      18.223  -7.200 -34.078  1.00  0.00     0.059 A 
ATOM     15  C   UNL     1      19.563  -7.123 -33.693  1.00  0.00     0.120 A 
ATOM     16  C   UNL     1      19.889  -6.946 -32.351  1.00  0.00     0.093 A 
ATOM     17  C   UNL     1      18.889  -6.841 -31.378  1.00  0.00     0.131 A 
ENDROOT
BRANCH   6  18
ATOM     18  O   UNL     1      14.251  -6.621 -28.877  1.00  0.00    -0.507 OA
ATOM     19  H   UNL     1      13.728  -5.937 -28.342  1.00  0.00     0.293 HD
ENDBRANCH   6  18
BRANCH  17  20
ATOM     20  O   UNL     1      19.302  -6.775 -30.045  1.00  0.00    -0.507 OA
ATOM     21  H   UNL     1      19.102  -7.490 -29.361  1.00  0.00     0.293 HD
ENDBRANCH  17  20
BRANCH  15  22
ATOM     22  O   UNL     1      20.581  -7.235 -34.638  1.00  0.00    -0.508 OA
ATOM     23  H   UNL     1      21.434  -7.745 -34.441  1.00  0.00     0.293 HD
ENDBRANCH  15  22
TORSDOF 3
ENDMDL
MODEL 6
REMARK VINA RESULT:    -5.154      4.248      6.936
REMARK INTER + INTRA:          -5.606
REMARK INTER:                  -5.606
REMARK INTRA:                   0.000
REMARK UNBOUND:                 0.000
REMARK SMILES Cc1cc(O)c2c(c1)C(=O)c1cc(O)cc(O)c1C2=O
REMARK SMILES IDX 1 1 2 2 8 3 7 4 6 5 4 6 3 7 19 8 20 9 18 10 11 11 9 12 10 13
REMARK SMILES IDX 12 14 13 15 15 16 16 17 5 18 17 20 14 22
REMARK H PARENT 5 19 17 21 14 23
REMARK Flexibility Score: inf
ROOT
ATOM      1  C   UNL     1      10.878  -9.586 -36.327  1.00  0.00     0.044 C 
ATOM      2  C   UNL     1      11.606  -9.372 -35.034  1.00  0.00    -0.047 A 
ATOM      3  C   UNL     1      12.773  -8.597 -35.002  1.00  0.00     0.016 A 
ATOM      4  C   UNL     1      13.484  -8.421 -33.802  1.00  0.00     0.038 A 
ATOM      5  C   UNL     1      13.024  -9.034 -32.618  1.00  0.00     0.076 A 
ATOM      6  C   UNL     1      11.861  -9.838 -32.659  1.00  0.00     0.127 A 
ATOM      7  C   UNL     1      11.167 -10.003 -33.865  1.00  0.00     0.050 A 
ATOM      8  C   UNL     1      13.764  -8.805 -31.349  1.00  0.00     0.201 C 
ATOM      9  O   UNL     1      13.192  -9.026 -30.249  1.00  0.00    -0.288 OA
ATOM     10  C   UNL     1      15.129  -8.208 -31.376  1.00  0.00     0.076 A 
ATOM     11  C   UNL     1      15.549  -7.546 -32.554  1.00  0.00     0.041 A 
ATOM     12  C   UNL     1      14.711  -7.596 -33.775  1.00  0.00     0.194 C 
ATOM     13  O   UNL     1      15.055  -6.945 -34.802  1.00  0.00    -0.289 OA
ATOM     14  C   UNL     1      16.769  -6.846 -32.566  1.00  0.00     0.059 A 
ATOM     15  C   UNL     1      17.579  -6.813 -31.429  1.00  0.00     0.120 A 
ATOM     16  C   UNL     1      17.194  -7.503 -30.283  1.00  0.00     0.093 A 
ATOM     17  C   UNL     1      15.998  -8.229 -30.251  1.00  0.00     0.131 A 
ENDROOT
BRANCH   6  18
ATOM     18  O   UNL     1      11.400 -10.483 -31.512  1.00  0.00    -0.507 OA
ATOM     19  H   UNL     1      11.010 -11.418 -31.545  1.00  0.00     0.293 HD
ENDBRANCH   6  18
BRANCH  17  20
ATOM     20  O   UNL     1      15.739  -8.980 -29.102  1.00  0.00    -0.507 OA
ATOM     21  H   UNL     1      15.211  -9.841 -29.102  1.00  0.00     0.293 HD
ENDBRANCH  17  20
BRANCH  15  22
ATOM     22  O   UNL     1      18.781  -6.107 -31.434  1.00  0.00    -0.508 OA
ATOM     23  H   UNL     1      19.666  -6.567 -31.613  1.00  0.00     0.293 HD
ENDBRANCH  15  22
TORSDOF 3
ENDMDL
MODEL 7
REMARK VINA RESULT:    -5.055      3.676      4.945
REMARK INTER + INTRA:          -5.498
REMARK INTER:                  -5.498
REMARK INTRA:                   0.000
REMARK UNBOUND:                 0.000
REMARK SMILES Cc1cc(O)c2c(c1)C(=O)c1cc(O)cc(O)c1C2=O
REMARK SMILES IDX 1 1 2 2 8 3 7 4 6 5 4 6 3 7 19 8 20 9 18 10 11 11 9 12 10 13
REMARK SMILES IDX 12 14 13 15 15 16 16 17 5 18 17 20 14 22
REMARK H PARENT 5 19 17 21 14 23
REMARK Flexibility Score: inf
ROOT
ATOM      1  C   UNL     1      19.487  -6.033 -30.358  1.00  0.00     0.044 C 
ATOM      2  C   UNL     1      18.303  -6.391 -31.206  1.00  0.00    -0.047 A 
ATOM      3  C   UNL     1      17.232  -7.106 -30.655  1.00  0.00     0.016 A 
ATOM      4  C   UNL     1      16.134  -7.479 -31.450  1.00  0.00     0.038 A 
ATOM      5  C   UNL     1      16.112  -7.138 -32.819  1.00  0.00     0.076 A 
ATOM      6  C   UNL     1      17.208  -6.440 -33.378  1.00  0.00     0.127 A 
ATOM      7  C   UNL     1      18.293  -6.078 -32.570  1.00  0.00     0.050 A 
ATOM      8  C   UNL     1      14.926  -7.504 -33.637  1.00  0.00     0.201 C 
ATOM      9  O   UNL     1      14.719  -6.911 -34.729  1.00  0.00    -0.288 OA
ATOM     10  C   UNL     1      13.928  -8.479 -33.114  1.00  0.00     0.076 A 
ATOM     11  C   UNL     1      13.930  -8.764 -31.728  1.00  0.00     0.041 A 
ATOM     12  C   UNL     1      15.004  -8.228 -30.859  1.00  0.00     0.194 C 
ATOM     13  O   UNL     1      14.963  -8.425 -29.612  1.00  0.00    -0.289 OA
ATOM     14  C   UNL     1      12.913  -9.564 -31.177  1.00  0.00     0.059 A 
ATOM     15  C   UNL     1      11.910 -10.096 -31.989  1.00  0.00     0.120 A 
ATOM     16  C   UNL     1      11.931  -9.859 -33.361  1.00  0.00     0.093 A 
ATOM     17  C   UNL     1      12.945  -9.088 -33.940  1.00  0.00     0.131 A 
ENDROOT
BRANCH   6  18
ATOM     18  O   UNL     1      17.228  -6.117 -34.734  1.00  0.00    -0.507 OA
ATOM     19  H   UNL     1      16.540  -6.485 -35.381  1.00  0.00     0.293 HD
ENDBRANCH   6  18
BRANCH  17  20
ATOM     20  O   UNL     1      12.952  -8.990 -35.334  1.00  0.00    -0.507 OA
ATOM     21  H   UNL     1      12.618  -9.718 -35.949  1.00  0.00     0.293 HD
ENDBRANCH  17  20
BRANCH  15  22
ATOM     22  O   UNL     1      10.893 -10.877 -31.443  1.00  0.00    -0.508 OA
ATOM     23  H   UNL     1      10.887 -11.129 -30.461  1.00  0.00     0.293 HD
ENDBRANCH  15  22
TORSDOF 3
ENDMDL
MODEL 8
REMARK VINA RESULT:    -5.035      1.759      3.738
REMARK INTER + INTRA:          -5.476
REMARK INTER:                  -5.476
REMARK INTRA:                   0.000
REMARK UNBOUND:                 0.000
REMARK SMILES Cc1cc(O)c2c(c1)C(=O)c1cc(O)cc(O)c1C2=O
REMARK SMILES IDX 1 1 2 2 8 3 7 4 6 5 4 6 3 7 19 8 20 9 18 10 11 11 9 12 10 13
REMARK SMILES IDX 12 14 13 15 15 16 16 17 5 18 17 20 14 22
REMARK H PARENT 5 19 17 21 14 23
REMARK Flexibility Score: inf
ROOT
ATOM      1  C   UNL     1      20.011  -6.813 -33.561  1.00  0.00     0.044 C 
ATOM      2  C   UNL     1      18.838  -6.516 -32.675  1.00  0.00    -0.047 A 
ATOM      3  C   UNL     1      18.914  -5.490 -31.725  1.00  0.00     0.016 A 
ATOM      4  C   UNL     1      17.834  -5.227 -30.865  1.00  0.00     0.038 A 
ATOM      5  C   UNL     1      16.662  -6.008 -30.952  1.00  0.00     0.076 A 
ATOM      6  C   UNL     1      16.600  -7.062 -31.893  1.00  0.00     0.127 A 
ATOM      7  C   UNL     1      17.687  -7.309 -32.740  1.00  0.00     0.050 A 
ATOM      8  C   UNL     1      15.514  -5.692 -30.062  1.00  0.00     0.201 C 
ATOM      9  O   UNL     1      14.365  -6.115 -30.360  1.00  0.00    -0.288 OA
ATOM     10  C   UNL     1      15.698  -4.786 -28.894  1.00  0.00     0.076 A 
ATOM     11  C   UNL     1      16.852  -3.967 -28.855  1.00  0.00     0.041 A 
ATOM     12  C   UNL     1      17.920  -4.136 -29.869  1.00  0.00     0.194 C 
ATOM     13  O   UNL     1      18.914  -3.357 -29.874  1.00  0.00    -0.289 OA
ATOM     14  C   UNL     1      16.988  -2.997 -27.846  1.00  0.00     0.059 A 
ATOM     15  C   UNL     1      16.001  -2.846 -26.870  1.00  0.00     0.120 A 
ATOM     16  C   UNL     1      14.887  -3.681 -26.875  1.00  0.00     0.093 A 
ATOM     17  C   UNL     1      14.739  -4.672 -27.852  1.00  0.00     0.131 A 
ENDROOT
BRANCH   6  18
ATOM     18  O   UNL     1      15.467  -7.872 -31.980  1.00  0.00    -0.507 OA
ATOM     19  H   UNL     1      14.534  -7.480 -32.031  1.00  0.00     0.293 HD
ENDBRANCH   6  18
BRANCH  17  20
ATOM     20  O   UNL     1      13.649  -5.536 -27.722  1.00  0.00    -0.507 OA
ATOM     21  H   UNL     1      13.417  -6.252 -28.396  1.00  0.00     0.293 HD
ENDBRANCH  17  20
BRANCH  15  22
ATOM     22  O   UNL     1      16.126  -1.875 -25.878  1.00  0.00    -0.508 OA
ATOM     23  H   UNL     1      15.345  -1.617 -25.286  1.00  0.00     0.293 HD
ENDBRANCH  15  22
TORSDOF 3
ENDMDL
MODEL 9
REMARK VINA RESULT:    -4.979      1.889      6.087
REMARK INTER + INTRA:          -5.416
REMARK INTER:                  -5.416
REMARK INTRA:                   0.000
REMARK UNBOUND:                 0.000
REMARK SMILES Cc1cc(O)c2c(c1)C(=O)c1cc(O)cc(O)c1C2=O
REMARK SMILES IDX 1 1 2 2 8 3 7 4 6 5 4 6 3 7 19 8 20 9 18 10 11 11 9 12 10 13
REMARK SMILES IDX 12 14 13 15 15 16 16 17 5 18 17 20 14 22
REMARK H PARENT 5 19 17 21 14 23
REMARK Flexibility Score: inf
ROOT
ATOM      1  C   UNL     1      15.136  -1.979 -26.112  1.00  0.00     0.044 C 
ATOM      2  C   UNL     1      15.338  -3.092 -27.097  1.00  0.00    -0.047 A 
ATOM      3  C   UNL     1      16.483  -3.119 -27.903  1.00  0.00     0.016 A 
ATOM      4  C   UNL     1      16.664  -4.137 -28.856  1.00  0.00     0.038 A 
ATOM      5  C   UNL     1      15.682  -5.138 -29.008  1.00  0.00     0.076 A 
ATOM      6  C   UNL     1      14.515  -5.091 -28.212  1.00  0.00     0.127 A 
ATOM      7  C   UNL     1      14.351  -4.069 -27.269  1.00  0.00     0.050 A 
ATOM      8  C   UNL     1      15.908  -6.230 -29.992  1.00  0.00     0.201 C 
ATOM      9  O   UNL     1      15.251  -7.300 -29.892  1.00  0.00    -0.288 OA
ATOM     10  C   UNL     1      16.985  -6.106 -31.014  1.00  0.00     0.076 A 
ATOM     11  C   UNL     1      17.994  -5.134 -30.812  1.00  0.00     0.041 A 
ATOM     12  C   UNL     1      17.880  -4.163 -29.699  1.00  0.00     0.194 C 
ATOM     13  O   UNL     1      18.816  -3.344 -29.479  1.00  0.00    -0.289 OA
ATOM     14  C   UNL     1      19.102  -5.087 -31.676  1.00  0.00     0.059 A 
ATOM     15  C   UNL     1      19.208  -5.980 -32.744  1.00  0.00     0.120 A 
ATOM     16  C   UNL     1      18.195  -6.907 -32.976  1.00  0.00     0.093 A 
ATOM     17  C   UNL     1      17.069  -6.959 -32.148  1.00  0.00     0.131 A 
ENDROOT
BRANCH   6  18
ATOM     18  O   UNL     1      13.512  -6.049 -28.362  1.00  0.00    -0.507 OA
ATOM     19  H   UNL     1      13.624  -6.846 -28.978  1.00  0.00     0.293 HD
ENDBRANCH   6  18
BRANCH  17  20
ATOM     20  O   UNL     1      16.051  -7.843 -32.513  1.00  0.00    -0.507 OA
ATOM     21  H   UNL     1      16.039  -8.821 -32.259  1.00  0.00     0.293 HD
ENDBRANCH  17  20
BRANCH  15  22
ATOM     22  O   UNL     1      20.314  -5.945 -33.592  1.00  0.00    -0.508 OA
ATOM     23  H   UNL     1      20.409  -5.236 -34.310  1.00  0.00     0.293 HD
ENDBRANCH  15  22
TORSDOF 3
ENDMDL
