MODEL 1
REMARK VINA RESULT:    -6.172      0.000      0.000
REMARK INTER + INTRA:          -6.631
REMARK INTER:                  -6.532
REMARK INTRA:                  -0.099
REMARK UNBOUND:                -0.099
REMARK SMILES C=C(C)[C@@H]1CC=C(C)C(=O)C1
REMARK SMILES IDX 8 1 7 2 6 3 5 4 4 5 11 6 9 7 10 8 2 9 1 10 3 11
REMARK H PARENT
REMARK Flexibility Score: inf
ROOT
ATOM      1  C   UNL     1      19.812 199.357  15.654  1.00  0.00     0.048 C 
ATOM      2  C   UNL     1      19.871 200.851  15.489  1.00  0.00    -0.012 C 
ATOM      3  C   UNL     1      20.254 201.622  16.520  1.00  0.00    -0.019 C 
ATOM      4  C   UNL     1      20.348 203.121  16.406  1.00  0.00     0.036 C 
ATOM      5  C   UNL     1      19.287 203.669  15.433  1.00  0.00     0.025 C 
ATOM      6  C   UNL     1      19.403 202.971  14.067  1.00  0.00     0.089 C 
ATOM      7  C   UNL     1      19.388 201.477  14.233  1.00  0.00     0.158 C 
ATOM      8  O   UNL     1      18.995 200.756  13.276  1.00  0.00    -0.295 OA
ENDROOT
BRANCH   5   9
ATOM      9  C   UNL     1      19.388 205.182  15.295  1.00  0.00    -0.077 C 
ATOM     10  C   UNL     1      19.591 205.736  14.089  1.00  0.00     0.008 C 
ATOM     11  C   UNL     1      19.266 206.091  16.493  1.00  0.00     0.039 C 
ENDBRANCH   5   9
TORSDOF 1
ENDMDL
MODEL 2
REMARK VINA RESULT:    -5.644      1.891      4.853
REMARK INTER + INTRA:          -6.073
REMARK INTER:                  -5.976
REMARK INTRA:                  -0.097
REMARK UNBOUND:                -0.099
REMARK SMILES C=C(C)[C@@H]1CC=C(C)C(=O)C1
REMARK SMILES IDX 8 1 7 2 6 3 5 4 4 5 11 6 9 7 10 8 2 9 1 10 3 11
REMARK H PARENT
REMARK Flexibility Score: inf
ROOT
ATOM      1  C   UNL     1      19.077 204.438  13.871  1.00  0.00     0.048 C 
ATOM      2  C   UNL     1      19.388 203.061  14.389  1.00  0.00    -0.012 C 
ATOM      3  C   UNL     1      19.071 201.982  13.653  1.00  0.00    -0.019 C 
ATOM      4  C   UNL     1      19.377 200.582  14.115  1.00  0.00     0.036 C 
ATOM      5  C   UNL     1      19.293 200.474  15.650  1.00  0.00     0.025 C 
ATOM      6  C   UNL     1      20.209 201.520  16.309  1.00  0.00     0.089 C 
ATOM      7  C   UNL     1      19.929 202.891  15.761  1.00  0.00     0.158 C 
ATOM      8  O   UNL     1      20.194 203.901  16.467  1.00  0.00    -0.295 OA
ENDROOT
BRANCH   5   9
ATOM      9  C   UNL     1      19.619 199.066  16.127  1.00  0.00    -0.077 C 
ATOM     10  C   UNL     1      20.793 198.501  15.804  1.00  0.00     0.008 C 
ATOM     11  C   UNL     1      18.645 198.274  16.964  1.00  0.00     0.039 C 
ENDBRANCH   5   9
TORSDOF 1
ENDMDL
MODEL 3
REMARK VINA RESULT:    -5.628      2.194      4.644
REMARK INTER + INTRA:          -6.055
REMARK INTER:                  -5.968
REMARK INTRA:                  -0.087
REMARK UNBOUND:                -0.099
REMARK SMILES C=C(C)[C@@H]1CC=C(C)C(=O)C1
REMARK SMILES IDX 8 1 7 2 6 3 5 4 4 5 11 6 9 7 10 8 2 9 1 10 3 11
REMARK H PARENT
REMARK Flexibility Score: inf
ROOT
ATOM      1  C   UNL     1      19.890 207.028  16.960  1.00  0.00     0.048 C 
ATOM      2  C   UNL     1      19.797 205.667  16.325  1.00  0.00    -0.012 C 
ATOM      3  C   UNL     1      18.781 204.848  16.646  1.00  0.00    -0.019 C 
ATOM      4  C   UNL     1      18.629 203.484  16.028  1.00  0.00     0.036 C 
ATOM      5  C   UNL     1      20.003 202.861  15.715  1.00  0.00     0.025 C 
ATOM      6  C   UNL     1      20.832 203.812  14.834  1.00  0.00     0.089 C 
ATOM      7  C   UNL     1      20.890 205.185  15.445  1.00  0.00     0.158 C 
ATOM      8  O   UNL     1      21.862 205.939  15.171  1.00  0.00    -0.295 OA
ENDROOT
BRANCH   5   9
ATOM      9  C   UNL     1      19.859 201.489  15.072  1.00  0.00    -0.077 C 
ATOM     10  C   UNL     1      20.257 200.390  15.734  1.00  0.00     0.008 C 
ATOM     11  C   UNL     1      19.277 201.325  13.690  1.00  0.00     0.039 C 
ENDBRANCH   5   9
TORSDOF 1
ENDMDL
MODEL 4
REMARK VINA RESULT:    -5.382      2.210      4.512
REMARK INTER + INTRA:          -5.796
REMARK INTER:                  -5.709
REMARK INTRA:                  -0.087
REMARK UNBOUND:                -0.099
REMARK SMILES C=C(C)[C@@H]1CC=C(C)C(=O)C1
REMARK SMILES IDX 8 1 7 2 6 3 5 4 4 5 11 6 9 7 10 8 2 9 1 10 3 11
REMARK H PARENT
REMARK Flexibility Score: inf
ROOT
ATOM      1  C   UNL     1      21.112 206.842  15.777  1.00  0.00     0.048 C 
ATOM      2  C   UNL     1      20.779 205.385  15.608  1.00  0.00    -0.012 C 
ATOM      3  C   UNL     1      21.649 204.568  14.990  1.00  0.00    -0.019 C 
ATOM      4  C   UNL     1      21.375 203.099  14.810  1.00  0.00     0.036 C 
ATOM      5  C   UNL     1      19.868 202.833  14.637  1.00  0.00     0.025 C 
ATOM      6  C   UNL     1      19.081 203.434  15.815  1.00  0.00     0.089 C 
ATOM      7  C   UNL     1      19.444 204.879  16.012  1.00  0.00     0.158 C 
ATOM      8  O   UNL     1      18.613 205.652  16.561  1.00  0.00    -0.295 OA
ENDROOT
BRANCH   5   9
ATOM      9  C   UNL     1      19.579 201.347  14.474  1.00  0.00    -0.077 C 
ATOM     10  C   UNL     1      19.147 200.871  13.295  1.00  0.00     0.008 C 
ATOM     11  C   UNL     1      19.765 200.380  15.617  1.00  0.00     0.039 C 
ENDBRANCH   5   9
TORSDOF 1
ENDMDL
MODEL 5
REMARK VINA RESULT:    -5.281      1.714      2.610
REMARK INTER + INTRA:          -5.688
REMARK INTER:                  -5.589
REMARK INTRA:                  -0.099
REMARK UNBOUND:                -0.099
REMARK SMILES C=C(C)[C@@H]1CC=C(C)C(=O)C1
REMARK SMILES IDX 8 1 7 2 6 3 5 4 4 5 11 6 9 7 10 8 2 9 1 10 3 11
REMARK H PARENT
REMARK Flexibility Score: inf
ROOT
ATOM      1  C   UNL     1      19.743 200.441  15.217  1.00  0.00     0.048 C 
ATOM      2  C   UNL     1      19.659 201.938  15.096  1.00  0.00    -0.012 C 
ATOM      3  C   UNL     1      19.084 202.490  14.015  1.00  0.00    -0.019 C 
ATOM      4  C   UNL     1      18.956 203.981  13.851  1.00  0.00     0.036 C 
ATOM      5  C   UNL     1      20.143 204.714  14.506  1.00  0.00     0.025 C 
ATOM      6  C   UNL     1      20.279 204.298  15.982  1.00  0.00     0.089 C 
ATOM      7  C   UNL     1      20.319 202.800  16.108  1.00  0.00     0.158 C 
ATOM      8  O   UNL     1      20.891 202.283  17.106  1.00  0.00    -0.295 OA
ENDROOT
BRANCH   5   9
ATOM      9  C   UNL     1      20.013 206.224  14.363  1.00  0.00    -0.077 C 
ATOM     10  C   UNL     1      20.137 207.015  15.441  1.00  0.00     0.008 C 
ATOM     11  C   UNL     1      19.742 206.866  13.025  1.00  0.00     0.039 C 
ENDBRANCH   5   9
TORSDOF 1
ENDMDL
MODEL 6
REMARK VINA RESULT:    -5.134      2.463      5.021
REMARK INTER + INTRA:          -5.533
REMARK INTER:                  -5.440
REMARK INTRA:                  -0.093
REMARK UNBOUND:                -0.099
REMARK SMILES C=C(C)[C@@H]1CC=C(C)C(=O)C1
REMARK SMILES IDX 8 1 7 2 6 3 5 4 4 5 11 6 9 7 10 8 2 9 1 10 3 11
REMARK H PARENT
REMARK Flexibility Score: inf
ROOT
ATOM      1  C   UNL     1      20.096 207.781  13.351  1.00  0.00     0.048 C 
ATOM      2  C   UNL     1      20.150 206.336  13.764  1.00  0.00    -0.012 C 
ATOM      3  C   UNL     1      19.081 205.546  13.571  1.00  0.00    -0.019 C 
ATOM      4  C   UNL     1      19.086 204.088  13.949  1.00  0.00     0.036 C 
ATOM      5  C   UNL     1      19.968 203.841  15.188  1.00  0.00     0.025 C 
ATOM      6  C   UNL     1      21.387 204.387  14.951  1.00  0.00     0.089 C 
ATOM      7  C   UNL     1      21.333 205.819  14.496  1.00  0.00     0.158 C 
ATOM      8  O   UNL     1      22.324 206.569  14.710  1.00  0.00    -0.295 OA
ENDROOT
BRANCH   5   9
ATOM      9  C   UNL     1      19.995 202.366  15.566  1.00  0.00    -0.077 C 
ATOM     10  C   UNL     1      20.480 201.986  16.759  1.00  0.00     0.008 C 
ATOM     11  C   UNL     1      19.487 201.303  14.624  1.00  0.00     0.039 C 
ENDBRANCH   5   9
TORSDOF 1
ENDMDL
MODEL 7
REMARK VINA RESULT:    -5.065      1.776      2.544
REMARK INTER + INTRA:          -5.460
REMARK INTER:                  -5.361
REMARK INTRA:                  -0.099
REMARK UNBOUND:                -0.099
REMARK SMILES C=C(C)[C@@H]1CC=C(C)C(=O)C1
REMARK SMILES IDX 8 1 7 2 6 3 5 4 4 5 11 6 9 7 10 8 2 9 1 10 3 11
REMARK H PARENT
REMARK Flexibility Score: inf
ROOT
ATOM      1  C   UNL     1      19.988 201.100  15.515  1.00  0.00     0.048 C 
ATOM      2  C   UNL     1      20.071 202.595  15.662  1.00  0.00    -0.012 C 
ATOM      3  C   UNL     1      19.061 203.267  16.239  1.00  0.00    -0.019 C 
ATOM      4  C   UNL     1      19.100 204.760  16.429  1.00  0.00     0.036 C 
ATOM      5  C   UNL     1      19.879 205.443  15.289  1.00  0.00     0.025 C 
ATOM      6  C   UNL     1      21.286 204.834  15.164  1.00  0.00     0.089 C 
ATOM      7  C   UNL     1      21.208 203.336  15.060  1.00  0.00     0.158 C 
ATOM      8  O   UNL     1      22.140 202.710  14.487  1.00  0.00    -0.295 OA
ENDROOT
BRANCH   5   9
ATOM      9  C   UNL     1      19.940 206.952  15.482  1.00  0.00    -0.077 C 
ATOM     10  C   UNL     1      19.785 207.480  16.707  1.00  0.00     0.008 C 
ATOM     11  C   UNL     1      20.170 207.885  14.319  1.00  0.00     0.039 C 
ENDBRANCH   5   9
TORSDOF 1
ENDMDL
MODEL 8
REMARK VINA RESULT:    -5.060      2.375      3.040
REMARK INTER + INTRA:          -5.454
REMARK INTER:                  -5.361
REMARK INTRA:                  -0.093
REMARK UNBOUND:                -0.099
REMARK SMILES C=C(C)[C@@H]1CC=C(C)C(=O)C1
REMARK SMILES IDX 8 1 7 2 6 3 5 4 4 5 11 6 9 7 10 8 2 9 1 10 3 11
REMARK H PARENT
REMARK Flexibility Score: inf
ROOT
ATOM      1  C   UNL     1      20.122 201.433  16.359  1.00  0.00     0.048 C 
ATOM      2  C   UNL     1      20.479 202.679  15.597  1.00  0.00    -0.012 C 
ATOM      3  C   UNL     1      21.631 202.735  14.908  1.00  0.00    -0.019 C 
ATOM      4  C   UNL     1      22.030 203.950  14.114  1.00  0.00     0.036 C 
ATOM      5  C   UNL     1      21.508 205.239  14.775  1.00  0.00     0.025 C 
ATOM      6  C   UNL     1      19.986 205.153  14.986  1.00  0.00     0.089 C 
ATOM      7  C   UNL     1      19.623 203.886  15.709  1.00  0.00     0.158 C 
ATOM      8  O   UNL     1      18.558 203.848  16.384  1.00  0.00    -0.295 OA
ENDROOT
BRANCH   5   9
ATOM      9  C   UNL     1      21.890 206.473  13.968  1.00  0.00    -0.077 C 
ATOM     10  C   UNL     1      23.181 206.735  13.711  1.00  0.00     0.008 C 
ATOM     11  C   UNL     1      20.843 207.425  13.444  1.00  0.00     0.039 C 
ENDBRANCH   5   9
TORSDOF 1
ENDMDL
MODEL 9
REMARK VINA RESULT:    -4.915      2.625      4.974
REMARK INTER + INTRA:          -5.301
REMARK INTER:                  -5.204
REMARK INTRA:                  -0.097
REMARK UNBOUND:                -0.099
REMARK SMILES C=C(C)[C@@H]1CC=C(C)C(=O)C1
REMARK SMILES IDX 8 1 7 2 6 3 5 4 4 5 11 6 9 7 10 8 2 9 1 10 3 11
REMARK H PARENT
REMARK Flexibility Score: inf
ROOT
ATOM      1  C   UNL     1      22.158 208.097  13.300  1.00  0.00     0.048 C 
ATOM      2  C   UNL     1      21.416 207.052  14.086  1.00  0.00    -0.012 C 
ATOM      3  C   UNL     1      21.984 206.504  15.174  1.00  0.00    -0.019 C 
ATOM      4  C   UNL     1      21.279 205.468  16.008  1.00  0.00     0.036 C 
ATOM      5  C   UNL     1      20.361 204.588  15.138  1.00  0.00     0.025 C 
ATOM      6  C   UNL     1      19.378 205.466  14.343  1.00  0.00     0.089 C 
ATOM      7  C   UNL     1      20.115 206.539  13.591  1.00  0.00     0.158 C 
ATOM      8  O   UNL     1      19.596 207.026  12.550  1.00  0.00    -0.295 OA
ENDROOT
BRANCH   5   9
ATOM      9  C   UNL     1      19.629 203.549  15.975  1.00  0.00    -0.077 C 
ATOM     10  C   UNL     1      18.631 203.925  16.792  1.00  0.00     0.008 C 
ATOM     11  C   UNL     1      19.999 202.088  15.916  1.00  0.00     0.039 C 
ENDBRANCH   5   9
TORSDOF 1
ENDMDL
