MODEL 1
REMARK VINA RESULT:    -9.554      0.000      0.000
REMARK INTER + INTRA:         -17.052
REMARK INTER:                 -15.697
REMARK INTRA:                  -1.354
REMARK UNBOUND:                -1.354
REMARK SMILES COc1ccc([C@@H]2CC(=O)c3c(O)cc(O[C@@H]4O[C@@H](CO[C@H]5O[C@H](C)[C@H](O)[C@H](O)[C@@H]5O)[C@H](O)[C@@H](O)[C@H]4O)cc3O2)cc1O
REMARK SMILES IDX 19 1 32 2 34 3 36 4 17 5 18 6 20 7 21 8 22 9 25 10 24 11
REMARK SMILES IDX 26 12 23 13 28 14 30 15 27 16 29 18 31 20 33 22 35 24 16 26
REMARK SMILES IDX 15 27 14 28 38 29 12 30 39 31 11 32 40 33 9 34 7 35 10 36
REMARK SMILES IDX 8 37 13 38 6 40 41 41 5 42 42 43 4 44 3 45 43 46 2 48 1 49
REMARK SMILES IDX 37 50
REMARK H PARENT 27 17 29 19 31 21 33 23 35 25 13 39 43 47 37 51
REMARK Flexibility Score: inf
ROOT
ATOM      1  C   UNL     1     -64.013 -44.544 -39.205  1.00  0.00     0.180 C 
ATOM      2  C   UNL     1     -63.264 -43.444 -39.996  1.00  0.00     0.177 C 
ATOM      3  C   UNL     1     -62.810 -42.325 -39.039  1.00  0.00     0.180 C 
ATOM      4  C   UNL     1     -63.981 -41.841 -38.165  1.00  0.00     0.214 C 
ATOM      5  C   UNL     1     -64.670 -43.052 -37.499  1.00  0.00     0.339 C 
ATOM      6  O   UNL     1     -65.100 -43.983 -38.480  1.00  0.00    -0.332 OA
ENDROOT
BRANCH   1   7
ATOM      7  C   UNL     1     -64.554 -45.645 -40.149  1.00  0.00     0.198 C 
BRANCH   7   8
ATOM      8  O   UNL     1     -64.532 -45.199 -41.497  1.00  0.00    -0.347 OA
BRANCH   8   9
ATOM      9  C   UNL     1     -65.715 -44.529 -41.878  1.00  0.00     0.281 C 
ATOM     10  C   UNL     1     -67.190 -42.636 -43.660  1.00  0.00     0.041 C 
ATOM     11  C   UNL     1     -67.012 -44.160 -43.834  1.00  0.00     0.150 C 
ATOM     12  C   UNL     1     -68.225 -45.022 -43.384  1.00  0.00     0.174 C 
ATOM     13  O   UNL     1     -65.783 -44.620 -43.298  1.00  0.00    -0.344 OA
ATOM     14  C   UNL     1     -67.863 -45.921 -42.176  1.00  0.00     0.179 C 
ATOM     15  C   UNL     1     -66.936 -45.202 -41.171  1.00  0.00     0.202 C 
BRANCH  12  16
ATOM     16  O   UNL     1     -69.351 -44.213 -43.115  1.00  0.00    -0.388 OA
ATOM     17  H   UNL     1     -70.025 -44.797 -42.675  1.00  0.00     0.211 HD
ENDBRANCH  12  16
BRANCH  14  18
ATOM     18  O   UNL     1     -69.019 -46.383 -41.522  1.00  0.00    -0.387 OA
ATOM     19  H   UNL     1     -68.713 -47.017 -40.822  1.00  0.00     0.211 HD
ENDBRANCH  14  18
BRANCH  15  20
ATOM     20  O   UNL     1     -67.621 -44.273 -40.362  1.00  0.00    -0.385 OA
ATOM     21  H   UNL     1     -68.319 -44.759 -39.850  1.00  0.00     0.211 HD
ENDBRANCH  15  20
ENDBRANCH   8   9
ENDBRANCH   7   8
ENDBRANCH   1   7
BRANCH   2  22
ATOM     22  O   UNL     1     -62.137 -43.990 -40.626  1.00  0.00    -0.387 OA
ATOM     23  H   UNL     1     -62.448 -44.775 -41.150  1.00  0.00     0.211 HD
ENDBRANCH   2  22
BRANCH   3  24
ATOM     24  O   UNL     1     -62.287 -41.258 -39.793  1.00  0.00    -0.387 OA
ATOM     25  H   UNL     1     -61.310 -41.211 -39.605  1.00  0.00     0.211 HD
ENDBRANCH   3  24
BRANCH   5  26
ATOM     26  O   UNL     1     -63.795 -43.688 -36.553  1.00  0.00    -0.462 OA
BRANCH  26  27
ATOM     27  C   UNL     1     -63.032 -43.023 -35.578  1.00  0.00     0.130 A 
ATOM     28  C   UNL     1     -61.679 -42.699 -35.764  1.00  0.00     0.093 A 
ATOM     29  C   UNL     1     -63.659 -42.652 -34.388  1.00  0.00     0.094 A 
ATOM     30  C   UNL     1     -60.975 -41.958 -34.811  1.00  0.00     0.133 A 
ATOM     31  C   UNL     1     -62.950 -41.983 -33.384  1.00  0.00     0.138 A 
ATOM     32  C   UNL     1     -61.604 -41.609 -33.589  1.00  0.00     0.102 A 
ATOM     33  O   UNL     1     -63.601 -41.678 -32.181  1.00  0.00    -0.484 OA
ATOM     34  C   UNL     1     -60.944 -40.862 -32.487  1.00  0.00     0.174 C 
ATOM     35  C   UNL     1     -62.885 -41.250 -31.019  1.00  0.00     0.211 C 
ATOM     36  O   UNL     1     -59.691 -40.746 -32.420  1.00  0.00    -0.294 OA
ATOM     37  C   UNL     1     -61.790 -40.255 -31.412  1.00  0.00     0.131 C 
BRANCH  30  38
ATOM     38  O   UNL     1     -59.675 -41.565 -35.146  1.00  0.00    -0.507 OA
ATOM     39  H   UNL     1     -58.855 -42.131 -34.984  1.00  0.00     0.293 HD
ENDBRANCH  30  38
BRANCH  35  40
ATOM     40  C   UNL     1     -63.819 -40.641 -30.005  1.00  0.00    -0.003 A 
ATOM     41  C   UNL     1     -63.302 -40.111 -28.814  1.00  0.00     0.057 A 
ATOM     42  C   UNL     1     -65.196 -40.531 -30.257  1.00  0.00     0.011 A 
ATOM     43  C   UNL     1     -64.144 -39.511 -27.868  1.00  0.00     0.158 A 
ATOM     44  C   UNL     1     -66.045 -39.937 -29.315  1.00  0.00     0.051 A 
ATOM     45  C   UNL     1     -65.522 -39.427 -28.107  1.00  0.00     0.160 A 
BRANCH  43  46
ATOM     46  O   UNL     1     -63.619 -39.002 -26.680  1.00  0.00    -0.504 OA
ATOM     47  H   UNL     1     -63.784 -39.456 -25.791  1.00  0.00     0.293 HD
ENDBRANCH  43  46
BRANCH  45  48
ATOM     48  O   UNL     1     -66.332 -38.835 -27.126  1.00  0.00    -0.493 OA
ATOM     49  C   UNL     1     -67.003 -39.548 -26.087  1.00  0.00     0.278 C 
ENDBRANCH  45  48
ENDBRANCH  35  40
ENDBRANCH  26  27
ENDBRANCH   5  26
BRANCH   4  50
ATOM     50  O   UNL     1     -64.914 -41.146 -38.957  1.00  0.00    -0.384 OA
ATOM     51  H   UNL     1     -65.636 -40.837 -38.353  1.00  0.00     0.211 HD
ENDBRANCH   4  50
TORSDOF 15
ENDMDL
MODEL 2
REMARK VINA RESULT:    -9.196      2.165     11.666
REMARK INTER + INTRA:         -16.463
REMARK INTER:                 -15.062
REMARK INTRA:                  -1.401
REMARK UNBOUND:                -1.354
REMARK SMILES COc1ccc([C@@H]2CC(=O)c3c(O)cc(O[C@@H]4O[C@@H](CO[C@H]5O[C@H](C)[C@H](O)[C@H](O)[C@@H]5O)[C@H](O)[C@@H](O)[C@H]4O)cc3O2)cc1O
REMARK SMILES IDX 19 1 32 2 34 3 36 4 17 5 18 6 20 7 21 8 22 9 25 10 24 11
REMARK SMILES IDX 26 12 23 13 28 14 30 15 27 16 29 18 31 20 33 22 35 24 16 26
REMARK SMILES IDX 15 27 14 28 38 29 12 30 39 31 11 32 40 33 9 34 7 35 10 36
REMARK SMILES IDX 8 37 13 38 6 40 41 41 5 42 42 43 4 44 3 45 43 46 2 48 1 49
REMARK SMILES IDX 37 50
REMARK H PARENT 27 17 29 19 31 21 33 23 35 25 13 39 43 47 37 51
REMARK Flexibility Score: inf
ROOT
ATOM      1  C   UNL     1     -62.451 -41.595 -31.175  1.00  0.00     0.180 C 
ATOM      2  C   UNL     1     -61.159 -40.741 -31.145  1.00  0.00     0.177 C 
ATOM      3  C   UNL     1     -60.556 -40.648 -32.559  1.00  0.00     0.180 C 
ATOM      4  C   UNL     1     -60.419 -42.045 -33.190  1.00  0.00     0.214 C 
ATOM      5  C   UNL     1     -61.762 -42.799 -33.083  1.00  0.00     0.339 C 
ATOM      6  O   UNL     1     -62.185 -42.877 -31.731  1.00  0.00    -0.332 OA
ENDROOT
BRANCH   1   7
ATOM      7  C   UNL     1     -63.039 -41.776 -29.755  1.00  0.00     0.198 C 
BRANCH   7   8
ATOM      8  O   UNL     1     -64.412 -41.417 -29.735  1.00  0.00    -0.347 OA
BRANCH   8   9
ATOM      9  C   UNL     1     -64.771 -40.662 -28.597  1.00  0.00     0.281 C 
ATOM     10  C   UNL     1     -64.145 -39.540 -25.898  1.00  0.00     0.041 C 
ATOM     11  C   UNL     1     -63.899 -38.891 -27.277  1.00  0.00     0.150 C 
ATOM     12  C   UNL     1     -64.958 -37.837 -27.708  1.00  0.00     0.174 C 
ATOM     13  O   UNL     1     -63.641 -39.853 -28.285  1.00  0.00    -0.344 OA
ATOM     14  C   UNL     1     -65.746 -38.304 -28.956  1.00  0.00     0.179 C 
ATOM     15  C   UNL     1     -66.046 -39.819 -28.923  1.00  0.00     0.202 C 
BRANCH  12  16
ATOM     16  O   UNL     1     -65.820 -37.515 -26.636  1.00  0.00    -0.388 OA
ATOM     17  H   UNL     1     -65.279 -37.004 -25.977  1.00  0.00     0.211 HD
ENDBRANCH  12  16
BRANCH  14  18
ATOM     18  O   UNL     1     -66.940 -37.578 -29.106  1.00  0.00    -0.387 OA
ATOM     19  H   UNL     1     -67.067 -37.439 -30.080  1.00  0.00     0.211 HD
ENDBRANCH  14  18
BRANCH  15  20
ATOM     20  O   UNL     1     -67.103 -40.149 -28.049  1.00  0.00    -0.385 OA
ATOM     21  H   UNL     1     -66.738 -40.212 -27.128  1.00  0.00     0.211 HD
ENDBRANCH  15  20
ENDBRANCH   8   9
ENDBRANCH   7   8
ENDBRANCH   1   7
BRANCH   2  22
ATOM     22  O   UNL     1     -61.451 -39.448 -30.687  1.00  0.00    -0.387 OA
ATOM     23  H   UNL     1     -62.155 -39.537 -29.992  1.00  0.00     0.211 HD
ENDBRANCH   2  22
BRANCH   3  24
ATOM     24  O   UNL     1     -59.300 -40.018 -32.484  1.00  0.00    -0.387 OA
ATOM     25  H   UNL     1     -59.212 -39.637 -31.569  1.00  0.00     0.211 HD
ENDBRANCH   3  24
BRANCH   5  26
ATOM     26  O   UNL     1     -62.772 -42.173 -33.891  1.00  0.00    -0.462 OA
BRANCH  26  27
ATOM     27  C   UNL     1     -63.982 -42.767 -34.285  1.00  0.00     0.130 A 
ATOM     28  C   UNL     1     -64.911 -43.279 -33.366  1.00  0.00     0.093 A 
ATOM     29  C   UNL     1     -64.277 -42.826 -35.648  1.00  0.00     0.094 A 
ATOM     30  C   UNL     1     -66.145 -43.781 -33.787  1.00  0.00     0.133 A 
ATOM     31  C   UNL     1     -65.470 -43.402 -36.098  1.00  0.00     0.138 A 
ATOM     32  C   UNL     1     -66.430 -43.870 -35.174  1.00  0.00     0.102 A 
ATOM     33  O   UNL     1     -65.702 -43.493 -37.477  1.00  0.00    -0.484 OA
ATOM     34  C   UNL     1     -67.687 -44.424 -35.740  1.00  0.00     0.174 C 
ATOM     35  C   UNL     1     -66.751 -44.301 -38.017  1.00  0.00     0.211 C 
ATOM     36  O   UNL     1     -68.467 -45.137 -35.054  1.00  0.00    -0.294 OA
ATOM     37  C   UNL     1     -68.020 -44.150 -37.174  1.00  0.00     0.131 C 
BRANCH  30  38
ATOM     38  O   UNL     1     -67.059 -44.139 -32.791  1.00  0.00    -0.507 OA
ATOM     39  H   UNL     1     -66.803 -44.598 -31.929  1.00  0.00     0.293 HD
ENDBRANCH  30  38
BRANCH  35  40
ATOM     40  C   UNL     1     -67.023 -43.941 -39.456  1.00  0.00    -0.003 A 
ATOM     41  C   UNL     1     -66.145 -44.378 -40.458  1.00  0.00     0.057 A 
ATOM     42  C   UNL     1     -68.177 -43.232 -39.823  1.00  0.00     0.011 A 
ATOM     43  C   UNL     1     -66.391 -44.085 -41.806  1.00  0.00     0.158 A 
ATOM     44  C   UNL     1     -68.427 -42.930 -41.167  1.00  0.00     0.051 A 
ATOM     45  C   UNL     1     -67.529 -43.352 -42.171  1.00  0.00     0.160 A 
BRANCH  43  46
ATOM     46  O   UNL     1     -65.503 -44.512 -42.794  1.00  0.00    -0.504 OA
ATOM     47  H   UNL     1     -65.268 -45.489 -42.908  1.00  0.00     0.293 HD
ENDBRANCH  43  46
BRANCH  45  48
ATOM     48  O   UNL     1     -67.727 -43.063 -43.529  1.00  0.00    -0.493 OA
ATOM     49  C   UNL     1     -67.539 -41.780 -44.124  1.00  0.00     0.278 C 
ENDBRANCH  45  48
ENDBRANCH  35  40
ENDBRANCH  26  27
ENDBRANCH   5  26
BRANCH   4  50
ATOM     50  O   UNL     1     -59.416 -42.774 -32.524  1.00  0.00    -0.384 OA
ATOM     51  H   UNL     1     -59.544 -43.728 -32.760  1.00  0.00     0.211 HD
ENDBRANCH   4  50
TORSDOF 15
ENDMDL
MODEL 3
REMARK VINA RESULT:    -9.184      2.022      3.352
REMARK INTER + INTRA:         -16.444
REMARK INTER:                 -14.892
REMARK INTRA:                  -1.553
REMARK UNBOUND:                -1.354
REMARK SMILES COc1ccc([C@@H]2CC(=O)c3c(O)cc(O[C@@H]4O[C@@H](CO[C@H]5O[C@H](C)[C@H](O)[C@H](O)[C@@H]5O)[C@H](O)[C@@H](O)[C@H]4O)cc3O2)cc1O
REMARK SMILES IDX 19 1 32 2 34 3 36 4 17 5 18 6 20 7 21 8 22 9 25 10 24 11
REMARK SMILES IDX 26 12 23 13 28 14 30 15 27 16 29 18 31 20 33 22 35 24 16 26
REMARK SMILES IDX 15 27 14 28 38 29 12 30 39 31 11 32 40 33 9 34 7 35 10 36
REMARK SMILES IDX 8 37 13 38 6 40 41 41 5 42 42 43 4 44 3 45 43 46 2 48 1 49
REMARK SMILES IDX 37 50
REMARK H PARENT 27 17 29 19 31 21 33 23 35 25 13 39 43 47 37 51
REMARK Flexibility Score: inf
ROOT
ATOM      1  C   UNL     1     -66.953 -45.981 -38.373  1.00  0.00     0.180 C 
ATOM      2  C   UNL     1     -68.278 -45.182 -38.328  1.00  0.00     0.177 C 
ATOM      3  C   UNL     1     -68.155 -44.015 -37.330  1.00  0.00     0.180 C 
ATOM      4  C   UNL     1     -67.625 -44.508 -35.971  1.00  0.00     0.214 C 
ATOM      5  C   UNL     1     -66.345 -45.346 -36.184  1.00  0.00     0.339 C 
ATOM      6  O   UNL     1     -66.596 -46.425 -37.070  1.00  0.00    -0.332 OA
ENDROOT
BRANCH   1   7
ATOM      7  C   UNL     1     -67.070 -47.210 -39.307  1.00  0.00     0.198 C 
BRANCH   7   8
ATOM      8  O   UNL     1     -67.013 -46.808 -40.668  1.00  0.00    -0.347 OA
BRANCH   8   9
ATOM      9  C   UNL     1     -65.754 -46.291 -41.042  1.00  0.00     0.281 C 
ATOM     10  C   UNL     1     -62.824 -46.636 -41.526  1.00  0.00     0.041 C 
ATOM     11  C   UNL     1     -63.980 -46.805 -42.535  1.00  0.00     0.150 C 
ATOM     12  C   UNL     1     -64.214 -45.593 -43.481  1.00  0.00     0.174 C 
ATOM     13  O   UNL     1     -65.172 -47.255 -41.914  1.00  0.00    -0.344 OA
ATOM     14  C   UNL     1     -65.592 -44.935 -43.226  1.00  0.00     0.179 C 
ATOM     15  C   UNL     1     -65.953 -44.900 -41.725  1.00  0.00     0.202 C 
BRANCH  12  16
ATOM     16  O   UNL     1     -63.160 -44.658 -43.377  1.00  0.00    -0.388 OA
ATOM     17  H   UNL     1     -62.534 -44.848 -44.125  1.00  0.00     0.211 HD
ENDBRANCH  12  16
BRANCH  14  18
ATOM     18  O   UNL     1     -65.643 -43.638 -43.766  1.00  0.00    -0.387 OA
ATOM     19  H   UNL     1     -66.027 -43.053 -43.062  1.00  0.00     0.211 HD
ENDBRANCH  14  18
BRANCH  15  20
ATOM     20  O   UNL     1     -65.265 -43.891 -41.019  1.00  0.00    -0.385 OA
ATOM     21  H   UNL     1     -65.251 -43.072 -41.579  1.00  0.00     0.211 HD
ENDBRANCH  15  20
ENDBRANCH   8   9
ENDBRANCH   7   8
ENDBRANCH   1   7
BRANCH   2  22
ATOM     22  O   UNL     1     -68.570 -44.666 -39.598  1.00  0.00    -0.387 OA
ATOM     23  H   UNL     1     -69.024 -43.793 -39.461  1.00  0.00     0.211 HD
ENDBRANCH   2  22
BRANCH   3  24
ATOM     24  O   UNL     1     -69.415 -43.407 -37.173  1.00  0.00    -0.387 OA
ATOM     25  H   UNL     1     -69.774 -43.691 -36.289  1.00  0.00     0.211 HD
ENDBRANCH   3  24
BRANCH   5  26
ATOM     26  O   UNL     1     -65.270 -44.529 -36.678  1.00  0.00    -0.462 OA
BRANCH  26  27
ATOM     27  C   UNL     1     -64.348 -43.831 -35.881  1.00  0.00     0.130 A 
ATOM     28  C   UNL     1     -63.023 -43.598 -36.280  1.00  0.00     0.093 A 
ATOM     29  C   UNL     1     -64.782 -43.331 -34.652  1.00  0.00     0.094 A 
ATOM     30  C   UNL     1     -62.158 -42.822 -35.503  1.00  0.00     0.133 A 
ATOM     31  C   UNL     1     -63.909 -42.623 -33.819  1.00  0.00     0.138 A 
ATOM     32  C   UNL     1     -62.591 -42.342 -34.240  1.00  0.00     0.102 A 
ATOM     33  O   UNL     1     -64.368 -42.188 -32.568  1.00  0.00    -0.484 OA
ATOM     34  C   UNL     1     -61.749 -41.545 -33.310  1.00  0.00     0.174 C 
ATOM     35  C   UNL     1     -63.476 -41.707 -31.559  1.00  0.00     0.211 C 
ATOM     36  O   UNL     1     -60.495 -41.494 -33.428  1.00  0.00    -0.294 OA
ATOM     37  C   UNL     1     -62.406 -40.808 -32.185  1.00  0.00     0.131 C 
BRANCH  30  38
ATOM     38  O   UNL     1     -60.905 -42.529 -36.048  1.00  0.00    -0.507 OA
ATOM     39  H   UNL     1     -60.462 -43.077 -36.770  1.00  0.00     0.293 HD
ENDBRANCH  30  38
BRANCH  35  40
ATOM     40  C   UNL     1     -64.228 -40.968 -30.482  1.00  0.00    -0.003 A 
ATOM     41  C   UNL     1     -63.543 -40.504 -29.350  1.00  0.00     0.057 A 
ATOM     42  C   UNL     1     -65.594 -40.674 -30.619  1.00  0.00     0.011 A 
ATOM     43  C   UNL     1     -64.212 -39.787 -28.349  1.00  0.00     0.158 A 
ATOM     44  C   UNL     1     -66.271 -39.963 -29.622  1.00  0.00     0.051 A 
ATOM     45  C   UNL     1     -65.582 -39.518 -28.472  1.00  0.00     0.160 A 
BRANCH  43  46
ATOM     46  O   UNL     1     -63.523 -39.343 -27.220  1.00  0.00    -0.504 OA
ATOM     47  H   UNL     1     -63.650 -39.781 -26.316  1.00  0.00     0.293 HD
ENDBRANCH  43  46
BRANCH  45  48
ATOM     48  O   UNL     1     -66.217 -38.813 -27.438  1.00  0.00    -0.493 OA
ATOM     49  C   UNL     1     -66.865 -39.419 -26.320  1.00  0.00     0.278 C 
ENDBRANCH  45  48
ENDBRANCH  35  40
ENDBRANCH  26  27
ENDBRANCH   5  26
BRANCH   4  50
ATOM     50  O   UNL     1     -68.601 -45.297 -35.334  1.00  0.00    -0.384 OA
ATOM     51  H   UNL     1     -68.482 -46.226 -35.658  1.00  0.00     0.211 HD
ENDBRANCH   4  50
TORSDOF 15
ENDMDL
MODEL 4
REMARK VINA RESULT:    -9.077      2.970      4.920
REMARK INTER + INTRA:         -16.268
REMARK INTER:                 -14.202
REMARK INTRA:                  -2.066
REMARK UNBOUND:                -1.354
REMARK SMILES COc1ccc([C@@H]2CC(=O)c3c(O)cc(O[C@@H]4O[C@@H](CO[C@H]5O[C@H](C)[C@H](O)[C@H](O)[C@@H]5O)[C@H](O)[C@@H](O)[C@H]4O)cc3O2)cc1O
REMARK SMILES IDX 19 1 32 2 34 3 36 4 17 5 18 6 20 7 21 8 22 9 25 10 24 11
REMARK SMILES IDX 26 12 23 13 28 14 30 15 27 16 29 18 31 20 33 22 35 24 16 26
REMARK SMILES IDX 15 27 14 28 38 29 12 30 39 31 11 32 40 33 9 34 7 35 10 36
REMARK SMILES IDX 8 37 13 38 6 40 41 41 5 42 42 43 4 44 3 45 43 46 2 48 1 49
REMARK SMILES IDX 37 50
REMARK H PARENT 27 17 29 19 31 21 33 23 35 25 13 39 43 47 37 51
REMARK Flexibility Score: inf
ROOT
ATOM      1  C   UNL     1     -66.934 -44.480 -37.857  1.00  0.00     0.180 C 
ATOM      2  C   UNL     1     -66.950 -44.528 -39.404  1.00  0.00     0.177 C 
ATOM      3  C   UNL     1     -65.629 -43.968 -39.962  1.00  0.00     0.180 C 
ATOM      4  C   UNL     1     -65.306 -42.598 -39.339  1.00  0.00     0.214 C 
ATOM      5  C   UNL     1     -65.398 -42.691 -37.800  1.00  0.00     0.339 C 
ATOM      6  O   UNL     1     -66.678 -43.156 -37.403  1.00  0.00    -0.332 OA
ENDROOT
BRANCH   1   7
ATOM      7  C   UNL     1     -68.282 -44.961 -37.265  1.00  0.00     0.198 C 
BRANCH   7   8
ATOM      8  O   UNL     1     -68.506 -44.372 -35.993  1.00  0.00    -0.347 OA
BRANCH   8   9
ATOM      9  C   UNL     1     -68.407 -45.296 -34.929  1.00  0.00     0.281 C 
ATOM     10  C   UNL     1     -69.075 -47.928 -33.682  1.00  0.00     0.041 C 
ATOM     11  C   UNL     1     -67.877 -47.586 -34.593  1.00  0.00     0.150 C 
ATOM     12  C   UNL     1     -66.535 -47.330 -33.851  1.00  0.00     0.174 C 
ATOM     13  O   UNL     1     -68.189 -46.569 -35.529  1.00  0.00    -0.344 OA
ATOM     14  C   UNL     1     -66.063 -45.865 -34.024  1.00  0.00     0.179 C 
ATOM     15  C   UNL     1     -67.239 -44.865 -33.984  1.00  0.00     0.202 C 
BRANCH  12  16
ATOM     16  O   UNL     1     -66.631 -47.690 -32.488  1.00  0.00    -0.388 OA
ATOM     17  H   UNL     1     -66.539 -48.679 -32.447  1.00  0.00     0.211 HD
ENDBRANCH  12  16
BRANCH  14  18
ATOM     18  O   UNL     1     -65.103 -45.522 -33.056  1.00  0.00    -0.387 OA
ATOM     19  H   UNL     1     -65.033 -44.532 -33.064  1.00  0.00     0.211 HD
ENDBRANCH  14  18
BRANCH  15  20
ATOM     20  O   UNL     1     -67.713 -44.629 -32.677  1.00  0.00    -0.385 OA
ATOM     21  H   UNL     1     -68.263 -43.803 -32.688  1.00  0.00     0.211 HD
ENDBRANCH  15  20
ENDBRANCH   8   9
ENDBRANCH   7   8
ENDBRANCH   1   7
BRANCH   2  22
ATOM     22  O   UNL     1     -67.105 -45.851 -39.841  1.00  0.00    -0.387 OA
ATOM     23  H   UNL     1     -66.202 -46.266 -39.838  1.00  0.00     0.211 HD
ENDBRANCH   2  22
BRANCH   3  24
ATOM     24  O   UNL     1     -65.728 -43.859 -41.362  1.00  0.00    -0.387 OA
ATOM     25  H   UNL     1     -65.476 -44.742 -41.747  1.00  0.00     0.211 HD
ENDBRANCH   3  24
BRANCH   5  26
ATOM     26  O   UNL     1     -64.367 -43.541 -37.271  1.00  0.00    -0.462 OA
BRANCH  26  27
ATOM     27  C   UNL     1     -63.532 -43.227 -36.187  1.00  0.00     0.130 A 
ATOM     28  C   UNL     1     -62.133 -43.318 -36.255  1.00  0.00     0.093 A 
ATOM     29  C   UNL     1     -64.124 -42.785 -35.003  1.00  0.00     0.094 A 
ATOM     30  C   UNL     1     -61.328 -42.911 -35.187  1.00  0.00     0.133 A 
ATOM     31  C   UNL     1     -63.341 -42.452 -33.892  1.00  0.00     0.138 A 
ATOM     32  C   UNL     1     -61.932 -42.492 -33.974  1.00  0.00     0.102 A 
ATOM     33  O   UNL     1     -63.977 -42.066 -32.704  1.00  0.00    -0.484 OA
ATOM     34  C   UNL     1     -61.181 -42.079 -32.760  1.00  0.00     0.174 C 
ATOM     35  C   UNL     1     -63.274 -41.978 -31.462  1.00  0.00     0.211 C 
ATOM     36  O   UNL     1     -59.962 -42.358 -32.606  1.00  0.00    -0.294 OA
ATOM     37  C   UNL     1     -61.901 -41.336 -31.678  1.00  0.00     0.131 C 
BRANCH  30  38
ATOM     38  O   UNL     1     -59.946 -42.907 -35.399  1.00  0.00    -0.507 OA
ATOM     39  H   UNL     1     -59.367 -42.083 -35.329  1.00  0.00     0.293 HD
ENDBRANCH  30  38
BRANCH  35  40
ATOM     40  C   UNL     1     -64.071 -41.201 -30.445  1.00  0.00    -0.003 A 
ATOM     41  C   UNL     1     -63.434 -40.695 -29.303  1.00  0.00     0.057 A 
ATOM     42  C   UNL     1     -65.429 -40.914 -30.651  1.00  0.00     0.011 A 
ATOM     43  C   UNL     1     -64.145 -39.943 -28.358  1.00  0.00     0.158 A 
ATOM     44  C   UNL     1     -66.148 -40.167 -29.710  1.00  0.00     0.051 A 
ATOM     45  C   UNL     1     -65.508 -39.680 -28.549  1.00  0.00     0.160 A 
BRANCH  43  46
ATOM     46  O   UNL     1     -63.504 -39.458 -27.218  1.00  0.00    -0.504 OA
ATOM     47  H   UNL     1     -64.017 -39.249 -26.370  1.00  0.00     0.293 HD
ENDBRANCH  43  46
BRANCH  45  48
ATOM     48  O   UNL     1     -66.186 -38.939 -27.569  1.00  0.00    -0.493 OA
ATOM     49  C   UNL     1     -66.929 -39.506 -26.490  1.00  0.00     0.278 C 
ENDBRANCH  45  48
ENDBRANCH  35  40
ENDBRANCH  26  27
ENDBRANCH   5  26
BRANCH   4  50
ATOM     50  O   UNL     1     -66.218 -41.633 -39.807  1.00  0.00    -0.384 OA
ATOM     51  H   UNL     1     -65.934 -40.760 -39.435  1.00  0.00     0.211 HD
ENDBRANCH   4  50
TORSDOF 15
ENDMDL
MODEL 5
REMARK VINA RESULT:    -9.022      1.288      2.121
REMARK INTER + INTRA:         -16.178
REMARK INTER:                 -14.611
REMARK INTRA:                  -1.568
REMARK UNBOUND:                -1.354
REMARK SMILES COc1ccc([C@@H]2CC(=O)c3c(O)cc(O[C@@H]4O[C@@H](CO[C@H]5O[C@H](C)[C@H](O)[C@H](O)[C@@H]5O)[C@H](O)[C@@H](O)[C@H]4O)cc3O2)cc1O
REMARK SMILES IDX 19 1 32 2 34 3 36 4 17 5 18 6 20 7 21 8 22 9 25 10 24 11
REMARK SMILES IDX 26 12 23 13 28 14 30 15 27 16 29 18 31 20 33 22 35 24 16 26
REMARK SMILES IDX 15 27 14 28 38 29 12 30 39 31 11 32 40 33 9 34 7 35 10 36
REMARK SMILES IDX 8 37 13 38 6 40 41 41 5 42 42 43 4 44 3 45 43 46 2 48 1 49
REMARK SMILES IDX 37 50
REMARK H PARENT 27 17 29 19 31 21 33 23 35 25 13 39 43 47 37 51
REMARK Flexibility Score: inf
ROOT
ATOM      1  C   UNL     1     -64.996 -43.309 -39.128  1.00  0.00     0.180 C 
ATOM      2  C   UNL     1     -64.042 -44.251 -39.903  1.00  0.00     0.177 C 
ATOM      3  C   UNL     1     -62.657 -44.267 -39.229  1.00  0.00     0.180 C 
ATOM      4  C   UNL     1     -62.141 -42.836 -38.997  1.00  0.00     0.214 C 
ATOM      5  C   UNL     1     -63.225 -42.001 -38.280  1.00  0.00     0.339 C 
ATOM      6  O   UNL     1     -64.433 -42.007 -39.024  1.00  0.00    -0.332 OA
ENDROOT
BRANCH   1   7
ATOM      7  C   UNL     1     -66.374 -43.206 -39.826  1.00  0.00     0.198 C 
BRANCH   7   8
ATOM      8  O   UNL     1     -66.224 -43.281 -41.236  1.00  0.00    -0.347 OA
BRANCH   8   9
ATOM      9  C   UNL     1     -67.073 -44.238 -41.834  1.00  0.00     0.281 C 
ATOM     10  C   UNL     1     -67.672 -46.218 -43.991  1.00  0.00     0.041 C 
ATOM     11  C   UNL     1     -66.965 -46.469 -42.641  1.00  0.00     0.150 C 
ATOM     12  C   UNL     1     -67.862 -47.083 -41.530  1.00  0.00     0.174 C 
ATOM     13  O   UNL     1     -66.240 -45.334 -42.198  1.00  0.00    -0.344 OA
ATOM     14  C   UNL     1     -68.045 -46.103 -40.345  1.00  0.00     0.179 C 
ATOM     15  C   UNL     1     -68.189 -44.639 -40.815  1.00  0.00     0.202 C 
BRANCH  12  16
ATOM     16  O   UNL     1     -69.104 -47.505 -42.055  1.00  0.00    -0.388 OA
ATOM     17  H   UNL     1     -69.768 -47.427 -41.319  1.00  0.00     0.211 HD
ENDBRANCH  12  16
BRANCH  14  18
ATOM     18  O   UNL     1     -69.146 -46.466 -39.550  1.00  0.00    -0.387 OA
ATOM     19  H   UNL     1     -69.138 -45.862 -38.762  1.00  0.00     0.211 HD
ENDBRANCH  14  18
BRANCH  15  20
ATOM     20  O   UNL     1     -69.469 -44.355 -41.336  1.00  0.00    -0.385 OA
ATOM     21  H   UNL     1     -70.066 -44.112 -40.582  1.00  0.00     0.211 HD
ENDBRANCH  15  20
ENDBRANCH   8   9
ENDBRANCH   7   8
ENDBRANCH   1   7
BRANCH   2  22
ATOM     22  O   UNL     1     -64.559 -45.553 -39.915  1.00  0.00    -0.387 OA
ATOM     23  H   UNL     1     -64.878 -45.732 -40.838  1.00  0.00     0.211 HD
ENDBRANCH   2  22
BRANCH   3  24
ATOM     24  O   UNL     1     -61.759 -44.987 -40.039  1.00  0.00    -0.387 OA
ATOM     25  H   UNL     1     -60.974 -44.398 -40.209  1.00  0.00     0.211 HD
ENDBRANCH   3  24
BRANCH   5  26
ATOM     26  O   UNL     1     -63.453 -42.487 -36.947  1.00  0.00    -0.462 OA
BRANCH  26  27
ATOM     27  C   UNL     1     -62.794 -42.031 -35.793  1.00  0.00     0.130 A 
ATOM     28  C   UNL     1     -61.431 -41.698 -35.778  1.00  0.00     0.093 A 
ATOM     29  C   UNL     1     -63.539 -41.884 -34.622  1.00  0.00     0.094 A 
ATOM     30  C   UNL     1     -60.829 -41.162 -34.636  1.00  0.00     0.133 A 
ATOM     31  C   UNL     1     -62.937 -41.429 -33.443  1.00  0.00     0.138 A 
ATOM     32  C   UNL     1     -61.580 -41.043 -33.438  1.00  0.00     0.102 A 
ATOM     33  O   UNL     1     -63.707 -41.349 -32.275  1.00  0.00    -0.484 OA
ATOM     34  C   UNL     1     -61.037 -40.529 -32.154  1.00  0.00     0.174 C 
ATOM     35  C   UNL     1     -63.114 -41.161 -30.988  1.00  0.00     0.211 C 
ATOM     36  O   UNL     1     -59.797 -40.447 -31.942  1.00  0.00    -0.294 OA
ATOM     37  C   UNL     1     -61.989 -40.125 -31.072  1.00  0.00     0.131 C 
BRANCH  30  38
ATOM     38  O   UNL     1     -59.504 -40.732 -34.759  1.00  0.00    -0.507 OA
ATOM     39  H   UNL     1     -58.704 -41.286 -34.492  1.00  0.00     0.293 HD
ENDBRANCH  30  38
BRANCH  35  40
ATOM     40  C   UNL     1     -64.147 -40.742 -29.973  1.00  0.00    -0.003 A 
ATOM     41  C   UNL     1     -65.476 -41.164 -30.121  1.00  0.00     0.057 A 
ATOM     42  C   UNL     1     -63.794 -39.991 -28.841  1.00  0.00     0.011 A 
ATOM     43  C   UNL     1     -66.450 -40.815 -29.176  1.00  0.00     0.158 A 
ATOM     44  C   UNL     1     -64.761 -39.635 -27.895  1.00  0.00     0.051 A 
ATOM     45  C   UNL     1     -66.103 -40.041 -28.060  1.00  0.00     0.160 A 
BRANCH  43  46
ATOM     46  O   UNL     1     -67.773 -41.228 -29.342  1.00  0.00    -0.504 OA
ATOM     47  H   UNL     1     -68.524 -40.835 -28.789  1.00  0.00     0.293 HD
ENDBRANCH  43  46
BRANCH  45  48
ATOM     48  O   UNL     1     -67.112 -39.699 -27.148  1.00  0.00    -0.493 OA
ATOM     49  C   UNL     1     -66.892 -39.368 -25.777  1.00  0.00     0.278 C 
ENDBRANCH  45  48
ENDBRANCH  35  40
ENDBRANCH  26  27
ENDBRANCH   5  26
BRANCH   4  50
ATOM     50  O   UNL     1     -61.826 -42.235 -40.231  1.00  0.00    -0.384 OA
ATOM     51  H   UNL     1     -61.260 -42.878 -40.731  1.00  0.00     0.211 HD
ENDBRANCH   4  50
TORSDOF 15
ENDMDL
MODEL 6
REMARK VINA RESULT:    -8.954      3.320      5.679
REMARK INTER + INTRA:         -16.066
REMARK INTER:                 -14.388
REMARK INTRA:                  -1.678
REMARK UNBOUND:                -1.354
REMARK SMILES COc1ccc([C@@H]2CC(=O)c3c(O)cc(O[C@@H]4O[C@@H](CO[C@H]5O[C@H](C)[C@H](O)[C@H](O)[C@@H]5O)[C@H](O)[C@@H](O)[C@H]4O)cc3O2)cc1O
REMARK SMILES IDX 19 1 32 2 34 3 36 4 17 5 18 6 20 7 21 8 22 9 25 10 24 11
REMARK SMILES IDX 26 12 23 13 28 14 30 15 27 16 29 18 31 20 33 22 35 24 16 26
REMARK SMILES IDX 15 27 14 28 38 29 12 30 39 31 11 32 40 33 9 34 7 35 10 36
REMARK SMILES IDX 8 37 13 38 6 40 41 41 5 42 42 43 4 44 3 45 43 46 2 48 1 49
REMARK SMILES IDX 37 50
REMARK H PARENT 27 17 29 19 31 21 33 23 35 25 13 39 43 47 37 51
REMARK Flexibility Score: inf
ROOT
ATOM      1  C   UNL     1     -60.238 -46.659 -36.613  1.00  0.00     0.180 C 
ATOM      2  C   UNL     1     -59.173 -47.781 -36.691  1.00  0.00     0.177 C 
ATOM      3  C   UNL     1     -58.759 -48.213 -35.272  1.00  0.00     0.180 C 
ATOM      4  C   UNL     1     -58.383 -46.992 -34.414  1.00  0.00     0.214 C 
ATOM      5  C   UNL     1     -59.506 -45.935 -34.491  1.00  0.00     0.339 C 
ATOM      6  O   UNL     1     -59.755 -45.568 -35.838  1.00  0.00    -0.332 OA
ENDROOT
BRANCH   1   7
ATOM      7  C   UNL     1     -60.617 -46.144 -38.023  1.00  0.00     0.198 C 
BRANCH   7   8
ATOM      8  O   UNL     1     -62.023 -46.200 -38.212  1.00  0.00    -0.347 OA
BRANCH   8   9
ATOM      9  C   UNL     1     -62.596 -44.940 -38.491  1.00  0.00     0.281 C 
ATOM     10  C   UNL     1     -63.989 -42.448 -37.608  1.00  0.00     0.041 C 
ATOM     11  C   UNL     1     -62.470 -42.704 -37.701  1.00  0.00     0.150 C 
ATOM     12  C   UNL     1     -61.779 -42.127 -38.969  1.00  0.00     0.174 C 
ATOM     13  O   UNL     1     -62.140 -44.062 -37.466  1.00  0.00    -0.344 OA
ATOM     14  C   UNL     1     -61.219 -43.255 -39.870  1.00  0.00     0.179 C 
ATOM     15  C   UNL     1     -62.155 -44.482 -39.919  1.00  0.00     0.202 C 
BRANCH  12  16
ATOM     16  O   UNL     1     -62.654 -41.275 -39.680  1.00  0.00    -0.388 OA
ATOM     17  H   UNL     1     -62.137 -40.910 -40.447  1.00  0.00     0.211 HD
ENDBRANCH  12  16
BRANCH  14  18
ATOM     18  O   UNL     1     -60.967 -42.787 -41.172  1.00  0.00    -0.387 OA
ATOM     19  H   UNL     1     -61.826 -42.846 -41.665  1.00  0.00     0.211 HD
ENDBRANCH  14  18
BRANCH  15  20
ATOM     20  O   UNL     1     -63.277 -44.283 -40.750  1.00  0.00    -0.385 OA
ATOM     21  H   UNL     1     -63.679 -43.403 -40.526  1.00  0.00     0.211 HD
ENDBRANCH  15  20
ENDBRANCH   8   9
ENDBRANCH   7   8
ENDBRANCH   1   7
BRANCH   2  22
ATOM     22  O   UNL     1     -59.695 -48.889 -37.372  1.00  0.00    -0.387 OA
ATOM     23  H   UNL     1     -60.208 -48.540 -38.148  1.00  0.00     0.211 HD
ENDBRANCH   2  22
BRANCH   3  24
ATOM     24  O   UNL     1     -57.674 -49.105 -35.360  1.00  0.00    -0.387 OA
ATOM     25  H   UNL     1     -57.366 -49.107 -36.307  1.00  0.00     0.211 HD
ENDBRANCH   3  24
BRANCH   5  26
ATOM     26  O   UNL     1     -60.709 -46.413 -33.868  1.00  0.00    -0.462 OA
BRANCH  26  27
ATOM     27  C   UNL     1     -61.927 -45.716 -33.812  1.00  0.00     0.130 A 
ATOM     28  C   UNL     1     -63.024 -46.037 -34.627  1.00  0.00     0.093 A 
ATOM     29  C   UNL     1     -62.053 -44.678 -32.888  1.00  0.00     0.094 A 
ATOM     30  C   UNL     1     -64.250 -45.382 -34.482  1.00  0.00     0.133 A 
ATOM     31  C   UNL     1     -63.244 -43.953 -32.784  1.00  0.00     0.138 A 
ATOM     32  C   UNL     1     -64.366 -44.306 -33.564  1.00  0.00     0.102 A 
ATOM     33  O   UNL     1     -63.310 -42.881 -31.883  1.00  0.00    -0.484 OA
ATOM     34  C   UNL     1     -65.603 -43.510 -33.355  1.00  0.00     0.174 C 
ATOM     35  C   UNL     1     -64.379 -41.931 -31.912  1.00  0.00     0.211 C 
ATOM     36  O   UNL     1     -66.550 -43.524 -34.186  1.00  0.00    -0.294 OA
ATOM     37  C   UNL     1     -65.714 -42.647 -32.137  1.00  0.00     0.131 C 
BRANCH  30  38
ATOM     38  O   UNL     1     -65.322 -45.865 -35.240  1.00  0.00    -0.507 OA
ATOM     39  H   UNL     1     -66.193 -45.370 -35.364  1.00  0.00     0.293 HD
ENDBRANCH  30  38
BRANCH  35  40
ATOM     40  C   UNL     1     -64.417 -41.123 -30.640  1.00  0.00    -0.003 A 
ATOM     41  C   UNL     1     -65.540 -40.336 -30.350  1.00  0.00     0.057 A 
ATOM     42  C   UNL     1     -63.375 -41.193 -29.702  1.00  0.00     0.011 A 
ATOM     43  C   UNL     1     -65.614 -39.600 -29.159  1.00  0.00     0.158 A 
ATOM     44  C   UNL     1     -63.439 -40.457 -28.513  1.00  0.00     0.051 A 
ATOM     45  C   UNL     1     -64.561 -39.648 -28.236  1.00  0.00     0.160 A 
BRANCH  43  46
ATOM     46  O   UNL     1     -66.731 -38.809 -28.889  1.00  0.00    -0.504 OA
ATOM     47  H   UNL     1     -66.640 -37.831 -28.642  1.00  0.00     0.293 HD
ENDBRANCH  43  46
BRANCH  45  48
ATOM     48  O   UNL     1     -64.668 -38.881 -27.066  1.00  0.00    -0.493 OA
ATOM     49  C   UNL     1     -64.099 -37.584 -26.889  1.00  0.00     0.278 C 
ENDBRANCH  45  48
ENDBRANCH  35  40
ENDBRANCH  26  27
ENDBRANCH   5  26
BRANCH   4  50
ATOM     50  O   UNL     1     -57.178 -46.433 -34.880  1.00  0.00    -0.384 OA
ATOM     51  H   UNL     1     -57.114 -46.644 -35.846  1.00  0.00     0.211 HD
ENDBRANCH   4  50
TORSDOF 15
ENDMDL
MODEL 7
REMARK VINA RESULT:    -8.922      2.988     11.519
REMARK INTER + INTRA:         -16.014
REMARK INTER:                 -15.068
REMARK INTRA:                  -0.946
REMARK UNBOUND:                -1.354
REMARK SMILES COc1ccc([C@@H]2CC(=O)c3c(O)cc(O[C@@H]4O[C@@H](CO[C@H]5O[C@H](C)[C@H](O)[C@H](O)[C@@H]5O)[C@H](O)[C@@H](O)[C@H]4O)cc3O2)cc1O
REMARK SMILES IDX 19 1 32 2 34 3 36 4 17 5 18 6 20 7 21 8 22 9 25 10 24 11
REMARK SMILES IDX 26 12 23 13 28 14 30 15 27 16 29 18 31 20 33 22 35 24 16 26
REMARK SMILES IDX 15 27 14 28 38 29 12 30 39 31 11 32 40 33 9 34 7 35 10 36
REMARK SMILES IDX 8 37 13 38 6 40 41 41 5 42 42 43 4 44 3 45 43 46 2 48 1 49
REMARK SMILES IDX 37 50
REMARK H PARENT 27 17 29 19 31 21 33 23 35 25 13 39 43 47 37 51
REMARK Flexibility Score: inf
ROOT
ATOM      1  C   UNL     1     -61.464 -41.528 -31.109  1.00  0.00     0.180 C 
ATOM      2  C   UNL     1     -62.254 -40.784 -32.214  1.00  0.00     0.177 C 
ATOM      3  C   UNL     1     -61.957 -41.415 -33.588  1.00  0.00     0.180 C 
ATOM      4  C   UNL     1     -60.440 -41.540 -33.819  1.00  0.00     0.214 C 
ATOM      5  C   UNL     1     -59.784 -42.236 -32.606  1.00  0.00     0.339 C 
ATOM      6  O   UNL     1     -60.074 -41.532 -31.409  1.00  0.00    -0.332 OA
ENDROOT
BRANCH   1   7
ATOM      7  C   UNL     1     -61.676 -40.868 -29.725  1.00  0.00     0.198 C 
BRANCH   7   8
ATOM      8  O   UNL     1     -62.866 -41.353 -29.119  1.00  0.00    -0.347 OA
BRANCH   8   9
ATOM      9  C   UNL     1     -63.906 -40.397 -29.097  1.00  0.00     0.281 C 
ATOM     10  C   UNL     1     -66.394 -39.212 -30.254  1.00  0.00     0.041 C 
ATOM     11  C   UNL     1     -66.278 -40.332 -29.198  1.00  0.00     0.150 C 
ATOM     12  C   UNL     1     -66.485 -39.875 -27.726  1.00  0.00     0.174 C 
ATOM     13  O   UNL     1     -65.107 -41.112 -29.370  1.00  0.00    -0.344 OA
ATOM     14  C   UNL     1     -65.192 -40.047 -26.892  1.00  0.00     0.179 C 
ATOM     15  C   UNL     1     -63.925 -39.694 -27.701  1.00  0.00     0.202 C 
BRANCH  12  16
ATOM     16  O   UNL     1     -66.971 -38.550 -27.670  1.00  0.00    -0.388 OA
ATOM     17  H   UNL     1     -66.350 -37.994 -28.211  1.00  0.00     0.211 HD
ENDBRANCH  12  16
BRANCH  14  18
ATOM     18  O   UNL     1     -65.242 -39.283 -25.713  1.00  0.00    -0.387 OA
ATOM     19  H   UNL     1     -64.382 -39.436 -25.241  1.00  0.00     0.211 HD
ENDBRANCH  14  18
BRANCH  15  20
ATOM     20  O   UNL     1     -63.733 -38.303 -27.838  1.00  0.00    -0.385 OA
ATOM     21  H   UNL     1     -64.488 -37.934 -28.365  1.00  0.00     0.211 HD
ENDBRANCH  15  20
ENDBRANCH   8   9
ENDBRANCH   7   8
ENDBRANCH   1   7
BRANCH   2  22
ATOM     22  O   UNL     1     -63.630 -40.871 -31.960  1.00  0.00    -0.387 OA
ATOM     23  H   UNL     1     -64.090 -40.340 -32.662  1.00  0.00     0.211 HD
ENDBRANCH   2  22
BRANCH   3  24
ATOM     24  O   UNL     1     -62.543 -40.625 -34.594  1.00  0.00    -0.387 OA
ATOM     25  H   UNL     1     -63.458 -40.982 -34.759  1.00  0.00     0.211 HD
ENDBRANCH   3  24
BRANCH   5  26
ATOM     26  O   UNL     1     -60.213 -43.603 -32.502  1.00  0.00    -0.462 OA
BRANCH  26  27
ATOM     27  C   UNL     1     -59.946 -44.613 -33.442  1.00  0.00     0.130 A 
ATOM     28  C   UNL     1     -59.104 -45.702 -33.169  1.00  0.00     0.093 A 
ATOM     29  C   UNL     1     -60.566 -44.534 -34.690  1.00  0.00     0.094 A 
ATOM     30  C   UNL     1     -58.932 -46.734 -34.095  1.00  0.00     0.133 A 
ATOM     31  C   UNL     1     -60.342 -45.514 -35.664  1.00  0.00     0.138 A 
ATOM     32  C   UNL     1     -59.537 -46.637 -35.374  1.00  0.00     0.102 A 
ATOM     33  O   UNL     1     -60.938 -45.368 -36.923  1.00  0.00    -0.484 OA
ATOM     34  C   UNL     1     -59.391 -47.649 -36.452  1.00  0.00     0.174 C 
ATOM     35  C   UNL     1     -60.546 -46.165 -38.044  1.00  0.00     0.211 C 
ATOM     36  O   UNL     1     -58.477 -48.517 -36.429  1.00  0.00    -0.294 OA
ATOM     37  C   UNL     1     -60.338 -47.619 -37.610  1.00  0.00     0.131 C 
BRANCH  30  38
ATOM     38  O   UNL     1     -58.187 -47.842 -33.679  1.00  0.00    -0.507 OA
ATOM     39  H   UNL     1     -57.385 -48.201 -34.176  1.00  0.00     0.293 HD
ENDBRANCH  30  38
BRANCH  35  40
ATOM     40  C   UNL     1     -61.568 -46.081 -39.150  1.00  0.00    -0.003 A 
ATOM     41  C   UNL     1     -62.194 -47.249 -39.608  1.00  0.00     0.057 A 
ATOM     42  C   UNL     1     -61.958 -44.844 -39.687  1.00  0.00     0.011 A 
ATOM     43  C   UNL     1     -63.170 -47.195 -40.612  1.00  0.00     0.158 A 
ATOM     44  C   UNL     1     -62.929 -44.782 -40.694  1.00  0.00     0.051 A 
ATOM     45  C   UNL     1     -63.539 -45.962 -41.169  1.00  0.00     0.160 A 
BRANCH  43  46
ATOM     46  O   UNL     1     -63.774 -48.365 -41.070  1.00  0.00    -0.504 OA
ATOM     47  H   UNL     1     -63.955 -48.518 -42.055  1.00  0.00     0.293 HD
ENDBRANCH  43  46
BRANCH  45  48
ATOM     48  O   UNL     1     -64.507 -45.955 -42.185  1.00  0.00    -0.493 OA
ATOM     49  C   UNL     1     -64.218 -45.929 -43.582  1.00  0.00     0.278 C 
ENDBRANCH  45  48
ENDBRANCH  35  40
ENDBRANCH  26  27
ENDBRANCH   5  26
BRANCH   4  50
ATOM     50  O   UNL     1     -59.876 -40.262 -33.989  1.00  0.00    -0.384 OA
ATOM     51  H   UNL     1     -59.021 -40.383 -34.474  1.00  0.00     0.211 HD
ENDBRANCH   4  50
TORSDOF 15
ENDMDL
MODEL 8
REMARK VINA RESULT:    -8.839      2.006      3.210
REMARK INTER + INTRA:         -15.878
REMARK INTER:                 -14.239
REMARK INTRA:                  -1.638
REMARK UNBOUND:                -1.354
REMARK SMILES COc1ccc([C@@H]2CC(=O)c3c(O)cc(O[C@@H]4O[C@@H](CO[C@H]5O[C@H](C)[C@H](O)[C@H](O)[C@@H]5O)[C@H](O)[C@@H](O)[C@H]4O)cc3O2)cc1O
REMARK SMILES IDX 19 1 32 2 34 3 36 4 17 5 18 6 20 7 21 8 22 9 25 10 24 11
REMARK SMILES IDX 26 12 23 13 28 14 30 15 27 16 29 18 31 20 33 22 35 24 16 26
REMARK SMILES IDX 15 27 14 28 38 29 12 30 39 31 11 32 40 33 9 34 7 35 10 36
REMARK SMILES IDX 8 37 13 38 6 40 41 41 5 42 42 43 4 44 3 45 43 46 2 48 1 49
REMARK SMILES IDX 37 50
REMARK H PARENT 27 17 29 19 31 21 33 23 35 25 13 39 43 47 37 51
REMARK Flexibility Score: inf
ROOT
ATOM      1  C   UNL     1     -66.303 -45.662 -37.603  1.00  0.00     0.180 C 
ATOM      2  C   UNL     1     -66.253 -46.713 -36.467  1.00  0.00     0.177 C 
ATOM      3  C   UNL     1     -65.059 -46.426 -35.537  1.00  0.00     0.180 C 
ATOM      4  C   UNL     1     -63.761 -46.253 -36.346  1.00  0.00     0.214 C 
ATOM      5  C   UNL     1     -63.987 -45.230 -37.481  1.00  0.00     0.339 C 
ATOM      6  O   UNL     1     -65.068 -45.632 -38.308  1.00  0.00    -0.332 OA
ENDROOT
BRANCH   1   7
ATOM      7  C   UNL     1     -67.444 -45.969 -38.603  1.00  0.00     0.198 C 
BRANCH   7   8
ATOM      8  O   UNL     1     -68.053 -44.766 -39.047  1.00  0.00    -0.347 OA
BRANCH   8   9
ATOM      9  C   UNL     1     -67.602 -44.353 -40.321  1.00  0.00     0.281 C 
ATOM     10  C   UNL     1     -67.834 -44.343 -43.300  1.00  0.00     0.041 C 
ATOM     11  C   UNL     1     -68.477 -43.364 -42.294  1.00  0.00     0.150 C 
ATOM     12  C   UNL     1     -67.737 -42.006 -42.131  1.00  0.00     0.174 C 
ATOM     13  O   UNL     1     -68.766 -43.984 -41.053  1.00  0.00    -0.344 OA
ATOM     14  C   UNL     1     -67.161 -41.844 -40.703  1.00  0.00     0.179 C 
ATOM     15  C   UNL     1     -66.596 -43.170 -40.149  1.00  0.00     0.202 C 
BRANCH  12  16
ATOM     16  O   UNL     1     -66.740 -41.848 -43.119  1.00  0.00    -0.388 OA
ATOM     17  H   UNL     1     -66.919 -42.533 -43.817  1.00  0.00     0.211 HD
ENDBRANCH  12  16
BRANCH  14  18
ATOM     18  O   UNL     1     -66.174 -40.844 -40.664  1.00  0.00    -0.387 OA
ATOM     19  H   UNL     1     -66.272 -40.383 -39.790  1.00  0.00     0.211 HD
ENDBRANCH  14  18
BRANCH  15  20
ATOM     20  O   UNL     1     -65.337 -43.500 -40.693  1.00  0.00    -0.385 OA
ATOM     21  H   UNL     1     -65.478 -44.135 -41.442  1.00  0.00     0.211 HD
ENDBRANCH  15  20
ENDBRANCH   8   9
ENDBRANCH   7   8
ENDBRANCH   1   7
BRANCH   2  22
ATOM     22  O   UNL     1     -67.436 -46.666 -35.718  1.00  0.00    -0.387 OA
ATOM     23  H   UNL     1     -67.811 -47.586 -35.707  1.00  0.00     0.211 HD
ENDBRANCH   2  22
BRANCH   3  24
ATOM     24  O   UNL     1     -64.926 -47.483 -34.617  1.00  0.00    -0.387 OA
ATOM     25  H   UNL     1     -64.331 -48.165 -35.032  1.00  0.00     0.211 HD
ENDBRANCH   3  24
BRANCH   5  26
ATOM     26  O   UNL     1     -64.220 -43.915 -36.951  1.00  0.00    -0.462 OA
BRANCH  26  27
ATOM     27  C   UNL     1     -63.409 -43.263 -36.007  1.00  0.00     0.130 A 
ATOM     28  C   UNL     1     -62.054 -42.980 -36.237  1.00  0.00     0.093 A 
ATOM     29  C   UNL     1     -63.988 -42.864 -34.802  1.00  0.00     0.094 A 
ATOM     30  C   UNL     1     -61.300 -42.250 -35.314  1.00  0.00     0.133 A 
ATOM     31  C   UNL     1     -63.231 -42.206 -33.827  1.00  0.00     0.138 A 
ATOM     32  C   UNL     1     -61.882 -41.872 -34.076  1.00  0.00     0.102 A 
ATOM     33  O   UNL     1     -63.836 -41.872 -32.608  1.00  0.00    -0.484 OA
ATOM     34  C   UNL     1     -61.167 -41.134 -33.003  1.00  0.00     0.174 C 
ATOM     35  C   UNL     1     -63.073 -41.454 -31.473  1.00  0.00     0.211 C 
ATOM     36  O   UNL     1     -59.910 -41.054 -32.975  1.00  0.00    -0.294 OA
ATOM     37  C   UNL     1     -61.963 -40.494 -31.908  1.00  0.00     0.131 C 
BRANCH  30  38
ATOM     38  O   UNL     1     -60.001 -41.897 -35.692  1.00  0.00    -0.507 OA
ATOM     39  H   UNL     1     -59.740 -41.628 -36.629  1.00  0.00     0.293 HD
ENDBRANCH  30  38
BRANCH  35  40
ATOM     40  C   UNL     1     -63.957 -40.810 -30.436  1.00  0.00    -0.003 A 
ATOM     41  C   UNL     1     -63.393 -40.317 -29.251  1.00  0.00     0.057 A 
ATOM     42  C   UNL     1     -65.331 -40.631 -30.662  1.00  0.00     0.011 A 
ATOM     43  C   UNL     1     -64.188 -39.685 -28.285  1.00  0.00     0.158 A 
ATOM     44  C   UNL     1     -66.133 -40.005 -29.700  1.00  0.00     0.051 A 
ATOM     45  C   UNL     1     -65.565 -39.532 -28.498  1.00  0.00     0.160 A 
BRANCH  43  46
ATOM     46  O   UNL     1     -63.618 -39.212 -27.103  1.00  0.00    -0.504 OA
ATOM     47  H   UNL     1     -63.046 -38.378 -27.087  1.00  0.00     0.293 HD
ENDBRANCH  43  46
BRANCH  45  48
ATOM     48  O   UNL     1     -66.328 -38.910 -27.497  1.00  0.00    -0.493 OA
ATOM     49  C   UNL     1     -67.033 -39.600 -26.466  1.00  0.00     0.278 C 
ENDBRANCH  45  48
ENDBRANCH  35  40
ENDBRANCH  26  27
ENDBRANCH   5  26
BRANCH   4  50
ATOM     50  O   UNL     1     -63.373 -47.488 -36.898  1.00  0.00    -0.384 OA
ATOM     51  H   UNL     1     -62.396 -47.577 -36.756  1.00  0.00     0.211 HD
ENDBRANCH   4  50
TORSDOF 15
ENDMDL
MODEL 9
REMARK VINA RESULT:    -8.735      2.495      6.001
REMARK INTER + INTRA:         -15.706
REMARK INTER:                 -13.620
REMARK INTRA:                  -2.086
REMARK UNBOUND:                -1.354
REMARK SMILES COc1ccc([C@@H]2CC(=O)c3c(O)cc(O[C@@H]4O[C@@H](CO[C@H]5O[C@H](C)[C@H](O)[C@H](O)[C@@H]5O)[C@H](O)[C@@H](O)[C@H]4O)cc3O2)cc1O
REMARK SMILES IDX 19 1 32 2 34 3 36 4 17 5 18 6 20 7 21 8 22 9 25 10 24 11
REMARK SMILES IDX 26 12 23 13 28 14 30 15 27 16 29 18 31 20 33 22 35 24 16 26
REMARK SMILES IDX 15 27 14 28 38 29 12 30 39 31 11 32 40 33 9 34 7 35 10 36
REMARK SMILES IDX 8 37 13 38 6 40 41 41 5 42 42 43 4 44 3 45 43 46 2 48 1 49
REMARK SMILES IDX 37 50
REMARK H PARENT 27 17 29 19 31 21 33 23 35 25 13 39 43 47 37 51
REMARK Flexibility Score: inf
ROOT
ATOM      1  C   UNL     1     -62.107 -44.655 -38.379  1.00  0.00     0.180 C 
ATOM      2  C   UNL     1     -62.808 -44.826 -39.749  1.00  0.00     0.177 C 
ATOM      3  C   UNL     1     -64.097 -43.984 -39.789  1.00  0.00     0.180 C 
ATOM      4  C   UNL     1     -64.971 -44.259 -38.552  1.00  0.00     0.214 C 
ATOM      5  C   UNL     1     -64.119 -44.118 -37.271  1.00  0.00     0.339 C 
ATOM      6  O   UNL     1     -62.998 -44.985 -37.320  1.00  0.00    -0.332 OA
ENDROOT
BRANCH   1   7
ATOM      7  C   UNL     1     -60.849 -45.551 -38.275  1.00  0.00     0.198 C 
BRANCH   7   8
ATOM      8  O   UNL     1     -59.922 -45.002 -37.351  1.00  0.00    -0.347 OA
BRANCH   8   9
ATOM      9  C   UNL     1     -59.723 -45.817 -36.215  1.00  0.00     0.281 C 
ATOM     10  C   UNL     1     -58.059 -47.719 -34.619  1.00  0.00     0.041 C 
ATOM     11  C   UNL     1     -58.082 -46.178 -34.536  1.00  0.00     0.150 C 
ATOM     12  C   UNL     1     -58.922 -45.592 -33.366  1.00  0.00     0.174 C 
ATOM     13  O   UNL     1     -58.387 -45.579 -35.784  1.00  0.00    -0.344 OA
ATOM     14  C   UNL     1     -60.138 -44.788 -33.889  1.00  0.00     0.179 C 
ATOM     15  C   UNL     1     -60.783 -45.447 -35.128  1.00  0.00     0.202 C 
BRANCH  12  16
ATOM     16  O   UNL     1     -59.315 -46.607 -32.465  1.00  0.00    -0.388 OA
ATOM     17  H   UNL     1     -60.229 -46.890 -32.734  1.00  0.00     0.211 HD
ENDBRANCH  12  16
BRANCH  14  18
ATOM     18  O   UNL     1     -61.100 -44.607 -32.881  1.00  0.00    -0.387 OA
ATOM     19  H   UNL     1     -61.848 -44.101 -33.291  1.00  0.00     0.211 HD
ENDBRANCH  14  18
BRANCH  15  20
ATOM     20  O   UNL     1     -61.578 -46.566 -34.801  1.00  0.00    -0.385 OA
ATOM     21  H   UNL     1     -62.275 -46.668 -35.499  1.00  0.00     0.211 HD
ENDBRANCH  15  20
ENDBRANCH   8   9
ENDBRANCH   7   8
ENDBRANCH   1   7
BRANCH   2  22
ATOM     22  O   UNL     1     -61.956 -44.404 -40.779  1.00  0.00    -0.387 OA
ATOM     23  H   UNL     1     -61.168 -43.979 -40.349  1.00  0.00     0.211 HD
ENDBRANCH   2  22
BRANCH   3  24
ATOM     24  O   UNL     1     -64.807 -44.284 -40.967  1.00  0.00    -0.387 OA
ATOM     25  H   UNL     1     -64.344 -43.824 -41.719  1.00  0.00     0.211 HD
ENDBRANCH   3  24
BRANCH   5  26
ATOM     26  O   UNL     1     -63.697 -42.759 -37.079  1.00  0.00    -0.462 OA
BRANCH  26  27
ATOM     27  C   UNL     1     -63.003 -42.275 -35.957  1.00  0.00     0.130 A 
ATOM     28  C   UNL     1     -61.641 -41.937 -35.995  1.00  0.00     0.093 A 
ATOM     29  C   UNL     1     -63.709 -42.103 -34.766  1.00  0.00     0.094 A 
ATOM     30  C   UNL     1     -61.004 -41.373 -34.886  1.00  0.00     0.133 A 
ATOM     31  C   UNL     1     -63.071 -41.619 -33.619  1.00  0.00     0.138 A 
ATOM     32  C   UNL     1     -61.715 -41.229 -33.667  1.00  0.00     0.102 A 
ATOM     33  O   UNL     1     -63.803 -41.515 -32.428  1.00  0.00    -0.484 OA
ATOM     34  C   UNL     1     -61.133 -40.684 -32.414  1.00  0.00     0.174 C 
ATOM     35  C   UNL     1     -63.168 -41.296 -31.165  1.00  0.00     0.211 C 
ATOM     36  O   UNL     1     -59.887 -40.593 -32.245  1.00  0.00    -0.294 OA
ATOM     37  C   UNL     1     -62.051 -40.259 -31.311  1.00  0.00     0.131 C 
BRANCH  30  38
ATOM     38  O   UNL     1     -59.686 -40.942 -35.062  1.00  0.00    -0.507 OA
ATOM     39  H   UNL     1     -59.175 -40.397 -34.383  1.00  0.00     0.293 HD
ENDBRANCH  30  38
BRANCH  35  40
ATOM     40  C   UNL     1     -64.169 -40.857 -30.127  1.00  0.00    -0.003 A 
ATOM     41  C   UNL     1     -65.514 -41.230 -30.258  1.00  0.00     0.057 A 
ATOM     42  C   UNL     1     -63.770 -40.136 -28.990  1.00  0.00     0.011 A 
ATOM     43  C   UNL     1     -66.459 -40.863 -29.291  1.00  0.00     0.158 A 
ATOM     44  C   UNL     1     -64.709 -39.761 -28.022  1.00  0.00     0.051 A 
ATOM     45  C   UNL     1     -66.067 -40.119 -28.170  1.00  0.00     0.160 A 
BRANCH  43  46
ATOM     46  O   UNL     1     -67.798 -41.227 -29.440  1.00  0.00    -0.504 OA
ATOM     47  H   UNL     1     -68.079 -41.967 -30.071  1.00  0.00     0.293 HD
ENDBRANCH  43  46
BRANCH  45  48
ATOM     48  O   UNL     1     -67.048 -39.756 -27.236  1.00  0.00    -0.493 OA
ATOM     49  C   UNL     1     -66.783 -39.349 -25.894  1.00  0.00     0.278 C 
ENDBRANCH  45  48
ENDBRANCH  35  40
ENDBRANCH  26  27
ENDBRANCH   5  26
BRANCH   4  50
ATOM     50  O   UNL     1     -65.504 -45.559 -38.622  1.00  0.00    -0.384 OA
ATOM     51  H   UNL     1     -66.491 -45.469 -38.640  1.00  0.00     0.211 HD
ENDBRANCH   4  50
TORSDOF 15
ENDMDL
