MODEL 1
REMARK VINA RESULT:    -6.639      0.000      0.000
REMARK INTER + INTRA:          -8.706
REMARK INTER:                  -8.191
REMARK INTRA:                  -0.515
REMARK UNBOUND:                -0.515
REMARK SMILES CC(C)=CCC[C@@H](C)c1ccc(C)cc1
REMARK SMILES IDX 6 1 7 2 8 3 9 4 13 5 12 6 11 7 14 8 10 9 15 10 5 11 4 12
REMARK SMILES IDX 2 13 1 14 3 15
REMARK H PARENT
REMARK Flexibility Score: inf
ROOT
ATOM      1  C   UNL     1     117.519  90.875 125.420  1.00  0.00     0.012 C 
ENDROOT
BRANCH   1   2
ATOM      2  C   UNL     1     117.474  90.087 126.749  1.00  0.00     0.016 C 
ATOM      3  C   UNL     1     118.006  88.650 126.603  1.00  0.00     0.013 C 
BRANCH   2   4
ATOM      4  C   UNL     1     118.116  90.854 127.896  1.00  0.00    -0.045 A 
ATOM      5  C   UNL     1     120.061  93.023 131.089  1.00  0.00     0.044 C 
ATOM      6  C   UNL     1     119.409  92.247 129.983  1.00  0.00    -0.051 A 
ATOM      7  C   UNL     1     119.737  92.511 128.646  1.00  0.00     0.004 A 
ATOM      8  C   UNL     1     118.424  91.293 130.273  1.00  0.00     0.004 A 
ATOM      9  C   UNL     1     119.105  91.813 127.613  1.00  0.00     0.004 A 
ATOM     10  C   UNL     1     117.790  90.595 129.242  1.00  0.00     0.004 A 
ENDBRANCH   2   4
ENDBRANCH   1   2
BRANCH   1  11
ATOM     11  C   UNL     1     118.315  90.190 124.296  1.00  0.00     0.028 C 
BRANCH  11  12
ATOM     12  C   UNL     1     117.410  89.843 123.140  1.00  0.00    -0.028 C 
ATOM     13  C   UNL     1     117.794  89.846 121.845  1.00  0.00    -0.080 C 
ATOM     14  C   UNL     1     116.790  89.438 120.797  1.00  0.00     0.039 C 
ATOM     15  C   UNL     1     119.184  90.260 121.422  1.00  0.00     0.039 C 
ENDBRANCH  11  12
ENDBRANCH   1  11
TORSDOF 4
ENDMDL
MODEL 2
REMARK VINA RESULT:    -6.487      0.476      1.337
REMARK INTER + INTRA:          -8.518
REMARK INTER:                  -8.041
REMARK INTRA:                  -0.477
REMARK UNBOUND:                -0.515
REMARK SMILES CC(C)=CCC[C@@H](C)c1ccc(C)cc1
REMARK SMILES IDX 6 1 7 2 8 3 9 4 13 5 12 6 11 7 14 8 10 9 15 10 5 11 4 12
REMARK SMILES IDX 2 13 1 14 3 15
REMARK H PARENT
REMARK Flexibility Score: inf
ROOT
ATOM      1  C   UNL     1     117.724  90.625 125.388  1.00  0.00     0.012 C 
ENDROOT
BRANCH   1   2
ATOM      2  C   UNL     1     117.481  89.996 126.779  1.00  0.00     0.016 C 
ATOM      3  C   UNL     1     117.791  88.489 126.809  1.00  0.00     0.013 C 
BRANCH   2   4
ATOM      4  C   UNL     1     118.166  90.775 127.892  1.00  0.00    -0.045 A 
ATOM      5  C   UNL     1     119.991  93.003 131.116  1.00  0.00     0.044 C 
ATOM      6  C   UNL     1     119.334  92.253 129.994  1.00  0.00    -0.051 A 
ATOM      7  C   UNL     1     118.357  91.286 130.266  1.00  0.00     0.004 A 
ATOM      8  C   UNL     1     119.736  92.471 128.669  1.00  0.00     0.004 A 
ATOM      9  C   UNL     1     117.770  90.563 129.224  1.00  0.00     0.004 A 
ATOM     10  C   UNL     1     119.150  91.747 127.625  1.00  0.00     0.004 A 
ENDBRANCH   2   4
ENDBRANCH   1   2
BRANCH   1  11
ATOM     11  C   UNL     1     118.207  89.636 124.313  1.00  0.00     0.028 C 
BRANCH  11  12
ATOM     12  C   UNL     1     117.367  89.756 123.066  1.00  0.00    -0.028 C 
ATOM     13  C   UNL     1     117.747  89.314 121.847  1.00  0.00    -0.080 C 
ATOM     14  C   UNL     1     116.786  89.467 120.696  1.00  0.00     0.039 C 
ATOM     15  C   UNL     1     119.104  88.693 121.607  1.00  0.00     0.039 C 
ENDBRANCH  11  12
ENDBRANCH   1  11
TORSDOF 4
ENDMDL
MODEL 3
REMARK VINA RESULT:    -5.962      1.240      6.864
REMARK INTER + INTRA:          -7.871
REMARK INTER:                  -7.169
REMARK INTRA:                  -0.702
REMARK UNBOUND:                -0.515
REMARK SMILES CC(C)=CCC[C@@H](C)c1ccc(C)cc1
REMARK SMILES IDX 6 1 7 2 8 3 9 4 13 5 12 6 11 7 14 8 10 9 15 10 5 11 4 12
REMARK SMILES IDX 2 13 1 14 3 15
REMARK H PARENT
REMARK Flexibility Score: inf
ROOT
ATOM      1  C   UNL     1     118.256  92.504 126.761  1.00  0.00     0.012 C 
ENDROOT
BRANCH   1   2
ATOM      2  C   UNL     1     118.571  91.029 126.422  1.00  0.00     0.016 C 
ATOM      3  C   UNL     1     117.657  90.041 127.170  1.00  0.00     0.013 C 
BRANCH   2   4
ATOM      4  C   UNL     1     118.625  90.781 124.922  1.00  0.00    -0.045 A 
ATOM      5  C   UNL     1     118.712  89.959 120.679  1.00  0.00     0.044 C 
ATOM      6  C   UNL     1     118.693  90.213 122.157  1.00  0.00    -0.051 A 
ATOM      7  C   UNL     1     117.529  89.974 122.901  1.00  0.00     0.004 A 
ATOM      8  C   UNL     1     119.819  90.749 122.797  1.00  0.00     0.004 A 
ATOM      9  C   UNL     1     117.500  90.244 124.272  1.00  0.00     0.004 A 
ATOM     10  C   UNL     1     119.791  91.020 124.168  1.00  0.00     0.004 A 
ENDBRANCH   2   4
ENDBRANCH   1   2
BRANCH   1  11
ATOM     11  C   UNL     1     119.385  93.247 127.495  1.00  0.00     0.028 C 
BRANCH  11  12
ATOM     12  C   UNL     1     119.786  92.503 128.745  1.00  0.00    -0.028 C 
ATOM     13  C   UNL     1     119.276  92.745 129.972  1.00  0.00    -0.080 C 
ATOM     14  C   UNL     1     119.744  91.894 131.125  1.00  0.00     0.039 C 
ATOM     15  C   UNL     1     118.273  93.848 130.219  1.00  0.00     0.039 C 
ENDBRANCH  11  12
ENDBRANCH   1  11
TORSDOF 4
ENDMDL
MODEL 4
REMARK VINA RESULT:    -5.931      1.424      2.848
REMARK INTER + INTRA:          -7.833
REMARK INTER:                  -7.152
REMARK INTRA:                  -0.681
REMARK UNBOUND:                -0.515
REMARK SMILES CC(C)=CCC[C@@H](C)c1ccc(C)cc1
REMARK SMILES IDX 6 1 7 2 8 3 9 4 13 5 12 6 11 7 14 8 10 9 15 10 5 11 4 12
REMARK SMILES IDX 2 13 1 14 3 15
REMARK H PARENT
REMARK Flexibility Score: inf
ROOT
ATOM      1  C   UNL     1     117.399  89.831 123.200  1.00  0.00     0.012 C 
ENDROOT
BRANCH   1   2
ATOM      2  C   UNL     1     118.078  88.926 124.253  1.00  0.00     0.016 C 
ATOM      3  C   UNL     1     119.362  88.262 123.725  1.00  0.00     0.013 C 
BRANCH   2   4
ATOM      4  C   UNL     1     118.272  89.636 125.585  1.00  0.00    -0.045 A 
ATOM      5  C   UNL     1     118.700  91.605 129.410  1.00  0.00     0.044 C 
ATOM      6  C   UNL     1     118.521  90.935 128.080  1.00  0.00    -0.051 A 
ATOM      7  C   UNL     1     118.020  89.627 128.009  1.00  0.00     0.004 A 
ATOM      8  C   UNL     1     118.909  91.587 126.902  1.00  0.00     0.004 A 
ATOM      9  C   UNL     1     117.886  88.989 126.772  1.00  0.00     0.004 A 
ATOM     10  C   UNL     1     118.776  90.950 125.664  1.00  0.00     0.004 A 
ENDBRANCH   2   4
ENDBRANCH   1   2
BRANCH   1  11
ATOM     11  C   UNL     1     118.217  90.041 121.915  1.00  0.00     0.028 C 
BRANCH  11  12
ATOM     12  C   UNL     1     117.440  89.575 120.709  1.00  0.00    -0.028 C 
ATOM     13  C   UNL     1     117.858  88.612 119.859  1.00  0.00    -0.080 C 
ATOM     14  C   UNL     1     116.956  88.221 118.716  1.00  0.00     0.039 C 
ATOM     15  C   UNL     1     119.201  87.936 120.013  1.00  0.00     0.039 C 
ENDBRANCH  11  12
ENDBRANCH   1  11
TORSDOF 4
ENDMDL
MODEL 5
REMARK VINA RESULT:    -5.729      2.361      5.308
REMARK INTER + INTRA:          -7.584
REMARK INTER:                  -7.067
REMARK INTRA:                  -0.517
REMARK UNBOUND:                -0.515
REMARK SMILES CC(C)=CCC[C@@H](C)c1ccc(C)cc1
REMARK SMILES IDX 6 1 7 2 8 3 9 4 13 5 12 6 11 7 14 8 10 9 15 10 5 11 4 12
REMARK SMILES IDX 2 13 1 14 3 15
REMARK H PARENT
REMARK Flexibility Score: inf
ROOT
ATOM      1  C   UNL     1     116.735  89.516 120.780  1.00  0.00     0.012 C 
ENDROOT
BRANCH   1   2
ATOM      2  C   UNL     1     118.218  89.679 121.184  1.00  0.00     0.016 C 
ATOM      3  C   UNL     1     119.037  90.451 120.134  1.00  0.00     0.013 C 
BRANCH   2   4
ATOM      4  C   UNL     1     118.374  90.229 122.594  1.00  0.00    -0.045 A 
ATOM      5  C   UNL     1     118.940  91.729 126.608  1.00  0.00     0.044 C 
ATOM      6  C   UNL     1     118.751  91.178 125.226  1.00  0.00    -0.051 A 
ATOM      7  C   UNL     1     119.817  91.176 124.314  1.00  0.00     0.004 A 
ATOM      8  C   UNL     1     117.494  90.717 124.814  1.00  0.00     0.004 A 
ATOM      9  C   UNL     1     119.633  90.695 123.015  1.00  0.00     0.004 A 
ATOM     10  C   UNL     1     117.308  90.236 123.515  1.00  0.00     0.004 A 
ENDBRANCH   2   4
ENDBRANCH   1   2
BRANCH   1  11
ATOM     11  C   UNL     1     116.510  88.736 119.473  1.00  0.00     0.028 C 
BRANCH  11  12
ATOM     12  C   UNL     1     115.610  89.510 118.541  1.00  0.00    -0.028 C 
ATOM     13  C   UNL     1     115.657  89.426 117.194  1.00  0.00    -0.080 C 
ATOM     14  C   UNL     1     114.668  90.230 116.389  1.00  0.00     0.039 C 
ATOM     15  C   UNL     1     116.675  88.568 116.479  1.00  0.00     0.039 C 
ENDBRANCH  11  12
ENDBRANCH   1  11
TORSDOF 4
ENDMDL
MODEL 6
REMARK VINA RESULT:    -5.643      1.514      7.497
REMARK INTER + INTRA:          -7.478
REMARK INTER:                  -7.005
REMARK INTRA:                  -0.473
REMARK UNBOUND:                -0.515
REMARK SMILES CC(C)=CCC[C@@H](C)c1ccc(C)cc1
REMARK SMILES IDX 6 1 7 2 8 3 9 4 13 5 12 6 11 7 14 8 10 9 15 10 5 11 4 12
REMARK SMILES IDX 2 13 1 14 3 15
REMARK H PARENT
REMARK Flexibility Score: inf
ROOT
ATOM      1  C   UNL     1     117.605  90.619 124.376  1.00  0.00     0.012 C 
ENDROOT
BRANCH   1   2
ATOM      2  C   UNL     1     118.662  89.573 123.953  1.00  0.00     0.016 C 
ATOM      3  C   UNL     1     118.726  88.374 124.915  1.00  0.00     0.013 C 
BRANCH   2   4
ATOM      4  C   UNL     1     118.521  89.168 122.493  1.00  0.00    -0.045 A 
ATOM      5  C   UNL     1     118.253  88.042 118.328  1.00  0.00     0.044 C 
ATOM      6  C   UNL     1     118.362  88.461 119.764  1.00  0.00    -0.051 A 
ATOM      7  C   UNL     1     119.453  88.047 120.541  1.00  0.00     0.004 A 
ATOM      8  C   UNL     1     117.343  89.218 120.359  1.00  0.00     0.004 A 
ATOM      9  C   UNL     1     119.537  88.407 121.889  1.00  0.00     0.004 A 
ATOM     10  C   UNL     1     117.426  89.579 121.707  1.00  0.00     0.004 A 
ENDBRANCH   2   4
ENDBRANCH   1   2
BRANCH   1  11
ATOM     11  C   UNL     1     117.410  90.753 125.895  1.00  0.00     0.028 C 
BRANCH  11  12
ATOM     12  C   UNL     1     118.502  91.602 126.498  1.00  0.00    -0.028 C 
ATOM     13  C   UNL     1     118.611  91.881 127.815  1.00  0.00    -0.080 C 
ATOM     14  C   UNL     1     119.779  92.713 128.279  1.00  0.00     0.039 C 
ATOM     15  C   UNL     1     117.592  91.401 128.822  1.00  0.00     0.039 C 
ENDBRANCH  11  12
ENDBRANCH   1  11
TORSDOF 4
ENDMDL
MODEL 7
REMARK VINA RESULT:    -5.621      2.437      7.622
REMARK INTER + INTRA:          -7.451
REMARK INTER:                  -6.800
REMARK INTRA:                  -0.650
REMARK UNBOUND:                -0.515
REMARK SMILES CC(C)=CCC[C@@H](C)c1ccc(C)cc1
REMARK SMILES IDX 6 1 7 2 8 3 9 4 13 5 12 6 11 7 14 8 10 9 15 10 5 11 4 12
REMARK SMILES IDX 2 13 1 14 3 15
REMARK H PARENT
REMARK Flexibility Score: inf
ROOT
ATOM      1  C   UNL     1     118.138  90.573 123.947  1.00  0.00     0.012 C 
ENDROOT
BRANCH   1   2
ATOM      2  C   UNL     1     119.016  89.479 123.297  1.00  0.00     0.016 C 
ATOM      3  C   UNL     1     119.238  88.270 124.222  1.00  0.00     0.013 C 
BRANCH   2   4
ATOM      4  C   UNL     1     118.524  89.094 121.909  1.00  0.00    -0.045 A 
ATOM      5  C   UNL     1     117.255  88.014 117.921  1.00  0.00     0.044 C 
ATOM      6  C   UNL     1     117.711  88.416 119.293  1.00  0.00    -0.051 A 
ATOM      7  C   UNL     1     118.904  87.901 119.820  1.00  0.00     0.004 A 
ATOM      8  C   UNL     1     116.919  89.260 120.082  1.00  0.00     0.004 A 
ATOM      9  C   UNL     1     119.312  88.246 121.111  1.00  0.00     0.004 A 
ATOM     10  C   UNL     1     117.326  89.607 121.374  1.00  0.00     0.004 A 
ENDBRANCH   2   4
ENDBRANCH   1   2
BRANCH   1  11
ATOM     11  C   UNL     1     118.577  90.989 125.362  1.00  0.00     0.028 C 
BRANCH  11  12
ATOM     12  C   UNL     1     117.396  91.005 126.301  1.00  0.00    -0.028 C 
ATOM     13  C   UNL     1     117.237  90.157 127.339  1.00  0.00    -0.080 C 
ATOM     14  C   UNL     1     116.023  90.317 128.218  1.00  0.00     0.039 C 
ATOM     15  C   UNL     1     118.225  89.051 127.629  1.00  0.00     0.039 C 
ENDBRANCH  11  12
ENDBRANCH   1  11
TORSDOF 4
ENDMDL
MODEL 8
REMARK VINA RESULT:    -5.588      2.554      5.205
REMARK INTER + INTRA:          -7.410
REMARK INTER:                  -6.565
REMARK INTRA:                  -0.845
REMARK UNBOUND:                -0.515
REMARK SMILES CC(C)=CCC[C@@H](C)c1ccc(C)cc1
REMARK SMILES IDX 6 1 7 2 8 3 9 4 13 5 12 6 11 7 14 8 10 9 15 10 5 11 4 12
REMARK SMILES IDX 2 13 1 14 3 15
REMARK H PARENT
REMARK Flexibility Score: inf
ROOT
ATOM      1  C   UNL     1     119.540  90.394 120.138  1.00  0.00     0.012 C 
ENDROOT
BRANCH   1   2
ATOM      2  C   UNL     1     118.941  89.417 121.175  1.00  0.00     0.016 C 
ATOM      3  C   UNL     1     119.661  88.057 121.191  1.00  0.00     0.013 C 
BRANCH   2   4
ATOM      4  C   UNL     1     118.813  90.047 122.555  1.00  0.00    -0.045 A 
ATOM      5  C   UNL     1     118.324  91.886 126.436  1.00  0.00     0.044 C 
ATOM      6  C   UNL     1     118.486  91.277 125.074  1.00  0.00    -0.051 A 
ATOM      7  C   UNL     1     117.408  90.623 124.460  1.00  0.00     0.004 A 
ATOM      8  C   UNL     1     119.731  91.303 124.431  1.00  0.00     0.004 A 
ATOM      9  C   UNL     1     117.567  90.024 123.207  1.00  0.00     0.004 A 
ATOM     10  C   UNL     1     119.892  90.704 123.178  1.00  0.00     0.004 A 
ENDBRANCH   2   4
ENDBRANCH   1   2
BRANCH   1  11
ATOM     11  C   UNL     1     118.507  91.048 119.204  1.00  0.00     0.028 C 
BRANCH  11  12
ATOM     12  C   UNL     1     118.061  90.074 118.141  1.00  0.00    -0.028 C 
ATOM     13  C   UNL     1     116.876  89.427 118.151  1.00  0.00    -0.080 C 
ATOM     14  C   UNL     1     116.548  88.511 116.999  1.00  0.00     0.039 C 
ATOM     15  C   UNL     1     115.887  89.582 119.283  1.00  0.00     0.039 C 
ENDBRANCH  11  12
ENDBRANCH   1  11
TORSDOF 4
ENDMDL
MODEL 9
REMARK VINA RESULT:    -4.278      2.479      4.214
REMARK INTER + INTRA:          -5.793
REMARK INTER:                  -5.287
REMARK INTRA:                  -0.506
REMARK UNBOUND:                -0.515
REMARK SMILES CC(C)=CCC[C@@H](C)c1ccc(C)cc1
REMARK SMILES IDX 6 1 7 2 8 3 9 4 13 5 12 6 11 7 14 8 10 9 15 10 5 11 4 12
REMARK SMILES IDX 2 13 1 14 3 15
REMARK H PARENT
REMARK Flexibility Score: inf
ROOT
ATOM      1  C   UNL     1     119.506  88.341 122.332  1.00  0.00     0.012 C 
ENDROOT
BRANCH   1   2
ATOM      2  C   UNL     1     119.940  89.569 123.165  1.00  0.00     0.016 C 
ATOM      3  C   UNL     1     120.005  90.859 122.328  1.00  0.00     0.013 C 
BRANCH   2   4
ATOM      4  C   UNL     1     119.122  89.718 124.440  1.00  0.00    -0.045 A 
ATOM      5  C   UNL     1     116.870  90.259 128.089  1.00  0.00     0.044 C 
ATOM      6  C   UNL     1     117.680  90.075 126.840  1.00  0.00    -0.051 A 
ATOM      7  C   UNL     1     117.959  91.172 126.011  1.00  0.00     0.004 A 
ATOM      8  C   UNL     1     118.113  88.798 126.459  1.00  0.00     0.004 A 
ATOM      9  C   UNL     1     118.683  90.996 124.829  1.00  0.00     0.004 A 
ATOM     10  C   UNL     1     118.837  88.621 125.276  1.00  0.00     0.004 A 
ENDBRANCH   2   4
ENDBRANCH   1   2
BRANCH   1  11
ATOM     11  C   UNL     1     120.125  88.271 120.925  1.00  0.00     0.028 C 
BRANCH  11  12
ATOM     12  C   UNL     1     119.131  87.717 119.935  1.00  0.00    -0.028 C 
ATOM     13  C   UNL     1     119.071  88.076 118.634  1.00  0.00    -0.080 C 
ATOM     14  C   UNL     1     118.048  87.408 117.751  1.00  0.00     0.039 C 
ATOM     15  C   UNL     1     119.982  89.132 118.052  1.00  0.00     0.039 C 
ENDBRANCH  11  12
ENDBRANCH   1  11
TORSDOF 4
ENDMDL
