MODEL 1
REMARK VINA RESULT:    -5.083      0.000      0.000
REMARK INTER + INTRA:          -5.979
REMARK INTER:                  -5.826
REMARK INTRA:                  -0.152
REMARK UNBOUND:                -0.152
REMARK SMILES O=C([O-])C=Cc1ccc(O)cc1
REMARK SMILES IDX 6 1 7 2 12 3 8 4 11 5 9 6 5 7 4 8 2 9 1 10 3 11 10 12
REMARK H PARENT 10 13
REMARK Flexibility Score: inf
ROOT
ATOM      1  C   UNL     1      11.642 -15.793   7.481  1.00  0.00    -0.025 A 
ATOM      2  C   UNL     1      11.632 -14.388   7.507  1.00  0.00     0.012 A 
ATOM      3  C   UNL     1      12.873 -16.462   7.332  1.00  0.00     0.012 A 
ATOM      4  C   UNL     1      12.821 -13.666   7.361  1.00  0.00     0.047 A 
ATOM      5  C   UNL     1      14.060 -15.736   7.187  1.00  0.00     0.047 A 
ATOM      6  C   UNL     1      14.036 -14.337   7.199  1.00  0.00     0.115 A 
ENDROOT
BRANCH   1   7
ATOM      7  C   UNL     1      10.356 -16.514   7.650  1.00  0.00     0.010 C 
ATOM      8  C   UNL     1       9.170 -15.902   7.783  1.00  0.00     0.025 C 
BRANCH   8   9
ATOM      9  C   UNL     1       7.914 -16.650   7.960  1.00  0.00     0.064 C 
ATOM     10  O   UNL     1       7.609 -17.603   7.194  1.00  0.00    -0.545 OA
ATOM     11  O   UNL     1       7.050 -16.299   8.989  1.00  0.00    -0.545 OA
ENDBRANCH   8   9
ENDBRANCH   1   7
BRANCH   6  12
ATOM     12  O   UNL     1      15.213 -13.604   7.054  1.00  0.00    -0.508 OA
ATOM     13  H   UNL     1      15.385 -13.035   6.234  1.00  0.00     0.293 HD
ENDBRANCH   6  12
TORSDOF 3
ENDMDL
MODEL 2
REMARK VINA RESULT:    -4.594      1.813      6.008
REMARK INTER + INTRA:          -5.418
REMARK INTER:                  -5.281
REMARK INTRA:                  -0.137
REMARK UNBOUND:                -0.152
REMARK SMILES O=C([O-])C=Cc1ccc(O)cc1
REMARK SMILES IDX 6 1 7 2 12 3 8 4 11 5 9 6 5 7 4 8 2 9 1 10 3 11 10 12
REMARK H PARENT 10 13
REMARK Flexibility Score: inf
ROOT
ATOM      1  C   UNL     1       9.140 -16.296   7.741  1.00  0.00    -0.025 A 
ATOM      2  C   UNL     1       8.153 -15.820   8.621  1.00  0.00     0.012 A 
ATOM      3  C   UNL     1       8.834 -17.387   6.902  1.00  0.00     0.012 A 
ATOM      4  C   UNL     1       6.898 -16.433   8.682  1.00  0.00     0.047 A 
ATOM      5  C   UNL     1       7.577 -17.997   6.964  1.00  0.00     0.047 A 
ATOM      6  C   UNL     1       6.607 -17.524   7.856  1.00  0.00     0.115 A 
ENDROOT
BRANCH   1   7
ATOM      7  C   UNL     1      10.453 -15.605   7.707  1.00  0.00     0.010 C 
ATOM      8  C   UNL     1      11.465 -15.885   8.541  1.00  0.00     0.025 C 
BRANCH   8   9
ATOM      9  C   UNL     1      12.751 -15.171   8.485  1.00  0.00     0.064 C 
ATOM     10  O   UNL     1      12.977 -14.304   7.599  1.00  0.00    -0.545 OA
ATOM     11  O   UNL     1      13.732 -15.458   9.425  1.00  0.00    -0.545 OA
ENDBRANCH   8   9
ENDBRANCH   1   7
BRANCH   6  12
ATOM     12  O   UNL     1       5.353 -18.125   7.927  1.00  0.00    -0.508 OA
ATOM     13  H   UNL     1       4.709 -18.100   7.146  1.00  0.00     0.293 HD
ENDBRANCH   6  12
TORSDOF 3
ENDMDL
MODEL 3
REMARK VINA RESULT:    -4.571      1.770      6.116
REMARK INTER + INTRA:          -5.392
REMARK INTER:                  -5.255
REMARK INTRA:                  -0.137
REMARK UNBOUND:                -0.152
REMARK SMILES O=C([O-])C=Cc1ccc(O)cc1
REMARK SMILES IDX 6 1 7 2 12 3 8 4 11 5 9 6 5 7 4 8 2 9 1 10 3 11 10 12
REMARK H PARENT 10 13
REMARK Flexibility Score: inf
ROOT
ATOM      1  C   UNL     1       9.170 -16.294   7.658  1.00  0.00    -0.025 A 
ATOM      2  C   UNL     1       8.824 -17.335   6.780  1.00  0.00     0.012 A 
ATOM      3  C   UNL     1       8.235 -15.886   8.630  1.00  0.00     0.012 A 
ATOM      4  C   UNL     1       7.564 -17.937   6.851  1.00  0.00     0.047 A 
ATOM      5  C   UNL     1       6.976 -16.491   8.700  1.00  0.00     0.047 A 
ATOM      6  C   UNL     1       6.636 -17.516   7.808  1.00  0.00     0.115 A 
ENDROOT
BRANCH   1   7
ATOM      7  C   UNL     1      10.523 -15.694   7.549  1.00  0.00     0.010 C 
ATOM      8  C   UNL     1      11.441 -15.741   8.525  1.00  0.00     0.025 C 
BRANCH   8   9
ATOM      9  C   UNL     1      12.770 -15.125   8.385  1.00  0.00     0.064 C 
ATOM     10  O   UNL     1      13.764 -15.566   9.021  1.00  0.00    -0.545 OA
ATOM     11  O   UNL     1      12.932 -14.036   7.538  1.00  0.00    -0.545 OA
ENDBRANCH   8   9
ENDBRANCH   1   7
BRANCH   6  12
ATOM     12  O   UNL     1       5.385 -18.125   7.869  1.00  0.00    -0.508 OA
ATOM     13  H   UNL     1       4.559 -17.677   7.489  1.00  0.00     0.293 HD
ENDBRANCH   6  12
TORSDOF 3
ENDMDL
MODEL 4
REMARK VINA RESULT:    -4.521      1.160      2.057
REMARK INTER + INTRA:          -5.334
REMARK INTER:                  -5.189
REMARK INTRA:                  -0.145
REMARK UNBOUND:                -0.152
REMARK SMILES O=C([O-])C=Cc1ccc(O)cc1
REMARK SMILES IDX 6 1 7 2 12 3 8 4 11 5 9 6 5 7 4 8 2 9 1 10 3 11 10 12
REMARK H PARENT 10 13
REMARK Flexibility Score: inf
ROOT
ATOM      1  C   UNL     1      11.170 -15.861   7.852  1.00  0.00    -0.025 A 
ATOM      2  C   UNL     1      11.836 -17.074   8.099  1.00  0.00     0.012 A 
ATOM      3  C   UNL     1      11.929 -14.678   7.744  1.00  0.00     0.012 A 
ATOM      4  C   UNL     1      13.224 -17.103   8.260  1.00  0.00     0.047 A 
ATOM      5  C   UNL     1      13.318 -14.712   7.905  1.00  0.00     0.047 A 
ATOM      6  C   UNL     1      13.969 -15.924   8.167  1.00  0.00     0.115 A 
ENDROOT
BRANCH   1   7
ATOM      7  C   UNL     1       9.696 -15.883   7.678  1.00  0.00     0.010 C 
ATOM      8  C   UNL     1       8.878 -16.697   8.360  1.00  0.00     0.025 C 
BRANCH   8   9
ATOM      9  C   UNL     1       7.420 -16.700   8.154  1.00  0.00     0.064 C 
ATOM     10  O   UNL     1       6.687 -15.811   8.664  1.00  0.00    -0.545 OA
ATOM     11  O   UNL     1       6.842 -17.701   7.384  1.00  0.00    -0.545 OA
ENDBRANCH   8   9
ENDBRANCH   1   7
BRANCH   6  12
ATOM     12  O   UNL     1      15.351 -15.968   8.329  1.00  0.00    -0.508 OA
ATOM     13  H   UNL     1      15.858 -16.845   8.321  1.00  0.00     0.293 HD
ENDBRANCH   6  12
TORSDOF 3
ENDMDL
MODEL 5
REMARK VINA RESULT:    -4.361      1.254      5.928
REMARK INTER + INTRA:          -5.150
REMARK INTER:                  -5.000
REMARK INTRA:                  -0.150
REMARK UNBOUND:                -0.152
REMARK SMILES O=C([O-])C=Cc1ccc(O)cc1
REMARK SMILES IDX 6 1 7 2 12 3 8 4 11 5 9 6 5 7 4 8 2 9 1 10 3 11 10 12
REMARK H PARENT 10 13
REMARK Flexibility Score: inf
ROOT
ATOM      1  C   UNL     1      10.302 -16.297   7.915  1.00  0.00    -0.025 A 
ATOM      2  C   UNL     1      10.186 -17.451   7.121  1.00  0.00     0.012 A 
ATOM      3  C   UNL     1       9.143 -15.766   8.515  1.00  0.00     0.012 A 
ATOM      4  C   UNL     1       8.939 -18.047   6.910  1.00  0.00     0.047 A 
ATOM      5  C   UNL     1       7.897 -16.365   8.303  1.00  0.00     0.047 A 
ATOM      6  C   UNL     1       7.792 -17.506   7.497  1.00  0.00     0.115 A 
ENDROOT
BRANCH   1   7
ATOM      7  C   UNL     1      11.649 -15.708   8.117  1.00  0.00     0.010 C 
ATOM      8  C   UNL     1      12.721 -16.028   7.379  1.00  0.00     0.025 C 
BRANCH   8   9
ATOM      9  C   UNL     1      14.046 -15.431   7.615  1.00  0.00     0.064 C 
ATOM     10  O   UNL     1      14.877 -15.974   8.391  1.00  0.00    -0.545 OA
ATOM     11  O   UNL     1      14.385 -14.247   6.974  1.00  0.00    -0.545 OA
ENDBRANCH   8   9
ENDBRANCH   1   7
BRANCH   6  12
ATOM     12  O   UNL     1       6.556 -18.110   7.278  1.00  0.00    -0.508 OA
ATOM     13  H   UNL     1       5.972 -17.851   6.492  1.00  0.00     0.293 HD
ENDBRANCH   6  12
TORSDOF 3
ENDMDL
