MODEL 1
REMARK VINA RESULT:    -3.590      0.000      0.000
REMARK INTER + INTRA:          -5.221
REMARK INTER:                  -5.375
REMARK INTRA:                   0.153
REMARK UNBOUND:                 0.153
REMARK SMILES C=C(CC[C@H](C(=O)[O-])[C@@H]1[C@H](O)C[C@@]2(C)C3=C(CC[C@@]12C)[C@@]1(C)CC[C@@H](OC(C)=O)C(C)(C)[C@H]1CC3)C(C)C
REMARK SMILES IDX 4 1 5 2 6 3 7 4 8 5 9 6 10 7 19 8 12 9 13 10 18 11 20 12
REMARK SMILES IDX 14 13 15 14 17 15 16 16 35 17 21 18 34 19 33 20 23 21 22 22
REMARK SMILES IDX 30 23 24 24 25 25 31 26 32 27 11 28 26 30 27 31 29 32 28 33
REMARK SMILES IDX 3 34 2 35 1 36 36 37 37 38 38 39
REMARK H PARENT 11 29
REMARK Flexibility Score: inf
ROOT
ATOM      1  C   UNL     1     127.707 -42.954  34.629  1.00  0.00     0.014 C 
ENDROOT
BRANCH   1   2
ATOM      2  C   UNL     1     127.189 -41.616  34.037  1.00  0.00     0.042 C 
BRANCH   2   3
ATOM      3  C   UNL     1     125.727 -41.774  33.687  1.00  0.00     0.045 C 
ATOM      4  O   UNL     1     125.040 -40.782  33.333  1.00  0.00    -0.550 OA
ATOM      5  O   UNL     1     125.149 -43.036  33.700  1.00  0.00    -0.550 OA
ENDBRANCH   2   3
BRANCH   2   6
ATOM      6  C   UNL     1     127.999 -41.066  32.793  1.00  0.00     0.033 C 
ATOM      7  C   UNL     1     128.070 -39.545  32.600  1.00  0.00     0.119 C 
ATOM      8  C   UNL     1     127.729 -41.674  31.361  1.00  0.00    -0.017 C 
ATOM      9  C   UNL     1     128.793 -39.423  31.261  1.00  0.00     0.043 C 
ATOM     10  C   UNL     1     128.232 -40.546  30.342  1.00  0.00    -0.003 C 
ATOM     11  C   UNL     1     128.534 -42.990  31.184  1.00  0.00     0.012 C 
ATOM     12  C   UNL     1     126.231 -42.060  31.173  1.00  0.00     0.013 C 
ATOM     13  C   UNL     1     127.061 -39.924  29.515  1.00  0.00     0.017 C 
ATOM     14  C   UNL     1     129.372 -41.001  29.380  1.00  0.00    -0.064 C 
ATOM     15  C   UNL     1     130.037 -42.765  30.992  1.00  0.00     0.032 C 
ATOM     16  C   UNL     1     130.347 -41.862  29.812  1.00  0.00    -0.064 C 
ATOM     17  C   UNL     1     129.562 -40.306  28.041  1.00  0.00     0.032 C 
ATOM     18  C   UNL     1     131.817 -41.704  29.312  1.00  0.00    -0.008 C 
ATOM     19  C   UNL     1     130.543 -41.062  27.159  1.00  0.00     0.009 C 
ATOM     20  C   UNL     1     131.915 -41.097  27.843  1.00  0.00     0.009 C 
ATOM     21  C   UNL     1     132.569 -43.067  29.398  1.00  0.00     0.015 C 
ATOM     22  C   UNL     1     132.479 -40.720  30.321  1.00  0.00     0.016 C 
ATOM     23  C   UNL     1     133.053 -41.681  26.904  1.00  0.00     0.005 C 
ATOM     24  C   UNL     1     134.000 -43.083  28.835  1.00  0.00     0.047 C 
ATOM     25  C   UNL     1     134.300 -42.031  27.759  1.00  0.00     0.182 C 
ATOM     26  C   UNL     1     132.589 -42.915  26.076  1.00  0.00     0.015 C 
ATOM     27  C   UNL     1     133.480 -40.592  25.877  1.00  0.00     0.015 C 
BRANCH   7  28
ATOM     28  O   UNL     1     126.802 -38.962  32.508  1.00  0.00    -0.393 OA
ATOM     29  H   UNL     1     126.269 -39.521  31.876  1.00  0.00     0.210 HD
ENDBRANCH   7  28
BRANCH  25  30
ATOM     30  O   UNL     1     135.362 -42.498  26.915  1.00  0.00    -0.462 OA
BRANCH  30  31
ATOM     31  C   UNL     1     136.658 -41.963  26.925  1.00  0.00     0.302 C 
ATOM     32  O   UNL     1     136.912 -40.878  26.341  1.00  0.00    -0.253 OA
ATOM     33  C   UNL     1     137.732 -42.650  27.708  1.00  0.00     0.139 C 
ENDBRANCH  30  31
ENDBRANCH  25  30
ENDBRANCH   2   6
ENDBRANCH   1   2
BRANCH   1  34
ATOM     34  C   UNL     1     129.248 -43.116  34.557  1.00  0.00     0.031 C 
BRANCH  34  35
ATOM     35  C   UNL     1     130.005 -42.330  35.619  1.00  0.00    -0.075 C 
ATOM     36  C   UNL     1     129.436 -42.177  36.827  1.00  0.00     0.008 C 
BRANCH  35  37
ATOM     37  C   UNL     1     131.277 -41.560  35.219  1.00  0.00     0.008 C 
ATOM     38  C   UNL     1     132.314 -42.498  34.589  1.00  0.00     0.012 C 
ATOM     39  C   UNL     1     130.998 -40.356  34.297  1.00  0.00     0.012 C 
ENDBRANCH  35  37
ENDBRANCH  34  35
ENDBRANCH   1  34
TORSDOF 9
ENDMDL
MODEL 2
REMARK VINA RESULT:    -3.221      1.882      9.207
REMARK INTER + INTRA:          -4.668
REMARK INTER:                  -5.507
REMARK INTRA:                   0.838
REMARK UNBOUND:                 0.153
REMARK SMILES C=C(CC[C@H](C(=O)[O-])[C@@H]1[C@H](O)C[C@@]2(C)C3=C(CC[C@@]12C)[C@@]1(C)CC[C@@H](OC(C)=O)C(C)(C)[C@H]1CC3)C(C)C
REMARK SMILES IDX 4 1 5 2 6 3 7 4 8 5 9 6 10 7 19 8 12 9 13 10 18 11 20 12
REMARK SMILES IDX 14 13 15 14 17 15 16 16 35 17 21 18 34 19 33 20 23 21 22 22
REMARK SMILES IDX 30 23 24 24 25 25 31 26 32 27 11 28 26 30 27 31 29 32 28 33
REMARK SMILES IDX 3 34 2 35 1 36 36 37 37 38 38 39
REMARK H PARENT 11 29
REMARK Flexibility Score: inf
ROOT
ATOM      1  C   UNL     1     135.630 -40.066  26.761  1.00  0.00     0.014 C 
ENDROOT
BRANCH   1   2
ATOM      2  C   UNL     1     135.428 -41.179  27.825  1.00  0.00     0.042 C 
BRANCH   2   3
ATOM      3  C   UNL     1     136.353 -42.331  27.502  1.00  0.00     0.045 C 
ATOM      4  O   UNL     1     137.111 -42.812  28.382  1.00  0.00    -0.550 OA
ATOM      5  O   UNL     1     136.323 -42.903  26.237  1.00  0.00    -0.550 OA
ENDBRANCH   2   3
BRANCH   2   6
ATOM      6  C   UNL     1     133.941 -41.693  27.994  1.00  0.00     0.033 C 
ATOM      7  C   UNL     1     133.577 -43.050  27.376  1.00  0.00     0.119 C 
ATOM      8  C   UNL     1     132.741 -40.725  27.651  1.00  0.00    -0.017 C 
ATOM      9  C   UNL     1     132.073 -43.125  27.622  1.00  0.00     0.043 C 
ATOM     10  C   UNL     1     131.504 -41.700  27.367  1.00  0.00    -0.003 C 
ATOM     11  C   UNL     1     132.455 -39.790  28.857  1.00  0.00     0.012 C 
ATOM     12  C   UNL     1     133.083 -39.787  26.454  1.00  0.00     0.013 C 
ATOM     13  C   UNL     1     131.034 -41.650  25.877  1.00  0.00     0.017 C 
ATOM     14  C   UNL     1     130.280 -41.489  28.312  1.00  0.00    -0.064 C 
ATOM     15  C   UNL     1     131.770 -40.498  30.029  1.00  0.00     0.032 C 
ATOM     16  C   UNL     1     130.467 -41.163  29.630  1.00  0.00    -0.064 C 
ATOM     17  C   UNL     1     128.886 -41.888  27.854  1.00  0.00     0.032 C 
ATOM     18  C   UNL     1     129.509 -41.731  30.725  1.00  0.00    -0.008 C 
ATOM     19  C   UNL     1     127.821 -41.365  28.805  1.00  0.00     0.009 C 
ATOM     20  C   UNL     1     128.032 -41.987  30.191  1.00  0.00     0.009 C 
ATOM     21  C   UNL     1     129.492 -40.793  31.970  1.00  0.00     0.015 C 
ATOM     22  C   UNL     1     130.146 -43.088  31.148  1.00  0.00     0.016 C 
ATOM     23  C   UNL     1     126.844 -41.664  31.193  1.00  0.00     0.005 C 
ATOM     24  C   UNL     1     128.507 -41.175  33.087  1.00  0.00     0.047 C 
ATOM     25  C   UNL     1     127.288 -41.995  32.644  1.00  0.00     0.182 C 
ATOM     26  C   UNL     1     126.341 -40.195  31.093  1.00  0.00     0.015 C 
ATOM     27  C   UNL     1     125.627 -42.574  30.857  1.00  0.00     0.015 C 
BRANCH   7  28
ATOM     28  O   UNL     1     133.835 -43.094  26.001  1.00  0.00    -0.393 OA
ATOM     29  H   UNL     1     133.706 -42.168  25.651  1.00  0.00     0.210 HD
ENDBRANCH   7  28
BRANCH  25  30
ATOM     30  O   UNL     1     126.202 -41.771  33.555  1.00  0.00    -0.462 OA
BRANCH  30  31
ATOM     31  C   UNL     1     126.048 -42.460  34.766  1.00  0.00     0.302 C 
ATOM     32  O   UNL     1     127.051 -42.834  35.427  1.00  0.00    -0.253 OA
ATOM     33  C   UNL     1     124.675 -42.680  35.318  1.00  0.00     0.139 C 
ENDBRANCH  30  31
ENDBRANCH  25  30
ENDBRANCH   2   6
ENDBRANCH   1   2
BRANCH   1  34
ATOM     34  C   UNL     1     136.995 -40.141  26.028  1.00  0.00     0.031 C 
BRANCH  34  35
ATOM     35  C   UNL     1     138.010 -39.109  26.499  1.00  0.00    -0.075 C 
ATOM     36  C   UNL     1     137.897 -37.848  26.048  1.00  0.00     0.008 C 
BRANCH  35  37
ATOM     37  C   UNL     1     139.244 -39.578  27.292  1.00  0.00     0.008 C 
ATOM     38  C   UNL     1     138.941 -39.649  28.794  1.00  0.00     0.012 C 
ATOM     39  C   UNL     1     139.822 -40.916  26.788  1.00  0.00     0.012 C 
ENDBRANCH  35  37
ENDBRANCH  34  35
ENDBRANCH   1  34
TORSDOF 9
ENDMDL
MODEL 3
REMARK VINA RESULT:    -1.662      0.974      1.686
REMARK INTER + INTRA:          -2.335
REMARK INTER:                  -3.190
REMARK INTRA:                   0.855
REMARK UNBOUND:                 0.153
REMARK SMILES C=C(CC[C@H](C(=O)[O-])[C@@H]1[C@H](O)C[C@@]2(C)C3=C(CC[C@@]12C)[C@@]1(C)CC[C@@H](OC(C)=O)C(C)(C)[C@H]1CC3)C(C)C
REMARK SMILES IDX 4 1 5 2 6 3 7 4 8 5 9 6 10 7 19 8 12 9 13 10 18 11 20 12
REMARK SMILES IDX 14 13 15 14 17 15 16 16 35 17 21 18 34 19 33 20 23 21 22 22
REMARK SMILES IDX 30 23 24 24 25 25 31 26 32 27 11 28 26 30 27 31 29 32 28 33
REMARK SMILES IDX 3 34 2 35 1 36 36 37 37 38 38 39
REMARK H PARENT 11 29
REMARK Flexibility Score: inf
ROOT
ATOM      1  C   UNL     1     127.376 -42.834  34.339  1.00  0.00     0.014 C 
ENDROOT
BRANCH   1   2
ATOM      2  C   UNL     1     127.031 -41.418  33.803  1.00  0.00     0.042 C 
BRANCH   2   3
ATOM      3  C   UNL     1     125.560 -41.377  33.454  1.00  0.00     0.045 C 
ATOM      4  O   UNL     1     124.891 -42.439  33.366  1.00  0.00    -0.550 OA
ATOM      5  O   UNL     1     124.926 -40.153  33.287  1.00  0.00    -0.550 OA
ENDBRANCH   2   3
BRANCH   2   6
ATOM      6  C   UNL     1     127.903 -40.925  32.577  1.00  0.00     0.033 C 
ATOM      7  C   UNL     1     127.986 -39.415  32.317  1.00  0.00     0.119 C 
ATOM      8  C   UNL     1     127.706 -41.599  31.163  1.00  0.00    -0.017 C 
ATOM      9  C   UNL     1     128.776 -39.355  31.012  1.00  0.00     0.043 C 
ATOM     10  C   UNL     1     128.261 -40.519  30.120  1.00  0.00    -0.003 C 
ATOM     11  C   UNL     1     128.518 -42.921  31.089  1.00  0.00     0.012 C 
ATOM     12  C   UNL     1     126.219 -41.997  30.917  1.00  0.00     0.013 C 
ATOM     13  C   UNL     1     127.134 -39.938  29.206  1.00  0.00     0.017 C 
ATOM     14  C   UNL     1     129.448 -41.017  29.238  1.00  0.00    -0.064 C 
ATOM     15  C   UNL     1     130.028 -42.704  30.962  1.00  0.00     0.032 C 
ATOM     16  C   UNL     1     130.398 -41.856  29.760  1.00  0.00    -0.064 C 
ATOM     17  C   UNL     1     129.706 -40.385  27.880  1.00  0.00     0.032 C 
ATOM     18  C   UNL     1     131.892 -41.719  29.328  1.00  0.00    -0.008 C 
ATOM     19  C   UNL     1     130.730 -41.180  27.085  1.00  0.00     0.009 C 
ATOM     20  C   UNL     1     132.065 -41.181  27.839  1.00  0.00     0.009 C 
ATOM     21  C   UNL     1     132.638 -43.075  29.515  1.00  0.00     0.015 C 
ATOM     22  C   UNL     1     132.503 -40.688  30.322  1.00  0.00     0.016 C 
ATOM     23  C   UNL     1     133.249 -41.806  26.987  1.00  0.00     0.005 C 
ATOM     24  C   UNL     1     134.096 -43.115  29.027  1.00  0.00     0.047 C 
ATOM     25  C   UNL     1     134.451 -42.114  27.920  1.00  0.00     0.182 C 
ATOM     26  C   UNL     1     132.827 -43.078  26.195  1.00  0.00     0.015 C 
ATOM     27  C   UNL     1     133.729 -40.766  25.933  1.00  0.00     0.015 C 
BRANCH   7  28
ATOM     28  O   UNL     1     126.724 -38.838  32.134  1.00  0.00    -0.393 OA
ATOM     29  H   UNL     1     126.068 -39.409  32.624  1.00  0.00     0.210 HD
ENDBRANCH   7  28
BRANCH  25  30
ATOM     30  O   UNL     1     135.554 -42.619  27.153  1.00  0.00    -0.462 OA
BRANCH  30  31
ATOM     31  C   UNL     1     136.682 -41.857  26.818  1.00  0.00     0.302 C 
ATOM     32  O   UNL     1     137.439 -42.207  25.875  1.00  0.00    -0.253 OA
ATOM     33  C   UNL     1     136.943 -40.571  27.538  1.00  0.00     0.139 C 
ENDBRANCH  30  31
ENDBRANCH  25  30
ENDBRANCH   2   6
ENDBRANCH   1   2
BRANCH   1  34
ATOM     34  C   UNL     1     127.319 -42.949  35.884  1.00  0.00     0.031 C 
BRANCH  34  35
ATOM     35  C   UNL     1     128.683 -42.931  36.559  1.00  0.00    -0.075 C 
ATOM     36  C   UNL     1     129.775 -43.117  35.797  1.00  0.00     0.008 C 
BRANCH  35  37
ATOM     37  C   UNL     1     128.761 -42.918  38.096  1.00  0.00     0.008 C 
ATOM     38  C   UNL     1     129.838 -41.943  38.586  1.00  0.00     0.012 C 
ATOM     39  C   UNL     1     127.407 -42.622  38.773  1.00  0.00     0.012 C 
ENDBRANCH  35  37
ENDBRANCH  34  35
ENDBRANCH   1  34
TORSDOF 9
ENDMDL
MODEL 4
REMARK VINA RESULT:    -0.962      2.144      4.481
REMARK INTER + INTRA:          -1.286
REMARK INTER:                  -3.797
REMARK INTRA:                   2.510
REMARK UNBOUND:                 0.153
REMARK SMILES C=C(CC[C@H](C(=O)[O-])[C@@H]1[C@H](O)C[C@@]2(C)C3=C(CC[C@@]12C)[C@@]1(C)CC[C@@H](OC(C)=O)C(C)(C)[C@H]1CC3)C(C)C
REMARK SMILES IDX 4 1 5 2 6 3 7 4 8 5 9 6 10 7 19 8 12 9 13 10 18 11 20 12
REMARK SMILES IDX 14 13 15 14 17 15 16 16 35 17 21 18 34 19 33 20 23 21 22 22
REMARK SMILES IDX 30 23 24 24 25 25 31 26 32 27 11 28 26 30 27 31 29 32 28 33
REMARK SMILES IDX 3 34 2 35 1 36 36 37 37 38 38 39
REMARK H PARENT 11 29
REMARK Flexibility Score: inf
ROOT
ATOM      1  C   UNL     1     128.146 -39.396  31.936  1.00  0.00     0.014 C 
ENDROOT
BRANCH   1   2
ATOM      2  C   UNL     1     128.424 -38.818  30.522  1.00  0.00     0.042 C 
BRANCH   2   3
ATOM      3  C   UNL     1     127.105 -38.631  29.806  1.00  0.00     0.045 C 
ATOM      4  O   UNL     1     126.048 -38.417  30.454  1.00  0.00    -0.550 OA
ATOM      5  O   UNL     1     127.068 -38.639  28.419  1.00  0.00    -0.550 OA
ENDBRANCH   2   3
BRANCH   2   6
ATOM      6  C   UNL     1     129.423 -39.660  29.629  1.00  0.00     0.033 C 
ATOM      7  C   UNL     1     128.838 -40.462  28.459  1.00  0.00     0.119 C 
ATOM      8  C   UNL     1     130.473 -40.612  30.326  1.00  0.00    -0.017 C 
ATOM      9  C   UNL     1     130.057 -41.225  27.947  1.00  0.00     0.043 C 
ATOM     10  C   UNL     1     130.861 -41.680  29.198  1.00  0.00    -0.003 C 
ATOM     11  C   UNL     1     131.713 -39.794  30.776  1.00  0.00     0.012 C 
ATOM     12  C   UNL     1     129.893 -41.258  31.621  1.00  0.00     0.013 C 
ATOM     13  C   UNL     1     130.383 -43.125  29.554  1.00  0.00     0.017 C 
ATOM     14  C   UNL     1     132.374 -41.705  28.820  1.00  0.00    -0.064 C 
ATOM     15  C   UNL     1     132.617 -39.368  29.616  1.00  0.00     0.032 C 
ATOM     16  C   UNL     1     133.104 -40.544  28.791  1.00  0.00    -0.064 C 
ATOM     17  C   UNL     1     132.994 -42.965  28.237  1.00  0.00     0.032 C 
ATOM     18  C   UNL     1     134.217 -40.340  27.715  1.00  0.00    -0.008 C 
ATOM     19  C   UNL     1     134.511 -42.863  28.185  1.00  0.00     0.009 C 
ATOM     20  C   UNL     1     134.908 -41.702  27.265  1.00  0.00     0.009 C 
ATOM     21  C   UNL     1     135.282 -39.321  28.223  1.00  0.00     0.015 C 
ATOM     22  C   UNL     1     133.484 -39.707  26.496  1.00  0.00     0.016 C 
ATOM     23  C   UNL     1     136.469 -41.652  26.983  1.00  0.00     0.005 C 
ATOM     24  C   UNL     1     136.497 -39.105  27.306  1.00  0.00     0.047 C 
ATOM     25  C   UNL     1     136.839 -40.273  26.372  1.00  0.00     0.182 C 
ATOM     26  C   UNL     1     137.329 -41.943  28.247  1.00  0.00     0.015 C 
ATOM     27  C   UNL     1     136.837 -42.742  25.935  1.00  0.00     0.015 C 
BRANCH   7  28
ATOM     28  O   UNL     1     127.854 -41.367  28.875  1.00  0.00    -0.393 OA
ATOM     29  H   UNL     1     128.324 -42.209  29.135  1.00  0.00     0.210 HD
ENDBRANCH   7  28
BRANCH  25  30
ATOM     30  O   UNL     1     138.237 -40.236  26.050  1.00  0.00    -0.462 OA
BRANCH  30  31
ATOM     31  C   UNL     1     139.158 -39.386  26.677  1.00  0.00     0.302 C 
ATOM     32  O   UNL     1     139.801 -39.766  27.690  1.00  0.00    -0.253 OA
ATOM     33  C   UNL     1     139.439 -38.040  26.086  1.00  0.00     0.139 C 
ENDBRANCH  30  31
ENDBRANCH  25  30
ENDBRANCH   2   6
ENDBRANCH   1   2
BRANCH   1  34
ATOM     34  C   UNL     1     126.645 -39.667  32.217  1.00  0.00     0.031 C 
BRANCH  34  35
ATOM     35  C   UNL     1     126.293 -41.142  32.343  1.00  0.00    -0.075 C 
ATOM     36  C   UNL     1     125.778 -41.770  31.272  1.00  0.00     0.008 C 
BRANCH  35  37
ATOM     37  C   UNL     1     126.332 -41.808  33.731  1.00  0.00     0.008 C 
ATOM     38  C   UNL     1     125.121 -42.727  33.936  1.00  0.00     0.012 C 
ATOM     39  C   UNL     1     127.647 -42.565  34.008  1.00  0.00     0.012 C 
ENDBRANCH  35  37
ENDBRANCH  34  35
ENDBRANCH   1  34
TORSDOF 9
ENDMDL
