MODEL 1
REMARK VINA RESULT:     7.623      0.000      0.000
REMARK INTER + INTRA:          11.862
REMARK INTER:                  12.080
REMARK INTRA:                  -0.218
REMARK UNBOUND:                -0.218
REMARK SMILES CCCCCCCCCCCC(=O)[O-]
REMARK SMILES IDX 7 1 8 2 9 3 10 4 11 5 12 6 13 7 14 8 6 9 5 10 4 11 3 12 2 13
REMARK SMILES IDX 1 14
REMARK H PARENT
REMARK Flexibility Score: inf
ROOT
ATOM      1  C   UNL     1      16.960  17.427  17.018  1.00  0.00     0.000 C 
ENDROOT
BRANCH   1   2
ATOM      2  C   UNL     1      16.066  17.773  18.223  1.00  0.00     0.000 C 
BRANCH   2   3
ATOM      3  C   UNL     1      16.318  16.929  19.488  1.00  0.00     0.000 C 
BRANCH   3   4
ATOM      4  C   UNL     1      17.784  16.873  19.954  1.00  0.00     0.006 C 
BRANCH   4   5
ATOM      5  C   UNL     1      18.123  17.955  20.985  1.00  0.00     0.053 C 
BRANCH   5   6
ATOM      6  C   UNL     1      19.576  18.307  20.915  1.00  0.00     0.041 C 
ATOM      7  O   UNL     1      20.111  18.977  21.839  1.00  0.00    -0.550 OA
ATOM      8  O   UNL     1      20.327  17.942  19.805  1.00  0.00    -0.550 OA
ENDBRANCH   5   6
ENDBRANCH   4   5
ENDBRANCH   3   4
ENDBRANCH   2   3
ENDBRANCH   1   2
BRANCH   1   9
ATOM      9  C   UNL     1      16.223  17.539  15.676  1.00  0.00     0.000 C 
BRANCH   9  10
ATOM     10  C   UNL     1      17.074  16.974  14.532  1.00  0.00    -0.000 C 
BRANCH  10  11
ATOM     11  C   UNL     1      18.004  18.047  13.955  1.00  0.00    -0.000 C 
BRANCH  11  12
ATOM     12  C   UNL     1      17.777  19.399  14.640  1.00  0.00    -0.000 C 
BRANCH  12  13
ATOM     13  C   UNL     1      18.477  20.529  13.875  1.00  0.00    -0.003 C 
ATOM     14  C   UNL     1      19.704  21.029  14.632  1.00  0.00     0.004 C 
ENDBRANCH  12  13
ENDBRANCH  11  12
ENDBRANCH  10  11
ENDBRANCH   9  10
ENDBRANCH   1   9
TORSDOF 10
ENDMDL
MODEL 2
REMARK VINA RESULT:     9.305      2.836      5.822
REMARK INTER + INTRA:          14.527
REMARK INTER:                  14.859
REMARK INTRA:                  -0.332
REMARK UNBOUND:                -0.218
REMARK SMILES CCCCCCCCCCCC(=O)[O-]
REMARK SMILES IDX 7 1 8 2 9 3 10 4 11 5 12 6 13 7 14 8 6 9 5 10 4 11 3 12 2 13
REMARK SMILES IDX 1 14
REMARK H PARENT
REMARK Flexibility Score: inf
ROOT
ATOM      1  C   UNL     1      16.188  17.985  18.767  1.00  0.00     0.000 C 
ENDROOT
BRANCH   1   2
ATOM      2  C   UNL     1      15.928  17.533  17.318  1.00  0.00     0.000 C 
BRANCH   2   3
ATOM      3  C   UNL     1      17.193  17.314  16.464  1.00  0.00     0.000 C 
BRANCH   3   4
ATOM      4  C   UNL     1      16.940  17.144  14.955  1.00  0.00     0.006 C 
BRANCH   4   5
ATOM      5  C   UNL     1      17.986  17.859  14.092  1.00  0.00     0.053 C 
BRANCH   5   6
ATOM      6  C   UNL     1      17.925  19.338  14.315  1.00  0.00     0.041 C 
ATOM      7  O   UNL     1      16.887  19.863  14.798  1.00  0.00    -0.550 OA
ATOM      8  O   UNL     1      18.994  20.142  13.941  1.00  0.00    -0.550 OA
ENDBRANCH   5   6
ENDBRANCH   4   5
ENDBRANCH   3   4
ENDBRANCH   2   3
ENDBRANCH   1   2
BRANCH   1   9
ATOM      9  C   UNL     1      16.764  16.868  19.647  1.00  0.00     0.000 C 
BRANCH   9  10
ATOM     10  C   UNL     1      18.268  17.065  19.873  1.00  0.00    -0.000 C 
BRANCH  10  11
ATOM     11  C   UNL     1      18.530  17.991  21.066  1.00  0.00    -0.000 C 
BRANCH  11  12
ATOM     12  C   UNL     1      19.967  18.524  21.044  1.00  0.00    -0.000 C 
BRANCH  12  13
ATOM     13  C   UNL     1      20.743  17.963  19.846  1.00  0.00    -0.003 C 
ATOM     14  C   UNL     1      22.245  17.951  20.118  1.00  0.00     0.004 C 
ENDBRANCH  12  13
ENDBRANCH  11  12
ENDBRANCH  10  11
ENDBRANCH   9  10
ENDBRANCH   1   9
TORSDOF 10
ENDMDL
MODEL 3
REMARK VINA RESULT:     9.333      3.251      7.037
REMARK INTER + INTRA:          14.570
REMARK INTER:                  14.856
REMARK INTRA:                  -0.286
REMARK UNBOUND:                -0.218
REMARK SMILES CCCCCCCCCCCC(=O)[O-]
REMARK SMILES IDX 7 1 8 2 9 3 10 4 11 5 12 6 13 7 14 8 6 9 5 10 4 11 3 12 2 13
REMARK SMILES IDX 1 14
REMARK H PARENT
REMARK Flexibility Score: inf
ROOT
ATOM      1  C   UNL     1      18.205  17.099  19.919  1.00  0.00     0.000 C 
ENDROOT
BRANCH   1   2
ATOM      2  C   UNL     1      16.832  17.700  19.566  1.00  0.00     0.000 C 
BRANCH   2   3
ATOM      3  C   UNL     1      16.269  17.282  18.194  1.00  0.00     0.000 C 
BRANCH   3   4
ATOM      4  C   UNL     1      17.199  17.552  16.997  1.00  0.00     0.006 C 
BRANCH   4   5
ATOM      5  C   UNL     1      16.459  17.544  15.654  1.00  0.00     0.053 C 
BRANCH   5   6
ATOM      6  C   UNL     1      17.422  17.331  14.528  1.00  0.00     0.041 C 
ATOM      7  O   UNL     1      17.720  16.163  14.163  1.00  0.00    -0.550 OA
ATOM      8  O   UNL     1      18.029  18.420  13.916  1.00  0.00    -0.550 OA
ENDBRANCH   5   6
ENDBRANCH   4   5
ENDBRANCH   3   4
ENDBRANCH   2   3
ENDBRANCH   1   2
BRANCH   1   9
ATOM      9  C   UNL     1      19.250  18.164  20.276  1.00  0.00     0.000 C 
BRANCH   9  10
ATOM     10  C   UNL     1      19.331  18.369  21.794  1.00  0.00    -0.000 C 
BRANCH  10  11
ATOM     11  C   UNL     1      20.649  19.044  22.190  1.00  0.00    -0.000 C 
BRANCH  11  12
ATOM     12  C   UNL     1      20.721  19.264  23.706  1.00  0.00    -0.000 C 
BRANCH  12  13
ATOM     13  C   UNL     1      21.251  20.664  24.034  1.00  0.00    -0.003 C 
ATOM     14  C   UNL     1      22.601  20.591  24.743  1.00  0.00     0.004 C 
ENDBRANCH  12  13
ENDBRANCH  11  12
ENDBRANCH  10  11
ENDBRANCH   9  10
ENDBRANCH   1   9
TORSDOF 10
ENDMDL
MODEL 4
REMARK VINA RESULT:     9.438      3.204      6.249
REMARK INTER + INTRA:          14.738
REMARK INTER:                  15.294
REMARK INTRA:                  -0.557
REMARK UNBOUND:                -0.218
REMARK SMILES CCCCCCCCCCCC(=O)[O-]
REMARK SMILES IDX 7 1 8 2 9 3 10 4 11 5 12 6 13 7 14 8 6 9 5 10 4 11 3 12 2 13
REMARK SMILES IDX 1 14
REMARK H PARENT
REMARK Flexibility Score: inf
ROOT
ATOM      1  C   UNL     1      18.310  17.211  19.778  1.00  0.00     0.000 C 
ENDROOT
BRANCH   1   2
ATOM      2  C   UNL     1      16.788  17.110  19.564  1.00  0.00     0.000 C 
BRANCH   2   3
ATOM      3  C   UNL     1      16.277  17.674  18.223  1.00  0.00     0.000 C 
BRANCH   3   4
ATOM      4  C   UNL     1      17.218  17.459  17.023  1.00  0.00     0.006 C 
BRANCH   4   5
ATOM      5  C   UNL     1      16.504  17.596  15.674  1.00  0.00     0.053 C 
BRANCH   5   6
ATOM      6  C   UNL     1      17.467  17.382  14.549  1.00  0.00     0.041 C 
ATOM      7  O   UNL     1      17.770  16.214  14.189  1.00  0.00    -0.550 OA
ATOM      8  O   UNL     1      18.069  18.471  13.932  1.00  0.00    -0.550 OA
ENDBRANCH   5   6
ENDBRANCH   4   5
ENDBRANCH   3   4
ENDBRANCH   2   3
ENDBRANCH   1   2
BRANCH   1   9
ATOM      9  C   UNL     1      18.689  18.141  20.938  1.00  0.00     0.000 C 
BRANCH   9  10
ATOM     10  C   UNL     1      20.198  18.412  20.954  1.00  0.00    -0.000 C 
BRANCH  10  11
ATOM     11  C   UNL     1      20.873  17.856  19.695  1.00  0.00    -0.000 C 
BRANCH  11  12
ATOM     12  C   UNL     1      22.398  17.969  19.793  1.00  0.00    -0.000 C 
BRANCH  12  13
ATOM     13  C   UNL     1      22.870  17.814  21.244  1.00  0.00    -0.003 C 
ATOM     14  C   UNL     1      24.353  18.145  21.380  1.00  0.00     0.004 C 
ENDBRANCH  12  13
ENDBRANCH  11  12
ENDBRANCH  10  11
ENDBRANCH   9  10
ENDBRANCH   1   9
TORSDOF 10
ENDMDL
MODEL 5
REMARK VINA RESULT:     9.846      1.255      1.927
REMARK INTER + INTRA:          15.383
REMARK INTER:                  15.850
REMARK INTRA:                  -0.467
REMARK UNBOUND:                -0.218
REMARK SMILES CCCCCCCCCCCC(=O)[O-]
REMARK SMILES IDX 7 1 8 2 9 3 10 4 11 5 12 6 13 7 14 8 6 9 5 10 4 11 3 12 2 13
REMARK SMILES IDX 1 14
REMARK H PARENT
REMARK Flexibility Score: inf
ROOT
ATOM      1  C   UNL     1      16.313  17.399  18.407  1.00  0.00     0.000 C 
ENDROOT
BRANCH   1   2
ATOM      2  C   UNL     1      17.038  17.744  19.721  1.00  0.00     0.000 C 
BRANCH   2   3
ATOM      3  C   UNL     1      18.332  16.948  19.982  1.00  0.00     0.000 C 
BRANCH   3   4
ATOM      4  C   UNL     1      19.588  17.806  20.222  1.00  0.00     0.006 C 
BRANCH   4   5
ATOM      5  C   UNL     1      19.348  18.949  21.215  1.00  0.00     0.053 C 
BRANCH   5   6
ATOM      6  C   UNL     1      19.867  18.581  22.570  1.00  0.00     0.041 C 
ATOM      7  O   UNL     1      19.324  17.653  23.225  1.00  0.00    -0.550 OA
ATOM      8  O   UNL     1      20.916  19.298  23.131  1.00  0.00    -0.550 OA
ENDBRANCH   5   6
ENDBRANCH   4   5
ENDBRANCH   3   4
ENDBRANCH   2   3
ENDBRANCH   1   2
BRANCH   1   9
ATOM      9  C   UNL     1      17.218  17.529  17.174  1.00  0.00     0.000 C 
BRANCH   9  10
ATOM     10  C   UNL     1      16.386  17.627  15.889  1.00  0.00    -0.000 C 
BRANCH  10  11
ATOM     11  C   UNL     1      17.111  16.967  14.711  1.00  0.00    -0.000 C 
BRANCH  11  12
ATOM     12  C   UNL     1      18.160  17.910  14.111  1.00  0.00    -0.000 C 
BRANCH  12  13
ATOM     13  C   UNL     1      17.711  19.372  14.222  1.00  0.00    -0.003 C 
ATOM     14  C   UNL     1      18.851  20.326  13.875  1.00  0.00     0.004 C 
ENDBRANCH  12  13
ENDBRANCH  11  12
ENDBRANCH  10  11
ENDBRANCH   9  10
ENDBRANCH   1   9
TORSDOF 10
ENDMDL
MODEL 6
REMARK VINA RESULT:    10.132      3.522      4.260
REMARK INTER + INTRA:          15.837
REMARK INTER:                  16.287
REMARK INTRA:                  -0.450
REMARK UNBOUND:                -0.218
REMARK SMILES CCCCCCCCCCCC(=O)[O-]
REMARK SMILES IDX 7 1 8 2 9 3 10 4 11 5 12 6 13 7 14 8 6 9 5 10 4 11 3 12 2 13
REMARK SMILES IDX 1 14
REMARK H PARENT
REMARK Flexibility Score: inf
ROOT
ATOM      1  C   UNL     1      16.274  17.549  18.127  1.00  0.00     0.000 C 
ENDROOT
BRANCH   1   2
ATOM      2  C   UNL     1      17.042  17.461  19.459  1.00  0.00     0.000 C 
BRANCH   2   3
ATOM      3  C   UNL     1      16.897  16.122  20.210  1.00  0.00     0.000 C 
BRANCH   3   4
ATOM      4  C   UNL     1      15.671  15.280  19.811  1.00  0.00     0.006 C 
BRANCH   4   5
ATOM      5  C   UNL     1      15.094  14.477  20.982  1.00  0.00     0.053 C 
BRANCH   5   6
ATOM      6  C   UNL     1      14.218  13.374  20.478  1.00  0.00     0.041 C 
ATOM      7  O   UNL     1      14.599  12.650  19.520  1.00  0.00    -0.550 OA
ATOM      8  O   UNL     1      12.959  13.177  21.030  1.00  0.00    -0.550 OA
ENDBRANCH   5   6
ENDBRANCH   4   5
ENDBRANCH   3   4
ENDBRANCH   2   3
ENDBRANCH   1   2
BRANCH   1   9
ATOM      9  C   UNL     1      17.194  17.475  16.901  1.00  0.00     0.000 C 
BRANCH   9  10
ATOM     10  C   UNL     1      16.390  17.599  15.601  1.00  0.00    -0.000 C 
BRANCH  10  11
ATOM     11  C   UNL     1      17.150  16.984  14.421  1.00  0.00    -0.000 C 
BRANCH  11  12
ATOM     12  C   UNL     1      18.227  17.943  13.901  1.00  0.00    -0.000 C 
BRANCH  12  13
ATOM     13  C   UNL     1      17.765  19.401  14.010  1.00  0.00    -0.003 C 
ATOM     14  C   UNL     1      18.949  20.340  14.221  1.00  0.00     0.004 C 
ENDBRANCH  12  13
ENDBRANCH  11  12
ENDBRANCH  10  11
ENDBRANCH   9  10
ENDBRANCH   1   9
TORSDOF 10
ENDMDL
MODEL 7
REMARK VINA RESULT:    10.560      1.190      2.495
REMARK INTER + INTRA:          16.516
REMARK INTER:                  16.711
REMARK INTRA:                  -0.196
REMARK UNBOUND:                -0.218
REMARK SMILES CCCCCCCCCCCC(=O)[O-]
REMARK SMILES IDX 7 1 8 2 9 3 10 4 11 5 12 6 13 7 14 8 6 9 5 10 4 11 3 12 2 13
REMARK SMILES IDX 1 14
REMARK H PARENT
REMARK Flexibility Score: inf
ROOT
ATOM      1  C   UNL     1      16.764  17.580  17.231  1.00  0.00     0.000 C 
ENDROOT
BRANCH   1   2
ATOM      2  C   UNL     1      16.302  18.151  18.585  1.00  0.00     0.000 C 
BRANCH   2   3
ATOM      3  C   UNL     1      16.380  17.167  19.769  1.00  0.00     0.000 C 
BRANCH   3   4
ATOM      4  C   UNL     1      17.667  17.258  20.609  1.00  0.00     0.006 C 
BRANCH   4   5
ATOM      5  C   UNL     1      18.940  17.208  19.756  1.00  0.00     0.053 C 
BRANCH   5   6
ATOM      6  C   UNL     1      20.008  18.063  20.361  1.00  0.00     0.041 C 
ATOM      7  O   UNL     1      19.724  18.876  21.280  1.00  0.00    -0.550 OA
ATOM      8  O   UNL     1      21.308  18.001  19.874  1.00  0.00    -0.550 OA
ENDBRANCH   5   6
ENDBRANCH   4   5
ENDBRANCH   3   4
ENDBRANCH   2   3
ENDBRANCH   1   2
BRANCH   1   9
ATOM      9  C   UNL     1      16.480  18.527  16.056  1.00  0.00     0.000 C 
BRANCH   9  10
ATOM     10  C   UNL     1      17.783  18.979  15.386  1.00  0.00    -0.000 C 
BRANCH  10  11
ATOM     11  C   UNL     1      17.903  18.404  13.970  1.00  0.00    -0.000 C 
BRANCH  11  12
ATOM     12  C   UNL     1      17.230  17.030  13.875  1.00  0.00    -0.000 C 
BRANCH  12  13
ATOM     13  C   UNL     1      18.135  15.933  14.449  1.00  0.00    -0.003 C 
ATOM     14  C   UNL     1      17.652  14.546  14.034  1.00  0.00     0.004 C 
ENDBRANCH  12  13
ENDBRANCH  11  12
ENDBRANCH  10  11
ENDBRANCH   9  10
ENDBRANCH   1   9
TORSDOF 10
ENDMDL
