MODEL 1
REMARK VINA RESULT:    -4.213      0.000      0.000
REMARK INTER + INTRA:          -6.220
REMARK INTER:                  -5.690
REMARK INTRA:                  -0.530
REMARK UNBOUND:                -0.530
REMARK SMILES O=C[C@H](O)[C@H](O)[C@@H](O)CO
REMARK SMILES IDX 7 1 9 2 10 3 5 5 3 6 2 7 1 8 4 9 6 11 8 13
REMARK H PARENT 10 4 4 10 6 12 8 14
REMARK Flexibility Score: inf
ROOT
ATOM      1  C   UNL     1      32.605   8.258  28.047  1.00  0.00     0.171 C 
ENDROOT
BRANCH   1   2
ATOM      2  C   UNL     1      33.549   8.591  29.226  1.00  0.00     0.190 C 
BRANCH   2   3
ATOM      3  O   UNL     1      32.838   8.781  30.418  1.00  0.00    -0.394 OA
ATOM      4  H   UNL     1      32.358   9.644  30.319  1.00  0.00     0.210 HD
ENDBRANCH   2   3
ENDBRANCH   1   2
BRANCH   1   5
ATOM      5  C   UNL     1      31.602   9.389  27.673  1.00  0.00     0.181 C 
BRANCH   5   6
ATOM      6  C   UNL     1      30.139   9.150  28.133  1.00  0.00     0.209 C 
BRANCH   6   7
ATOM      7  C   UNL     1      29.331  10.423  28.072  1.00  0.00     0.258 C 
ATOM      8  O   UNL     1      29.072  10.944  26.998  1.00  0.00    -0.300 OA
ENDBRANCH   6   7
BRANCH   6   9
ATOM      9  O   UNL     1      30.083   8.622  29.434  1.00  0.00    -0.383 OA
ATOM     10  H   UNL     1      30.301   7.654  29.375  1.00  0.00     0.211 HD
ENDBRANCH   6   9
ENDBRANCH   5   6
BRANCH   5  11
ATOM     11  O   UNL     1      31.619   9.576  26.279  1.00  0.00    -0.387 OA
ATOM     12  H   UNL     1      31.133   8.810  25.875  1.00  0.00     0.211 HD
ENDBRANCH   5  11
ENDBRANCH   1   5
BRANCH   1  13
ATOM     13  O   UNL     1      33.296   7.780  26.918  1.00  0.00    -0.388 OA
ATOM     14  H   UNL     1      32.916   8.200  26.105  1.00  0.00     0.211 HD
ENDBRANCH   1  13
TORSDOF 8
ENDMDL
MODEL 2
REMARK VINA RESULT:    -4.051      1.255      2.344
REMARK INTER + INTRA:          -6.002
REMARK INTER:                  -5.524
REMARK INTRA:                  -0.477
REMARK UNBOUND:                -0.530
REMARK SMILES O=C[C@H](O)[C@H](O)[C@@H](O)CO
REMARK SMILES IDX 7 1 9 2 10 3 5 5 3 6 2 7 1 8 4 9 6 11 8 13
REMARK H PARENT 10 4 4 10 6 12 8 14
REMARK Flexibility Score: inf
ROOT
ATOM      1  C   UNL     1      31.655   8.688  27.867  1.00  0.00     0.171 C 
ENDROOT
BRANCH   1   2
ATOM      2  C   UNL     1      32.758   8.922  28.925  1.00  0.00     0.190 C 
BRANCH   2   3
ATOM      3  O   UNL     1      33.964   8.310  28.557  1.00  0.00    -0.394 OA
ATOM      4  H   UNL     1      34.682   8.955  28.786  1.00  0.00     0.210 HD
ENDBRANCH   2   3
ENDBRANCH   1   2
BRANCH   1   5
ATOM      5  C   UNL     1      30.214   9.045  28.335  1.00  0.00     0.181 C 
BRANCH   5   6
ATOM      6  C   UNL     1      29.860  10.555  28.285  1.00  0.00     0.209 C 
BRANCH   6   7
ATOM      7  C   UNL     1      28.585  10.844  29.039  1.00  0.00     0.258 C 
ATOM      8  O   UNL     1      28.583  10.889  30.260  1.00  0.00    -0.300 OA
ENDBRANCH   6   7
BRANCH   6   9
ATOM      9  O   UNL     1      29.736  11.015  26.963  1.00  0.00    -0.383 OA
ATOM     10  H   UNL     1      29.042  10.462  26.516  1.00  0.00     0.211 HD
ENDBRANCH   6   9
ENDBRANCH   5   6
BRANCH   5  11
ATOM     11  O   UNL     1      30.026   8.573  29.647  1.00  0.00    -0.387 OA
ATOM     12  H   UNL     1      29.131   8.884  29.945  1.00  0.00     0.211 HD
ENDBRANCH   5  11
ENDBRANCH   1   5
BRANCH   1  13
ATOM     13  O   UNL     1      31.961   9.277  26.626  1.00  0.00    -0.388 OA
ATOM     14  H   UNL     1      32.931   9.178  26.452  1.00  0.00     0.211 HD
ENDBRANCH   1  13
TORSDOF 8
ENDMDL
MODEL 3
REMARK VINA RESULT:    -4.026      2.047      3.638
REMARK INTER + INTRA:          -5.969
REMARK INTER:                  -5.516
REMARK INTRA:                  -0.453
REMARK UNBOUND:                -0.530
REMARK SMILES O=C[C@H](O)[C@H](O)[C@@H](O)CO
REMARK SMILES IDX 7 1 9 2 10 3 5 5 3 6 2 7 1 8 4 9 6 11 8 13
REMARK H PARENT 10 4 4 10 6 12 8 14
REMARK Flexibility Score: inf
ROOT
ATOM      1  C   UNL     1      29.817   9.957  27.760  1.00  0.00     0.171 C 
ENDROOT
BRANCH   1   2
ATOM      2  C   UNL     1      31.236   9.359  27.898  1.00  0.00     0.190 C 
BRANCH   2   3
ATOM      3  O   UNL     1      31.883   9.277  26.658  1.00  0.00    -0.394 OA
ATOM      4  H   UNL     1      32.402  10.116  26.561  1.00  0.00     0.210 HD
ENDBRANCH   2   3
ENDBRANCH   1   2
BRANCH   1   5
ATOM      5  C   UNL     1      29.064  10.171  29.105  1.00  0.00     0.181 C 
BRANCH   5   6
ATOM      6  C   UNL     1      28.384  11.557  29.267  1.00  0.00     0.209 C 
BRANCH   6   7
ATOM      7  C   UNL     1      29.236  12.493  30.088  1.00  0.00     0.258 C 
ATOM      8  O   UNL     1      30.369  12.776  29.731  1.00  0.00    -0.300 OA
ENDBRANCH   6   7
BRANCH   6   9
ATOM      9  O   UNL     1      27.112  11.447  29.853  1.00  0.00    -0.383 OA
ATOM     10  H   UNL     1      26.876  12.335  30.230  1.00  0.00     0.211 HD
ENDBRANCH   6   9
ENDBRANCH   5   6
BRANCH   5  11
ATOM     11  O   UNL     1      29.961   9.974  30.171  1.00  0.00    -0.387 OA
ATOM     12  H   UNL     1      30.851  10.289  29.866  1.00  0.00     0.211 HD
ENDBRANCH   5  11
ENDBRANCH   1   5
BRANCH   1  13
ATOM     13  O   UNL     1      29.792  11.115  26.959  1.00  0.00    -0.388 OA
ATOM     14  H   UNL     1      29.491  10.870  26.048  1.00  0.00     0.211 HD
ENDBRANCH   1  13
TORSDOF 8
ENDMDL
MODEL 4
REMARK VINA RESULT:    -4.018      1.492      2.429
REMARK INTER + INTRA:          -5.958
REMARK INTER:                  -5.022
REMARK INTRA:                  -0.936
REMARK UNBOUND:                -0.530
REMARK SMILES O=C[C@H](O)[C@H](O)[C@@H](O)CO
REMARK SMILES IDX 7 1 9 2 10 3 5 5 3 6 2 7 1 8 4 9 6 11 8 13
REMARK H PARENT 10 4 4 10 6 12 8 14
REMARK Flexibility Score: inf
ROOT
ATOM      1  C   UNL     1      30.971   8.314  28.614  1.00  0.00     0.171 C 
ENDROOT
BRANCH   1   2
ATOM      2  C   UNL     1      32.267   8.547  27.803  1.00  0.00     0.190 C 
BRANCH   2   3
ATOM      3  O   UNL     1      32.016   9.261  26.624  1.00  0.00    -0.394 OA
ATOM      4  H   UNL     1      32.125  10.220  26.854  1.00  0.00     0.210 HD
ENDBRANCH   2   3
ENDBRANCH   1   2
BRANCH   1   5
ATOM      5  C   UNL     1      30.474   9.549  29.421  1.00  0.00     0.181 C 
BRANCH   5   6
ATOM      6  C   UNL     1      29.041  10.031  29.070  1.00  0.00     0.209 C 
BRANCH   6   7
ATOM      7  C   UNL     1      29.067  11.085  27.991  1.00  0.00     0.258 C 
ATOM      8  O   UNL     1      29.432  10.807  26.859  1.00  0.00    -0.300 OA
ENDBRANCH   6   7
BRANCH   6   9
ATOM      9  O   UNL     1      28.372  10.533  30.199  1.00  0.00    -0.383 OA
ATOM     10  H   UNL     1      28.727  11.444  30.378  1.00  0.00     0.211 HD
ENDBRANCH   6   9
ENDBRANCH   5   6
BRANCH   5  11
ATOM     11  O   UNL     1      31.374  10.613  29.234  1.00  0.00    -0.387 OA
ATOM     12  H   UNL     1      32.203  10.231  28.845  1.00  0.00     0.211 HD
ENDBRANCH   5  11
ENDBRANCH   1   5
BRANCH   1  13
ATOM     13  O   UNL     1      29.941   7.749  27.839  1.00  0.00    -0.388 OA
ATOM     14  H   UNL     1      30.169   6.806  27.637  1.00  0.00     0.211 HD
ENDBRANCH   1  13
TORSDOF 8
ENDMDL
MODEL 5
REMARK VINA RESULT:    -4.018      1.495      4.328
REMARK INTER + INTRA:          -5.957
REMARK INTER:                  -5.282
REMARK INTRA:                  -0.675
REMARK UNBOUND:                -0.530
REMARK SMILES O=C[C@H](O)[C@H](O)[C@@H](O)CO
REMARK SMILES IDX 7 1 9 2 10 3 5 5 3 6 2 7 1 8 4 9 6 11 8 13
REMARK H PARENT 10 4 4 10 6 12 8 14
REMARK Flexibility Score: inf
ROOT
ATOM      1  C   UNL     1      29.455  11.403  28.116  1.00  0.00     0.171 C 
ENDROOT
BRANCH   1   2
ATOM      2  C   UNL     1      28.466  11.978  29.157  1.00  0.00     0.190 C 
BRANCH   2   3
ATOM      3  O   UNL     1      27.339  11.158  29.306  1.00  0.00    -0.394 OA
ATOM      4  H   UNL     1      26.551  11.741  29.153  1.00  0.00     0.210 HD
ENDBRANCH   2   3
ENDBRANCH   1   2
BRANCH   1   5
ATOM      5  C   UNL     1      30.534  10.445  28.699  1.00  0.00     0.181 C 
BRANCH   5   6
ATOM      6  C   UNL     1      30.854   9.203  27.826  1.00  0.00     0.209 C 
BRANCH   6   7
ATOM      7  C   UNL     1      31.647   8.179  28.600  1.00  0.00     0.258 C 
ATOM      8  O   UNL     1      31.088   7.412  29.369  1.00  0.00    -0.300 OA
ENDBRANCH   6   7
BRANCH   6   9
ATOM      9  O   UNL     1      31.555   9.554  26.660  1.00  0.00    -0.383 OA
ATOM     10  H   UNL     1      31.073  10.314  26.238  1.00  0.00     0.211 HD
ENDBRANCH   6   9
ENDBRANCH   5   6
BRANCH   5  11
ATOM     11  O   UNL     1      30.127  10.016  29.976  1.00  0.00    -0.387 OA
ATOM     12  H   UNL     1      30.587   9.154  30.155  1.00  0.00     0.211 HD
ENDBRANCH   5  11
ENDBRANCH   1   5
BRANCH   1  13
ATOM     13  O   UNL     1      28.802  10.837  27.004  1.00  0.00    -0.388 OA
ATOM     14  H   UNL     1      27.824  10.923  27.126  1.00  0.00     0.211 HD
ENDBRANCH   1  13
TORSDOF 8
ENDMDL
MODEL 6
REMARK VINA RESULT:    -3.926      1.666      2.437
REMARK INTER + INTRA:          -5.833
REMARK INTER:                  -5.575
REMARK INTRA:                  -0.257
REMARK UNBOUND:                -0.530
REMARK SMILES O=C[C@H](O)[C@H](O)[C@@H](O)CO
REMARK SMILES IDX 7 1 9 2 10 3 5 5 3 6 2 7 1 8 4 9 6 11 8 13
REMARK H PARENT 10 4 4 10 6 12 8 14
REMARK Flexibility Score: inf
ROOT
ATOM      1  C   UNL     1      31.368   9.126  27.794  1.00  0.00     0.171 C 
ENDROOT
BRANCH   1   2
ATOM      2  C   UNL     1      32.612   8.225  27.975  1.00  0.00     0.190 C 
BRANCH   2   3
ATOM      3  O   UNL     1      33.138   7.819  26.742  1.00  0.00    -0.394 OA
ATOM      4  H   UNL     1      32.931   8.547  26.100  1.00  0.00     0.210 HD
ENDBRANCH   2   3
ENDBRANCH   1   2
BRANCH   1   5
ATOM      5  C   UNL     1      31.174  10.205  28.899  1.00  0.00     0.181 C 
BRANCH   5   6
ATOM      6  C   UNL     1      30.299   9.766  30.103  1.00  0.00     0.209 C 
BRANCH   6   7
ATOM      7  C   UNL     1      29.098  10.664  30.263  1.00  0.00     0.258 C 
ATOM      8  O   UNL     1      28.232  10.703  29.403  1.00  0.00    -0.300 OA
ENDBRANCH   6   7
BRANCH   6   9
ATOM      9  O   UNL     1      31.034   9.748  31.300  1.00  0.00    -0.383 OA
ATOM     10  H   UNL     1      30.470   9.311  31.992  1.00  0.00     0.211 HD
ENDBRANCH   6   9
ENDBRANCH   5   6
BRANCH   5  11
ATOM     11  O   UNL     1      30.614  11.359  28.322  1.00  0.00    -0.387 OA
ATOM     12  H   UNL     1      30.690  12.088  28.992  1.00  0.00     0.211 HD
ENDBRANCH   5  11
ENDBRANCH   1   5
BRANCH   1  13
ATOM     13  O   UNL     1      31.284   9.681  26.503  1.00  0.00    -0.388 OA
ATOM     14  H   UNL     1      31.098   8.958  25.852  1.00  0.00     0.211 HD
ENDBRANCH   1  13
TORSDOF 8
ENDMDL
MODEL 7
REMARK VINA RESULT:    -3.926      1.634      4.067
REMARK INTER + INTRA:          -5.833
REMARK INTER:                  -5.585
REMARK INTRA:                  -0.248
REMARK UNBOUND:                -0.530
REMARK SMILES O=C[C@H](O)[C@H](O)[C@@H](O)CO
REMARK SMILES IDX 7 1 9 2 10 3 5 5 3 6 2 7 1 8 4 9 6 11 8 13
REMARK H PARENT 10 4 4 10 6 12 8 14
REMARK Flexibility Score: inf
ROOT
ATOM      1  C   UNL     1      30.116  10.919  29.181  1.00  0.00     0.171 C 
ENDROOT
BRANCH   1   2
ATOM      2  C   UNL     1      28.817  11.060  30.008  1.00  0.00     0.190 C 
BRANCH   2   3
ATOM      3  O   UNL     1      27.677  10.978  29.196  1.00  0.00    -0.394 OA
ATOM      4  H   UNL     1      27.908  10.355  28.459  1.00  0.00     0.210 HD
ENDBRANCH   2   3
ENDBRANCH   1   2
BRANCH   1   5
ATOM      5  C   UNL     1      30.015   9.953  27.965  1.00  0.00     0.181 C 
BRANCH   5   6
ATOM      6  C   UNL     1      31.250   9.038  27.746  1.00  0.00     0.209 C 
BRANCH   6   7
ATOM      7  C   UNL     1      32.229   9.156  28.887  1.00  0.00     0.258 C 
ATOM      8  O   UNL     1      33.290   8.553  28.860  1.00  0.00    -0.300 OA
ENDBRANCH   6   7
BRANCH   6   9
ATOM      9  O   UNL     1      31.904   9.330  26.536  1.00  0.00    -0.383 OA
ATOM     10  H   UNL     1      32.848   9.550  26.752  1.00  0.00     0.211 HD
ENDBRANCH   6   9
ENDBRANCH   5   6
BRANCH   5  11
ATOM     11  O   UNL     1      29.790  10.705  26.797  1.00  0.00    -0.387 OA
ATOM     12  H   UNL     1      30.078  10.147  26.029  1.00  0.00     0.211 HD
ENDBRANCH   5  11
ENDBRANCH   1   5
BRANCH   1  13
ATOM     13  O   UNL     1      30.663  12.163  28.815  1.00  0.00    -0.388 OA
ATOM     14  H   UNL     1      29.986  12.870  28.965  1.00  0.00     0.211 HD
ENDBRANCH   1  13
TORSDOF 8
ENDMDL
MODEL 8
REMARK VINA RESULT:    -3.858      9.978     11.357
REMARK INTER + INTRA:          -5.742
REMARK INTER:                  -4.920
REMARK INTRA:                  -0.821
REMARK UNBOUND:                -0.530
REMARK SMILES O=C[C@H](O)[C@H](O)[C@@H](O)CO
REMARK SMILES IDX 7 1 9 2 10 3 5 5 3 6 2 7 1 8 4 9 6 11 8 13
REMARK H PARENT 10 4 4 10 6 12 8 14
REMARK Flexibility Score: inf
ROOT
ATOM      1  C   UNL     1      21.661   3.806  24.052  1.00  0.00     0.171 C 
ENDROOT
BRANCH   1   2
ATOM      2  C   UNL     1      21.995   2.380  23.554  1.00  0.00     0.190 C 
BRANCH   2   3
ATOM      3  O   UNL     1      23.215   1.926  24.072  1.00  0.00    -0.394 OA
ATOM      4  H   UNL     1      23.222   0.943  23.940  1.00  0.00     0.210 HD
ENDBRANCH   2   3
ENDBRANCH   1   2
BRANCH   1   5
ATOM      5  C   UNL     1      21.597   3.959  25.600  1.00  0.00     0.181 C 
BRANCH   5   6
ATOM      6  C   UNL     1      22.867   4.563  26.256  1.00  0.00     0.209 C 
BRANCH   6   7
ATOM      7  C   UNL     1      23.477   3.608  27.252  1.00  0.00     0.258 C 
ATOM      8  O   UNL     1      23.989   2.564  26.879  1.00  0.00    -0.300 OA
ENDBRANCH   6   7
BRANCH   6   9
ATOM      9  O   UNL     1      22.593   5.788  26.888  1.00  0.00    -0.383 OA
ATOM     10  H   UNL     1      22.728   5.658  27.864  1.00  0.00     0.211 HD
ENDBRANCH   6   9
ENDBRANCH   5   6
BRANCH   5  11
ATOM     11  O   UNL     1      21.338   2.702  26.177  1.00  0.00    -0.387 OA
ATOM     12  H   UNL     1      21.985   2.061  25.784  1.00  0.00     0.211 HD
ENDBRANCH   5  11
ENDBRANCH   1   5
BRANCH   1  13
ATOM     13  O   UNL     1      22.477   4.790  23.464  1.00  0.00    -0.388 OA
ATOM     14  H   UNL     1      21.958   5.266  22.769  1.00  0.00     0.211 HD
ENDBRANCH   1  13
TORSDOF 8
ENDMDL
MODEL 9
REMARK VINA RESULT:    -3.608      9.328     11.353
REMARK INTER + INTRA:          -5.403
REMARK INTER:                  -4.589
REMARK INTRA:                  -0.814
REMARK UNBOUND:                -0.530
REMARK SMILES O=C[C@H](O)[C@H](O)[C@@H](O)CO
REMARK SMILES IDX 7 1 9 2 10 3 5 5 3 6 2 7 1 8 4 9 6 11 8 13
REMARK H PARENT 10 4 4 10 6 12 8 14
REMARK Flexibility Score: inf
ROOT
ATOM      1  C   UNL     1      28.046  17.085  19.880  1.00  0.00     0.171 C 
ENDROOT
BRANCH   1   2
ATOM      2  C   UNL     1      27.575  18.549  20.044  1.00  0.00     0.190 C 
BRANCH   2   3
ATOM      3  O   UNL     1      27.250  18.840  21.375  1.00  0.00    -0.394 OA
ATOM      4  H   UNL     1      28.054  18.615  21.911  1.00  0.00     0.210 HD
ENDBRANCH   2   3
ENDBRANCH   1   2
BRANCH   1   5
ATOM      5  C   UNL     1      29.469  16.790  20.439  1.00  0.00     0.181 C 
BRANCH   5   6
ATOM      6  C   UNL     1      29.500  16.062  21.809  1.00  0.00     0.209 C 
BRANCH   6   7
ATOM      7  C   UNL     1      30.059  16.955  22.890  1.00  0.00     0.258 C 
ATOM      8  O   UNL     1      29.500  18.001  23.181  1.00  0.00    -0.300 OA
ENDBRANCH   6   7
BRANCH   6   9
ATOM      9  O   UNL     1      30.249  14.875  21.749  1.00  0.00    -0.383 OA
ATOM     10  H   UNL     1      29.648  14.127  22.008  1.00  0.00     0.211 HD
ENDBRANCH   6   9
ENDBRANCH   5   6
BRANCH   5  11
ATOM     11  O   UNL     1      30.181  17.998  20.545  1.00  0.00    -0.387 OA
ATOM     12  H   UNL     1      30.799  17.907  21.316  1.00  0.00     0.211 HD
ENDBRANCH   5  11
ENDBRANCH   1   5
BRANCH   1  13
ATOM     13  O   UNL     1      27.099  16.155  20.349  1.00  0.00    -0.388 OA
ATOM     14  H   UNL     1      26.443  15.973  19.630  1.00  0.00     0.211 HD
ENDBRANCH   1  13
TORSDOF 8
ENDMDL
