MODEL 1
REMARK VINA RESULT:    -3.449      0.000      0.000
REMARK INTER + INTRA:          -4.916
REMARK INTER:                  -4.458
REMARK INTRA:                  -0.459
REMARK UNBOUND:                -0.459
REMARK SMILES CCO[C@@H]1O[C@H](CO)[C@@H](O)[C@@H](O)[C@H]1O
REMARK SMILES IDX 4 1 13 2 11 3 9 4 6 5 5 6 3 7 2 8 1 9 14 10 12 12 7 14 8 15
REMARK SMILES IDX 10 17
REMARK H PARENT 14 11 12 13 8 16 10 18
REMARK Flexibility Score: inf
ROOT
ATOM      1  C   UNL     1       7.048  14.825  23.246  1.00  0.00     0.281 C 
ATOM      2  C   UNL     1       7.978  14.470  24.430  1.00  0.00     0.202 C 
ATOM      3  C   UNL     1       7.175  14.301  25.730  1.00  0.00     0.179 C 
ATOM      4  C   UNL     1       5.977  13.354  25.528  1.00  0.00     0.177 C 
ATOM      5  C   UNL     1       5.186  13.686  24.235  1.00  0.00     0.178 C 
ATOM      6  O   UNL     1       6.003  13.876  23.084  1.00  0.00    -0.341 OA
ENDROOT
BRANCH   1   7
ATOM      7  O   UNL     1       6.506  16.127  23.402  1.00  0.00    -0.350 OA
BRANCH   7   8
ATOM      8  C   UNL     1       6.635  16.882  22.216  1.00  0.00     0.160 C 
ATOM      9  C   UNL     1       5.536  17.933  22.174  1.00  0.00     0.035 C 
ENDBRANCH   7   8
ENDBRANCH   1   7
BRANCH   2  10
ATOM     10  O   UNL     1       8.760  13.330  24.155  1.00  0.00    -0.385 OA
ATOM     11  H   UNL     1       8.913  12.842  25.004  1.00  0.00     0.211 HD
ENDBRANCH   2  10
BRANCH   3  12
ATOM     12  O   UNL     1       8.001  13.815  26.758  1.00  0.00    -0.387 OA
ATOM     13  H   UNL     1       8.568  13.103  26.360  1.00  0.00     0.211 HD
ENDBRANCH   3  12
BRANCH   5  14
ATOM     14  C   UNL     1       4.099  14.776  24.393  1.00  0.00     0.191 C 
BRANCH  14  15
ATOM     15  O   UNL     1       3.567  15.174  23.161  1.00  0.00    -0.394 OA
ATOM     16  H   UNL     1       3.748  14.431  22.528  1.00  0.00     0.210 HD
ENDBRANCH  14  15
ENDBRANCH   5  14
BRANCH   4  17
ATOM     17  O   UNL     1       6.416  12.019  25.463  1.00  0.00    -0.387 OA
ATOM     18  H   UNL     1       5.733  11.463  25.922  1.00  0.00     0.211 HD
ENDBRANCH   4  17
TORSDOF 7
ENDMDL
MODEL 2
REMARK VINA RESULT:    -3.325     22.370     23.772
REMARK INTER + INTRA:          -4.755
REMARK INTER:                  -4.305
REMARK INTRA:                  -0.451
REMARK UNBOUND:                -0.459
REMARK SMILES CCO[C@@H]1O[C@H](CO)[C@@H](O)[C@@H](O)[C@H]1O
REMARK SMILES IDX 4 1 13 2 11 3 9 4 6 5 5 6 3 7 2 8 1 9 14 10 12 12 7 14 8 15
REMARK SMILES IDX 10 17
REMARK H PARENT 14 11 12 13 8 16 10 18
REMARK Flexibility Score: inf
ROOT
ATOM      1  C   UNL     1      19.843  26.291  38.355  1.00  0.00     0.281 C 
ATOM      2  C   UNL     1      20.857  25.311  38.990  1.00  0.00     0.202 C 
ATOM      3  C   UNL     1      21.331  25.821  40.361  1.00  0.00     0.179 C 
ATOM      4  C   UNL     1      20.140  26.207  41.257  1.00  0.00     0.177 C 
ATOM      5  C   UNL     1      19.094  27.064  40.495  1.00  0.00     0.178 C 
ATOM      6  O   UNL     1      18.742  26.552  39.214  1.00  0.00    -0.341 OA
ENDROOT
BRANCH   1   7
ATOM      7  O   UNL     1      20.477  27.506  37.988  1.00  0.00    -0.350 OA
BRANCH   7   8
ATOM      8  C   UNL     1      20.452  27.696  36.588  1.00  0.00     0.160 C 
ATOM      9  C   UNL     1      19.063  28.156  36.175  1.00  0.00     0.035 C 
ENDBRANCH   7   8
ENDBRANCH   1   7
BRANCH   2  10
ATOM     10  O   UNL     1      20.334  24.005  39.079  1.00  0.00    -0.385 OA
ATOM     11  H   UNL     1      20.484  23.668  39.999  1.00  0.00     0.211 HD
ENDBRANCH   2  10
BRANCH   3  12
ATOM     12  O   UNL     1      22.117  24.848  41.002  1.00  0.00    -0.387 OA
ATOM     13  H   UNL     1      22.884  25.324  41.416  1.00  0.00     0.211 HD
ENDBRANCH   3  12
BRANCH   5  14
ATOM     14  C   UNL     1      19.378  28.585  40.483  1.00  0.00     0.191 C 
BRANCH  14  15
ATOM     15  O   UNL     1      18.581  29.265  39.554  1.00  0.00    -0.394 OA
ATOM     16  H   UNL     1      19.165  29.455  38.774  1.00  0.00     0.210 HD
ENDBRANCH  14  15
ENDBRANCH   5  14
BRANCH   4  17
ATOM     17  O   UNL     1      19.507  25.052  41.752  1.00  0.00    -0.387 OA
ATOM     18  H   UNL     1      18.972  24.669  41.009  1.00  0.00     0.211 HD
ENDBRANCH   4  17
TORSDOF 7
ENDMDL
MODEL 3
REMARK VINA RESULT:    -3.272     21.936     23.692
REMARK INTER + INTRA:          -4.687
REMARK INTER:                  -4.228
REMARK INTRA:                  -0.459
REMARK UNBOUND:                -0.459
REMARK SMILES CCO[C@@H]1O[C@H](CO)[C@@H](O)[C@@H](O)[C@H]1O
REMARK SMILES IDX 4 1 13 2 11 3 9 4 6 5 5 6 3 7 2 8 1 9 14 10 12 12 7 14 8 15
REMARK SMILES IDX 10 17
REMARK H PARENT 14 11 12 13 8 16 10 18
REMARK Flexibility Score: inf
ROOT
ATOM      1  C   UNL     1      20.177  26.696  38.402  1.00  0.00     0.281 C 
ATOM      2  C   UNL     1      19.085  27.077  37.376  1.00  0.00     0.202 C 
ATOM      3  C   UNL     1      17.761  27.416  38.080  1.00  0.00     0.179 C 
ATOM      4  C   UNL     1      17.977  28.431  39.218  1.00  0.00     0.177 C 
ATOM      5  C   UNL     1      19.189  28.052  40.112  1.00  0.00     0.178 C 
ATOM      6  O   UNL     1      20.363  27.705  39.385  1.00  0.00    -0.341 OA
ENDROOT
BRANCH   1   7
ATOM      7  O   UNL     1      19.876  25.456  39.024  1.00  0.00    -0.350 OA
BRANCH   7   8
ATOM      8  C   UNL     1      20.982  24.579  38.985  1.00  0.00     0.160 C 
ATOM      9  C   UNL     1      20.894  23.617  40.158  1.00  0.00     0.035 C 
ENDBRANCH   7   8
ENDBRANCH   1   7
BRANCH   2  10
ATOM     10  O   UNL     1      19.504  28.126  36.534  1.00  0.00    -0.385 OA
ATOM     11  H   UNL     1      19.332  28.987  36.995  1.00  0.00     0.211 HD
ENDBRANCH   2  10
BRANCH   3  12
ATOM     12  O   UNL     1      16.829  27.922  37.158  1.00  0.00    -0.387 OA
ATOM     13  H   UNL     1      17.007  27.471  36.292  1.00  0.00     0.211 HD
ENDBRANCH   3  12
BRANCH   5  14
ATOM     14  C   UNL     1      18.872  27.066  41.261  1.00  0.00     0.191 C 
BRANCH  14  15
ATOM     15  O   UNL     1      20.033  26.578  41.873  1.00  0.00    -0.394 OA
ATOM     16  H   UNL     1      19.737  25.871  42.504  1.00  0.00     0.210 HD
ENDBRANCH  14  15
ENDBRANCH   5  14
BRANCH   4  17
ATOM     17  O   UNL     1      18.186  29.718  38.691  1.00  0.00    -0.387 OA
ATOM     18  H   UNL     1      19.120  29.975  38.905  1.00  0.00     0.211 HD
ENDBRANCH   4  17
TORSDOF 7
ENDMDL
MODEL 4
REMARK VINA RESULT:    -3.241     22.208     23.809
REMARK INTER + INTRA:          -4.647
REMARK INTER:                  -4.401
REMARK INTRA:                  -0.247
REMARK UNBOUND:                -0.459
REMARK SMILES CCO[C@@H]1O[C@H](CO)[C@@H](O)[C@@H](O)[C@H]1O
REMARK SMILES IDX 4 1 13 2 11 3 9 4 6 5 5 6 3 7 2 8 1 9 14 10 12 12 7 14 8 15
REMARK SMILES IDX 10 17
REMARK H PARENT 14 11 12 13 8 16 10 18
REMARK Flexibility Score: inf
ROOT
ATOM      1  C   UNL     1      19.660  27.412  39.077  1.00  0.00     0.281 C 
ATOM      2  C   UNL     1      19.200  26.722  40.382  1.00  0.00     0.202 C 
ATOM      3  C   UNL     1      19.782  25.303  40.490  1.00  0.00     0.179 C 
ATOM      4  C   UNL     1      21.303  25.302  40.245  1.00  0.00     0.177 C 
ATOM      5  C   UNL     1      21.691  26.145  39.001  1.00  0.00     0.178 C 
ATOM      6  O   UNL     1      21.074  27.428  38.949  1.00  0.00    -0.341 OA
ENDROOT
BRANCH   1   7
ATOM      7  O   UNL     1      19.073  26.792  37.943  1.00  0.00    -0.350 OA
BRANCH   7   8
ATOM      8  C   UNL     1      18.627  27.750  37.006  1.00  0.00     0.160 C 
ATOM      9  C   UNL     1      17.250  28.245  37.419  1.00  0.00     0.035 C 
ENDBRANCH   7   8
ENDBRANCH   1   7
BRANCH   2  10
ATOM     10  O   UNL     1      19.513  27.495  41.518  1.00  0.00    -0.385 OA
ATOM     11  H   UNL     1      18.857  28.236  41.584  1.00  0.00     0.211 HD
ENDBRANCH   2  10
BRANCH   3  12
ATOM     12  O   UNL     1      19.500  24.750  41.750  1.00  0.00    -0.387 OA
ATOM     13  H   UNL     1      19.904  23.843  41.764  1.00  0.00     0.211 HD
ENDBRANCH   3  12
BRANCH   5  14
ATOM     14  C   UNL     1      21.631  25.388  37.653  1.00  0.00     0.191 C 
BRANCH  14  15
ATOM     15  O   UNL     1      21.711  24.000  37.822  1.00  0.00    -0.394 OA
ATOM     16  H   UNL     1      22.414  23.845  38.506  1.00  0.00     0.210 HD
ENDBRANCH  14  15
ENDBRANCH   5  14
BRANCH   4  17
ATOM     17  O   UNL     1      21.978  25.813  41.369  1.00  0.00    -0.387 OA
ATOM     18  H   UNL     1      21.810  25.188  42.121  1.00  0.00     0.211 HD
ENDBRANCH   4  17
TORSDOF 7
ENDMDL
MODEL 5
REMARK VINA RESULT:    -3.203      1.650      4.015
REMARK INTER + INTRA:          -4.598
REMARK INTER:                  -4.135
REMARK INTRA:                  -0.463
REMARK UNBOUND:                -0.459
REMARK SMILES CCO[C@@H]1O[C@H](CO)[C@@H](O)[C@@H](O)[C@H]1O
REMARK SMILES IDX 4 1 13 2 11 3 9 4 6 5 5 6 3 7 2 8 1 9 14 10 12 12 7 14 8 15
REMARK SMILES IDX 10 17
REMARK H PARENT 14 11 12 13 8 16 10 18
REMARK Flexibility Score: inf
ROOT
ATOM      1  C   UNL     1       7.766  15.031  23.470  1.00  0.00     0.281 C 
ATOM      2  C   UNL     1       6.829  15.888  22.587  1.00  0.00     0.202 C 
ATOM      3  C   UNL     1       5.408  15.305  22.562  1.00  0.00     0.179 C 
ATOM      4  C   UNL     1       4.893  15.025  23.987  1.00  0.00     0.177 C 
ATOM      5  C   UNL     1       5.954  14.295  24.854  1.00  0.00     0.178 C 
ATOM      6  O   UNL     1       7.257  14.867  24.786  1.00  0.00    -0.341 OA
ENDROOT
BRANCH   1   7
ATOM      7  O   UNL     1       8.002  13.764  22.875  1.00  0.00    -0.350 OA
BRANCH   7   8
ATOM      8  C   UNL     1       9.359  13.612  22.514  1.00  0.00     0.160 C 
ATOM      9  C   UNL     1      10.122  13.018  23.687  1.00  0.00     0.035 C 
ENDBRANCH   7   8
ENDBRANCH   1   7
BRANCH   2  10
ATOM     10  O   UNL     1       6.826  17.238  22.989  1.00  0.00    -0.385 OA
ATOM     11  H   UNL     1       6.438  17.784  22.257  1.00  0.00     0.211 HD
ENDBRANCH   2  10
BRANCH   3  12
ATOM     12  O   UNL     1       4.529  16.178  21.899  1.00  0.00    -0.387 OA
ATOM     13  H   UNL     1       3.660  15.704  21.816  1.00  0.00     0.211 HD
ENDBRANCH   3  12
BRANCH   5  14
ATOM     14  C   UNL     1       5.960  12.753  24.721  1.00  0.00     0.191 C 
BRANCH  14  15
ATOM     15  O   UNL     1       7.082  12.175  25.328  1.00  0.00    -0.394 OA
ATOM     16  H   UNL     1       7.509  11.606  24.636  1.00  0.00     0.210 HD
ENDBRANCH  14  15
ENDBRANCH   5  14
BRANCH   4  17
ATOM     17  O   UNL     1       4.537  16.228  24.622  1.00  0.00    -0.387 OA
ATOM     18  H   UNL     1       4.734  16.119  25.589  1.00  0.00     0.211 HD
ENDBRANCH   4  17
TORSDOF 7
ENDMDL
MODEL 6
REMARK VINA RESULT:    -3.201      2.378      4.569
REMARK INTER + INTRA:          -4.595
REMARK INTER:                  -4.191
REMARK INTRA:                  -0.404
REMARK UNBOUND:                -0.459
REMARK SMILES CCO[C@@H]1O[C@H](CO)[C@@H](O)[C@@H](O)[C@H]1O
REMARK SMILES IDX 4 1 13 2 11 3 9 4 6 5 5 6 3 7 2 8 1 9 14 10 12 12 7 14 8 15
REMARK SMILES IDX 10 17
REMARK H PARENT 14 11 12 13 8 16 10 18
REMARK Flexibility Score: inf
ROOT
ATOM      1  C   UNL     1       8.612  13.178  24.086  1.00  0.00     0.281 C 
ATOM      2  C   UNL     1       7.298  12.977  23.296  1.00  0.00     0.202 C 
ATOM      3  C   UNL     1       6.106  12.786  24.247  1.00  0.00     0.179 C 
ATOM      4  C   UNL     1       6.065  13.890  25.320  1.00  0.00     0.177 C 
ATOM      5  C   UNL     1       7.459  14.133  25.957  1.00  0.00     0.178 C 
ATOM      6  O   UNL     1       8.519  14.251  25.013  1.00  0.00    -0.341 OA
ENDROOT
BRANCH   1   7
ATOM      7  O   UNL     1       8.987  11.984  24.756  1.00  0.00    -0.350 OA
BRANCH   7   8
ATOM      8  C   UNL     1       9.661  11.098  23.887  1.00  0.00     0.160 C 
ATOM      9  C   UNL     1      11.041  11.658  23.579  1.00  0.00     0.035 C 
ENDBRANCH   7   8
ENDBRANCH   1   7
BRANCH   2  10
ATOM     10  O   UNL     1       7.070  14.030  22.388  1.00  0.00    -0.385 OA
ATOM     11  H   UNL     1       6.132  14.335  22.490  1.00  0.00     0.211 HD
ENDBRANCH   2  10
BRANCH   3  12
ATOM     12  O   UNL     1       4.899  12.774  23.527  1.00  0.00    -0.387 OA
ATOM     13  H   UNL     1       4.531  11.854  23.597  1.00  0.00     0.211 HD
ENDBRANCH   3  12
BRANCH   5  14
ATOM     14  C   UNL     1       7.807  13.206  27.146  1.00  0.00     0.191 C 
BRANCH  14  15
ATOM     15  O   UNL     1       9.126  13.378  27.583  1.00  0.00    -0.394 OA
ATOM     16  H   UNL     1       9.505  14.114  27.034  1.00  0.00     0.210 HD
ENDBRANCH  14  15
ENDBRANCH   5  14
BRANCH   4  17
ATOM     17  O   UNL     1       5.604  15.097  24.762  1.00  0.00    -0.387 OA
ATOM     18  H   UNL     1       5.451  15.728  25.513  1.00  0.00     0.211 HD
ENDBRANCH   4  17
TORSDOF 7
ENDMDL
MODEL 7
REMARK VINA RESULT:    -3.189     14.024     15.733
REMARK INTER + INTRA:          -4.580
REMARK INTER:                  -4.305
REMARK INTRA:                  -0.275
REMARK UNBOUND:                -0.459
REMARK SMILES CCO[C@@H]1O[C@H](CO)[C@@H](O)[C@@H](O)[C@H]1O
REMARK SMILES IDX 4 1 13 2 11 3 9 4 6 5 5 6 3 7 2 8 1 9 14 10 12 12 7 14 8 15
REMARK SMILES IDX 10 17
REMARK H PARENT 14 11 12 13 8 16 10 18
REMARK Flexibility Score: inf
ROOT
ATOM      1  C   UNL     1      21.551  19.749  24.595  1.00  0.00     0.281 C 
ATOM      2  C   UNL     1      20.091  19.311  24.856  1.00  0.00     0.202 C 
ATOM      3  C   UNL     1      19.100  20.243  24.141  1.00  0.00     0.179 C 
ATOM      4  C   UNL     1      19.476  20.428  22.659  1.00  0.00     0.177 C 
ATOM      5  C   UNL     1      20.990  20.713  22.475  1.00  0.00     0.178 C 
ATOM      6  O   UNL     1      21.842  19.838  23.208  1.00  0.00    -0.341 OA
ENDROOT
BRANCH   1   7
ATOM      7  O   UNL     1      21.831  20.984  25.234  1.00  0.00    -0.350 OA
BRANCH   7   8
ATOM      8  C   UNL     1      21.776  20.860  26.640  1.00  0.00     0.160 C 
ATOM      9  C   UNL     1      21.824  22.246  27.264  1.00  0.00     0.035 C 
ENDBRANCH   7   8
ENDBRANCH   1   7
BRANCH   2  10
ATOM     10  O   UNL     1      19.879  17.964  24.502  1.00  0.00    -0.385 OA
ATOM     11  H   UNL     1      20.751  17.492  24.527  1.00  0.00     0.211 HD
ENDBRANCH   2  10
BRANCH   3  12
ATOM     12  O   UNL     1      17.791  19.742  24.244  1.00  0.00    -0.387 OA
ATOM     13  H   UNL     1      17.183  20.526  24.269  1.00  0.00     0.211 HD
ENDBRANCH   3  12
BRANCH   5  14
ATOM     14  C   UNL     1      21.396  22.201  22.602  1.00  0.00     0.191 C 
BRANCH  14  15
ATOM     15  O   UNL     1      20.474  22.937  23.357  1.00  0.00    -0.394 OA
ATOM     16  H   UNL     1      20.572  22.625  24.295  1.00  0.00     0.210 HD
ENDBRANCH  14  15
ENDBRANCH   5  14
BRANCH   4  17
ATOM     17  O   UNL     1      19.138  19.277  21.923  1.00  0.00    -0.387 OA
ATOM     18  H   UNL     1      18.338  18.877  22.354  1.00  0.00     0.211 HD
ENDBRANCH   4  17
TORSDOF 7
ENDMDL
MODEL 8
REMARK VINA RESULT:    -3.176      2.659      4.922
REMARK INTER + INTRA:          -4.563
REMARK INTER:                  -4.151
REMARK INTRA:                  -0.412
REMARK UNBOUND:                -0.459
REMARK SMILES CCO[C@@H]1O[C@H](CO)[C@@H](O)[C@@H](O)[C@H]1O
REMARK SMILES IDX 4 1 13 2 11 3 9 4 6 5 5 6 3 7 2 8 1 9 14 10 12 12 7 14 8 15
REMARK SMILES IDX 10 17
REMARK H PARENT 14 11 12 13 8 16 10 18
REMARK Flexibility Score: inf
ROOT
ATOM      1  C   UNL     1       6.379  11.325  25.600  1.00  0.00     0.281 C 
ATOM      2  C   UNL     1       6.232  12.629  24.781  1.00  0.00     0.202 C 
ATOM      3  C   UNL     1       6.462  13.865  25.665  1.00  0.00     0.179 C 
ATOM      4  C   UNL     1       7.768  13.740  26.472  1.00  0.00     0.177 C 
ATOM      5  C   UNL     1       7.907  12.345  27.138  1.00  0.00     0.178 C 
ATOM      6  O   UNL     1       7.631  11.252  26.267  1.00  0.00    -0.341 OA
ENDROOT
BRANCH   1   7
ATOM      7  O   UNL     1       5.319  11.193  26.534  1.00  0.00    -0.350 OA
BRANCH   7   8
ATOM      8  C   UNL     1       4.066  11.135  25.884  1.00  0.00     0.160 C 
ATOM      9  C   UNL     1       3.024  11.823  26.752  1.00  0.00     0.035 C 
ENDBRANCH   7   8
ENDBRANCH   1   7
BRANCH   2  10
ATOM     10  O   UNL     1       7.079  12.635  23.655  1.00  0.00    -0.385 OA
ATOM     11  H   UNL     1       7.601  11.791  23.650  1.00  0.00     0.211 HD
ENDBRANCH   2  10
BRANCH   3  12
ATOM     12  O   UNL     1       6.494  15.031  24.881  1.00  0.00    -0.387 OA
ATOM     13  H   UNL     1       7.211  14.905  24.206  1.00  0.00     0.211 HD
ENDBRANCH   3  12
BRANCH   5  14
ATOM     14  C   UNL     1       7.223  12.208  28.519  1.00  0.00     0.191 C 
BRANCH  14  15
ATOM     15  O   UNL     1       7.155  10.875  28.945  1.00  0.00    -0.394 OA
ATOM     16  H   UNL     1       8.071  10.505  28.844  1.00  0.00     0.210 HD
ENDBRANCH  14  15
ENDBRANCH   5  14
BRANCH   4  17
ATOM     17  O   UNL     1       8.880  13.958  25.638  1.00  0.00    -0.387 OA
ATOM     18  H   UNL     1       8.886  13.232  24.961  1.00  0.00     0.211 HD
ENDBRANCH   4  17
TORSDOF 7
ENDMDL
MODEL 9
REMARK VINA RESULT:    -3.108      1.634      4.179
REMARK INTER + INTRA:          -4.475
REMARK INTER:                  -4.285
REMARK INTRA:                  -0.190
REMARK UNBOUND:                -0.459
REMARK SMILES CCO[C@@H]1O[C@H](CO)[C@@H](O)[C@@H](O)[C@H]1O
REMARK SMILES IDX 4 1 13 2 11 3 9 4 6 5 5 6 3 7 2 8 1 9 14 10 12 12 7 14 8 15
REMARK SMILES IDX 10 17
REMARK H PARENT 14 11 12 13 8 16 10 18
REMARK Flexibility Score: inf
ROOT
ATOM      1  C   UNL     1       6.369  13.886  23.773  1.00  0.00     0.281 C 
ATOM      2  C   UNL     1       5.026  14.319  24.406  1.00  0.00     0.202 C 
ATOM      3  C   UNL     1       4.712  15.789  24.081  1.00  0.00     0.179 C 
ATOM      4  C   UNL     1       4.850  16.070  22.574  1.00  0.00     0.177 C 
ATOM      5  C   UNL     1       6.155  15.469  21.987  1.00  0.00     0.178 C 
ATOM      6  O   UNL     1       6.400  14.120  22.372  1.00  0.00    -0.341 OA
ENDROOT
BRANCH   1   7
ATOM      7  O   UNL     1       7.459  14.542  24.403  1.00  0.00    -0.350 OA
BRANCH   7   8
ATOM      8  C   UNL     1       7.520  14.231  25.779  1.00  0.00     0.160 C 
ATOM      9  C   UNL     1       8.502  13.089  25.987  1.00  0.00     0.035 C 
ENDBRANCH   7   8
ENDBRANCH   1   7
BRANCH   2  10
ATOM     10  O   UNL     1       3.970  13.469  24.019  1.00  0.00    -0.385 OA
ATOM     11  H   UNL     1       4.036  13.311  23.043  1.00  0.00     0.211 HD
ENDBRANCH   2  10
BRANCH   3  12
ATOM     12  O   UNL     1       3.417  16.122  24.514  1.00  0.00    -0.387 OA
ATOM     13  H   UNL     1       3.451  17.064  24.825  1.00  0.00     0.211 HD
ENDBRANCH   3  12
BRANCH   5  14
ATOM     14  C   UNL     1       7.406  16.372  22.112  1.00  0.00     0.191 C 
BRANCH  14  15
ATOM     15  O   UNL     1       7.094  17.638  22.625  1.00  0.00    -0.394 OA
ATOM     16  H   UNL     1       7.116  18.262  21.853  1.00  0.00     0.210 HD
ENDBRANCH  14  15
ENDBRANCH   5  14
BRANCH   4  17
ATOM     17  O   UNL     1       3.751  15.538  21.875  1.00  0.00    -0.387 OA
ATOM     18  H   UNL     1       2.943  15.706  22.427  1.00  0.00     0.211 HD
ENDBRANCH   4  17
TORSDOF 7
ENDMDL
