MODEL 1
REMARK VINA RESULT:    -8.168      0.000      0.000
REMARK INTER + INTRA:          -9.684
REMARK INTER:                  -9.839
REMARK INTRA:                   0.155
REMARK UNBOUND:                 0.155
REMARK SMILES Oc1cc(O)c2c(c1)O[C@@H](c1ccc(O)c(O)c1)[C@H](O)C2
REMARK SMILES IDX 21 1 19 2 10 3 9 4 7 5 8 6 2 7 3 8 4 9 6 10 20 11 11 13
REMARK SMILES IDX 18 14 12 15 16 16 13 17 14 18 17 19 15 21 5 23 1 25
REMARK H PARENT 20 12 17 20 15 22 5 24 1 26
REMARK Flexibility Score: inf
ROOT
ATOM      1  C   UNL     1      26.600  22.122  51.227  1.00  0.00     0.079 C 
ATOM      2  C   UNL     1      26.919  22.473  49.761  1.00  0.00     0.164 C 
ATOM      3  C   UNL     1      27.360  23.943  49.661  1.00  0.00     0.232 C 
ATOM      4  O   UNL     1      28.479  24.172  50.515  1.00  0.00    -0.482 OA
ATOM      5  C   UNL     1      28.587  23.583  51.779  1.00  0.00     0.131 A 
ATOM      6  C   UNL     1      29.610  23.997  52.636  1.00  0.00     0.093 A 
ATOM      7  C   UNL     1      29.731  23.437  53.912  1.00  0.00     0.122 A 
ATOM      8  C   UNL     1      28.819  22.467  54.334  1.00  0.00     0.092 A 
ATOM      9  C   UNL     1      27.787  22.040  53.490  1.00  0.00     0.126 A 
ATOM     10  C   UNL     1      27.686  22.572  52.182  1.00  0.00     0.039 A 
ENDROOT
BRANCH   2  11
ATOM     11  O   UNL     1      25.781  22.264  48.965  1.00  0.00    -0.389 OA
ATOM     12  H   UNL     1      25.276  23.119  48.959  1.00  0.00     0.211 HD
ENDBRANCH   2  11
BRANCH   3  13
ATOM     13  C   UNL     1      27.723  24.307  48.240  1.00  0.00    -0.001 A 
ATOM     14  C   UNL     1      26.750  24.271  47.228  1.00  0.00     0.057 A 
ATOM     15  C   UNL     1      29.047  24.641  47.904  1.00  0.00     0.012 A 
ATOM     16  C   UNL     1      27.088  24.581  45.902  1.00  0.00     0.157 A 
ATOM     17  C   UNL     1      29.384  24.950  46.585  1.00  0.00     0.050 A 
ATOM     18  C   UNL     1      28.411  24.924  45.581  1.00  0.00     0.157 A 
BRANCH  16  19
ATOM     19  O   UNL     1      26.114  24.547  44.905  1.00  0.00    -0.504 OA
ATOM     20  H   UNL     1      26.194  23.928  44.106  1.00  0.00     0.293 HD
ENDBRANCH  16  19
BRANCH  18  21
ATOM     21  O   UNL     1      28.778  25.239  44.273  1.00  0.00    -0.504 OA
ATOM     22  H   UNL     1      28.361  24.780  43.472  1.00  0.00     0.293 HD
ENDBRANCH  18  21
ENDBRANCH   3  13
BRANCH   9  23
ATOM     23  O   UNL     1      26.879  21.101  53.984  1.00  0.00    -0.507 OA
ATOM     24  H   UNL     1      26.180  20.649  53.411  1.00  0.00     0.293 HD
ENDBRANCH   9  23
BRANCH   7  25
ATOM     25  O   UNL     1      30.750  23.843  54.772  1.00  0.00    -0.508 OA
ATOM     26  H   UNL     1      31.193  23.195  55.411  1.00  0.00     0.293 HD
ENDBRANCH   7  25
TORSDOF 6
ENDMDL
MODEL 2
REMARK VINA RESULT:    -7.442      1.531      6.848
REMARK INTER + INTRA:          -8.810
REMARK INTER:                  -8.602
REMARK INTRA:                  -0.208
REMARK UNBOUND:                 0.155
REMARK SMILES Oc1cc(O)c2c(c1)O[C@@H](c1ccc(O)c(O)c1)[C@H](O)C2
REMARK SMILES IDX 21 1 19 2 10 3 9 4 7 5 8 6 2 7 3 8 4 9 6 10 20 11 11 13
REMARK SMILES IDX 18 14 12 15 16 16 13 17 14 18 17 19 15 21 5 23 1 25
REMARK H PARENT 20 12 17 20 15 22 5 24 1 26
REMARK Flexibility Score: inf
ROOT
ATOM      1  C   UNL     1      26.862  23.222  48.322  1.00  0.00     0.079 C 
ATOM      2  C   UNL     1      27.370  23.235  49.776  1.00  0.00     0.164 C 
ATOM      3  C   UNL     1      28.825  22.740  49.825  1.00  0.00     0.232 C 
ATOM      4  O   UNL     1      29.639  23.544  48.972  1.00  0.00    -0.482 OA
ATOM      5  C   UNL     1      29.189  24.010  47.732  1.00  0.00     0.131 A 
ATOM      6  C   UNL     1      30.098  24.628  46.869  1.00  0.00     0.093 A 
ATOM      7  C   UNL     1      29.679  25.089  45.617  1.00  0.00     0.122 A 
ATOM      8  C   UNL     1      28.350  24.920  45.224  1.00  0.00     0.092 A 
ATOM      9  C   UNL     1      27.426  24.301  46.074  1.00  0.00     0.126 A 
ATOM     10  C   UNL     1      27.833  23.873  47.360  1.00  0.00     0.039 A 
ENDROOT
BRANCH   2  11
ATOM     11  O   UNL     1      26.560  22.406  50.569  1.00  0.00    -0.389 OA
ATOM     12  H   UNL     1      25.647  22.796  50.549  1.00  0.00     0.211 HD
ENDBRANCH   2  11
BRANCH   3  13
ATOM     13  C   UNL     1      29.369  22.784  51.234  1.00  0.00    -0.001 A 
ATOM     14  C   UNL     1      28.985  23.813  52.110  1.00  0.00     0.057 A 
ATOM     15  C   UNL     1      30.301  21.826  51.670  1.00  0.00     0.012 A 
ATOM     16  C   UNL     1      29.508  23.875  53.409  1.00  0.00     0.157 A 
ATOM     17  C   UNL     1      30.822  21.886  52.964  1.00  0.00     0.050 A 
ATOM     18  C   UNL     1      30.429  22.905  53.839  1.00  0.00     0.157 A 
BRANCH  16  19
ATOM     19  O   UNL     1      29.118  24.897  54.273  1.00  0.00    -0.504 OA
ATOM     20  H   UNL     1      29.378  25.862  54.106  1.00  0.00     0.293 HD
ENDBRANCH  16  19
BRANCH  18  21
ATOM     21  O   UNL     1      30.967  22.939  55.125  1.00  0.00    -0.504 OA
ATOM     22  H   UNL     1      30.442  23.288  55.918  1.00  0.00     0.293 HD
ENDBRANCH  18  21
ENDBRANCH   3  13
BRANCH   9  23
ATOM     23  O   UNL     1      26.122  24.120  45.608  1.00  0.00    -0.507 OA
ATOM     24  H   UNL     1      25.737  24.627  44.822  1.00  0.00     0.293 HD
ENDBRANCH   9  23
BRANCH   7  25
ATOM     25  O   UNL     1      30.578  25.708  44.751  1.00  0.00    -0.508 OA
ATOM     26  H   UNL     1      30.261  26.247  43.955  1.00  0.00     0.293 HD
ENDBRANCH   7  25
TORSDOF 6
ENDMDL
MODEL 3
REMARK VINA RESULT:    -7.266      2.011      2.384
REMARK INTER + INTRA:          -8.598
REMARK INTER:                  -8.321
REMARK INTRA:                  -0.277
REMARK UNBOUND:                 0.155
REMARK SMILES Oc1cc(O)c2c(c1)O[C@@H](c1ccc(O)c(O)c1)[C@H](O)C2
REMARK SMILES IDX 21 1 19 2 10 3 9 4 7 5 8 6 2 7 3 8 4 9 6 10 20 11 11 13
REMARK SMILES IDX 18 14 12 15 16 16 13 17 14 18 17 19 15 21 5 23 1 25
REMARK H PARENT 20 12 17 20 15 22 5 24 1 26
REMARK Flexibility Score: inf
ROOT
ATOM      1  C   UNL     1      30.792  21.815  50.658  1.00  0.00     0.079 C 
ATOM      2  C   UNL     1      30.424  22.432  49.296  1.00  0.00     0.164 C 
ATOM      3  C   UNL     1      28.964  22.914  49.318  1.00  0.00     0.232 C 
ATOM      4  O   UNL     1      28.776  23.840  50.386  1.00  0.00    -0.482 OA
ATOM      5  C   UNL     1      29.388  23.676  51.634  1.00  0.00     0.131 A 
ATOM      6  C   UNL     1      29.012  24.511  52.689  1.00  0.00     0.093 A 
ATOM      7  C   UNL     1      29.595  24.358  53.951  1.00  0.00     0.122 A 
ATOM      8  C   UNL     1      30.550  23.360  54.159  1.00  0.00     0.092 A 
ATOM      9  C   UNL     1      30.938  22.514  53.113  1.00  0.00     0.126 A 
ATOM     10  C   UNL     1      30.383  22.692  51.823  1.00  0.00     0.039 A 
ENDROOT
BRANCH   2  11
ATOM     11  O   UNL     1      30.593  21.477  48.281  1.00  0.00    -0.389 OA
ATOM     12  H   UNL     1      30.311  20.604  48.661  1.00  0.00     0.211 HD
ENDBRANCH   2  11
BRANCH   3  13
ATOM     13  C   UNL     1      28.585  23.566  48.008  1.00  0.00    -0.001 A 
ATOM     14  C   UNL     1      27.357  23.266  47.396  1.00  0.00     0.057 A 
ATOM     15  C   UNL     1      29.475  24.444  47.364  1.00  0.00     0.012 A 
ATOM     16  C   UNL     1      27.012  23.847  46.167  1.00  0.00     0.157 A 
ATOM     17  C   UNL     1      29.132  25.023  46.140  1.00  0.00     0.050 A 
ATOM     18  C   UNL     1      27.904  24.732  45.538  1.00  0.00     0.157 A 
BRANCH  16  19
ATOM     19  O   UNL     1      25.789  23.547  45.570  1.00  0.00    -0.504 OA
ATOM     20  H   UNL     1      25.561  23.869  44.635  1.00  0.00     0.293 HD
ENDBRANCH  16  19
BRANCH  18  21
ATOM     21  O   UNL     1      27.590  25.327  44.317  1.00  0.00    -0.504 OA
ATOM     22  H   UNL     1      27.512  26.331  44.212  1.00  0.00     0.293 HD
ENDBRANCH  18  21
ENDBRANCH   3  13
BRANCH   9  23
ATOM     23  O   UNL     1      31.863  21.505  53.393  1.00  0.00    -0.507 OA
ATOM     24  H   UNL     1      32.769  21.681  53.806  1.00  0.00     0.293 HD
ENDBRANCH   9  23
BRANCH   7  25
ATOM     25  O   UNL     1      29.228  25.189  55.008  1.00  0.00    -0.508 OA
ATOM     26  H   UNL     1      29.489  24.977  55.963  1.00  0.00     0.293 HD
ENDBRANCH   7  25
TORSDOF 6
ENDMDL
MODEL 4
REMARK VINA RESULT:    -6.442      1.331      7.344
REMARK INTER + INTRA:          -7.606
REMARK INTER:                  -7.404
REMARK INTRA:                  -0.201
REMARK UNBOUND:                 0.155
REMARK SMILES Oc1cc(O)c2c(c1)O[C@@H](c1ccc(O)c(O)c1)[C@H](O)C2
REMARK SMILES IDX 21 1 19 2 10 3 9 4 7 5 8 6 2 7 3 8 4 9 6 10 20 11 11 13
REMARK SMILES IDX 18 14 12 15 16 16 13 17 14 18 17 19 15 21 5 23 1 25
REMARK H PARENT 20 12 17 20 15 22 5 24 1 26
REMARK Flexibility Score: inf
ROOT
ATOM      1  C   UNL     1      30.347  24.408  47.802  1.00  0.00     0.079 C 
ATOM      2  C   UNL     1      29.925  23.614  49.052  1.00  0.00     0.164 C 
ATOM      3  C   UNL     1      28.651  24.231  49.656  1.00  0.00     0.232 C 
ATOM      4  O   UNL     1      27.617  24.261  48.674  1.00  0.00    -0.482 OA
ATOM      5  C   UNL     1      27.869  24.564  47.332  1.00  0.00     0.131 A 
ATOM      6  C   UNL     1      26.790  24.763  46.466  1.00  0.00     0.093 A 
ATOM      7  C   UNL     1      27.014  25.082  45.123  1.00  0.00     0.122 A 
ATOM      8  C   UNL     1      28.320  25.213  44.648  1.00  0.00     0.092 A 
ATOM      9  C   UNL     1      29.413  25.018  45.501  1.00  0.00     0.126 A 
ATOM     10  C   UNL     1      29.194  24.652  46.851  1.00  0.00     0.039 A 
ENDROOT
BRANCH   2  11
ATOM     11  O   UNL     1      30.959  23.639  50.002  1.00  0.00    -0.389 OA
ATOM     12  H   UNL     1      31.622  24.306  49.683  1.00  0.00     0.211 HD
ENDBRANCH   2  11
BRANCH   3  13
ATOM     13  C   UNL     1      28.184  23.446  50.860  1.00  0.00    -0.001 A 
ATOM     14  C   UNL     1      28.630  23.792  52.147  1.00  0.00     0.057 A 
ATOM     15  C   UNL     1      27.338  22.335  50.705  1.00  0.00     0.012 A 
ATOM     16  C   UNL     1      28.222  23.051  53.265  1.00  0.00     0.157 A 
ATOM     17  C   UNL     1      26.931  21.597  51.818  1.00  0.00     0.050 A 
ATOM     18  C   UNL     1      27.366  21.949  53.099  1.00  0.00     0.157 A 
BRANCH  16  19
ATOM     19  O   UNL     1      28.665  23.404  54.539  1.00  0.00    -0.504 OA
ATOM     20  H   UNL     1      28.055  23.352  55.347  1.00  0.00     0.293 HD
ENDBRANCH  16  19
BRANCH  18  21
ATOM     21  O   UNL     1      26.942  21.193  54.192  1.00  0.00    -0.504 OA
ATOM     22  H   UNL     1      26.122  20.601  54.150  1.00  0.00     0.293 HD
ENDBRANCH  18  21
ENDBRANCH   3  13
BRANCH   9  23
ATOM     23  O   UNL     1      30.695  25.208  44.980  1.00  0.00    -0.507 OA
ATOM     24  H   UNL     1      30.971  24.902  44.057  1.00  0.00     0.293 HD
ENDBRANCH   9  23
BRANCH   7  25
ATOM     25  O   UNL     1      25.943  25.280  44.253  1.00  0.00    -0.508 OA
ATOM     26  H   UNL     1      25.024  25.533  44.594  1.00  0.00     0.293 HD
ENDBRANCH   7  25
TORSDOF 6
ENDMDL
MODEL 5
REMARK VINA RESULT:    -6.231     12.311     13.259
REMARK INTER + INTRA:          -7.351
REMARK INTER:                  -6.987
REMARK INTRA:                  -0.364
REMARK UNBOUND:                 0.155
REMARK SMILES Oc1cc(O)c2c(c1)O[C@@H](c1ccc(O)c(O)c1)[C@H](O)C2
REMARK SMILES IDX 21 1 19 2 10 3 9 4 7 5 8 6 2 7 3 8 4 9 6 10 20 11 11 13
REMARK SMILES IDX 18 14 12 15 16 16 13 17 14 18 17 19 15 21 5 23 1 25
REMARK H PARENT 20 12 17 20 15 22 5 24 1 26
REMARK Flexibility Score: inf
ROOT
ATOM      1  C   UNL     1      17.083  26.781  53.385  1.00  0.00     0.079 C 
ATOM      2  C   UNL     1      16.178  26.824  52.139  1.00  0.00     0.164 C 
ATOM      3  C   UNL     1      15.385  28.142  52.116  1.00  0.00     0.232 C 
ATOM      4  O   UNL     1      16.286  29.249  52.155  1.00  0.00    -0.482 OA
ATOM      5  C   UNL     1      17.444  29.242  52.939  1.00  0.00     0.131 A 
ATOM      6  C   UNL     1      18.177  30.424  53.077  1.00  0.00     0.093 A 
ATOM      7  C   UNL     1      19.330  30.450  53.867  1.00  0.00     0.122 A 
ATOM      8  C   UNL     1      19.745  29.292  54.529  1.00  0.00     0.092 A 
ATOM      9  C   UNL     1      19.023  28.099  54.403  1.00  0.00     0.126 A 
ATOM     10  C   UNL     1      17.880  28.055  53.569  1.00  0.00     0.039 A 
ENDROOT
BRANCH   2  11
ATOM     11  O   UNL     1      15.289  25.738  52.161  1.00  0.00    -0.389 OA
ATOM     12  H   UNL     1      15.479  25.231  52.994  1.00  0.00     0.211 HD
ENDBRANCH   2  11
BRANCH   3  13
ATOM     13  C   UNL     1      14.520  28.236  50.881  1.00  0.00    -0.001 A 
ATOM     14  C   UNL     1      15.094  28.131  49.603  1.00  0.00     0.057 A 
ATOM     15  C   UNL     1      13.139  28.477  50.993  1.00  0.00     0.012 A 
ATOM     16  C   UNL     1      14.300  28.245  48.453  1.00  0.00     0.157 A 
ATOM     17  C   UNL     1      12.348  28.591  49.848  1.00  0.00     0.050 A 
ATOM     18  C   UNL     1      12.920  28.474  48.577  1.00  0.00     0.157 A 
BRANCH  16  19
ATOM     19  O   UNL     1      14.878  28.134  47.189  1.00  0.00    -0.504 OA
ATOM     20  H   UNL     1      14.575  27.429  46.527  1.00  0.00     0.293 HD
ENDBRANCH  16  19
BRANCH  18  21
ATOM     21  O   UNL     1      12.104  28.592  47.453  1.00  0.00    -0.504 OA
ATOM     22  H   UNL     1      12.421  28.329  46.528  1.00  0.00     0.293 HD
ENDBRANCH  18  21
ENDBRANCH   3  13
BRANCH   9  23
ATOM     23  O   UNL     1      19.461  26.986  55.125  1.00  0.00    -0.507 OA
ATOM     24  H   UNL     1      18.879  26.182  55.314  1.00  0.00     0.293 HD
ENDBRANCH   9  23
BRANCH   7  25
ATOM     25  O   UNL     1      20.067  31.624  54.009  1.00  0.00    -0.508 OA
ATOM     26  H   UNL     1      20.799  31.872  53.354  1.00  0.00     0.293 HD
ENDBRANCH   7  25
TORSDOF 6
ENDMDL
MODEL 6
REMARK VINA RESULT:    -6.007     10.099     11.861
REMARK INTER + INTRA:          -7.082
REMARK INTER:                  -7.509
REMARK INTRA:                   0.428
REMARK UNBOUND:                 0.155
REMARK SMILES Oc1cc(O)c2c(c1)O[C@@H](c1ccc(O)c(O)c1)[C@H](O)C2
REMARK SMILES IDX 21 1 19 2 10 3 9 4 7 5 8 6 2 7 3 8 4 9 6 10 20 11 11 13
REMARK SMILES IDX 18 14 12 15 16 16 13 17 14 18 17 19 15 21 5 23 1 25
REMARK H PARENT 20 12 17 20 15 22 5 24 1 26
REMARK Flexibility Score: inf
ROOT
ATOM      1  C   UNL     1      19.751  27.219  54.459  1.00  0.00     0.079 C 
ATOM      2  C   UNL     1      19.506  25.929  53.652  1.00  0.00     0.164 C 
ATOM      3  C   UNL     1      17.996  25.716  53.455  1.00  0.00     0.232 C 
ATOM      4  O   UNL     1      17.426  26.857  52.815  1.00  0.00    -0.482 OA
ATOM      5  C   UNL     1      17.828  28.162  53.117  1.00  0.00     0.131 A 
ATOM      6  C   UNL     1      17.100  29.235  52.596  1.00  0.00     0.093 A 
ATOM      7  C   UNL     1      17.470  30.550  52.895  1.00  0.00     0.122 A 
ATOM      8  C   UNL     1      18.565  30.791  53.727  1.00  0.00     0.092 A 
ATOM      9  C   UNL     1      19.305  29.729  54.260  1.00  0.00     0.126 A 
ATOM     10  C   UNL     1      18.963  28.397  53.925  1.00  0.00     0.039 A 
ENDROOT
BRANCH   2  11
ATOM     11  O   UNL     1      20.054  24.832  54.335  1.00  0.00    -0.389 OA
ATOM     12  H   UNL     1      20.305  25.155  55.240  1.00  0.00     0.211 HD
ENDBRANCH   2  11
BRANCH   3  13
ATOM     13  C   UNL     1      17.723  24.481  52.627  1.00  0.00    -0.001 A 
ATOM     14  C   UNL     1      18.669  23.444  52.571  1.00  0.00     0.057 A 
ATOM     15  C   UNL     1      16.545  24.376  51.868  1.00  0.00     0.012 A 
ATOM     16  C   UNL     1      18.434  22.308  51.782  1.00  0.00     0.157 A 
ATOM     17  C   UNL     1      16.310  23.245  51.083  1.00  0.00     0.050 A 
ATOM     18  C   UNL     1      17.247  22.208  51.037  1.00  0.00     0.157 A 
BRANCH  16  19
ATOM     19  O   UNL     1      19.375  21.281  51.736  1.00  0.00    -0.504 OA
ATOM     20  H   UNL     1      19.850  21.034  50.875  1.00  0.00     0.293 HD
ENDBRANCH  16  19
BRANCH  18  21
ATOM     21  O   UNL     1      16.984  21.091  50.245  1.00  0.00    -0.504 OA
ATOM     22  H   UNL     1      17.238  21.055  49.265  1.00  0.00     0.293 HD
ENDBRANCH  18  21
ENDBRANCH   3  13
BRANCH   9  23
ATOM     23  O   UNL     1      20.362  30.031  55.122  1.00  0.00    -0.507 OA
ATOM     24  H   UNL     1      21.333  30.005  54.842  1.00  0.00     0.293 HD
ENDBRANCH   9  23
BRANCH   7  25
ATOM     25  O   UNL     1      16.750  31.625  52.377  1.00  0.00    -0.508 OA
ATOM     26  H   UNL     1      15.743  31.590  52.281  1.00  0.00     0.293 HD
ENDBRANCH   7  25
TORSDOF 6
ENDMDL
MODEL 7
REMARK VINA RESULT:    -5.822     12.633     14.494
REMARK INTER + INTRA:          -6.858
REMARK INTER:                  -6.606
REMARK INTRA:                  -0.252
REMARK UNBOUND:                 0.155
REMARK SMILES Oc1cc(O)c2c(c1)O[C@@H](c1ccc(O)c(O)c1)[C@H](O)C2
REMARK SMILES IDX 21 1 19 2 10 3 9 4 7 5 8 6 2 7 3 8 4 9 6 10 20 11 11 13
REMARK SMILES IDX 18 14 12 15 16 16 13 17 14 18 17 19 15 21 5 23 1 25
REMARK H PARENT 20 12 17 20 15 22 5 24 1 26
REMARK Flexibility Score: inf
ROOT
ATOM      1  C   UNL     1      14.844  28.464  49.603  1.00  0.00     0.079 C 
ATOM      2  C   UNL     1      16.106  28.822  50.411  1.00  0.00     0.164 C 
ATOM      3  C   UNL     1      15.744  28.988  51.896  1.00  0.00     0.232 C 
ATOM      4  O   UNL     1      15.127  27.796  52.380  1.00  0.00    -0.482 OA
ATOM      5  C   UNL     1      14.227  27.054  51.607  1.00  0.00     0.131 A 
ATOM      6  C   UNL     1      13.517  26.010  52.207  1.00  0.00     0.093 A 
ATOM      7  C   UNL     1      12.599  25.263  51.462  1.00  0.00     0.122 A 
ATOM      8  C   UNL     1      12.383  25.569  50.117  1.00  0.00     0.092 A 
ATOM      9  C   UNL     1      13.084  26.612  49.500  1.00  0.00     0.126 A 
ATOM     10  C   UNL     1      14.046  27.343  50.236  1.00  0.00     0.039 A 
ENDROOT
BRANCH   2  11
ATOM     11  O   UNL     1      16.659  30.016  49.922  1.00  0.00    -0.389 OA
ATOM     12  H   UNL     1      15.976  30.425  49.328  1.00  0.00     0.211 HD
ENDBRANCH   2  11
BRANCH   3  13
ATOM     13  C   UNL     1      16.970  29.295  52.725  1.00  0.00    -0.001 A 
ATOM     14  C   UNL     1      17.757  28.252  53.240  1.00  0.00     0.057 A 
ATOM     15  C   UNL     1      17.311  30.625  53.030  1.00  0.00     0.012 A 
ATOM     16  C   UNL     1      18.880  28.531  54.033  1.00  0.00     0.157 A 
ATOM     17  C   UNL     1      18.429  30.903  53.819  1.00  0.00     0.050 A 
ATOM     18  C   UNL     1      19.218  29.863  54.321  1.00  0.00     0.157 A 
BRANCH  16  19
ATOM     19  O   UNL     1      19.658  27.489  54.536  1.00  0.00    -0.504 OA
ATOM     20  H   UNL     1      19.238  26.672  54.965  1.00  0.00     0.293 HD
ENDBRANCH  16  19
BRANCH  18  21
ATOM     21  O   UNL     1      20.328  30.173  55.105  1.00  0.00    -0.504 OA
ATOM     22  H   UNL     1      20.303  30.900  55.809  1.00  0.00     0.293 HD
ENDBRANCH  18  21
ENDBRANCH   3  13
BRANCH   9  23
ATOM     23  O   UNL     1      12.792  26.901  48.164  1.00  0.00    -0.507 OA
ATOM     24  H   UNL     1      13.488  27.197  47.495  1.00  0.00     0.293 HD
ENDBRANCH   9  23
BRANCH   7  25
ATOM     25  O   UNL     1      11.889  24.219  52.052  1.00  0.00    -0.508 OA
ATOM     26  H   UNL     1      12.168  23.826  52.942  1.00  0.00     0.293 HD
ENDBRANCH   7  25
TORSDOF 6
ENDMDL
MODEL 8
REMARK VINA RESULT:    -5.747     12.430     14.449
REMARK INTER + INTRA:          -6.768
REMARK INTER:                  -6.403
REMARK INTRA:                  -0.365
REMARK UNBOUND:                 0.155
REMARK SMILES Oc1cc(O)c2c(c1)O[C@@H](c1ccc(O)c(O)c1)[C@H](O)C2
REMARK SMILES IDX 21 1 19 2 10 3 9 4 7 5 8 6 2 7 3 8 4 9 6 10 20 11 11 13
REMARK SMILES IDX 18 14 12 15 16 16 13 17 14 18 17 19 15 21 5 23 1 25
REMARK H PARENT 20 12 17 20 15 22 5 24 1 26
REMARK Flexibility Score: inf
ROOT
ATOM      1  C   UNL     1      13.618  26.456  51.600  1.00  0.00     0.079 C 
ATOM      2  C   UNL     1      14.446  27.555  52.293  1.00  0.00     0.164 C 
ATOM      3  C   UNL     1      15.930  27.403  51.920  1.00  0.00     0.232 C 
ATOM      4  O   UNL     1      16.079  27.443  50.502  1.00  0.00    -0.482 OA
ATOM      5  C   UNL     1      15.163  26.836  49.637  1.00  0.00     0.131 A 
ATOM      6  C   UNL     1      15.469  26.750  48.276  1.00  0.00     0.093 A 
ATOM      7  C   UNL     1      14.579  26.133  47.391  1.00  0.00     0.122 A 
ATOM      8  C   UNL     1      13.384  25.592  47.872  1.00  0.00     0.092 A 
ATOM      9  C   UNL     1      13.062  25.668  49.232  1.00  0.00     0.126 A 
ATOM     10  C   UNL     1      13.938  26.329  50.125  1.00  0.00     0.039 A 
ENDROOT
BRANCH   2  11
ATOM     11  O   UNL     1      14.294  27.456  53.685  1.00  0.00    -0.389 OA
ATOM     12  H   UNL     1      15.206  27.510  54.076  1.00  0.00     0.211 HD
ENDBRANCH   2  11
BRANCH   3  13
ATOM     13  C   UNL     1      16.764  28.495  52.549  1.00  0.00    -0.001 A 
ATOM     14  C   UNL     1      17.799  28.170  53.442  1.00  0.00     0.057 A 
ATOM     15  C   UNL     1      16.486  29.848  52.287  1.00  0.00     0.012 A 
ATOM     16  C   UNL     1      18.559  29.180  54.050  1.00  0.00     0.157 A 
ATOM     17  C   UNL     1      17.242  30.854  52.892  1.00  0.00     0.050 A 
ATOM     18  C   UNL     1      18.279  30.528  53.771  1.00  0.00     0.157 A 
BRANCH  16  19
ATOM     19  O   UNL     1      19.587  28.848  54.931  1.00  0.00    -0.504 OA
ATOM     20  H   UNL     1      19.404  28.366  55.804  1.00  0.00     0.293 HD
ENDBRANCH  16  19
BRANCH  18  21
ATOM     21  O   UNL     1      19.017  31.555  54.359  1.00  0.00    -0.504 OA
ATOM     22  H   UNL     1      19.518  32.241  53.808  1.00  0.00     0.293 HD
ENDBRANCH  18  21
ENDBRANCH   3  13
BRANCH   9  23
ATOM     23  O   UNL     1      11.875  25.069  49.660  1.00  0.00    -0.507 OA
ATOM     24  H   UNL     1      11.474  25.221  50.576  1.00  0.00     0.293 HD
ENDBRANCH   9  23
BRANCH   7  25
ATOM     25  O   UNL     1      14.875  26.045  46.032  1.00  0.00    -0.508 OA
ATOM     26  H   UNL     1      15.511  25.344  45.673  1.00  0.00     0.293 HD
ENDBRANCH   7  25
TORSDOF 6
ENDMDL
MODEL 9
REMARK VINA RESULT:    -5.725     10.767     12.436
REMARK INTER + INTRA:          -6.741
REMARK INTER:                  -6.717
REMARK INTRA:                  -0.025
REMARK UNBOUND:                 0.155
REMARK SMILES Oc1cc(O)c2c(c1)O[C@@H](c1ccc(O)c(O)c1)[C@H](O)C2
REMARK SMILES IDX 21 1 19 2 10 3 9 4 7 5 8 6 2 7 3 8 4 9 6 10 20 11 11 13
REMARK SMILES IDX 18 14 12 15 16 16 13 17 14 18 17 19 15 21 5 23 1 25
REMARK H PARENT 20 12 17 20 15 22 5 24 1 26
REMARK Flexibility Score: inf
ROOT
ATOM      1  C   UNL     1      19.269  27.959  53.997  1.00  0.00     0.079 C 
ATOM      2  C   UNL     1      19.249  26.645  53.192  1.00  0.00     0.164 C 
ATOM      3  C   UNL     1      18.128  25.731  53.714  1.00  0.00     0.232 C 
ATOM      4  O   UNL     1      16.876  26.412  53.645  1.00  0.00    -0.482 OA
ATOM      5  C   UNL     1      16.749  27.773  53.944  1.00  0.00     0.131 A 
ATOM      6  C   UNL     1      15.471  28.330  54.041  1.00  0.00     0.093 A 
ATOM      7  C   UNL     1      15.314  29.684  54.354  1.00  0.00     0.122 A 
ATOM      8  C   UNL     1      16.439  30.479  54.582  1.00  0.00     0.092 A 
ATOM      9  C   UNL     1      17.727  29.938  54.491  1.00  0.00     0.126 A 
ATOM     10  C   UNL     1      17.894  28.579  54.131  1.00  0.00     0.039 A 
ENDROOT
BRANCH   2  11
ATOM     11  O   UNL     1      20.487  25.994  53.316  1.00  0.00    -0.389 OA
ATOM     12  H   UNL     1      20.714  25.995  54.283  1.00  0.00     0.211 HD
ENDBRANCH   2  11
BRANCH   3  13
ATOM     13  C   UNL     1      18.053  24.450  52.915  1.00  0.00    -0.001 A 
ATOM     14  C   UNL     1      17.005  24.246  52.001  1.00  0.00     0.057 A 
ATOM     15  C   UNL     1      19.000  23.430  53.110  1.00  0.00     0.012 A 
ATOM     16  C   UNL     1      16.914  23.048  51.277  1.00  0.00     0.157 A 
ATOM     17  C   UNL     1      18.910  22.237  52.389  1.00  0.00     0.050 A 
ATOM     18  C   UNL     1      17.873  22.040  51.471  1.00  0.00     0.157 A 
BRANCH  16  19
ATOM     19  O   UNL     1      15.874  22.856  50.369  1.00  0.00    -0.504 OA
ATOM     20  H   UNL     1      15.133  22.187  50.544  1.00  0.00     0.293 HD
ENDBRANCH  16  19
BRANCH  18  21
ATOM     21  O   UNL     1      17.811  20.839  50.766  1.00  0.00    -0.504 OA
ATOM     22  H   UNL     1      18.081  20.772  49.792  1.00  0.00     0.293 HD
ENDBRANCH  18  21
ENDBRANCH   3  13
BRANCH   9  23
ATOM     23  O   UNL     1      18.812  30.771  54.774  1.00  0.00    -0.507 OA
ATOM     24  H   UNL     1      18.802  31.769  54.616  1.00  0.00     0.293 HD
ENDBRANCH   9  23
BRANCH   7  25
ATOM     25  O   UNL     1      14.043  30.247  54.451  1.00  0.00    -0.508 OA
ATOM     26  H   UNL     1      13.685  30.871  53.737  1.00  0.00     0.293 HD
ENDBRANCH   7  25
TORSDOF 6
ENDMDL
