MODEL 1
REMARK VINA RESULT:    -3.427      0.000      0.000
REMARK INTER + INTRA:         -13.750
REMARK INTER:                  -9.038
REMARK INTRA:                  -4.713
REMARK UNBOUND:                -4.713
REMARK SMILES CCCCCCCCCCCCCCCCCCCCCCCCCCCCCC(=O)[O-]
REMARK SMILES IDX 16 1 17 2 18 3 19 4 20 5 21 6 22 7 23 8 24 9 25 10 26 11
REMARK SMILES IDX 27 12 28 13 29 14 30 15 31 16 32 17 15 18 14 19 13 20 12 21
REMARK SMILES IDX 11 22 10 23 9 24 8 25 7 26 6 27 5 28 4 29 3 30 2 31 1 32
REMARK H PARENT
REMARK Flexibility Score: inf
ROOT
ATOM      1  C   UNL     1     -18.994  29.215  21.367  1.00  0.00     0.000 C 
ENDROOT
BRANCH   1   2
ATOM      2  C   UNL     1     -19.085  30.105  22.614  1.00  0.00     0.000 C 
BRANCH   2   3
ATOM      3  C   UNL     1     -18.399  29.436  23.817  1.00  0.00     0.000 C 
BRANCH   3   4
ATOM      4  C   UNL     1     -17.596  28.185  23.420  1.00  0.00     0.000 C 
BRANCH   4   5
ATOM      5  C   UNL     1     -18.139  26.907  24.084  1.00  0.00     0.000 C 
BRANCH   5   6
ATOM      6  C   UNL     1     -18.342  25.790  23.052  1.00  0.00     0.000 C 
BRANCH   6   7
ATOM      7  C   UNL     1     -17.307  25.890  21.920  1.00  0.00     0.000 C 
BRANCH   7   8
ATOM      8  C   UNL     1     -17.355  24.686  20.966  1.00  0.00     0.000 C 
BRANCH   8   9
ATOM      9  C   UNL     1     -18.681  23.914  21.060  1.00  0.00     0.000 C 
BRANCH   9  10
ATOM     10  C   UNL     1     -18.859  22.887  19.927  1.00  0.00     0.000 C 
BRANCH  10  11
ATOM     11  C   UNL     1     -20.124  23.078  19.067  1.00  0.00     0.000 C 
BRANCH  11  12
ATOM     12  C   UNL     1     -19.895  23.987  17.850  1.00  0.00     0.000 C 
BRANCH  12  13
ATOM     13  C   UNL     1     -19.408  23.177  16.641  1.00  0.00     0.006 C 
BRANCH  13  14
ATOM     14  C   UNL     1     -19.427  24.029  15.368  1.00  0.00     0.053 C 
BRANCH  14  15
ATOM     15  C   UNL     1     -20.597  23.679  14.500  1.00  0.00     0.041 C 
ATOM     16  O   UNL     1     -21.654  23.227  15.010  1.00  0.00    -0.550 OA
ATOM     17  O   UNL     1     -20.535  23.896  13.129  1.00  0.00    -0.550 OA
ENDBRANCH  14  15
ENDBRANCH  13  14
ENDBRANCH  12  13
ENDBRANCH  11  12
ENDBRANCH  10  11
ENDBRANCH   9  10
ENDBRANCH   8   9
ENDBRANCH   7   8
ENDBRANCH   6   7
ENDBRANCH   5   6
ENDBRANCH   4   5
ENDBRANCH   3   4
ENDBRANCH   2   3
ENDBRANCH   1   2
BRANCH   1  18
ATOM     18  C   UNL     1     -19.862  29.768  20.224  1.00  0.00     0.000 C 
BRANCH  18  19
ATOM     19  C   UNL     1     -20.380  28.655  19.288  1.00  0.00     0.000 C 
BRANCH  19  20
ATOM     20  C   UNL     1     -21.912  28.529  19.257  1.00  0.00     0.000 C 
BRANCH  20  21
ATOM     21  C   UNL     1     -22.404  27.108  19.580  1.00  0.00     0.000 C 
BRANCH  21  22
ATOM     22  C   UNL     1     -21.414  26.325  20.470  1.00  0.00     0.000 C 
BRANCH  22  23
ATOM     23  C   UNL     1     -21.915  26.096  21.908  1.00  0.00     0.000 C 
BRANCH  23  24
ATOM     24  C   UNL     1     -21.676  27.267  22.877  1.00  0.00    -0.000 C 
BRANCH  24  25
ATOM     25  C   UNL     1     -22.875  28.218  23.061  1.00  0.00    -0.000 C 
BRANCH  25  26
ATOM     26  C   UNL     1     -22.579  29.650  22.581  1.00  0.00    -0.000 C 
BRANCH  26  27
ATOM     27  C   UNL     1     -23.233  30.716  23.475  1.00  0.00    -0.000 C 
BRANCH  27  28
ATOM     28  C   UNL     1     -22.366  31.980  23.600  1.00  0.00    -0.000 C 
BRANCH  28  29
ATOM     29  C   UNL     1     -21.983  32.574  22.237  1.00  0.00    -0.000 C 
BRANCH  29  30
ATOM     30  C   UNL     1     -20.983  33.735  22.353  1.00  0.00    -0.000 C 
BRANCH  30  31
ATOM     31  C   UNL     1     -21.623  35.058  21.916  1.00  0.00    -0.003 C 
ATOM     32  C   UNL     1     -21.719  35.151  20.396  1.00  0.00     0.004 C 
ENDBRANCH  30  31
ENDBRANCH  29  30
ENDBRANCH  28  29
ENDBRANCH  27  28
ENDBRANCH  26  27
ENDBRANCH  25  26
ENDBRANCH  24  25
ENDBRANCH  23  24
ENDBRANCH  22  23
ENDBRANCH  21  22
ENDBRANCH  20  21
ENDBRANCH  19  20
ENDBRANCH  18  19
ENDBRANCH   1  18
TORSDOF 28
ENDMDL
MODEL 2
REMARK VINA RESULT:    -3.402      3.862      7.047
REMARK INTER + INTRA:         -13.682
REMARK INTER:                  -9.485
REMARK INTRA:                  -4.197
REMARK UNBOUND:                -4.713
REMARK SMILES CCCCCCCCCCCCCCCCCCCCCCCCCCCCCC(=O)[O-]
REMARK SMILES IDX 16 1 17 2 18 3 19 4 20 5 21 6 22 7 23 8 24 9 25 10 26 11
REMARK SMILES IDX 27 12 28 13 29 14 30 15 31 16 32 17 15 18 14 19 13 20 12 21
REMARK SMILES IDX 11 22 10 23 9 24 8 25 7 26 6 27 5 28 4 29 3 30 2 31 1 32
REMARK H PARENT
REMARK Flexibility Score: inf
ROOT
ATOM      1  C   UNL     1     -19.260  32.879  23.371  1.00  0.00     0.000 C 
ENDROOT
BRANCH   1   2
ATOM      2  C   UNL     1     -19.645  31.562  24.059  1.00  0.00     0.000 C 
BRANCH   2   3
ATOM      3  C   UNL     1     -18.728  30.416  23.604  1.00  0.00     0.000 C 
BRANCH   3   4
ATOM      4  C   UNL     1     -19.479  29.339  22.802  1.00  0.00     0.000 C 
BRANCH   4   5
ATOM      5  C   UNL     1     -18.809  29.045  21.448  1.00  0.00     0.000 C 
BRANCH   5   6
ATOM      6  C   UNL     1     -19.614  29.648  20.289  1.00  0.00     0.000 C 
BRANCH   6   7
ATOM      7  C   UNL     1     -21.047  29.987  20.730  1.00  0.00     0.000 C 
BRANCH   7   8
ATOM      8  C   UNL     1     -22.106  29.158  19.987  1.00  0.00     0.000 C 
BRANCH   8   9
ATOM      9  C   UNL     1     -22.555  27.923  20.786  1.00  0.00     0.000 C 
BRANCH   9  10
ATOM     10  C   UNL     1     -22.026  26.603  20.197  1.00  0.00     0.000 C 
BRANCH  10  11
ATOM     11  C   UNL     1     -20.915  25.921  21.020  1.00  0.00     0.000 C 
BRANCH  11  12
ATOM     12  C   UNL     1     -19.624  25.695  20.218  1.00  0.00     0.000 C 
BRANCH  12  13
ATOM     13  C   UNL     1     -18.559  24.995  21.072  1.00  0.00     0.006 C 
BRANCH  13  14
ATOM     14  C   UNL     1     -18.599  25.499  22.518  1.00  0.00     0.053 C 
BRANCH  14  15
ATOM     15  C   UNL     1     -17.226  25.842  23.009  1.00  0.00     0.041 C 
ATOM     16  O   UNL     1     -16.237  25.140  22.675  1.00  0.00    -0.550 OA
ATOM     17  O   UNL     1     -17.032  26.968  23.802  1.00  0.00    -0.550 OA
ENDBRANCH  14  15
ENDBRANCH  13  14
ENDBRANCH  12  13
ENDBRANCH  11  12
ENDBRANCH  10  11
ENDBRANCH   9  10
ENDBRANCH   8   9
ENDBRANCH   7   8
ENDBRANCH   6   7
ENDBRANCH   5   6
ENDBRANCH   4   5
ENDBRANCH   3   4
ENDBRANCH   2   3
ENDBRANCH   1   2
BRANCH   1  18
ATOM     18  C   UNL     1     -20.505  33.717  23.035  1.00  0.00     0.000 C 
BRANCH  18  19
ATOM     19  C   UNL     1     -21.737  32.842  22.721  1.00  0.00     0.000 C 
BRANCH  19  20
ATOM     20  C   UNL     1     -22.571  33.343  21.531  1.00  0.00     0.000 C 
BRANCH  20  21
ATOM     21  C   UNL     1     -21.890  34.487  20.761  1.00  0.00     0.000 C 
BRANCH  21  22
ATOM     22  C   UNL     1     -22.641  35.829  20.903  1.00  0.00     0.000 C 
BRANCH  22  23
ATOM     23  C   UNL     1     -23.644  35.862  22.071  1.00  0.00     0.000 C 
BRANCH  23  24
ATOM     24  C   UNL     1     -23.222  36.725  23.272  1.00  0.00    -0.000 C 
BRANCH  24  25
ATOM     25  C   UNL     1     -22.026  37.662  23.016  1.00  0.00    -0.000 C 
BRANCH  25  26
ATOM     26  C   UNL     1     -22.298  39.111  23.457  1.00  0.00    -0.000 C 
BRANCH  26  27
ATOM     27  C   UNL     1     -22.668  40.024  22.277  1.00  0.00    -0.000 C 
BRANCH  27  28
ATOM     28  C   UNL     1     -22.358  39.373  20.919  1.00  0.00    -0.000 C 
BRANCH  28  29
ATOM     29  C   UNL     1     -21.584  40.306  19.977  1.00  0.00    -0.000 C 
BRANCH  29  30
ATOM     30  C   UNL     1     -21.137  41.606  20.663  1.00  0.00    -0.000 C 
BRANCH  30  31
ATOM     31  C   UNL     1     -19.610  41.663  20.790  1.00  0.00    -0.003 C 
ATOM     32  C   UNL     1     -19.157  41.280  22.197  1.00  0.00     0.004 C 
ENDBRANCH  30  31
ENDBRANCH  29  30
ENDBRANCH  28  29
ENDBRANCH  27  28
ENDBRANCH  26  27
ENDBRANCH  25  26
ENDBRANCH  24  25
ENDBRANCH  23  24
ENDBRANCH  22  23
ENDBRANCH  21  22
ENDBRANCH  20  21
ENDBRANCH  19  20
ENDBRANCH  18  19
ENDBRANCH   1  18
TORSDOF 28
ENDMDL
MODEL 3
REMARK VINA RESULT:    -3.351      1.510      3.422
REMARK INTER + INTRA:         -13.548
REMARK INTER:                  -9.525
REMARK INTRA:                  -4.023
REMARK UNBOUND:                -4.713
REMARK SMILES CCCCCCCCCCCCCCCCCCCCCCCCCCCCCC(=O)[O-]
REMARK SMILES IDX 16 1 17 2 18 3 19 4 20 5 21 6 22 7 23 8 24 9 25 10 26 11
REMARK SMILES IDX 27 12 28 13 29 14 30 15 31 16 32 17 15 18 14 19 13 20 12 21
REMARK SMILES IDX 11 22 10 23 9 24 8 25 7 26 6 27 5 28 4 29 3 30 2 31 1 32
REMARK H PARENT
REMARK Flexibility Score: inf
ROOT
ATOM      1  C   UNL     1     -21.914  28.861  19.244  1.00  0.00     0.000 C 
ENDROOT
BRANCH   1   2
ATOM      2  C   UNL     1     -20.419  28.516  19.243  1.00  0.00     0.000 C 
BRANCH   2   3
ATOM      3  C   UNL     1     -19.602  29.609  19.952  1.00  0.00     0.000 C 
BRANCH   3   4
ATOM      4  C   UNL     1     -20.288  30.126  21.228  1.00  0.00     0.000 C 
BRANCH   4   5
ATOM      5  C   UNL     1     -19.383  30.004  22.468  1.00  0.00     0.000 C 
BRANCH   5   6
ATOM      6  C   UNL     1     -18.565  28.706  22.432  1.00  0.00     0.000 C 
BRANCH   6   7
ATOM      7  C   UNL     1     -19.205  27.627  23.320  1.00  0.00     0.000 C 
BRANCH   7   8
ATOM      8  C   UNL     1     -18.886  26.202  22.842  1.00  0.00     0.000 C 
BRANCH   8   9
ATOM      9  C   UNL     1     -18.446  26.160  21.370  1.00  0.00     0.000 C 
BRANCH   9  10
ATOM     10  C   UNL     1     -17.638  24.897  21.021  1.00  0.00     0.000 C 
BRANCH  10  11
ATOM     11  C   UNL     1     -18.480  23.695  20.547  1.00  0.00     0.000 C 
BRANCH  11  12
ATOM     12  C   UNL     1     -18.079  23.192  19.152  1.00  0.00     0.000 C 
BRANCH  12  13
ATOM     13  C   UNL     1     -19.306  23.055  18.242  1.00  0.00     0.006 C 
BRANCH  13  14
ATOM     14  C   UNL     1     -18.999  23.561  16.828  1.00  0.00     0.053 C 
BRANCH  14  15
ATOM     15  C   UNL     1     -20.224  23.536  15.967  1.00  0.00     0.041 C 
ATOM     16  O   UNL     1     -21.352  23.302  16.472  1.00  0.00    -0.550 OA
ATOM     17  O   UNL     1     -20.126  23.818  14.610  1.00  0.00    -0.550 OA
ENDBRANCH  14  15
ENDBRANCH  13  14
ENDBRANCH  12  13
ENDBRANCH  11  12
ENDBRANCH  10  11
ENDBRANCH   9  10
ENDBRANCH   8   9
ENDBRANCH   7   8
ENDBRANCH   6   7
ENDBRANCH   5   6
ENDBRANCH   4   5
ENDBRANCH   3   4
ENDBRANCH   2   3
ENDBRANCH   1   2
BRANCH   1  18
ATOM     18  C   UNL     1     -22.762  27.666  19.711  1.00  0.00     0.000 C 
BRANCH  18  19
ATOM     19  C   UNL     1     -22.023  26.788  20.743  1.00  0.00     0.000 C 
BRANCH  19  20
ATOM     20  C   UNL     1     -22.584  26.896  22.170  1.00  0.00     0.000 C 
BRANCH  20  21
ATOM     21  C   UNL     1     -23.676  27.971  22.305  1.00  0.00     0.000 C 
BRANCH  21  22
ATOM     22  C   UNL     1     -23.209  29.192  23.128  1.00  0.00     0.000 C 
BRANCH  22  23
ATOM     23  C   UNL     1     -24.002  30.480  22.840  1.00  0.00     0.000 C 
BRANCH  23  24
ATOM     24  C   UNL     1     -23.935  30.977  21.385  1.00  0.00    -0.000 C 
BRANCH  24  25
ATOM     25  C   UNL     1     -23.063  32.228  21.162  1.00  0.00    -0.000 C 
BRANCH  25  26
ATOM     26  C   UNL     1     -23.811  33.353  20.424  1.00  0.00    -0.000 C 
BRANCH  26  27
ATOM     27  C   UNL     1     -22.941  34.605  20.228  1.00  0.00    -0.000 C 
BRANCH  27  28
ATOM     28  C   UNL     1     -21.736  34.631  21.184  1.00  0.00    -0.000 C 
BRANCH  28  29
ATOM     29  C   UNL     1     -22.013  35.428  22.466  1.00  0.00    -0.000 C 
BRANCH  29  30
ATOM     30  C   UNL     1     -22.284  36.917  22.194  1.00  0.00    -0.000 C 
BRANCH  30  31
ATOM     31  C   UNL     1     -22.109  37.750  23.469  1.00  0.00    -0.003 C 
ATOM     32  C   UNL     1     -21.838  39.215  23.140  1.00  0.00     0.004 C 
ENDBRANCH  30  31
ENDBRANCH  29  30
ENDBRANCH  28  29
ENDBRANCH  27  28
ENDBRANCH  26  27
ENDBRANCH  25  26
ENDBRANCH  24  25
ENDBRANCH  23  24
ENDBRANCH  22  23
ENDBRANCH  21  22
ENDBRANCH  20  21
ENDBRANCH  19  20
ENDBRANCH  18  19
ENDBRANCH   1  18
TORSDOF 28
ENDMDL
MODEL 4
REMARK VINA RESULT:    -3.285      5.331     10.202
REMARK INTER + INTRA:         -13.375
REMARK INTER:                  -9.430
REMARK INTRA:                  -3.945
REMARK UNBOUND:                -4.713
REMARK SMILES CCCCCCCCCCCCCCCCCCCCCCCCCCCCCC(=O)[O-]
REMARK SMILES IDX 16 1 17 2 18 3 19 4 20 5 21 6 22 7 23 8 24 9 25 10 26 11
REMARK SMILES IDX 27 12 28 13 29 14 30 15 31 16 32 17 15 18 14 19 13 20 12 21
REMARK SMILES IDX 11 22 10 23 9 24 8 25 7 26 6 27 5 28 4 29 3 30 2 31 1 32
REMARK H PARENT
REMARK Flexibility Score: inf
ROOT
ATOM      1  C   UNL     1     -17.410  29.292  23.097  1.00  0.00     0.000 C 
ENDROOT
BRANCH   1   2
ATOM      2  C   UNL     1     -18.055  30.314  24.043  1.00  0.00     0.000 C 
BRANCH   2   3
ATOM      3  C   UNL     1     -19.089  31.174  23.298  1.00  0.00     0.000 C 
BRANCH   3   4
ATOM      4  C   UNL     1     -19.026  32.657  23.701  1.00  0.00     0.000 C 
BRANCH   4   5
ATOM      5  C   UNL     1     -20.289  33.431  23.282  1.00  0.00     0.000 C 
BRANCH   5   6
ATOM      6  C   UNL     1     -21.120  32.630  22.270  1.00  0.00     0.000 C 
BRANCH   6   7
ATOM      7  C   UNL     1     -22.168  33.524  21.589  1.00  0.00     0.000 C 
BRANCH   7   8
ATOM      8  C   UNL     1     -21.550  34.774  20.944  1.00  0.00     0.000 C 
BRANCH   8   9
ATOM      9  C   UNL     1     -22.403  36.034  21.165  1.00  0.00     0.000 C 
BRANCH   9  10
ATOM     10  C   UNL     1     -22.321  36.568  22.606  1.00  0.00     0.000 C 
BRANCH  10  11
ATOM     11  C   UNL     1     -22.461  38.097  22.744  1.00  0.00     0.000 C 
BRANCH  11  12
ATOM     12  C   UNL     1     -23.782  38.635  22.171  1.00  0.00     0.000 C 
BRANCH  12  13
ATOM     13  C   UNL     1     -23.546  39.903  21.341  1.00  0.00     0.006 C 
BRANCH  13  14
ATOM     14  C   UNL     1     -22.147  39.898  20.717  1.00  0.00     0.053 C 
BRANCH  14  15
ATOM     15  C   UNL     1     -21.436  41.192  20.972  1.00  0.00     0.041 C 
ATOM     16  O   UNL     1     -21.421  41.692  22.126  1.00  0.00    -0.550 OA
ATOM     17  O   UNL     1     -20.752  41.824  19.940  1.00  0.00    -0.550 OA
ENDBRANCH  14  15
ENDBRANCH  13  14
ENDBRANCH  12  13
ENDBRANCH  11  12
ENDBRANCH  10  11
ENDBRANCH   9  10
ENDBRANCH   8   9
ENDBRANCH   7   8
ENDBRANCH   6   7
ENDBRANCH   5   6
ENDBRANCH   4   5
ENDBRANCH   3   4
ENDBRANCH   2   3
ENDBRANCH   1   2
BRANCH   1  18
ATOM     18  C   UNL     1     -17.683  27.852  23.563  1.00  0.00     0.000 C 
BRANCH  18  19
ATOM     19  C   UNL     1     -17.704  26.848  22.390  1.00  0.00     0.000 C 
BRANCH  19  20
ATOM     20  C   UNL     1     -16.931  25.548  22.667  1.00  0.00     0.000 C 
BRANCH  20  21
ATOM     21  C   UNL     1     -17.108  24.497  21.558  1.00  0.00     0.000 C 
BRANCH  21  22
ATOM     22  C   UNL     1     -18.573  24.032  21.409  1.00  0.00     0.000 C 
BRANCH  22  23
ATOM     23  C   UNL     1     -18.893  23.406  20.039  1.00  0.00     0.000 C 
BRANCH  23  24
ATOM     24  C   UNL     1     -19.716  24.295  19.090  1.00  0.00    -0.000 C 
BRANCH  24  25
ATOM     25  C   UNL     1     -20.264  25.590  19.719  1.00  0.00    -0.000 C 
BRANCH  25  26
ATOM     26  C   UNL     1     -21.801  25.653  19.712  1.00  0.00    -0.000 C 
BRANCH  26  27
ATOM     27  C   UNL     1     -22.367  26.319  20.977  1.00  0.00    -0.000 C 
BRANCH  27  28
ATOM     28  C   UNL     1     -21.270  26.634  22.008  1.00  0.00    -0.000 C 
BRANCH  28  29
ATOM     29  C   UNL     1     -21.258  28.110  22.430  1.00  0.00    -0.000 C 
BRANCH  29  30
ATOM     30  C   UNL     1     -21.396  29.070  21.237  1.00  0.00    -0.000 C 
BRANCH  30  31
ATOM     31  C   UNL     1     -20.062  29.222  20.496  1.00  0.00    -0.003 C 
ATOM     32  C   UNL     1     -20.251  29.098  18.986  1.00  0.00     0.004 C 
ENDBRANCH  30  31
ENDBRANCH  29  30
ENDBRANCH  28  29
ENDBRANCH  27  28
ENDBRANCH  26  27
ENDBRANCH  25  26
ENDBRANCH  24  25
ENDBRANCH  23  24
ENDBRANCH  22  23
ENDBRANCH  21  22
ENDBRANCH  20  21
ENDBRANCH  19  20
ENDBRANCH  18  19
ENDBRANCH   1  18
TORSDOF 28
ENDMDL
MODEL 5
REMARK VINA RESULT:    -3.256      4.978     10.285
REMARK INTER + INTRA:         -13.297
REMARK INTER:                  -9.467
REMARK INTRA:                  -3.830
REMARK UNBOUND:                -4.713
REMARK SMILES CCCCCCCCCCCCCCCCCCCCCCCCCCCCCC(=O)[O-]
REMARK SMILES IDX 16 1 17 2 18 3 19 4 20 5 21 6 22 7 23 8 24 9 25 10 26 11
REMARK SMILES IDX 27 12 28 13 29 14 30 15 31 16 32 17 15 18 14 19 13 20 12 21
REMARK SMILES IDX 11 22 10 23 9 24 8 25 7 26 6 27 5 28 4 29 3 30 2 31 1 32
REMARK H PARENT
REMARK Flexibility Score: inf
ROOT
ATOM      1  C   UNL     1     -19.097  28.916  21.112  1.00  0.00     0.000 C 
ENDROOT
BRANCH   1   2
ATOM      2  C   UNL     1     -20.350  29.648  20.614  1.00  0.00     0.000 C 
BRANCH   2   3
ATOM      3  C   UNL     1     -20.671  30.856  21.510  1.00  0.00     0.000 C 
BRANCH   3   4
ATOM      4  C   UNL     1     -22.171  30.973  21.830  1.00  0.00     0.000 C 
BRANCH   4   5
ATOM      5  C   UNL     1     -23.057  30.540  20.649  1.00  0.00     0.000 C 
BRANCH   5   6
ATOM      6  C   UNL     1     -23.995  31.675  20.214  1.00  0.00     0.000 C 
BRANCH   6   7
ATOM      7  C   UNL     1     -24.043  32.787  21.274  1.00  0.00     0.000 C 
BRANCH   7   8
ATOM      8  C   UNL     1     -23.812  34.184  20.675  1.00  0.00     0.000 C 
BRANCH   8   9
ATOM      9  C   UNL     1     -22.331  34.454  20.364  1.00  0.00     0.000 C 
BRANCH   9  10
ATOM     10  C   UNL     1     -21.530  34.899  21.600  1.00  0.00     0.000 C 
BRANCH  10  11
ATOM     11  C   UNL     1     -22.367  35.542  22.724  1.00  0.00     0.000 C 
BRANCH  11  12
ATOM     12  C   UNL     1     -22.020  37.019  22.964  1.00  0.00     0.000 C 
BRANCH  12  13
ATOM     13  C   UNL     1     -22.664  37.917  21.900  1.00  0.00     0.006 C 
BRANCH  13  14
ATOM     14  C   UNL     1     -22.555  39.394  22.291  1.00  0.00     0.053 C 
BRANCH  14  15
ATOM     15  C   UNL     1     -22.382  40.262  21.082  1.00  0.00     0.041 C 
ATOM     16  O   UNL     1     -21.920  39.782  20.015  1.00  0.00    -0.550 OA
ATOM     17  O   UNL     1     -22.773  41.595  21.122  1.00  0.00    -0.550 OA
ENDBRANCH  14  15
ENDBRANCH  13  14
ENDBRANCH  12  13
ENDBRANCH  11  12
ENDBRANCH  10  11
ENDBRANCH   9  10
ENDBRANCH   8   9
ENDBRANCH   7   8
ENDBRANCH   6   7
ENDBRANCH   5   6
ENDBRANCH   4   5
ENDBRANCH   3   4
ENDBRANCH   2   3
ENDBRANCH   1   2
BRANCH   1  18
ATOM     18  C   UNL     1     -18.626  29.472  22.466  1.00  0.00     0.000 C 
BRANCH  18  19
ATOM     19  C   UNL     1     -17.852  28.425  23.296  1.00  0.00     0.000 C 
BRANCH  19  20
ATOM     20  C   UNL     1     -17.673  27.074  22.584  1.00  0.00     0.000 C 
BRANCH  20  21
ATOM     21  C   UNL     1     -16.936  26.036  23.447  1.00  0.00     0.000 C 
BRANCH  21  22
ATOM     22  C   UNL     1     -16.559  24.764  22.655  1.00  0.00     0.000 C 
BRANCH  22  23
ATOM     23  C   UNL     1     -17.055  24.767  21.197  1.00  0.00     0.000 C 
BRANCH  23  24
ATOM     24  C   UNL     1     -17.392  23.382  20.618  1.00  0.00    -0.000 C 
BRANCH  24  25
ATOM     25  C   UNL     1     -17.250  23.261  19.088  1.00  0.00    -0.000 C 
BRANCH  25  26
ATOM     26  C   UNL     1     -18.596  23.390  18.353  1.00  0.00    -0.000 C 
BRANCH  26  27
ATOM     27  C   UNL     1     -19.799  23.249  19.300  1.00  0.00    -0.000 C 
BRANCH  27  28
ATOM     28  C   UNL     1     -20.805  24.401  19.136  1.00  0.00    -0.000 C 
BRANCH  28  29
ATOM     29  C   UNL     1     -20.430  25.639  19.963  1.00  0.00    -0.000 C 
BRANCH  29  30
ATOM     30  C   UNL     1     -20.684  25.449  21.468  1.00  0.00    -0.000 C 
BRANCH  30  31
ATOM     31  C   UNL     1     -21.700  26.473  21.987  1.00  0.00    -0.003 C 
ATOM     32  C   UNL     1     -22.712  26.846  20.906  1.00  0.00     0.004 C 
ENDBRANCH  30  31
ENDBRANCH  29  30
ENDBRANCH  28  29
ENDBRANCH  27  28
ENDBRANCH  26  27
ENDBRANCH  25  26
ENDBRANCH  24  25
ENDBRANCH  23  24
ENDBRANCH  22  23
ENDBRANCH  21  22
ENDBRANCH  20  21
ENDBRANCH  19  20
ENDBRANCH  18  19
ENDBRANCH   1  18
TORSDOF 28
ENDMDL
MODEL 6
REMARK VINA RESULT:    -3.218      6.089     12.205
REMARK INTER + INTRA:         -13.198
REMARK INTER:                  -9.138
REMARK INTRA:                  -4.061
REMARK UNBOUND:                -4.713
REMARK SMILES CCCCCCCCCCCCCCCCCCCCCCCCCCCCCC(=O)[O-]
REMARK SMILES IDX 16 1 17 2 18 3 19 4 20 5 21 6 22 7 23 8 24 9 25 10 26 11
REMARK SMILES IDX 27 12 28 13 29 14 30 15 31 16 32 17 15 18 14 19 13 20 12 21
REMARK SMILES IDX 11 22 10 23 9 24 8 25 7 26 6 27 5 28 4 29 3 30 2 31 1 32
REMARK H PARENT
REMARK Flexibility Score: inf
ROOT
ATOM      1  C   UNL     1     -22.597  34.505  19.949  1.00  0.00     0.000 C 
ENDROOT
BRANCH   1   2
ATOM      2  C   UNL     1     -21.798  35.432  20.874  1.00  0.00     0.000 C 
BRANCH   2   3
ATOM      3  C   UNL     1     -21.627  34.803  22.267  1.00  0.00     0.000 C 
BRANCH   3   4
ATOM      4  C   UNL     1     -21.750  35.834  23.401  1.00  0.00     0.000 C 
BRANCH   4   5
ATOM      5  C   UNL     1     -22.957  36.770  23.212  1.00  0.00     0.000 C 
BRANCH   5   6
ATOM      6  C   UNL     1     -22.509  38.231  23.065  1.00  0.00     0.000 C 
BRANCH   6   7
ATOM      7  C   UNL     1     -22.774  38.748  21.642  1.00  0.00     0.000 C 
BRANCH   7   8
ATOM      8  C   UNL     1     -23.992  39.684  21.571  1.00  0.00     0.000 C 
BRANCH   8   9
ATOM      9  C   UNL     1     -23.695  40.976  20.793  1.00  0.00     0.000 C 
BRANCH   9  10
ATOM     10  C   UNL     1     -23.513  42.200  21.709  1.00  0.00     0.000 C 
BRANCH  10  11
ATOM     11  C   UNL     1     -23.428  41.880  23.215  1.00  0.00     0.000 C 
BRANCH  11  12
ATOM     12  C   UNL     1     -21.983  41.789  23.730  1.00  0.00     0.000 C 
BRANCH  12  13
ATOM     13  C   UNL     1     -21.015  42.516  22.787  1.00  0.00     0.006 C 
BRANCH  13  14
ATOM     14  C   UNL     1     -19.801  41.638  22.465  1.00  0.00     0.053 C 
BRANCH  14  15
ATOM     15  C   UNL     1     -19.472  41.685  21.005  1.00  0.00     0.041 C 
ATOM     16  O   UNL     1     -18.395  42.204  20.612  1.00  0.00    -0.550 OA
ATOM     17  O   UNL     1     -20.337  41.115  20.079  1.00  0.00    -0.550 OA
ENDBRANCH  14  15
ENDBRANCH  13  14
ENDBRANCH  12  13
ENDBRANCH  11  12
ENDBRANCH  10  11
ENDBRANCH   9  10
ENDBRANCH   8   9
ENDBRANCH   7   8
ENDBRANCH   6   7
ENDBRANCH   5   6
ENDBRANCH   4   5
ENDBRANCH   3   4
ENDBRANCH   2   3
ENDBRANCH   1   2
BRANCH   1  18
ATOM     18  C   UNL     1     -23.898  34.034  20.620  1.00  0.00     0.000 C 
BRANCH  18  19
ATOM     19  C   UNL     1     -24.124  32.514  20.464  1.00  0.00     0.000 C 
BRANCH  19  20
ATOM     20  C   UNL     1     -22.984  31.653  21.030  1.00  0.00     0.000 C 
BRANCH  20  21
ATOM     21  C   UNL     1     -23.100  31.427  22.547  1.00  0.00     0.000 C 
BRANCH  21  22
ATOM     22  C   UNL     1     -21.784  30.914  23.174  1.00  0.00     0.000 C 
BRANCH  22  23
ATOM     23  C   UNL     1     -20.535  31.194  22.319  1.00  0.00     0.000 C 
BRANCH  23  24
ATOM     24  C   UNL     1     -19.192  31.057  23.058  1.00  0.00    -0.000 C 
BRANCH  24  25
ATOM     25  C   UNL     1     -19.005  29.739  23.834  1.00  0.00    -0.000 C 
BRANCH  25  26
ATOM     26  C   UNL     1     -17.831  28.897  23.304  1.00  0.00    -0.000 C 
BRANCH  26  27
ATOM     27  C   UNL     1     -18.042  28.444  21.850  1.00  0.00    -0.000 C 
BRANCH  27  28
ATOM     28  C   UNL     1     -18.791  27.103  21.763  1.00  0.00    -0.000 C 
BRANCH  28  29
ATOM     29  C   UNL     1     -20.023  27.171  20.849  1.00  0.00    -0.000 C 
BRANCH  29  30
ATOM     30  C   UNL     1     -20.015  28.403  19.930  1.00  0.00    -0.000 C 
BRANCH  30  31
ATOM     31  C   UNL     1     -21.442  28.807  19.539  1.00  0.00    -0.003 C 
ATOM     32  C   UNL     1     -22.477  27.937  20.248  1.00  0.00     0.004 C 
ENDBRANCH  30  31
ENDBRANCH  29  30
ENDBRANCH  28  29
ENDBRANCH  27  28
ENDBRANCH  26  27
ENDBRANCH  25  26
ENDBRANCH  24  25
ENDBRANCH  23  24
ENDBRANCH  22  23
ENDBRANCH  21  22
ENDBRANCH  20  21
ENDBRANCH  19  20
ENDBRANCH  18  19
ENDBRANCH   1  18
TORSDOF 28
ENDMDL
MODEL 7
REMARK VINA RESULT:    -3.180      3.144      5.344
REMARK INTER + INTRA:         -13.099
REMARK INTER:                 -10.010
REMARK INTRA:                  -3.088
REMARK UNBOUND:                -4.713
REMARK SMILES CCCCCCCCCCCCCCCCCCCCCCCCCCCCCC(=O)[O-]
REMARK SMILES IDX 16 1 17 2 18 3 19 4 20 5 21 6 22 7 23 8 24 9 25 10 26 11
REMARK SMILES IDX 27 12 28 13 29 14 30 15 31 16 32 17 15 18 14 19 13 20 12 21
REMARK SMILES IDX 11 22 10 23 9 24 8 25 7 26 6 27 5 28 4 29 3 30 2 31 1 32
REMARK H PARENT
REMARK Flexibility Score: inf
ROOT
ATOM      1  C   UNL     1     -19.879  30.409  21.896  1.00  0.00     0.000 C 
ENDROOT
BRANCH   1   2
ATOM      2  C   UNL     1     -19.426  30.954  23.257  1.00  0.00     0.000 C 
BRANCH   2   3
ATOM      3  C   UNL     1     -18.134  30.264  23.722  1.00  0.00     0.000 C 
BRANCH   3   4
ATOM      4  C   UNL     1     -17.658  29.176  22.744  1.00  0.00     0.000 C 
BRANCH   4   5
ATOM      5  C   UNL     1     -17.791  27.761  23.333  1.00  0.00     0.000 C 
BRANCH   5   6
ATOM      6  C   UNL     1     -17.739  26.694  22.232  1.00  0.00     0.000 C 
BRANCH   6   7
ATOM      7  C   UNL     1     -17.004  25.435  22.718  1.00  0.00     0.000 C 
BRANCH   7   8
ATOM      8  C   UNL     1     -17.647  24.138  22.202  1.00  0.00     0.000 C 
BRANCH   8   9
ATOM      9  C   UNL     1     -16.921  23.570  20.972  1.00  0.00     0.000 C 
BRANCH   9  10
ATOM     10  C   UNL     1     -17.804  23.549  19.711  1.00  0.00     0.000 C 
BRANCH  10  11
ATOM     11  C   UNL     1     -19.310  23.759  19.966  1.00  0.00     0.000 C 
BRANCH  11  12
ATOM     12  C   UNL     1     -19.878  24.990  19.243  1.00  0.00     0.000 C 
BRANCH  12  13
ATOM     13  C   UNL     1     -20.587  25.930  20.226  1.00  0.00     0.006 C 
BRANCH  13  14
ATOM     14  C   UNL     1     -20.485  27.386  19.762  1.00  0.00     0.053 C 
BRANCH  14  15
ATOM     15  C   UNL     1     -21.829  28.046  19.753  1.00  0.00     0.041 C 
ATOM     16  O   UNL     1     -22.109  28.910  18.882  1.00  0.00    -0.550 OA
ATOM     17  O   UNL     1     -22.793  27.674  20.684  1.00  0.00    -0.550 OA
ENDBRANCH  14  15
ENDBRANCH  13  14
ENDBRANCH  12  13
ENDBRANCH  11  12
ENDBRANCH  10  11
ENDBRANCH   9  10
ENDBRANCH   8   9
ENDBRANCH   7   8
ENDBRANCH   6   7
ENDBRANCH   5   6
ENDBRANCH   4   5
ENDBRANCH   3   4
ENDBRANCH   2   3
ENDBRANCH   1   2
BRANCH   1  18
ATOM     18  C   UNL     1     -21.125  31.152  21.384  1.00  0.00     0.000 C 
BRANCH  18  19
ATOM     19  C   UNL     1     -22.192  31.337  22.484  1.00  0.00     0.000 C 
BRANCH  19  20
ATOM     20  C   UNL     1     -23.625  31.478  21.945  1.00  0.00     0.000 C 
BRANCH  20  21
ATOM     21  C   UNL     1     -23.680  32.124  20.551  1.00  0.00     0.000 C 
BRANCH  21  22
ATOM     22  C   UNL     1     -23.936  33.646  20.611  1.00  0.00     0.000 C 
BRANCH  22  23
ATOM     23  C   UNL     1     -22.811  34.494  19.989  1.00  0.00     0.000 C 
BRANCH  23  24
ATOM     24  C   UNL     1     -21.673  34.876  20.951  1.00  0.00    -0.000 C 
BRANCH  24  25
ATOM     25  C   UNL     1     -22.113  35.179  22.396  1.00  0.00    -0.000 C 
BRANCH  25  26
ATOM     26  C   UNL     1     -23.027  36.413  22.496  1.00  0.00    -0.000 C 
BRANCH  26  27
ATOM     27  C   UNL     1     -22.238  37.732  22.473  1.00  0.00    -0.000 C 
BRANCH  27  28
ATOM     28  C   UNL     1     -23.022  38.866  21.790  1.00  0.00    -0.000 C 
BRANCH  28  29
ATOM     29  C   UNL     1     -22.204  39.582  20.706  1.00  0.00    -0.000 C 
BRANCH  29  30
ATOM     30  C   UNL     1     -21.783  41.002  21.118  1.00  0.00    -0.000 C 
BRANCH  30  31
ATOM     31  C   UNL     1     -20.716  41.557  20.167  1.00  0.00    -0.003 C 
ATOM     32  C   UNL     1     -19.345  41.594  20.836  1.00  0.00     0.004 C 
ENDBRANCH  30  31
ENDBRANCH  29  30
ENDBRANCH  28  29
ENDBRANCH  27  28
ENDBRANCH  26  27
ENDBRANCH  25  26
ENDBRANCH  24  25
ENDBRANCH  23  24
ENDBRANCH  22  23
ENDBRANCH  21  22
ENDBRANCH  20  21
ENDBRANCH  19  20
ENDBRANCH  18  19
ENDBRANCH   1  18
TORSDOF 28
ENDMDL
MODEL 8
REMARK VINA RESULT:    -3.169      5.782     11.272
REMARK INTER + INTRA:         -13.068
REMARK INTER:                  -8.806
REMARK INTRA:                  -4.262
REMARK UNBOUND:                -4.713
REMARK SMILES CCCCCCCCCCCCCCCCCCCCCCCCCCCCCC(=O)[O-]
REMARK SMILES IDX 16 1 17 2 18 3 19 4 20 5 21 6 22 7 23 8 24 9 25 10 26 11
REMARK SMILES IDX 27 12 28 13 29 14 30 15 31 16 32 17 15 18 14 19 13 20 12 21
REMARK SMILES IDX 11 22 10 23 9 24 8 25 7 26 6 27 5 28 4 29 3 30 2 31 1 32
REMARK H PARENT
REMARK Flexibility Score: inf
ROOT
ATOM      1  C   UNL     1     -19.547  32.479  23.637  1.00  0.00     0.000 C 
ENDROOT
BRANCH   1   2
ATOM      2  C   UNL     1     -20.556  31.909  22.631  1.00  0.00     0.000 C 
BRANCH   2   3
ATOM      3  C   UNL     1     -21.971  31.879  23.231  1.00  0.00     0.000 C 
BRANCH   3   4
ATOM      4  C   UNL     1     -22.854  33.032  22.724  1.00  0.00     0.000 C 
BRANCH   4   5
ATOM      5  C   UNL     1     -22.777  34.271  23.634  1.00  0.00     0.000 C 
BRANCH   5   6
ATOM      6  C   UNL     1     -21.802  35.314  23.070  1.00  0.00     0.000 C 
BRANCH   6   7
ATOM      7  C   UNL     1     -22.166  35.683  21.623  1.00  0.00     0.000 C 
BRANCH   7   8
ATOM      8  C   UNL     1     -22.854  37.053  21.518  1.00  0.00     0.000 C 
BRANCH   8   9
ATOM      9  C   UNL     1     -22.768  37.857  22.826  1.00  0.00     0.000 C 
BRANCH   9  10
ATOM     10  C   UNL     1     -22.340  39.319  22.604  1.00  0.00     0.000 C 
BRANCH  10  11
ATOM     11  C   UNL     1     -22.289  39.767  21.130  1.00  0.00     0.000 C 
BRANCH  11  12
ATOM     12  C   UNL     1     -22.482  41.281  20.955  1.00  0.00     0.000 C 
BRANCH  12  13
ATOM     13  C   UNL     1     -21.312  41.900  20.179  1.00  0.00     0.006 C 
BRANCH  13  14
ATOM     14  C   UNL     1     -20.060  41.022  20.283  1.00  0.00     0.053 C 
BRANCH  14  15
ATOM     15  C   UNL     1     -19.025  41.658  21.159  1.00  0.00     0.041 C 
ATOM     16  O   UNL     1     -18.313  42.598  20.722  1.00  0.00    -0.550 OA
ATOM     17  O   UNL     1     -18.878  41.241  22.477  1.00  0.00    -0.550 OA
ENDBRANCH  14  15
ENDBRANCH  13  14
ENDBRANCH  12  13
ENDBRANCH  11  12
ENDBRANCH  10  11
ENDBRANCH   9  10
ENDBRANCH   8   9
ENDBRANCH   7   8
ENDBRANCH   6   7
ENDBRANCH   5   6
ENDBRANCH   4   5
ENDBRANCH   3   4
ENDBRANCH   2   3
ENDBRANCH   1   2
BRANCH   1  18
ATOM     18  C   UNL     1     -18.454  31.451  23.974  1.00  0.00     0.000 C 
BRANCH  18  19
ATOM     19  C   UNL     1     -18.844  30.018  23.550  1.00  0.00     0.000 C 
BRANCH  19  20
ATOM     20  C   UNL     1     -17.757  29.288  22.744  1.00  0.00     0.000 C 
BRANCH  20  21
ATOM     21  C   UNL     1     -18.322  28.509  21.544  1.00  0.00     0.000 C 
BRANCH  21  22
ATOM     22  C   UNL     1     -19.312  29.346  20.705  1.00  0.00     0.000 C 
BRANCH  22  23
ATOM     23  C   UNL     1     -20.090  28.528  19.658  1.00  0.00     0.000 C 
BRANCH  23  24
ATOM     24  C   UNL     1     -21.539  28.986  19.415  1.00  0.00    -0.000 C 
BRANCH  24  25
ATOM     25  C   UNL     1     -22.350  29.292  20.689  1.00  0.00    -0.000 C 
BRANCH  25  26
ATOM     26  C   UNL     1     -22.641  28.034  21.527  1.00  0.00    -0.000 C 
BRANCH  26  27
ATOM     27  C   UNL     1     -21.937  28.064  22.893  1.00  0.00    -0.000 C 
BRANCH  27  28
ATOM     28  C   UNL     1     -21.128  26.782  23.157  1.00  0.00    -0.000 C 
BRANCH  28  29
ATOM     29  C   UNL     1     -21.124  25.826  21.956  1.00  0.00    -0.000 C 
BRANCH  29  30
ATOM     30  C   UNL     1     -19.810  25.038  21.828  1.00  0.00    -0.000 C 
BRANCH  30  31
ATOM     31  C   UNL     1     -19.290  25.067  20.386  1.00  0.00    -0.003 C 
ATOM     32  C   UNL     1     -20.421  24.844  19.385  1.00  0.00     0.004 C 
ENDBRANCH  30  31
ENDBRANCH  29  30
ENDBRANCH  28  29
ENDBRANCH  27  28
ENDBRANCH  26  27
ENDBRANCH  25  26
ENDBRANCH  24  25
ENDBRANCH  23  24
ENDBRANCH  22  23
ENDBRANCH  21  22
ENDBRANCH  20  21
ENDBRANCH  19  20
ENDBRANCH  18  19
ENDBRANCH   1  18
TORSDOF 28
ENDMDL
MODEL 9
REMARK VINA RESULT:    -3.141      1.457      3.940
REMARK INTER + INTRA:         -12.994
REMARK INTER:                  -7.235
REMARK INTRA:                  -5.759
REMARK UNBOUND:                -4.713
REMARK SMILES CCCCCCCCCCCCCCCCCCCCCCCCCCCCCC(=O)[O-]
REMARK SMILES IDX 16 1 17 2 18 3 19 4 20 5 21 6 22 7 23 8 24 9 25 10 26 11
REMARK SMILES IDX 27 12 28 13 29 14 30 15 31 16 32 17 15 18 14 19 13 20 12 21
REMARK SMILES IDX 11 22 10 23 9 24 8 25 7 26 6 27 5 28 4 29 3 30 2 31 1 32
REMARK H PARENT
REMARK Flexibility Score: inf
ROOT
ATOM      1  C   UNL     1     -20.811  28.163  19.700  1.00  0.00     0.000 C 
ENDROOT
BRANCH   1   2
ATOM      2  C   UNL     1     -22.256  28.502  19.308  1.00  0.00     0.000 C 
BRANCH   2   3
ATOM      3  C   UNL     1     -23.209  27.355  19.679  1.00  0.00     0.000 C 
BRANCH   3   4
ATOM      4  C   UNL     1     -22.676  25.978  19.247  1.00  0.00     0.000 C 
BRANCH   4   5
ATOM      5  C   UNL     1     -23.702  24.855  19.480  1.00  0.00     0.000 C 
BRANCH   5   6
ATOM      6  C   UNL     1     -23.009  23.544  19.877  1.00  0.00     0.000 C 
BRANCH   6   7
ATOM      7  C   UNL     1     -22.009  23.774  21.021  1.00  0.00     0.000 C 
BRANCH   7   8
ATOM      8  C   UNL     1     -20.689  23.014  20.815  1.00  0.00     0.000 C 
BRANCH   8   9
ATOM      9  C   UNL     1     -19.513  23.952  20.499  1.00  0.00     0.000 C 
BRANCH   9  10
ATOM     10  C   UNL     1     -19.472  24.386  19.022  1.00  0.00     0.000 C 
BRANCH  10  11
ATOM     11  C   UNL     1     -19.647  23.244  18.002  1.00  0.00     0.000 C 
BRANCH  11  12
ATOM     12  C   UNL     1     -19.292  23.661  16.566  1.00  0.00     0.000 C 
BRANCH  12  13
ATOM     13  C   UNL     1     -20.483  23.452  15.621  1.00  0.00     0.006 C 
BRANCH  13  14
ATOM     14  C   UNL     1     -21.778  23.236  16.411  1.00  0.00     0.053 C 
BRANCH  14  15
ATOM     15  C   UNL     1     -22.980  23.535  15.570  1.00  0.00     0.041 C 
ATOM     16  O   UNL     1     -24.019  24.015  16.093  1.00  0.00    -0.550 OA
ATOM     17  O   UNL     1     -22.938  23.323  14.197  1.00  0.00    -0.550 OA
ENDBRANCH  14  15
ENDBRANCH  13  14
ENDBRANCH  12  13
ENDBRANCH  11  12
ENDBRANCH  10  11
ENDBRANCH   9  10
ENDBRANCH   8   9
ENDBRANCH   7   8
ENDBRANCH   6   7
ENDBRANCH   5   6
ENDBRANCH   4   5
ENDBRANCH   3   4
ENDBRANCH   2   3
ENDBRANCH   1   2
BRANCH   1  18
ATOM     18  C   UNL     1     -19.995  29.437  19.977  1.00  0.00     0.000 C 
BRANCH  18  19
ATOM     19  C   UNL     1     -18.984  29.249  21.129  1.00  0.00     0.000 C 
BRANCH  19  20
ATOM     20  C   UNL     1     -19.238  30.164  22.338  1.00  0.00     0.000 C 
BRANCH  20  21
ATOM     21  C   UNL     1     -18.663  29.601  23.648  1.00  0.00     0.000 C 
BRANCH  21  22
ATOM     22  C   UNL     1     -17.573  28.533  23.408  1.00  0.00     0.000 C 
BRANCH  22  23
ATOM     23  C   UNL     1     -18.013  27.101  23.762  1.00  0.00     0.000 C 
BRANCH  23  24
ATOM     24  C   UNL     1     -19.500  26.944  24.125  1.00  0.00    -0.000 C 
BRANCH  24  25
ATOM     25  C   UNL     1     -20.406  26.459  22.977  1.00  0.00    -0.000 C 
BRANCH  25  26
ATOM     26  C   UNL     1     -21.901  26.692  23.257  1.00  0.00    -0.000 C 
BRANCH  26  27
ATOM     27  C   UNL     1     -22.253  28.185  23.363  1.00  0.00    -0.000 C 
BRANCH  27  28
ATOM     28  C   UNL     1     -23.732  28.457  23.037  1.00  0.00    -0.000 C 
BRANCH  28  29
ATOM     29  C   UNL     1     -23.960  29.852  22.439  1.00  0.00    -0.000 C 
BRANCH  29  30
ATOM     30  C   UNL     1     -22.669  30.684  22.359  1.00  0.00    -0.000 C 
BRANCH  30  31
ATOM     31  C   UNL     1     -22.734  31.690  21.204  1.00  0.00    -0.003 C 
ATOM     32  C   UNL     1     -22.016  32.989  21.561  1.00  0.00     0.004 C 
ENDBRANCH  30  31
ENDBRANCH  29  30
ENDBRANCH  28  29
ENDBRANCH  27  28
ENDBRANCH  26  27
ENDBRANCH  25  26
ENDBRANCH  24  25
ENDBRANCH  23  24
ENDBRANCH  22  23
ENDBRANCH  21  22
ENDBRANCH  20  21
ENDBRANCH  19  20
ENDBRANCH  18  19
ENDBRANCH   1  18
TORSDOF 28
ENDMDL
