MODEL 1
REMARK VINA RESULT:    -4.906      0.000      0.000
REMARK INTER + INTRA:          -5.818
REMARK INTER:                  -5.623
REMARK INTRA:                  -0.195
REMARK UNBOUND:                -0.195
REMARK SMILES COC(=O)c1ccccc1O
REMARK SMILES IDX 5 1 6 2 7 3 8 4 9 5 10 6 3 7 4 8 2 9 1 10 11 11
REMARK H PARENT 11 12
REMARK Flexibility Score: inf
ROOT
ATOM      1  C   UNL     1       7.110  -1.910  47.433  1.00  0.00     0.101 A 
ATOM      2  C   UNL     1       8.381  -2.367  47.039  1.00  0.00     0.019 A 
ATOM      3  C   UNL     1       9.331  -2.745  47.992  1.00  0.00     0.001 A 
ATOM      4  C   UNL     1       9.027  -2.671  49.351  1.00  0.00     0.004 A 
ATOM      5  C   UNL     1       7.772  -2.220  49.761  1.00  0.00     0.047 A 
ATOM      6  C   UNL     1       6.809  -1.838  48.815  1.00  0.00     0.130 A 
ENDROOT
BRANCH   1   7
ATOM      7  C   UNL     1       6.125  -1.518  46.392  1.00  0.00     0.341 C 
ATOM      8  O   UNL     1       5.850  -0.303  46.192  1.00  0.00    -0.246 OA
BRANCH   7   9
ATOM      9  O   UNL     1       5.498  -2.506  45.623  1.00  0.00    -0.465 OA
ATOM     10  C   UNL     1       4.629  -2.200  44.539  1.00  0.00     0.282 C 
ENDBRANCH   7   9
ENDBRANCH   1   7
BRANCH   6  11
ATOM     11  O   UNL     1       5.561  -1.391  49.252  1.00  0.00    -0.507 OA
ATOM     12  H   UNL     1       5.412  -0.432  49.544  1.00  0.00     0.293 HD
ENDBRANCH   6  11
TORSDOF 3
ENDMDL
MODEL 2
REMARK VINA RESULT:    -4.804      2.686      4.118
REMARK INTER + INTRA:          -5.701
REMARK INTER:                  -5.407
REMARK INTRA:                  -0.294
REMARK UNBOUND:                -0.195
REMARK SMILES COC(=O)c1ccccc1O
REMARK SMILES IDX 5 1 6 2 7 3 8 4 9 5 10 6 3 7 4 8 2 9 1 10 11 11
REMARK H PARENT 11 12
REMARK Flexibility Score: inf
ROOT
ATOM      1  C   UNL     1       6.524  -1.824  49.292  1.00  0.00     0.101 A 
ATOM      2  C   UNL     1       5.582  -1.260  48.411  1.00  0.00     0.019 A 
ATOM      3  C   UNL     1       5.959  -0.847  47.131  1.00  0.00     0.001 A 
ATOM      4  C   UNL     1       7.281  -0.990  46.710  1.00  0.00     0.004 A 
ATOM      5  C   UNL     1       8.229  -1.547  47.569  1.00  0.00     0.047 A 
ATOM      6  C   UNL     1       7.864  -1.966  48.857  1.00  0.00     0.130 A 
ENDROOT
BRANCH   1   7
ATOM      7  C   UNL     1       6.086  -2.252  50.646  1.00  0.00     0.341 C 
ATOM      8  O   UNL     1       6.532  -1.678  51.677  1.00  0.00    -0.246 OA
BRANCH   7   9
ATOM      9  O   UNL     1       5.169  -3.301  50.778  1.00  0.00    -0.465 OA
ATOM     10  C   UNL     1       5.563  -4.669  50.792  1.00  0.00     0.282 C 
ENDBRANCH   7   9
ENDBRANCH   1   7
BRANCH   6  11
ATOM     11  O   UNL     1       8.833  -2.519  49.696  1.00  0.00    -0.507 OA
ATOM     12  H   UNL     1       9.740  -2.086  49.820  1.00  0.00     0.293 HD
ENDBRANCH   6  11
TORSDOF 3
ENDMDL
MODEL 3
REMARK VINA RESULT:    -4.777      1.683      3.541
REMARK INTER + INTRA:          -5.670
REMARK INTER:                  -5.342
REMARK INTRA:                  -0.328
REMARK UNBOUND:                -0.195
REMARK SMILES COC(=O)c1ccccc1O
REMARK SMILES IDX 5 1 6 2 7 3 8 4 9 5 10 6 3 7 4 8 2 9 1 10 11 11
REMARK H PARENT 11 12
REMARK Flexibility Score: inf
ROOT
ATOM      1  C   UNL     1       6.936  -2.072  49.247  1.00  0.00     0.101 A 
ATOM      2  C   UNL     1       8.212  -2.665  49.210  1.00  0.00     0.019 A 
ATOM      3  C   UNL     1       8.965  -2.668  48.033  1.00  0.00     0.001 A 
ATOM      4  C   UNL     1       8.455  -2.082  46.875  1.00  0.00     0.004 A 
ATOM      5  C   UNL     1       7.192  -1.489  46.891  1.00  0.00     0.047 A 
ATOM      6  C   UNL     1       6.426  -1.478  48.066  1.00  0.00     0.130 A 
ENDROOT
BRANCH   1   7
ATOM      7  C   UNL     1       6.165  -2.087  50.517  1.00  0.00     0.341 C 
ATOM      8  O   UNL     1       6.626  -1.538  51.555  1.00  0.00    -0.246 OA
BRANCH   7   9
ATOM      9  O   UNL     1       4.915  -2.715  50.561  1.00  0.00    -0.465 OA
ATOM     10  C   UNL     1       4.755  -4.120  50.397  1.00  0.00     0.282 C 
ENDBRANCH   7   9
ENDBRANCH   1   7
BRANCH   6  11
ATOM     11  O   UNL     1       5.166  -0.879  48.055  1.00  0.00    -0.507 OA
ATOM     12  H   UNL     1       4.431  -1.174  48.687  1.00  0.00     0.293 HD
ENDBRANCH   6  11
TORSDOF 3
ENDMDL
MODEL 4
REMARK VINA RESULT:    -4.753      1.653      2.393
REMARK INTER + INTRA:          -5.642
REMARK INTER:                  -5.340
REMARK INTRA:                  -0.302
REMARK UNBOUND:                -0.195
REMARK SMILES COC(=O)c1ccccc1O
REMARK SMILES IDX 5 1 6 2 7 3 8 4 9 5 10 6 3 7 4 8 2 9 1 10 11 11
REMARK H PARENT 11 12
REMARK Flexibility Score: inf
ROOT
ATOM      1  C   UNL     1       6.976  -3.331  47.392  1.00  0.00     0.101 A 
ATOM      2  C   UNL     1       7.141  -4.203  48.484  1.00  0.00     0.019 A 
ATOM      3  C   UNL     1       8.312  -4.177  49.247  1.00  0.00     0.001 A 
ATOM      4  C   UNL     1       9.333  -3.282  48.932  1.00  0.00     0.004 A 
ATOM      5  C   UNL     1       9.188  -2.410  47.852  1.00  0.00     0.047 A 
ATOM      6  C   UNL     1       8.018  -2.425  47.078  1.00  0.00     0.130 A 
ENDROOT
BRANCH   1   7
ATOM      7  C   UNL     1       5.717  -3.387  46.603  1.00  0.00     0.341 C 
ATOM      8  O   UNL     1       5.103  -4.478  46.449  1.00  0.00    -0.246 OA
BRANCH   7   9
ATOM      9  O   UNL     1       5.208  -2.217  46.027  1.00  0.00    -0.465 OA
ATOM     10  C   UNL     1       4.710  -2.171  44.694  1.00  0.00     0.282 C 
ENDBRANCH   7   9
ENDBRANCH   1   7
BRANCH   6  11
ATOM     11  O   UNL     1       7.898  -1.543  46.003  1.00  0.00    -0.507 OA
ATOM     12  H   UNL     1       8.156  -1.812  45.062  1.00  0.00     0.293 HD
ENDBRANCH   6  11
TORSDOF 3
ENDMDL
MODEL 5
REMARK VINA RESULT:    -4.727      2.262      3.982
REMARK INTER + INTRA:          -5.612
REMARK INTER:                  -5.300
REMARK INTRA:                  -0.312
REMARK UNBOUND:                -0.195
REMARK SMILES COC(=O)c1ccccc1O
REMARK SMILES IDX 5 1 6 2 7 3 8 4 9 5 10 6 3 7 4 8 2 9 1 10 11 11
REMARK H PARENT 11 12
REMARK Flexibility Score: inf
ROOT
ATOM      1  C   UNL     1       6.853  -2.594  48.685  1.00  0.00     0.101 A 
ATOM      2  C   UNL     1       7.970  -1.855  48.252  1.00  0.00     0.019 A 
ATOM      3  C   UNL     1       7.816  -0.770  47.385  1.00  0.00     0.001 A 
ATOM      4  C   UNL     1       6.546  -0.407  46.936  1.00  0.00     0.004 A 
ATOM      5  C   UNL     1       5.427  -1.129  47.354  1.00  0.00     0.047 A 
ATOM      6  C   UNL     1       5.568  -2.219  48.225  1.00  0.00     0.130 A 
ENDROOT
BRANCH   1   7
ATOM      7  C   UNL     1       7.056  -3.741  49.608  1.00  0.00     0.341 C 
ATOM      8  O   UNL     1       8.077  -4.475  49.506  1.00  0.00    -0.246 OA
BRANCH   7   9
ATOM      9  O   UNL     1       6.105  -4.009  50.600  1.00  0.00    -0.465 OA
ATOM     10  C   UNL     1       5.662  -5.326  50.903  1.00  0.00     0.282 C 
ENDBRANCH   7   9
ENDBRANCH   1   7
BRANCH   6  11
ATOM     11  O   UNL     1       4.432  -2.924  48.627  1.00  0.00    -0.507 OA
ATOM     12  H   UNL     1       4.310  -3.906  48.411  1.00  0.00     0.293 HD
ENDBRANCH   6  11
TORSDOF 3
ENDMDL
MODEL 6
REMARK VINA RESULT:    -4.718      2.349      3.079
REMARK INTER + INTRA:          -5.602
REMARK INTER:                  -5.318
REMARK INTRA:                  -0.284
REMARK UNBOUND:                -0.195
REMARK SMILES COC(=O)c1ccccc1O
REMARK SMILES IDX 5 1 6 2 7 3 8 4 9 5 10 6 3 7 4 8 2 9 1 10 11 11
REMARK H PARENT 11 12
REMARK Flexibility Score: inf
ROOT
ATOM      1  C   UNL     1       6.790  -2.941  49.297  1.00  0.00     0.101 A 
ATOM      2  C   UNL     1       7.349  -4.208  49.046  1.00  0.00     0.019 A 
ATOM      3  C   UNL     1       6.926  -5.329  49.764  1.00  0.00     0.001 A 
ATOM      4  C   UNL     1       5.940  -5.203  50.742  1.00  0.00     0.004 A 
ATOM      5  C   UNL     1       5.374  -3.955  51.005  1.00  0.00     0.047 A 
ATOM      6  C   UNL     1       5.790  -2.821  50.292  1.00  0.00     0.130 A 
ENDROOT
BRANCH   1   7
ATOM      7  C   UNL     1       7.265  -1.771  48.513  1.00  0.00     0.341 C 
ATOM      8  O   UNL     1       8.494  -1.609  48.279  1.00  0.00    -0.246 OA
BRANCH   7   9
ATOM      9  O   UNL     1       6.339  -0.839  48.029  1.00  0.00    -0.465 OA
ATOM     10  C   UNL     1       6.532  -0.124  46.814  1.00  0.00     0.282 C 
ENDBRANCH   7   9
ENDBRANCH   1   7
BRANCH   6  11
ATOM     11  O   UNL     1       5.207  -1.584  50.574  1.00  0.00    -0.507 OA
ATOM     12  H   UNL     1       4.864  -1.357  51.500  1.00  0.00     0.293 HD
ENDBRANCH   6  11
TORSDOF 3
ENDMDL
MODEL 7
REMARK VINA RESULT:    -4.712      2.084      4.149
REMARK INTER + INTRA:          -5.596
REMARK INTER:                  -5.250
REMARK INTRA:                  -0.346
REMARK UNBOUND:                -0.195
REMARK SMILES COC(=O)c1ccccc1O
REMARK SMILES IDX 5 1 6 2 7 3 8 4 9 5 10 6 3 7 4 8 2 9 1 10 11 11
REMARK H PARENT 11 12
REMARK Flexibility Score: inf
ROOT
ATOM      1  C   UNL     1       6.989  -2.212  48.241  1.00  0.00     0.101 A 
ATOM      2  C   UNL     1       7.019  -0.869  47.821  1.00  0.00     0.019 A 
ATOM      3  C   UNL     1       6.334  -0.466  46.671  1.00  0.00     0.001 A 
ATOM      4  C   UNL     1       5.611  -1.395  45.925  1.00  0.00     0.004 A 
ATOM      5  C   UNL     1       5.570  -2.731  46.326  1.00  0.00     0.047 A 
ATOM      6  C   UNL     1       6.252  -3.150  47.477  1.00  0.00     0.130 A 
ENDROOT
BRANCH   1   7
ATOM      7  C   UNL     1       7.729  -2.605  49.468  1.00  0.00     0.341 C 
ATOM      8  O   UNL     1       7.509  -2.023  50.566  1.00  0.00    -0.246 OA
BRANCH   7   9
ATOM      9  O   UNL     1       8.679  -3.631  49.406  1.00  0.00    -0.465 OA
ATOM     10  C   UNL     1       9.891  -3.512  48.669  1.00  0.00     0.282 C 
ENDBRANCH   7   9
ENDBRANCH   1   7
BRANCH   6  11
ATOM     11  O   UNL     1       6.194  -4.492  47.856  1.00  0.00    -0.507 OA
ATOM     12  H   UNL     1       5.711  -4.788  48.695  1.00  0.00     0.293 HD
ENDBRANCH   6  11
TORSDOF 3
ENDMDL
MODEL 8
REMARK VINA RESULT:    -4.679      1.464      2.180
REMARK INTER + INTRA:          -5.558
REMARK INTER:                  -5.396
REMARK INTRA:                  -0.161
REMARK UNBOUND:                -0.195
REMARK SMILES COC(=O)c1ccccc1O
REMARK SMILES IDX 5 1 6 2 7 3 8 4 9 5 10 6 3 7 4 8 2 9 1 10 11 11
REMARK H PARENT 11 12
REMARK Flexibility Score: inf
ROOT
ATOM      1  C   UNL     1       6.256  -2.112  47.510  1.00  0.00     0.101 A 
ATOM      2  C   UNL     1       5.453  -2.224  48.661  1.00  0.00     0.019 A 
ATOM      3  C   UNL     1       6.033  -2.326  49.929  1.00  0.00     0.001 A 
ATOM      4  C   UNL     1       7.421  -2.318  50.066  1.00  0.00     0.004 A 
ATOM      5  C   UNL     1       8.233  -2.208  48.936  1.00  0.00     0.047 A 
ATOM      6  C   UNL     1       7.664  -2.105  47.659  1.00  0.00     0.130 A 
ENDROOT
BRANCH   1   7
ATOM      7  C   UNL     1       5.603  -2.006  46.179  1.00  0.00     0.341 C 
ATOM      8  O   UNL     1       5.515  -0.892  45.594  1.00  0.00    -0.246 OA
BRANCH   7   9
ATOM      9  O   UNL     1       5.082  -3.153  45.569  1.00  0.00    -0.465 OA
ATOM     10  C   UNL     1       4.492  -3.134  44.275  1.00  0.00     0.282 C 
ENDBRANCH   7   9
ENDBRANCH   1   7
BRANCH   6  11
ATOM     11  O   UNL     1       8.499  -1.996  46.546  1.00  0.00    -0.507 OA
ATOM     12  H   UNL     1       8.206  -2.310  45.628  1.00  0.00     0.293 HD
ENDBRANCH   6  11
TORSDOF 3
ENDMDL
MODEL 9
REMARK VINA RESULT:    -4.631      2.510      3.832
REMARK INTER + INTRA:          -5.502
REMARK INTER:                  -5.146
REMARK INTRA:                  -0.356
REMARK UNBOUND:                -0.195
REMARK SMILES COC(=O)c1ccccc1O
REMARK SMILES IDX 5 1 6 2 7 3 8 4 9 5 10 6 3 7 4 8 2 9 1 10 11 11
REMARK H PARENT 11 12
REMARK Flexibility Score: inf
ROOT
ATOM      1  C   UNL     1       7.863  -2.429  48.458  1.00  0.00     0.101 A 
ATOM      2  C   UNL     1       8.125  -1.481  47.451  1.00  0.00     0.019 A 
ATOM      3  C   UNL     1       7.097  -0.690  46.932  1.00  0.00     0.001 A 
ATOM      4  C   UNL     1       5.794  -0.833  47.408  1.00  0.00     0.004 A 
ATOM      5  C   UNL     1       5.516  -1.768  48.406  1.00  0.00     0.047 A 
ATOM      6  C   UNL     1       6.538  -2.568  48.937  1.00  0.00     0.130 A 
ENDROOT
BRANCH   1   7
ATOM      7  C   UNL     1       8.982  -3.253  48.987  1.00  0.00     0.341 C 
ATOM      8  O   UNL     1      10.062  -2.712  49.350  1.00  0.00    -0.246 OA
BRANCH   7   9
ATOM      9  O   UNL     1       8.834  -4.642  49.083  1.00  0.00    -0.465 OA
ATOM     10  C   UNL     1       8.649  -5.475  47.945  1.00  0.00     0.282 C 
ENDBRANCH   7   9
ENDBRANCH   1   7
BRANCH   6  11
ATOM     11  O   UNL     1       6.232  -3.496  49.934  1.00  0.00    -0.507 OA
ATOM     12  H   UNL     1       6.110  -4.479  49.726  1.00  0.00     0.293 HD
ENDBRANCH   6  11
TORSDOF 3
ENDMDL
