MODEL 1
REMARK VINA RESULT:    -4.343      0.000      0.000
REMARK INTER + INTRA:          -5.587
REMARK INTER:                  -5.359
REMARK INTRA:                  -0.228
REMARK UNBOUND:                -0.228
REMARK SMILES CCCCC=CC(C)=O
REMARK SMILES IDX 4 1 3 2 2 3 1 4 5 5 6 6 7 7 9 8 8 9
REMARK H PARENT
REMARK Flexibility Score: inf
ROOT
ATOM      1  C   UNL     1      15.291  19.269  31.840  1.00  0.00     0.027 C 
ENDROOT
BRANCH   1   2
ATOM      2  C   UNL     1      16.129  18.644  30.718  1.00  0.00     0.004 C 
BRANCH   2   3
ATOM      3  C   UNL     1      15.275  18.397  29.469  1.00  0.00    -0.003 C 
ATOM      4  C   UNL     1      13.828  18.086  29.843  1.00  0.00     0.004 C 
ENDBRANCH   2   3
ENDBRANCH   1   2
BRANCH   1   5
ATOM      5  C   UNL     1      15.988  20.454  32.444  1.00  0.00    -0.023 C 
ATOM      6  C   UNL     1      17.190  20.853  32.011  1.00  0.00     0.042 C 
BRANCH   6   7
ATOM      7  C   UNL     1      17.898  22.006  32.598  1.00  0.00     0.152 C 
ATOM      8  O   UNL     1      19.035  21.865  33.124  1.00  0.00    -0.295 OA
ATOM      9  C   UNL     1      17.260  23.357  32.570  1.00  0.00     0.093 C 
ENDBRANCH   6   7
ENDBRANCH   1   5
TORSDOF 4
ENDMDL
MODEL 2
REMARK VINA RESULT:    -4.030      1.474      2.253
REMARK INTER + INTRA:          -5.200
REMARK INTER:                  -5.002
REMARK INTRA:                  -0.198
REMARK UNBOUND:                -0.228
REMARK SMILES CCCCC=CC(C)=O
REMARK SMILES IDX 4 1 3 2 2 3 1 4 5 5 6 6 7 7 9 8 8 9
REMARK H PARENT
REMARK Flexibility Score: inf
ROOT
ATOM      1  C   UNL     1      15.889  19.130  30.630  1.00  0.00     0.027 C 
ENDROOT
BRANCH   1   2
ATOM      2  C   UNL     1      14.494  18.740  31.136  1.00  0.00     0.004 C 
BRANCH   2   3
ATOM      3  C   UNL     1      14.346  19.051  32.630  1.00  0.00    -0.003 C 
ATOM      4  C   UNL     1      12.925  19.500  32.960  1.00  0.00     0.004 C 
ENDBRANCH   2   3
ENDBRANCH   1   2
BRANCH   1   5
ATOM      5  C   UNL     1      16.633  19.936  31.656  1.00  0.00    -0.023 C 
ATOM      6  C   UNL     1      17.751  20.603  31.345  1.00  0.00     0.042 C 
BRANCH   6   7
ATOM      7  C   UNL     1      18.504  21.389  32.340  1.00  0.00     0.152 C 
ATOM      8  O   UNL     1      18.067  22.499  32.750  1.00  0.00    -0.295 OA
ATOM      9  C   UNL     1      19.801  20.867  32.867  1.00  0.00     0.093 C 
ENDBRANCH   6   7
ENDBRANCH   1   5
TORSDOF 4
ENDMDL
MODEL 3
REMARK VINA RESULT:    -3.677     14.354     15.757
REMARK INTER + INTRA:          -4.765
REMARK INTER:                  -4.592
REMARK INTRA:                  -0.172
REMARK UNBOUND:                -0.228
REMARK SMILES CCCCC=CC(C)=O
REMARK SMILES IDX 4 1 3 2 2 3 1 4 5 5 6 6 7 7 9 8 8 9
REMARK H PARENT
REMARK Flexibility Score: inf
ROOT
ATOM      1  C   UNL     1      14.440  15.248  15.599  1.00  0.00     0.027 C 
ENDROOT
BRANCH   1   2
ATOM      2  C   UNL     1      15.135  14.029  16.219  1.00  0.00     0.004 C 
BRANCH   2   3
ATOM      3  C   UNL     1      14.402  12.733  15.850  1.00  0.00    -0.003 C 
ATOM      4  C   UNL     1      12.943  13.008  15.498  1.00  0.00     0.004 C 
ENDBRANCH   2   3
ENDBRANCH   1   2
BRANCH   1   5
ATOM      5  C   UNL     1      14.861  16.518  16.280  1.00  0.00    -0.023 C 
ATOM      6  C   UNL     1      13.993  17.254  16.985  1.00  0.00     0.042 C 
BRANCH   6   7
ATOM      7  C   UNL     1      14.382  18.511  17.651  1.00  0.00     0.152 C 
ATOM      8  O   UNL     1      15.516  18.632  18.189  1.00  0.00    -0.295 OA
ATOM      9  C   UNL     1      13.422  19.655  17.690  1.00  0.00     0.093 C 
ENDBRANCH   6   7
ENDBRANCH   1   5
TORSDOF 4
ENDMDL
MODEL 4
REMARK VINA RESULT:    -3.629     14.473     15.617
REMARK INTER + INTRA:          -4.706
REMARK INTER:                  -4.542
REMARK INTRA:                  -0.164
REMARK UNBOUND:                -0.228
REMARK SMILES CCCCC=CC(C)=O
REMARK SMILES IDX 4 1 3 2 2 3 1 4 5 5 6 6 7 7 9 8 8 9
REMARK H PARENT
REMARK Flexibility Score: inf
ROOT
ATOM      1  C   UNL     1      15.649  16.171  15.911  1.00  0.00     0.027 C 
ENDROOT
BRANCH   1   2
ATOM      2  C   UNL     1      14.490  15.169  15.836  1.00  0.00     0.004 C 
BRANCH   2   3
ATOM      3  C   UNL     1      14.968  13.751  16.169  1.00  0.00    -0.003 C 
ATOM      4  C   UNL     1      13.841  12.736  16.004  1.00  0.00     0.004 C 
ENDBRANCH   2   3
ENDBRANCH   1   2
BRANCH   1   5
ATOM      5  C   UNL     1      15.188  17.497  16.445  1.00  0.00    -0.023 C 
ATOM      6  C   UNL     1      14.044  17.615  17.129  1.00  0.00     0.042 C 
BRANCH   6   7
ATOM      7  C   UNL     1      13.566  18.909  17.651  1.00  0.00     0.152 C 
ATOM      8  O   UNL     1      14.368  19.863  17.843  1.00  0.00    -0.295 OA
ATOM      9  C   UNL     1      12.115  19.093  17.957  1.00  0.00     0.093 C 
ENDBRANCH   6   7
ENDBRANCH   1   5
TORSDOF 4
ENDMDL
MODEL 5
REMARK VINA RESULT:    -3.612     14.877     16.109
REMARK INTER + INTRA:          -4.684
REMARK INTER:                  -4.497
REMARK INTRA:                  -0.188
REMARK UNBOUND:                -0.228
REMARK SMILES CCCCC=CC(C)=O
REMARK SMILES IDX 4 1 3 2 2 3 1 4 5 5 6 6 7 7 9 8 8 9
REMARK H PARENT
REMARK Flexibility Score: inf
ROOT
ATOM      1  C   UNL     1      15.043  18.419  17.598  1.00  0.00     0.027 C 
ENDROOT
BRANCH   1   2
ATOM      2  C   UNL     1      14.046  19.574  17.757  1.00  0.00     0.004 C 
BRANCH   2   3
ATOM      3  C   UNL     1      12.608  19.050  17.835  1.00  0.00    -0.003 C 
ATOM      4  C   UNL     1      11.602  20.147  17.496  1.00  0.00     0.004 C 
ENDBRANCH   2   3
ENDBRANCH   1   2
BRANCH   1   5
ATOM      5  C   UNL     1      14.380  17.205  17.012  1.00  0.00    -0.023 C 
ATOM      6  C   UNL     1      15.045  16.362  16.213  1.00  0.00     0.042 C 
BRANCH   6   7
ATOM      7  C   UNL     1      14.410  15.172  15.617  1.00  0.00     0.152 C 
ATOM      8  O   UNL     1      13.519  15.292  14.732  1.00  0.00    -0.295 OA
ATOM      9  C   UNL     1      14.824  13.809  16.067  1.00  0.00     0.093 C 
ENDBRANCH   6   7
ENDBRANCH   1   5
TORSDOF 4
ENDMDL
MODEL 6
REMARK VINA RESULT:    -3.538     15.091     16.937
REMARK INTER + INTRA:          -4.594
REMARK INTER:                  -4.433
REMARK INTRA:                  -0.161
REMARK UNBOUND:                -0.228
REMARK SMILES CCCCC=CC(C)=O
REMARK SMILES IDX 4 1 3 2 2 3 1 4 5 5 6 6 7 7 9 8 8 9
REMARK H PARENT
REMARK Flexibility Score: inf
ROOT
ATOM      1  C   UNL     1      11.184  20.001  17.083  1.00  0.00     0.027 C 
ENDROOT
BRANCH   1   2
ATOM      2  C   UNL     1      12.191  19.592  18.166  1.00  0.00     0.004 C 
BRANCH   2   3
ATOM      3  C   UNL     1      13.621  19.594  17.613  1.00  0.00    -0.003 C 
ATOM      4  C   UNL     1      14.173  18.175  17.508  1.00  0.00     0.004 C 
ENDBRANCH   2   3
ENDBRANCH   1   2
BRANCH   1   5
ATOM      5  C   UNL     1      10.554  18.797  16.444  1.00  0.00    -0.023 C 
ATOM      6  C   UNL     1       9.239  18.743  16.199  1.00  0.00     0.042 C 
BRANCH   6   7
ATOM      7  C   UNL     1       8.598  17.566  15.584  1.00  0.00     0.152 C 
ATOM      8  O   UNL     1       9.081  17.036  14.547  1.00  0.00    -0.295 OA
ATOM      9  C   UNL     1       7.361  16.994  16.196  1.00  0.00     0.093 C 
ENDBRANCH   6   7
ENDBRANCH   1   5
TORSDOF 4
ENDMDL
MODEL 7
REMARK VINA RESULT:    -3.535     14.654     15.982
REMARK INTER + INTRA:          -4.590
REMARK INTER:                  -4.390
REMARK INTRA:                  -0.199
REMARK UNBOUND:                -0.228
REMARK SMILES CCCCC=CC(C)=O
REMARK SMILES IDX 4 1 3 2 2 3 1 4 5 5 6 6 7 7 9 8 8 9
REMARK H PARENT
REMARK Flexibility Score: inf
ROOT
ATOM      1  C   UNL     1      14.521  18.810  17.760  1.00  0.00     0.027 C 
ENDROOT
BRANCH   1   2
ATOM      2  C   UNL     1      13.457  19.885  17.504  1.00  0.00     0.004 C 
BRANCH   2   3
ATOM      3  C   UNL     1      12.099  19.460  18.075  1.00  0.00    -0.003 C 
ATOM      4  C   UNL     1      11.004  19.551  17.017  1.00  0.00     0.004 C 
ENDBRANCH   2   3
ENDBRANCH   1   2
BRANCH   1   5
ATOM      5  C   UNL     1      14.125  17.497  17.149  1.00  0.00    -0.023 C 
ATOM      6  C   UNL     1      14.980  16.786  16.404  1.00  0.00     0.042 C 
BRANCH   6   7
ATOM      7  C   UNL     1      14.608  15.501  15.783  1.00  0.00     0.152 C 
ATOM      8  O   UNL     1      15.118  14.420  16.184  1.00  0.00    -0.295 OA
ATOM      9  C   UNL     1      13.618  15.480  14.664  1.00  0.00     0.093 C 
ENDBRANCH   6   7
ENDBRANCH   1   5
TORSDOF 4
ENDMDL
MODEL 8
REMARK VINA RESULT:    -3.496     14.111     15.594
REMARK INTER + INTRA:          -4.542
REMARK INTER:                  -4.303
REMARK INTRA:                  -0.239
REMARK UNBOUND:                -0.228
REMARK SMILES CCCCC=CC(C)=O
REMARK SMILES IDX 4 1 3 2 2 3 1 4 5 5 6 6 7 7 9 8 8 9
REMARK H PARENT
REMARK Flexibility Score: inf
ROOT
ATOM      1  C   UNL     1      11.182  19.895  17.466  1.00  0.00     0.027 C 
ENDROOT
BRANCH   1   2
ATOM      2  C   UNL     1      10.756  19.549  16.033  1.00  0.00     0.004 C 
BRANCH   2   3
ATOM      3  C   UNL     1       9.232  19.425  15.928  1.00  0.00    -0.003 C 
ATOM      4  C   UNL     1       8.774  18.000  16.230  1.00  0.00     0.004 C 
ENDBRANCH   2   3
ENDBRANCH   1   2
BRANCH   1   5
ATOM      5  C   UNL     1      12.517  19.293  17.796  1.00  0.00    -0.023 C 
ATOM      6  C   UNL     1      13.144  18.473  16.945  1.00  0.00     0.042 C 
BRANCH   6   7
ATOM      7  C   UNL     1      14.450  17.861  17.255  1.00  0.00     0.152 C 
ATOM      8  O   UNL     1      14.775  16.748  16.757  1.00  0.00    -0.295 OA
ATOM      9  C   UNL     1      15.398  18.565  18.170  1.00  0.00     0.093 C 
ENDBRANCH   6   7
ENDBRANCH   1   5
TORSDOF 4
ENDMDL
MODEL 9
REMARK VINA RESULT:    -3.441     14.435     15.662
REMARK INTER + INTRA:          -4.474
REMARK INTER:                  -4.243
REMARK INTRA:                  -0.231
REMARK UNBOUND:                -0.228
REMARK SMILES CCCCC=CC(C)=O
REMARK SMILES IDX 4 1 3 2 2 3 1 4 5 5 6 6 7 7 9 8 8 9
REMARK H PARENT
REMARK Flexibility Score: inf
ROOT
ATOM      1  C   UNL     1      11.730  19.806  16.717  1.00  0.00     0.027 C 
ENDROOT
BRANCH   1   2
ATOM      2  C   UNL     1      12.560  19.306  17.906  1.00  0.00     0.004 C 
BRANCH   2   3
ATOM      3  C   UNL     1      13.698  18.392  17.435  1.00  0.00    -0.003 C 
ATOM      4  C   UNL     1      15.044  18.866  17.974  1.00  0.00     0.004 C 
ENDBRANCH   2   3
ENDBRANCH   1   2
BRANCH   1   5
ATOM      5  C   UNL     1      11.708  21.307  16.663  1.00  0.00    -0.023 C 
ATOM      6  C   UNL     1      12.618  21.995  15.963  1.00  0.00     0.042 C 
BRANCH   6   7
ATOM      7  C   UNL     1      12.622  23.468  15.907  1.00  0.00     0.152 C 
ATOM      8  O   UNL     1      13.497  24.086  15.240  1.00  0.00    -0.295 OA
ATOM      9  C   UNL     1      11.581  24.240  16.650  1.00  0.00     0.093 C 
ENDBRANCH   6   7
ENDBRANCH   1   5
TORSDOF 4
ENDMDL
