MODEL 1
REMARK VINA RESULT:    -3.954      0.000      0.000
REMARK INTER + INTRA:          -5.783
REMARK INTER:                  -5.341
REMARK INTRA:                  -0.442
REMARK UNBOUND:                -0.442
REMARK SMILES [NH3+]CCCC[C@@H]([NH3+])C(=O)[O-]
REMARK SMILES IDX 4 1 3 2 2 3 1 4 5 8 6 9 7 10 8 14 9 15 10 16
REMARK H PARENT 1 5 1 6 1 7 7 11 7 12 7 13
REMARK Flexibility Score: inf
ROOT
ATOM      1  C   UNL     1      38.716  45.760  66.928  1.00  0.00     0.012 C 
ENDROOT
BRANCH   1   2
ATOM      2  C   UNL     1      38.933  45.866  65.408  1.00  0.00     0.061 C 
BRANCH   2   3
ATOM      3  C   UNL     1      37.647  45.800  64.561  1.00  0.00     0.258 C 
BRANCH   3   4
ATOM      4  N   UNL     1      36.442  45.684  65.385  1.00  0.00    -0.358 N 
ATOM      5  H   UNL     1      35.696  46.322  65.026  1.00  0.00     0.344 HD
ATOM      6  H   UNL     1      36.658  45.909  66.384  1.00  0.00     0.344 HD
ATOM      7  H   UNL     1      36.087  44.702  65.331  1.00  0.00     0.344 HD
ENDBRANCH   3   4
ENDBRANCH   2   3
ENDBRANCH   1   2
BRANCH   1   8
ATOM      8  C   UNL     1      39.102  47.047  67.679  1.00  0.00     0.072 C 
BRANCH   8   9
ATOM      9  C   UNL     1      37.878  47.781  68.271  1.00  0.00     0.227 C 
BRANCH   9  10
ATOM     10  N   UNL     1      37.123  48.507  67.239  1.00  0.00    -0.350 N 
ATOM     11  H   UNL     1      36.104  48.284  67.320  1.00  0.00     0.345 HD
ATOM     12  H   UNL     1      37.229  49.538  67.372  1.00  0.00     0.345 HD
ATOM     13  H   UNL     1      37.453  48.244  66.281  1.00  0.00     0.345 HD
ENDBRANCH   9  10
BRANCH   9  14
ATOM     14  C   UNL     1      36.981  46.790  68.966  1.00  0.00     0.099 C 
ATOM     15  O   UNL     1      37.261  46.378  70.123  1.00  0.00    -0.544 OA
ATOM     16  O   UNL     1      35.826  46.340  68.339  1.00  0.00    -0.544 OA
ENDBRANCH   9  14
ENDBRANCH   8   9
ENDBRANCH   1   8
TORSDOF 7
ENDMDL
MODEL 2
REMARK VINA RESULT:    -3.854      2.654      4.477
REMARK INTER + INTRA:          -5.648
REMARK INTER:                  -5.517
REMARK INTRA:                  -0.131
REMARK UNBOUND:                -0.442
REMARK SMILES [NH3+]CCCC[C@@H]([NH3+])C(=O)[O-]
REMARK SMILES IDX 4 1 3 2 2 3 1 4 5 8 6 9 7 10 8 14 9 15 10 16
REMARK H PARENT 1 5 1 6 1 7 7 11 7 12 7 13
REMARK Flexibility Score: inf
ROOT
ATOM      1  C   UNL     1      36.129  46.725  68.850  1.00  0.00     0.012 C 
ENDROOT
BRANCH   1   2
ATOM      2  C   UNL     1      35.897  47.828  69.898  1.00  0.00     0.061 C 
BRANCH   2   3
ATOM      3  C   UNL     1      34.442  48.325  70.008  1.00  0.00     0.258 C 
BRANCH   3   4
ATOM      4  N   UNL     1      33.916  48.799  68.726  1.00  0.00    -0.358 N 
ATOM      5  H   UNL     1      33.295  49.626  68.873  1.00  0.00     0.344 HD
ATOM      6  H   UNL     1      33.391  48.035  68.241  1.00  0.00     0.344 HD
ATOM      7  H   UNL     1      34.716  49.094  68.120  1.00  0.00     0.344 HD
ENDBRANCH   3   4
ENDBRANCH   2   3
ENDBRANCH   1   2
BRANCH   1   8
ATOM      8  C   UNL     1      37.279  47.052  67.881  1.00  0.00     0.072 C 
BRANCH   8   9
ATOM      9  C   UNL     1      37.999  45.787  67.363  1.00  0.00     0.227 C 
BRANCH   9  10
ATOM     10  N   UNL     1      37.372  44.555  67.865  1.00  0.00    -0.350 N 
ATOM     11  H   UNL     1      36.338  44.693  67.951  1.00  0.00     0.345 HD
ATOM     12  H   UNL     1      37.527  43.771  67.193  1.00  0.00     0.345 HD
ATOM     13  H   UNL     1      37.759  44.294  68.800  1.00  0.00     0.345 HD
ENDBRANCH   9  10
BRANCH   9  14
ATOM     14  C   UNL     1      38.003  45.789  65.856  1.00  0.00     0.099 C 
ATOM     15  O   UNL     1      36.922  45.696  65.216  1.00  0.00    -0.544 OA
ATOM     16  O   UNL     1      39.201  45.912  65.165  1.00  0.00    -0.544 OA
ENDBRANCH   9  14
ENDBRANCH   8   9
ENDBRANCH   1   8
TORSDOF 7
ENDMDL
MODEL 3
REMARK VINA RESULT:    -3.823      2.119      3.846
REMARK INTER + INTRA:          -5.606
REMARK INTER:                  -5.040
REMARK INTRA:                  -0.566
REMARK UNBOUND:                -0.442
REMARK SMILES [NH3+]CCCC[C@@H]([NH3+])C(=O)[O-]
REMARK SMILES IDX 4 1 3 2 2 3 1 4 5 8 6 9 7 10 8 14 9 15 10 16
REMARK H PARENT 1 5 1 6 1 7 7 11 7 12 7 13
REMARK Flexibility Score: inf
ROOT
ATOM      1  C   UNL     1      37.538  46.586  69.656  1.00  0.00     0.012 C 
ENDROOT
BRANCH   1   2
ATOM      2  C   UNL     1      36.770  47.892  69.384  1.00  0.00     0.061 C 
BRANCH   2   3
ATOM      3  C   UNL     1      37.510  48.909  68.491  1.00  0.00     0.258 C 
BRANCH   3   4
ATOM      4  N   UNL     1      36.836  49.117  67.208  1.00  0.00    -0.358 N 
ATOM      5  H   UNL     1      35.975  48.529  67.152  1.00  0.00     0.344 HD
ATOM      6  H   UNL     1      37.480  48.891  66.415  1.00  0.00     0.344 HD
ATOM      7  H   UNL     1      36.552  50.121  67.133  1.00  0.00     0.344 HD
ENDBRANCH   3   4
ENDBRANCH   2   3
ENDBRANCH   1   2
BRANCH   1   8
ATOM      8  C   UNL     1      38.754  46.402  68.730  1.00  0.00     0.072 C 
BRANCH   8   9
ATOM      9  C   UNL     1      38.551  45.269  67.700  1.00  0.00     0.227 C 
BRANCH   9  10
ATOM     10  N   UNL     1      37.464  44.359  68.092  1.00  0.00    -0.350 N 
ATOM     11  H   UNL     1      36.809  44.221  67.289  1.00  0.00     0.345 HD
ATOM     12  H   UNL     1      37.850  43.422  68.344  1.00  0.00     0.345 HD
ATOM     13  H   UNL     1      36.930  44.745  68.905  1.00  0.00     0.345 HD
ENDBRANCH   9  10
BRANCH   9  14
ATOM     14  C   UNL     1      38.265  45.862  66.345  1.00  0.00     0.099 C 
ATOM     15  O   UNL     1      37.109  46.273  66.060  1.00  0.00    -0.544 OA
ATOM     16  O   UNL     1      39.284  45.976  65.408  1.00  0.00    -0.544 OA
ENDBRANCH   9  14
ENDBRANCH   8   9
ENDBRANCH   1   8
TORSDOF 7
ENDMDL
MODEL 4
REMARK VINA RESULT:    -3.650      3.303      4.135
REMARK INTER + INTRA:          -5.372
REMARK INTER:                  -5.289
REMARK INTRA:                  -0.083
REMARK UNBOUND:                -0.442
REMARK SMILES [NH3+]CCCC[C@@H]([NH3+])C(=O)[O-]
REMARK SMILES IDX 4 1 3 2 2 3 1 4 5 8 6 9 7 10 8 14 9 15 10 16
REMARK H PARENT 1 5 1 6 1 7 7 11 7 12 7 13
REMARK Flexibility Score: inf
ROOT
ATOM      1  C   UNL     1      39.457  45.348  68.523  1.00  0.00     0.012 C 
ENDROOT
BRANCH   1   2
ATOM      2  C   UNL     1      40.282  45.595  69.798  1.00  0.00     0.061 C 
BRANCH   2   3
ATOM      3  C   UNL     1      41.584  44.778  69.900  1.00  0.00     0.258 C 
BRANCH   3   4
ATOM      4  N   UNL     1      41.508  43.514  69.166  1.00  0.00    -0.358 N 
ATOM      5  H   UNL     1      40.741  43.552  68.458  1.00  0.00     0.344 HD
ATOM      6  H   UNL     1      41.350  42.716  69.825  1.00  0.00     0.344 HD
ATOM      7  H   UNL     1      42.411  43.359  68.662  1.00  0.00     0.344 HD
ENDBRANCH   3   4
ENDBRANCH   2   3
ENDBRANCH   1   2
BRANCH   1   8
ATOM      8  C   UNL     1      39.175  46.638  67.732  1.00  0.00     0.072 C 
BRANCH   8   9
ATOM      9  C   UNL     1      37.790  46.626  67.047  1.00  0.00     0.227 C 
BRANCH   9  10
ATOM     10  N   UNL     1      37.197  47.970  66.986  1.00  0.00    -0.350 N 
ATOM     11  H   UNL     1      36.304  47.990  67.530  1.00  0.00     0.345 HD
ATOM     12  H   UNL     1      37.842  48.669  67.419  1.00  0.00     0.345 HD
ATOM     13  H   UNL     1      36.999  48.246  65.997  1.00  0.00     0.345 HD
ENDBRANCH   9  10
BRANCH   9  14
ATOM     14  C   UNL     1      37.916  46.053  65.659  1.00  0.00     0.099 C 
ATOM     15  O   UNL     1      39.053  45.865  65.148  1.00  0.00    -0.544 OA
ATOM     16  O   UNL     1      36.777  45.711  64.943  1.00  0.00    -0.544 OA
ENDBRANCH   9  14
ENDBRANCH   8   9
ENDBRANCH   1   8
TORSDOF 7
ENDMDL
MODEL 5
REMARK VINA RESULT:    -3.562      2.447      3.952
REMARK INTER + INTRA:          -5.253
REMARK INTER:                  -4.812
REMARK INTRA:                  -0.441
REMARK UNBOUND:                -0.442
REMARK SMILES [NH3+]CCCC[C@@H]([NH3+])C(=O)[O-]
REMARK SMILES IDX 4 1 3 2 2 3 1 4 5 8 6 9 7 10 8 14 9 15 10 16
REMARK H PARENT 1 5 1 6 1 7 7 11 7 12 7 13
REMARK Flexibility Score: inf
ROOT
ATOM      1  C   UNL     1      36.234  46.877  68.942  1.00  0.00     0.012 C 
ENDROOT
BRANCH   1   2
ATOM      2  C   UNL     1      35.900  48.319  69.364  1.00  0.00     0.061 C 
BRANCH   2   3
ATOM      3  C   UNL     1      36.488  49.416  68.454  1.00  0.00     0.258 C 
BRANCH   3   4
ATOM      4  N   UNL     1      36.954  48.886  67.172  1.00  0.00    -0.358 N 
ATOM      5  H   UNL     1      37.751  48.227  67.321  1.00  0.00     0.344 HD
ATOM      6  H   UNL     1      37.245  49.666  66.537  1.00  0.00     0.344 HD
ATOM      7  H   UNL     1      36.174  48.358  66.718  1.00  0.00     0.344 HD
ENDBRANCH   3   4
ENDBRANCH   2   3
ENDBRANCH   1   2
BRANCH   1   8
ATOM      8  C   UNL     1      37.444  46.298  69.696  1.00  0.00     0.072 C 
BRANCH   8   9
ATOM      9  C   UNL     1      38.253  45.295  68.843  1.00  0.00     0.227 C 
BRANCH   9  10
ATOM     10  N   UNL     1      37.396  44.246  68.271  1.00  0.00    -0.350 N 
ATOM     11  H   UNL     1      37.125  44.503  67.293  1.00  0.00     0.345 HD
ATOM     12  H   UNL     1      37.915  43.341  68.223  1.00  0.00     0.345 HD
ATOM     13  H   UNL     1      36.528  44.121  68.842  1.00  0.00     0.345 HD
ENDBRANCH   9  10
BRANCH   9  14
ATOM     14  C   UNL     1      38.973  46.031  67.744  1.00  0.00     0.099 C 
ATOM     15  O   UNL     1      39.039  45.542  66.585  1.00  0.00    -0.544 OA
ATOM     16  O   UNL     1      39.553  47.267  68.000  1.00  0.00    -0.544 OA
ENDBRANCH   9  14
ENDBRANCH   8   9
ENDBRANCH   1   8
TORSDOF 7
ENDMDL
MODEL 6
REMARK VINA RESULT:    -3.555      1.915      2.440
REMARK INTER + INTRA:          -5.244
REMARK INTER:                  -4.722
REMARK INTRA:                  -0.522
REMARK UNBOUND:                -0.442
REMARK SMILES [NH3+]CCCC[C@@H]([NH3+])C(=O)[O-]
REMARK SMILES IDX 4 1 3 2 2 3 1 4 5 8 6 9 7 10 8 14 9 15 10 16
REMARK H PARENT 1 5 1 6 1 7 7 11 7 12 7 13
REMARK Flexibility Score: inf
ROOT
ATOM      1  C   UNL     1      39.122  47.516  68.576  1.00  0.00     0.012 C 
ENDROOT
BRANCH   1   2
ATOM      2  C   UNL     1      39.308  45.990  68.517  1.00  0.00     0.061 C 
BRANCH   2   3
ATOM      3  C   UNL     1      38.399  45.262  67.507  1.00  0.00     0.258 C 
BRANCH   3   4
ATOM      4  N   UNL     1      37.428  44.385  68.164  1.00  0.00    -0.358 N 
ATOM      5  H   UNL     1      36.897  43.834  67.452  1.00  0.00     0.344 HD
ATOM      6  H   UNL     1      36.767  44.945  68.752  1.00  0.00     0.344 HD
ATOM      7  H   UNL     1      37.939  43.714  68.782  1.00  0.00     0.344 HD
ENDBRANCH   3   4
ENDBRANCH   2   3
ENDBRANCH   1   2
BRANCH   1   8
ATOM      8  C   UNL     1      37.967  47.944  69.499  1.00  0.00     0.072 C 
BRANCH   8   9
ATOM      9  C   UNL     1      36.777  48.551  68.722  1.00  0.00     0.227 C 
BRANCH   9  10
ATOM     10  N   UNL     1      37.024  48.573  67.272  1.00  0.00    -0.350 N 
ATOM     11  H   UNL     1      37.843  47.964  67.042  1.00  0.00     0.345 HD
ATOM     12  H   UNL     1      36.198  48.192  66.759  1.00  0.00     0.345 HD
ATOM     13  H   UNL     1      37.220  49.546  66.943  1.00  0.00     0.345 HD
ENDBRANCH   9  10
BRANCH   9  14
ATOM     14  C   UNL     1      35.526  47.768  69.021  1.00  0.00     0.099 C 
ATOM     15  O   UNL     1      35.428  46.562  68.668  1.00  0.00    -0.544 OA
ATOM     16  O   UNL     1      34.478  48.368  69.708  1.00  0.00    -0.544 OA
ENDBRANCH   9  14
ENDBRANCH   8   9
ENDBRANCH   1   8
TORSDOF 7
ENDMDL
MODEL 7
REMARK VINA RESULT:    -3.521      2.484      4.154
REMARK INTER + INTRA:          -5.198
REMARK INTER:                  -5.010
REMARK INTRA:                  -0.188
REMARK UNBOUND:                -0.442
REMARK SMILES [NH3+]CCCC[C@@H]([NH3+])C(=O)[O-]
REMARK SMILES IDX 4 1 3 2 2 3 1 4 5 8 6 9 7 10 8 14 9 15 10 16
REMARK H PARENT 1 5 1 6 1 7 7 11 7 12 7 13
REMARK Flexibility Score: inf
ROOT
ATOM      1  C   UNL     1      35.889  47.124  68.891  1.00  0.00     0.012 C 
ENDROOT
BRANCH   1   2
ATOM      2  C   UNL     1      36.276  48.611  68.978  1.00  0.00     0.061 C 
BRANCH   2   3
ATOM      3  C   UNL     1      35.099  49.599  68.855  1.00  0.00     0.258 C 
BRANCH   3   4
ATOM      4  N   UNL     1      33.804  48.918  68.801  1.00  0.00    -0.358 N 
ATOM      5  H   UNL     1      33.814  48.178  68.064  1.00  0.00     0.344 HD
ATOM      6  H   UNL     1      33.037  49.605  68.611  1.00  0.00     0.344 HD
ATOM      7  H   UNL     1      33.623  48.459  69.723  1.00  0.00     0.344 HD
ENDBRANCH   3   4
ENDBRANCH   2   3
ENDBRANCH   1   2
BRANCH   1   8
ATOM      8  C   UNL     1      37.108  46.186  68.901  1.00  0.00     0.072 C 
BRANCH   8   9
ATOM      9  C   UNL     1      37.445  45.632  67.498  1.00  0.00     0.227 C 
BRANCH   9  10
ATOM     10  N   UNL     1      36.351  45.862  66.542  1.00  0.00    -0.350 N 
ATOM     11  H   UNL     1      36.729  46.296  65.668  1.00  0.00     0.345 HD
ATOM     12  H   UNL     1      35.908  44.955  66.274  1.00  0.00     0.345 HD
ATOM     13  H   UNL     1      35.626  46.497  66.950  1.00  0.00     0.345 HD
ENDBRANCH   9  10
BRANCH   9  14
ATOM     14  C   UNL     1      38.714  46.267  66.994  1.00  0.00     0.099 C 
ATOM     15  O   UNL     1      39.074  46.111  65.797  1.00  0.00    -0.544 OA
ATOM     16  O   UNL     1      39.486  47.047  67.846  1.00  0.00    -0.544 OA
ENDBRANCH   9  14
ENDBRANCH   8   9
ENDBRANCH   1   8
TORSDOF 7
ENDMDL
MODEL 8
REMARK VINA RESULT:    -3.365      1.714      2.169
REMARK INTER + INTRA:          -4.988
REMARK INTER:                  -4.765
REMARK INTRA:                  -0.223
REMARK UNBOUND:                -0.442
REMARK SMILES [NH3+]CCCC[C@@H]([NH3+])C(=O)[O-]
REMARK SMILES IDX 4 1 3 2 2 3 1 4 5 8 6 9 7 10 8 14 9 15 10 16
REMARK H PARENT 1 5 1 6 1 7 7 11 7 12 7 13
REMARK Flexibility Score: inf
ROOT
ATOM      1  C   UNL     1      38.971  46.523  68.041  1.00  0.00     0.012 C 
ENDROOT
BRANCH   1   2
ATOM      2  C   UNL     1      38.934  45.417  66.971  1.00  0.00     0.061 C 
BRANCH   2   3
ATOM      3  C   UNL     1      38.972  45.918  65.514  1.00  0.00     0.258 C 
BRANCH   3   4
ATOM      4  N   UNL     1      37.635  46.032  64.928  1.00  0.00    -0.358 N 
ATOM      5  H   UNL     1      37.698  46.404  63.954  1.00  0.00     0.344 HD
ATOM      6  H   UNL     1      37.030  46.654  65.513  1.00  0.00     0.344 HD
ATOM      7  H   UNL     1      37.200  45.082  64.888  1.00  0.00     0.344 HD
ENDBRANCH   3   4
ENDBRANCH   2   3
ENDBRANCH   1   2
BRANCH   1   8
ATOM      8  C   UNL     1      37.759  46.480  68.989  1.00  0.00     0.072 C 
BRANCH   8   9
ATOM      9  C   UNL     1      36.496  47.120  68.369  1.00  0.00     0.227 C 
BRANCH   9  10
ATOM     10  N   UNL     1      35.540  46.103  67.904  1.00  0.00    -0.350 N 
ATOM     11  H   UNL     1      35.097  46.416  67.009  1.00  0.00     0.345 HD
ATOM     12  H   UNL     1      36.035  45.204  67.710  1.00  0.00     0.345 HD
ATOM     13  H   UNL     1      34.791  45.942  68.616  1.00  0.00     0.345 HD
ENDBRANCH   9  10
BRANCH   9  14
ATOM     14  C   UNL     1      35.839  48.023  69.380  1.00  0.00     0.099 C 
ATOM     15  O   UNL     1      34.603  47.930  69.610  1.00  0.00    -0.544 OA
ATOM     16  O   UNL     1      36.599  48.952  70.079  1.00  0.00    -0.544 OA
ENDBRANCH   9  14
ENDBRANCH   8   9
ENDBRANCH   1   8
TORSDOF 7
ENDMDL
MODEL 9
REMARK VINA RESULT:    -3.231      3.090      4.094
REMARK INTER + INTRA:          -4.806
REMARK INTER:                  -4.272
REMARK INTRA:                  -0.535
REMARK UNBOUND:                -0.442
REMARK SMILES [NH3+]CCCC[C@@H]([NH3+])C(=O)[O-]
REMARK SMILES IDX 4 1 3 2 2 3 1 4 5 8 6 9 7 10 8 14 9 15 10 16
REMARK H PARENT 1 5 1 6 1 7 7 11 7 12 7 13
REMARK Flexibility Score: inf
ROOT
ATOM      1  C   UNL     1      35.497  47.184  68.945  1.00  0.00     0.012 C 
ENDROOT
BRANCH   1   2
ATOM      2  C   UNL     1      36.987  46.886  69.190  1.00  0.00     0.061 C 
BRANCH   2   3
ATOM      3  C   UNL     1      37.926  47.265  68.027  1.00  0.00     0.258 C 
BRANCH   3   4
ATOM      4  N   UNL     1      37.198  47.525  66.784  1.00  0.00    -0.358 N 
ATOM      5  H   UNL     1      37.787  48.090  66.132  1.00  0.00     0.344 HD
ATOM      6  H   UNL     1      36.300  48.025  66.984  1.00  0.00     0.344 HD
ATOM      7  H   UNL     1      36.979  46.613  66.321  1.00  0.00     0.344 HD
ENDBRANCH   3   4
ENDBRANCH   2   3
ENDBRANCH   1   2
BRANCH   1   8
ATOM      8  C   UNL     1      34.978  48.371  69.776  1.00  0.00     0.072 C 
BRANCH   8   9
ATOM      9  C   UNL     1      34.610  49.593  68.905  1.00  0.00     0.227 C 
BRANCH   9  10
ATOM     10  N   UNL     1      33.694  50.507  69.603  1.00  0.00    -0.350 N 
ATOM     11  H   UNL     1      32.758  50.499  69.133  1.00  0.00     0.345 HD
ATOM     12  H   UNL     1      33.551  50.193  70.588  1.00  0.00     0.345 HD
ATOM     13  H   UNL     1      34.067  51.484  69.599  1.00  0.00     0.345 HD
ENDBRANCH   9  10
BRANCH   9  14
ATOM     14  C   UNL     1      35.864  50.325  68.504  1.00  0.00     0.099 C 
ATOM     15  O   UNL     1      36.624  50.816  69.381  1.00  0.00    -0.544 OA
ATOM     16  O   UNL     1      36.199  50.444  67.161  1.00  0.00    -0.544 OA
ENDBRANCH   9  14
ENDBRANCH   8   9
ENDBRANCH   1   8
TORSDOF 7
ENDMDL
