MODEL 1
REMARK VINA RESULT:    -3.156      0.000      0.000
REMARK INTER + INTRA:          -3.798
REMARK INTER:                  -4.816
REMARK INTRA:                   1.018
REMARK UNBOUND:                 1.018
REMARK SMILES CC1=CCC[C@H](C)C(=O)C[C@H](C(C)C)C(=O)C1
REMARK SMILES IDX 8 1 9 2 6 3 7 4 5 5 4 6 3 7 2 8 1 9 10 11 11 12 15 13 16 14
REMARK SMILES IDX 17 15 12 17 13 18 14 19
REMARK H PARENT
REMARK Flexibility Score: 70.00
ROOT
ATOM      1  C   UNL     1      -3.111  29.590  27.550  1.00  0.00     0.136 C 
ATOM      2  O   UNL     1      -2.119  30.182  27.151  1.00  0.00    -0.299 OA
ENDROOT
BRANCH   1   3
ATOM      3  C   UNL     1      -4.324  30.383  28.005  1.00  0.00     0.053 C 
ATOM      4  C   UNL     1      -4.601  31.544  27.039  1.00  0.00     0.016 C 
BRANCH   3   5
ATOM      5  C   UNL     1      -5.555  29.457  28.121  1.00  0.00     0.015 C 
BRANCH   5   6
ATOM      6  C   UNL     1      -5.703  28.862  29.537  1.00  0.00     0.028 C 
BRANCH   6   7
ATOM      7  C   UNL     1      -4.658  29.426  30.467  1.00  0.00    -0.028 C 
ATOM      8  C   UNL     1      -3.579  28.744  30.918  1.00  0.00    -0.070 CG0
ATOM      9  C   UNL     1      -2.674  29.427  31.911  1.00  0.00     0.039 C 
ATOM     10  G   UNL     1      -3.235  27.339  30.448  1.00  0.00     0.000 G0
ENDBRANCH   6   7
ENDBRANCH   5   6
ENDBRANCH   3   5
ENDBRANCH   1   3
BRANCH   1  11
ATOM     11  C   UNL     1      -3.112  28.076  27.580  1.00  0.00     0.087 C 
BRANCH  11  12
ATOM     12  C   UNL     1      -1.843  27.423  28.209  1.00  0.00     0.066 C 
BRANCH  12  13
ATOM     13  C   UNL     1      -1.915  27.257  29.725  1.00  0.00     0.140 C 
ATOM     14  O   UNL     1      -0.890  27.132  30.380  1.00  0.00    -0.299 OA
BRANCH  13  15
ATOM     15  C   UNL     1      -3.240  27.329  30.444  1.00  0.00     0.106 CG0
ATOM     16  G   UNL     1      -3.574  28.739  30.906  1.00  0.00     0.000 G0
ENDBRANCH  13  15
ENDBRANCH  12  13
BRANCH  12  17
ATOM     17  C   UNL     1      -1.368  26.138  27.459  1.00  0.00    -0.006 C 
ATOM     18  C   UNL     1      -2.350  24.958  27.526  1.00  0.00     0.008 C 
ATOM     19  C   UNL     1       0.027  25.694  27.930  1.00  0.00     0.008 C 
ENDBRANCH  12  17
ENDBRANCH  11  12
ENDBRANCH   1  11
TORSDOF 1
ENDMDL
MODEL 2
REMARK VINA RESULT:    -2.226      1.796      3.261
REMARK INTER + INTRA:          -2.379
REMARK INTER:                  -3.119
REMARK INTRA:                   0.740
REMARK UNBOUND:                 1.018
REMARK SMILES CC1=CCC[C@H](C)C(=O)C[C@H](C(C)C)C(=O)C1
REMARK SMILES IDX 8 1 9 2 6 3 7 4 5 5 4 6 3 7 2 8 1 9 10 11 11 12 15 13 16 14
REMARK SMILES IDX 17 15 12 17 13 18 14 19
REMARK H PARENT
REMARK Flexibility Score: 70.00
ROOT
ATOM      1  C   UNL     1      -4.125  27.132  30.032  1.00  0.00     0.136 C 
ATOM      2  O   UNL     1      -4.867  26.189  29.800  1.00  0.00    -0.299 OA
ENDROOT
BRANCH   1   3
ATOM      3  C   UNL     1      -4.677  28.366  30.726  1.00  0.00     0.053 C 
ATOM      4  C   UNL     1      -3.649  29.505  30.697  1.00  0.00     0.016 C 
BRANCH   3   5
ATOM      5  C   UNL     1      -6.002  28.802  30.065  1.00  0.00     0.015 C 
BRANCH   5   6
ATOM      6  C   UNL     1      -5.853  29.003  28.542  1.00  0.00     0.028 C 
BRANCH   6   7
ATOM      7  C   UNL     1      -5.238  30.346  28.237  1.00  0.00    -0.028 C 
ATOM      8  C   UNL     1      -4.104  30.529  27.520  1.00  0.00    -0.070 CG0
ATOM      9  C   UNL     1      -3.576  31.933  27.377  1.00  0.00     0.039 C 
ATOM     10  G   UNL     1      -3.365  29.387  26.839  1.00  0.00     0.000 G0
ENDBRANCH   6   7
ENDBRANCH   5   6
ENDBRANCH   3   5
ENDBRANCH   1   3
BRANCH   1  11
ATOM     11  C   UNL     1      -2.669  27.051  29.626  1.00  0.00     0.087 C 
BRANCH  11  12
ATOM     12  C   UNL     1      -2.388  27.278  28.109  1.00  0.00     0.066 C 
BRANCH  12  13
ATOM     13  C   UNL     1      -2.300  28.749  27.706  1.00  0.00     0.140 C 
ATOM     14  O   UNL     1      -1.327  29.417  28.026  1.00  0.00    -0.299 OA
BRANCH  13  15
ATOM     15  C   UNL     1      -3.366  29.374  26.839  1.00  0.00     0.106 CG0
ATOM     16  G   UNL     1      -4.082  30.520  27.536  1.00  0.00     0.000 G0
ENDBRANCH  13  15
ENDBRANCH  12  13
BRANCH  12  17
ATOM     17  C   UNL     1      -1.217  26.405  27.555  1.00  0.00    -0.006 C 
ATOM     18  C   UNL     1      -1.626  24.989  27.119  1.00  0.00     0.008 C 
ATOM     19  C   UNL     1      -0.046  26.337  28.548  1.00  0.00     0.008 C 
ENDBRANCH  12  17
ENDBRANCH  11  12
ENDBRANCH   1  11
TORSDOF 1
ENDMDL
MODEL 3
REMARK VINA RESULT:    -1.692      1.958      4.867
REMARK INTER + INTRA:          -1.565
REMARK INTER:                  -4.625
REMARK INTRA:                   3.060
REMARK UNBOUND:                 1.018
REMARK SMILES CC1=CCC[C@H](C)C(=O)C[C@H](C(C)C)C(=O)C1
REMARK SMILES IDX 8 1 9 2 6 3 7 4 5 5 4 6 3 7 2 8 1 9 10 11 11 12 15 13 16 14
REMARK SMILES IDX 17 15 12 17 13 18 14 19
REMARK H PARENT
REMARK Flexibility Score: 70.00
ROOT
ATOM      1  C   UNL     1      -4.965  28.706  29.849  1.00  0.00     0.136 C 
ATOM      2  O   UNL     1      -6.049  28.568  29.301  1.00  0.00    -0.299 OA
ENDROOT
BRANCH   1   3
ATOM      3  C   UNL     1      -4.368  27.548  30.631  1.00  0.00     0.053 C 
ATOM      4  C   UNL     1      -4.083  26.361  29.700  1.00  0.00     0.016 C 
BRANCH   3   5
ATOM      5  C   UNL     1      -3.084  28.000  31.358  1.00  0.00     0.015 C 
BRANCH   5   6
ATOM      6  C   UNL     1      -1.944  28.332  30.373  1.00  0.00     0.028 C 
BRANCH   6   7
ATOM      7  C   UNL     1      -1.717  27.191  29.413  1.00  0.00    -0.028 C 
ATOM      8  C   UNL     1      -1.780  27.294  28.064  1.00  0.00    -0.070 CG0
ATOM      9  C   UNL     1      -1.610  26.037  27.250  1.00  0.00     0.039 C 
ATOM     10  G   UNL     1      -1.988  28.618  27.347  1.00  0.00     0.000 G0
ENDBRANCH   6   7
ENDBRANCH   5   6
ENDBRANCH   3   5
ENDBRANCH   1   3
BRANCH   1  11
ATOM     11  C   UNL     1      -4.236  30.028  29.735  1.00  0.00     0.087 C 
BRANCH  11  12
ATOM     12  C   UNL     1      -3.710  30.375  28.308  1.00  0.00     0.066 C 
BRANCH  12  13
ATOM     13  C   UNL     1      -3.402  29.153  27.444  1.00  0.00     0.140 C 
ATOM     14  O   UNL     1      -4.284  28.633  26.777  1.00  0.00    -0.299 OA
BRANCH  13  15
ATOM     15  C   UNL     1      -1.992  28.625  27.335  1.00  0.00     0.106 CG0
ATOM     16  G   UNL     1      -1.806  27.309  28.075  1.00  0.00     0.000 G0
ENDBRANCH  13  15
ENDBRANCH  12  13
BRANCH  12  17
ATOM     17  C   UNL     1      -4.561  31.461  27.577  1.00  0.00    -0.006 C 
ATOM     18  C   UNL     1      -3.866  32.823  27.424  1.00  0.00     0.008 C 
ATOM     19  C   UNL     1      -5.937  31.639  28.240  1.00  0.00     0.008 C 
ENDBRANCH  12  17
ENDBRANCH  11  12
ENDBRANCH   1  11
TORSDOF 1
ENDMDL
MODEL 4
REMARK VINA RESULT:    -1.091      2.075      4.472
REMARK INTER + INTRA:          -0.648
REMARK INTER:                  -2.885
REMARK INTRA:                   2.238
REMARK UNBOUND:                 1.018
REMARK SMILES CC1=CCC[C@H](C)C(=O)C[C@H](C(C)C)C(=O)C1
REMARK SMILES IDX 8 1 9 2 6 3 7 4 5 5 4 6 3 7 2 8 1 9 10 11 11 12 15 13 16 14
REMARK SMILES IDX 17 15 12 17 13 18 14 19
REMARK H PARENT
REMARK Flexibility Score: 70.00
ROOT
ATOM      1  C   UNL     1      -3.274  26.011  28.546  1.00  0.00     0.136 C 
ATOM      2  O   UNL     1      -3.556  24.893  28.141  1.00  0.00    -0.299 OA
ENDROOT
BRANCH   1   3
ATOM      3  C   UNL     1      -2.010  26.691  28.049  1.00  0.00     0.053 C 
ATOM      4  C   UNL     1      -1.070  25.667  27.397  1.00  0.00     0.016 C 
BRANCH   3   5
ATOM      5  C   UNL     1      -2.365  27.821  27.059  1.00  0.00     0.015 C 
BRANCH   5   6
ATOM      6  C   UNL     1      -2.497  29.188  27.762  1.00  0.00     0.028 C 
BRANCH   6   7
ATOM      7  C   UNL     1      -3.568  30.025  27.109  1.00  0.00    -0.028 C 
ATOM      8  C   UNL     1      -4.598  30.610  27.766  1.00  0.00    -0.070 CG0
ATOM      9  C   UNL     1      -5.632  31.344  26.951  1.00  0.00     0.039 C 
ATOM     10  G   UNL     1      -4.736  30.575  29.280  1.00  0.00     0.000 G0
ENDBRANCH   6   7
ENDBRANCH   5   6
ENDBRANCH   3   5
ENDBRANCH   1   3
BRANCH   1  11
ATOM     11  C   UNL     1      -4.194  26.699  29.533  1.00  0.00     0.087 C 
BRANCH  11  12
ATOM     12  C   UNL     1      -3.812  28.170  29.882  1.00  0.00     0.066 C 
BRANCH  12  13
ATOM     13  C   UNL     1      -4.978  29.153  29.797  1.00  0.00     0.140 C 
ATOM     14  O   UNL     1      -6.085  28.831  30.204  1.00  0.00    -0.299 OA
BRANCH  13  15
ATOM     15  C   UNL     1      -4.764  30.558  29.289  1.00  0.00     0.106 CG0
ATOM     16  G   UNL     1      -4.595  30.609  27.778  1.00  0.00     0.000 G0
ENDBRANCH  13  15
ENDBRANCH  12  13
BRANCH  12  17
ATOM     17  C   UNL     1      -2.977  28.301  31.196  1.00  0.00    -0.006 C 
ATOM     18  C   UNL     1      -2.753  29.746  31.670  1.00  0.00     0.008 C 
ATOM     19  C   UNL     1      -1.633  27.564  31.085  1.00  0.00     0.008 C 
ENDBRANCH  12  17
ENDBRANCH  11  12
ENDBRANCH   1  11
TORSDOF 1
ENDMDL
MODEL 5
REMARK VINA RESULT:    -0.194      1.588      4.204
REMARK INTER + INTRA:           0.721
REMARK INTER:                  -2.101
REMARK INTRA:                   2.822
REMARK UNBOUND:                 1.018
REMARK SMILES CC1=CCC[C@H](C)C(=O)C[C@H](C(C)C)C(=O)C1
REMARK SMILES IDX 8 1 9 2 6 3 7 4 5 5 4 6 3 7 2 8 1 9 10 11 11 12 15 13 16 14
REMARK SMILES IDX 17 15 12 17 13 18 14 19
REMARK H PARENT
REMARK Flexibility Score: 70.00
ROOT
ATOM      1  C   UNL     1      -2.358  27.585  27.127  1.00  0.00     0.136 C 
ATOM      2  O   UNL     1      -2.438  27.583  25.907  1.00  0.00    -0.299 OA
ENDROOT
BRANCH   1   3
ATOM      3  C   UNL     1      -1.970  26.308  27.853  1.00  0.00     0.053 C 
ATOM      4  C   UNL     1      -0.468  26.033  27.692  1.00  0.00     0.016 C 
BRANCH   3   5
ATOM      5  C   UNL     1      -2.357  26.404  29.345  1.00  0.00     0.015 C 
BRANCH   5   6
ATOM      6  C   UNL     1      -1.155  26.790  30.233  1.00  0.00     0.028 C 
BRANCH   6   7
ATOM      7  C   UNL     1      -1.445  28.052  31.005  1.00  0.00    -0.028 C 
ATOM      8  C   UNL     1      -2.660  28.645  31.088  1.00  0.00    -0.070 CG0
ATOM      9  C   UNL     1      -2.761  29.951  31.833  1.00  0.00     0.039 C 
ATOM     10  G   UNL     1      -3.916  28.036  30.486  1.00  0.00     0.000 G0
ENDBRANCH   6   7
ENDBRANCH   5   6
ENDBRANCH   3   5
ENDBRANCH   1   3
BRANCH   1  11
ATOM     11  C   UNL     1      -2.643  28.861  27.889  1.00  0.00     0.087 C 
BRANCH  11  12
ATOM     12  C   UNL     1      -4.154  29.180  28.109  1.00  0.00     0.066 C 
BRANCH  12  13
ATOM     13  C   UNL     1      -4.620  29.020  29.555  1.00  0.00     0.140 C 
ATOM     14  O   UNL     1      -5.612  29.615  29.952  1.00  0.00    -0.299 OA
BRANCH  13  15
ATOM     15  C   UNL     1      -3.917  28.062  30.487  1.00  0.00     0.106 CG0
ATOM     16  G   UNL     1      -2.651  28.658  31.084  1.00  0.00     0.000 G0
ENDBRANCH  13  15
ENDBRANCH  12  13
BRANCH  12  17
ATOM     17  C   UNL     1      -4.609  30.521  27.449  1.00  0.00    -0.006 C 
ATOM     18  C   UNL     1      -3.685  31.717  27.728  1.00  0.00     0.008 C 
ATOM     19  C   UNL     1      -6.058  30.871  27.825  1.00  0.00     0.008 C 
ENDBRANCH  12  17
ENDBRANCH  11  12
ENDBRANCH   1  11
TORSDOF 1
ENDMDL
