MODEL 1
REMARK VINA RESULT:    -4.003      0.000      0.000
REMARK INTER + INTRA:          -4.368
REMARK INTER:                  -4.354
REMARK INTRA:                  -0.014
REMARK UNBOUND:                -0.014
REMARK SMILES OCc1ccco1
REMARK SMILES IDX 2 1 3 2 5 3 6 4 4 5 7 6 1 7
REMARK H PARENT 1 8
REMARK Flexibility Score: inf
ROOT
ATOM      1  C   UNL     1      15.933  18.370  65.327  1.00  0.00     0.231 C 
ENDROOT
BRANCH   1   2
ATOM      2  C   UNL     1      17.283  18.487  65.959  1.00  0.00     0.129 A 
ATOM      3  C   UNL     1      19.115  18.059  67.092  1.00  0.00     0.042 A 
ATOM      4  C   UNL     1      19.197  19.281  66.455  1.00  0.00     0.195 A 
ATOM      5  C   UNL     1      17.878  17.542  66.771  1.00  0.00     0.048 A 
ATOM      6  O   UNL     1      18.090  19.506  65.785  1.00  0.00    -0.467 OA
ENDBRANCH   1   2
BRANCH   1   7
ATOM      7  O   UNL     1      15.847  17.178  64.595  1.00  0.00    -0.388 OA
ATOM      8  H   UNL     1      15.276  16.561  65.124  1.00  0.00     0.211 HD
ENDBRANCH   1   7
TORSDOF 2
ENDMDL
MODEL 2
REMARK VINA RESULT:    -3.703      1.400      3.106
REMARK INTER + INTRA:          -4.042
REMARK INTER:                  -4.028
REMARK INTRA:                  -0.014
REMARK UNBOUND:                -0.014
REMARK SMILES OCc1ccco1
REMARK SMILES IDX 2 1 3 2 5 3 6 4 4 5 7 6 1 7
REMARK H PARENT 1 8
REMARK Flexibility Score: inf
ROOT
ATOM      1  C   UNL     1      19.356  18.831  67.373  1.00  0.00     0.231 C 
ENDROOT
BRANCH   1   2
ATOM      2  C   UNL     1      18.123  18.498  66.596  1.00  0.00     0.129 A 
ATOM      3  C   UNL     1      16.420  17.425  65.720  1.00  0.00     0.042 A 
ATOM      4  C   UNL     1      16.393  18.762  65.380  1.00  0.00     0.195 A 
ATOM      5  C   UNL     1      17.537  17.251  66.508  1.00  0.00     0.048 A 
ATOM      6  O   UNL     1      17.420  19.376  65.920  1.00  0.00    -0.467 OA
ENDBRANCH   1   2
BRANCH   1   7
ATOM      7  O   UNL     1      19.024  19.104  68.707  1.00  0.00    -0.388 OA
ATOM      8  H   UNL     1      18.267  18.505  68.940  1.00  0.00     0.211 HD
ENDBRANCH   1   7
TORSDOF 2
ENDMDL
MODEL 3
REMARK VINA RESULT:    -3.665     13.462     15.023
REMARK INTER + INTRA:          -4.001
REMARK INTER:                  -3.985
REMARK INTRA:                  -0.016
REMARK UNBOUND:                -0.014
REMARK SMILES OCc1ccco1
REMARK SMILES IDX 2 1 3 2 5 3 6 4 4 5 7 6 1 7
REMARK H PARENT 1 8
REMARK Flexibility Score: inf
ROOT
ATOM      1  C   UNL     1      32.296  19.338  70.582  1.00  0.00     0.231 C 
ENDROOT
BRANCH   1   2
ATOM      2  C   UNL     1      31.443  20.566  70.560  1.00  0.00     0.129 A 
ATOM      3  C   UNL     1      30.765  22.653  70.644  1.00  0.00     0.042 A 
ATOM      4  C   UNL     1      29.727  21.806  70.312  1.00  0.00     0.195 A 
ATOM      5  C   UNL     1      31.876  21.854  70.803  1.00  0.00     0.048 A 
ATOM      6  O   UNL     1      30.164  20.568  70.266  1.00  0.00    -0.467 OA
ENDBRANCH   1   2
BRANCH   1   7
ATOM      7  O   UNL     1      33.650  19.692  70.505  1.00  0.00    -0.388 OA
ATOM      8  H   UNL     1      34.067  19.075  69.848  1.00  0.00     0.211 HD
ENDBRANCH   1   7
TORSDOF 2
ENDMDL
MODEL 4
REMARK VINA RESULT:    -3.193     12.319     12.684
REMARK INTER + INTRA:          -3.487
REMARK INTER:                  -3.473
REMARK INTRA:                  -0.014
REMARK UNBOUND:                -0.014
REMARK SMILES OCc1ccco1
REMARK SMILES IDX 2 1 3 2 5 3 6 4 4 5 7 6 1 7
REMARK H PARENT 1 8
REMARK Flexibility Score: inf
ROOT
ATOM      1  C   UNL     1      29.053  13.838  61.619  1.00  0.00     0.231 C 
ENDROOT
BRANCH   1   2
ATOM      2  C   UNL     1      28.641  12.948  62.748  1.00  0.00     0.129 A 
ATOM      3  C   UNL     1      28.445  12.027  64.732  1.00  0.00     0.042 A 
ATOM      4  C   UNL     1      27.591  11.437  63.823  1.00  0.00     0.195 A 
ATOM      5  C   UNL     1      29.124  13.007  64.040  1.00  0.00     0.048 A 
ATOM      6  O   UNL     1      27.729  12.010  62.650  1.00  0.00    -0.467 OA
ENDBRANCH   1   2
BRANCH   1   7
ATOM      7  O   UNL     1      28.294  15.016  61.636  1.00  0.00    -0.388 OA
ATOM      8  H   UNL     1      28.842  15.714  61.191  1.00  0.00     0.211 HD
ENDBRANCH   1   7
TORSDOF 2
ENDMDL
MODEL 5
REMARK VINA RESULT:    -3.171     11.161     11.343
REMARK INTER + INTRA:          -3.463
REMARK INTER:                  -3.449
REMARK INTRA:                  -0.014
REMARK UNBOUND:                -0.014
REMARK SMILES OCc1ccco1
REMARK SMILES IDX 2 1 3 2 5 3 6 4 4 5 7 6 1 7
REMARK H PARENT 1 8
REMARK Flexibility Score: inf
ROOT
ATOM      1  C   UNL     1      22.336  15.478  55.272  1.00  0.00     0.231 C 
ENDROOT
BRANCH   1   2
ATOM      2  C   UNL     1      22.496  16.753  56.037  1.00  0.00     0.129 A 
ATOM      3  C   UNL     1      22.085  18.629  57.101  1.00  0.00     0.042 A 
ATOM      4  C   UNL     1      23.428  18.317  57.145  1.00  0.00     0.195 A 
ATOM      5  C   UNL     1      21.479  17.618  56.386  1.00  0.00     0.048 A 
ATOM      6  O   UNL     1      23.642  17.191  56.505  1.00  0.00    -0.467 OA
ENDBRANCH   1   2
BRANCH   1   7
ATOM      7  O   UNL     1      22.810  15.640  53.963  1.00  0.00    -0.388 OA
ATOM      8  H   UNL     1      23.198  14.767  53.691  1.00  0.00     0.211 HD
ENDBRANCH   1   7
TORSDOF 2
ENDMDL
MODEL 6
REMARK VINA RESULT:    -3.115     12.942     13.431
REMARK INTER + INTRA:          -3.402
REMARK INTER:                  -3.389
REMARK INTRA:                  -0.014
REMARK UNBOUND:                -0.014
REMARK SMILES OCc1ccco1
REMARK SMILES IDX 2 1 3 2 5 3 6 4 4 5 7 6 1 7
REMARK H PARENT 1 8
REMARK Flexibility Score: inf
ROOT
ATOM      1  C   UNL     1      19.001   7.180  58.557  1.00  0.00     0.231 C 
ENDROOT
BRANCH   1   2
ATOM      2  C   UNL     1      19.922   8.019  57.730  1.00  0.00     0.129 A 
ATOM      3  C   UNL     1      20.743   9.622  56.473  1.00  0.00     0.042 A 
ATOM      4  C   UNL     1      21.717   8.703  56.807  1.00  0.00     0.195 A 
ATOM      5  C   UNL     1      19.581   9.183  57.071  1.00  0.00     0.048 A 
ATOM      6  O   UNL     1      21.198   7.761  57.560  1.00  0.00    -0.467 OA
ENDBRANCH   1   2
BRANCH   1   7
ATOM      7  O   UNL     1      18.605   7.885  59.701  1.00  0.00    -0.388 OA
ATOM      8  H   UNL     1      17.787   8.391  59.454  1.00  0.00     0.211 HD
ENDBRANCH   1   7
TORSDOF 2
ENDMDL
MODEL 7
REMARK VINA RESULT:    -3.083     13.610     14.333
REMARK INTER + INTRA:          -3.368
REMARK INTER:                  -3.352
REMARK INTRA:                  -0.015
REMARK UNBOUND:                -0.014
REMARK SMILES OCc1ccco1
REMARK SMILES IDX 2 1 3 2 5 3 6 4 4 5 7 6 1 7
REMARK H PARENT 1 8
REMARK Flexibility Score: inf
ROOT
ATOM      1  C   UNL     1      28.799  13.628  61.861  1.00  0.00     0.231 C 
ENDROOT
BRANCH   1   2
ATOM      2  C   UNL     1      29.323  13.083  60.572  1.00  0.00     0.129 A 
ATOM      3  C   UNL     1      30.630  12.213  59.036  1.00  0.00     0.042 A 
ATOM      4  C   UNL     1      29.349  12.390  58.556  1.00  0.00     0.195 A 
ATOM      5  C   UNL     1      30.616  12.659  60.340  1.00  0.00     0.048 A 
ATOM      6  O   UNL     1      28.591  12.907  59.496  1.00  0.00    -0.467 OA
ENDBRANCH   1   2
BRANCH   1   7
ATOM      7  O   UNL     1      28.328  14.935  61.674  1.00  0.00    -0.388 OA
ATOM      8  H   UNL     1      28.190  15.319  62.579  1.00  0.00     0.211 HD
ENDBRANCH   1   7
TORSDOF 2
ENDMDL
MODEL 8
REMARK VINA RESULT:    -3.042     13.476     14.181
REMARK INTER + INTRA:          -3.322
REMARK INTER:                  -3.303
REMARK INTRA:                  -0.020
REMARK UNBOUND:                -0.014
REMARK SMILES OCc1ccco1
REMARK SMILES IDX 2 1 3 2 5 3 6 4 4 5 7 6 1 7
REMARK H PARENT 1 8
REMARK Flexibility Score: inf
ROOT
ATOM      1  C   UNL     1      29.790  23.125  70.214  1.00  0.00     0.231 C 
ENDROOT
BRANCH   1   2
ATOM      2  C   UNL     1      30.597  21.869  70.293  1.00  0.00     0.129 A 
ATOM      3  C   UNL     1      32.168  20.408  70.762  1.00  0.00     0.042 A 
ATOM      4  C   UNL     1      31.135  19.820  70.062  1.00  0.00     0.195 A 
ATOM      5  C   UNL     1      31.822  21.734  70.915  1.00  0.00     0.048 A 
ATOM      6  O   UNL     1      30.212  20.715  69.799  1.00  0.00    -0.467 OA
ENDBRANCH   1   2
BRANCH   1   7
ATOM      7  O   UNL     1      28.425  22.826  70.317  1.00  0.00    -0.388 OA
ATOM      8  H   UNL     1      28.342  21.841  70.217  1.00  0.00     0.211 HD
ENDBRANCH   1   7
TORSDOF 2
ENDMDL
MODEL 9
REMARK VINA RESULT:    -2.986     12.653     13.363
REMARK INTER + INTRA:          -3.262
REMARK INTER:                  -3.248
REMARK INTRA:                  -0.014
REMARK UNBOUND:                -0.014
REMARK SMILES OCc1ccco1
REMARK SMILES IDX 2 1 3 2 5 3 6 4 4 5 7 6 1 7
REMARK H PARENT 1 8
REMARK Flexibility Score: inf
ROOT
ATOM      1  C   UNL     1      28.860  13.809  61.599  1.00  0.00     0.231 C 
ENDROOT
BRANCH   1   2
ATOM      2  C   UNL     1      28.242  12.980  60.519  1.00  0.00     0.129 A 
ATOM      3  C   UNL     1      26.854  11.728  59.368  1.00  0.00     0.042 A 
ATOM      4  C   UNL     1      27.971  12.045  58.623  1.00  0.00     0.195 A 
ATOM      5  C   UNL     1      27.025  12.333  60.594  1.00  0.00     0.048 A 
ATOM      6  O   UNL     1      28.780  12.796  59.335  1.00  0.00    -0.467 OA
ENDBRANCH   1   2
BRANCH   1   7
ATOM      7  O   UNL     1      28.281  15.085  61.616  1.00  0.00    -0.388 OA
ATOM      8  H   UNL     1      27.983  15.274  60.688  1.00  0.00     0.211 HD
ENDBRANCH   1   7
TORSDOF 2
ENDMDL
