MODEL 1
REMARK VINA RESULT:    -4.284      0.000      0.000
REMARK INTER + INTRA:          -4.410
REMARK INTER:                  -4.410
REMARK INTRA:                   0.000
REMARK UNBOUND:                 0.000
REMARK SMILES O=c1ccc2cc(O)ccc2o1
REMARK SMILES IDX 9 1 10 2 11 3 5 4 4 5 3 6 2 7 1 8 12 9 6 10 7 11 8 12
REMARK H PARENT 8 13
REMARK Flexibility Score: inf
ROOT
ATOM      1  C   UNL     1     145.449 158.908 162.778  1.00  0.00     0.050 A 
ATOM      2  C   UNL     1     145.622 160.251 162.425  1.00  0.00     0.052 A 
ATOM      3  C   UNL     1     146.690 160.629 161.607  1.00  0.00     0.138 A 
ATOM      4  C   UNL     1     147.594 159.651 161.137  1.00  0.00     0.021 A 
ATOM      5  C   UNL     1     148.654 160.059 160.320  1.00  0.00     0.019 A 
ATOM      6  C   UNL     1     148.786 161.409 159.995  1.00  0.00     0.094 A 
ATOM      7  C   UNL     1     147.852 162.322 160.496  1.00  0.00     0.336 A 
ATOM      8  O   UNL     1     147.955 163.544 160.214  1.00  0.00    -0.246 OA
ATOM      9  O   UNL     1     146.854 161.907 161.272  1.00  0.00    -0.423 OA
ATOM     10  C   UNL     1     147.417 158.306 161.494  1.00  0.00     0.058 A 
ATOM     11  C   UNL     1     146.345 157.934 162.313  1.00  0.00     0.116 A 
ENDROOT
BRANCH  11  12
ATOM     12  O   UNL     1     146.179 156.595 162.661  1.00  0.00    -0.508 OA
ATOM     13  H   UNL     1     146.458 156.247 163.570  1.00  0.00     0.293 HD
ENDBRANCH  11  12
TORSDOF 1
ENDMDL
MODEL 2
REMARK VINA RESULT:    -3.517      1.496      2.614
REMARK INTER + INTRA:          -3.620
REMARK INTER:                  -3.620
REMARK INTRA:                   0.000
REMARK UNBOUND:                 0.000
REMARK SMILES O=c1ccc2cc(O)ccc2o1
REMARK SMILES IDX 9 1 10 2 11 3 5 4 4 5 3 6 2 7 1 8 12 9 6 10 7 11 8 12
REMARK H PARENT 8 13
REMARK Flexibility Score: inf
ROOT
ATOM      1  C   UNL     1     147.777 158.988 161.076  1.00  0.00     0.050 A 
ATOM      2  C   UNL     1     148.696 159.868 160.494  1.00  0.00     0.052 A 
ATOM      3  C   UNL     1     148.409 161.235 160.423  1.00  0.00     0.138 A 
ATOM      4  C   UNL     1     147.189 161.723 160.941  1.00  0.00     0.021 A 
ATOM      5  C   UNL     1     146.929 163.094 160.856  1.00  0.00     0.019 A 
ATOM      6  C   UNL     1     147.874 163.935 160.267  1.00  0.00     0.094 A 
ATOM      7  C   UNL     1     149.062 163.380 159.776  1.00  0.00     0.336 A 
ATOM      8  O   UNL     1     149.926 164.122 159.241  1.00  0.00    -0.246 OA
ATOM      9  O   UNL     1     149.283 162.072 159.869  1.00  0.00    -0.423 OA
ATOM     10  C   UNL     1     146.271 160.836 161.523  1.00  0.00     0.058 A 
ATOM     11  C   UNL     1     146.565 159.469 161.591  1.00  0.00     0.116 A 
ENDROOT
BRANCH  11  12
ATOM     12  O   UNL     1     145.645 158.598 162.171  1.00  0.00    -0.508 OA
ATOM     13  H   UNL     1     145.872 158.068 163.005  1.00  0.00     0.293 HD
ENDBRANCH  11  12
TORSDOF 1
ENDMDL
MODEL 3
REMARK VINA RESULT:    -3.444      0.822      4.769
REMARK INTER + INTRA:          -3.544
REMARK INTER:                  -3.544
REMARK INTRA:                   0.000
REMARK UNBOUND:                 0.000
REMARK SMILES O=c1ccc2cc(O)ccc2o1
REMARK SMILES IDX 9 1 10 2 11 3 5 4 4 5 3 6 2 7 1 8 12 9 6 10 7 11 8 12
REMARK H PARENT 8 13
REMARK Flexibility Score: inf
ROOT
ATOM      1  C   UNL     1     148.875 161.336 160.097  1.00  0.00     0.050 A 
ATOM      2  C   UNL     1     148.784 159.999 160.499  1.00  0.00     0.052 A 
ATOM      3  C   UNL     1     147.703 159.573 161.278  1.00  0.00     0.138 A 
ATOM      4  C   UNL     1     146.706 160.498 161.658  1.00  0.00     0.021 A 
ATOM      5  C   UNL     1     145.638 160.044 162.438  1.00  0.00     0.019 A 
ATOM      6  C   UNL     1     145.588 158.702 162.815  1.00  0.00     0.094 A 
ATOM      7  C   UNL     1     146.612 157.843 162.401  1.00  0.00     0.336 A 
ATOM      8  O   UNL     1     146.585 156.628 162.732  1.00  0.00    -0.246 OA
ATOM      9  O   UNL     1     147.618 158.301 161.660  1.00  0.00    -0.423 OA
ATOM     10  C   UNL     1     146.802 161.838 161.253  1.00  0.00     0.058 A 
ATOM     11  C   UNL     1     147.886 162.256 160.472  1.00  0.00     0.116 A 
ENDROOT
BRANCH  11  12
ATOM     12  O   UNL     1     147.971 163.589 160.076  1.00  0.00    -0.508 OA
ATOM     13  H   UNL     1     148.861 164.071 160.028  1.00  0.00     0.293 HD
ENDBRANCH  11  12
TORSDOF 1
ENDMDL
MODEL 4
REMARK VINA RESULT:    -3.121     21.676     23.385
REMARK INTER + INTRA:          -3.213
REMARK INTER:                  -3.213
REMARK INTRA:                   0.000
REMARK UNBOUND:                 0.000
REMARK SMILES O=c1ccc2cc(O)ccc2o1
REMARK SMILES IDX 9 1 10 2 11 3 5 4 4 5 3 6 2 7 1 8 12 9 6 10 7 11 8 12
REMARK H PARENT 8 13
REMARK Flexibility Score: inf
ROOT
ATOM      1  C   UNL     1     160.671 146.015 170.397  1.00  0.00     0.050 A 
ATOM      2  C   UNL     1     161.496 146.323 171.484  1.00  0.00     0.052 A 
ATOM      3  C   UNL     1     161.242 145.760 172.738  1.00  0.00     0.138 A 
ATOM      4  C   UNL     1     160.149 144.880 172.904  1.00  0.00     0.021 A 
ATOM      5  C   UNL     1     159.919 144.333 174.170  1.00  0.00     0.019 A 
ATOM      6  C   UNL     1     160.767 144.669 175.225  1.00  0.00     0.094 A 
ATOM      7  C   UNL     1     161.831 145.547 174.987  1.00  0.00     0.336 A 
ATOM      8  O   UNL     1     162.607 145.862 175.927  1.00  0.00    -0.246 OA
ATOM      9  O   UNL     1     162.027 146.054 173.772  1.00  0.00    -0.423 OA
ATOM     10  C   UNL     1     159.325 144.575 171.810  1.00  0.00     0.058 A 
ATOM     11  C   UNL     1     159.586 145.141 170.557  1.00  0.00     0.116 A 
ENDROOT
BRANCH  11  12
ATOM     12  O   UNL     1     158.760 144.831 169.479  1.00  0.00    -0.508 OA
ATOM     13  H   UNL     1     157.751 144.871 169.557  1.00  0.00     0.293 HD
ENDBRANCH  11  12
TORSDOF 1
ENDMDL
MODEL 5
REMARK VINA RESULT:    -3.051     13.910     14.854
REMARK INTER + INTRA:          -3.140
REMARK INTER:                  -3.140
REMARK INTRA:                   0.000
REMARK UNBOUND:                 0.000
REMARK SMILES O=c1ccc2cc(O)ccc2o1
REMARK SMILES IDX 9 1 10 2 11 3 5 4 4 5 3 6 2 7 1 8 12 9 6 10 7 11 8 12
REMARK H PARENT 8 13
REMARK Flexibility Score: inf
ROOT
ATOM      1  C   UNL     1     159.388 163.749 166.362  1.00  0.00     0.050 A 
ATOM      2  C   UNL     1     159.502 164.125 165.019  1.00  0.00     0.052 A 
ATOM      3  C   UNL     1     160.621 163.738 164.276  1.00  0.00     0.138 A 
ATOM      4  C   UNL     1     161.635 162.966 164.885  1.00  0.00     0.021 A 
ATOM      5  C   UNL     1     162.743 162.594 164.117  1.00  0.00     0.019 A 
ATOM      6  C   UNL     1     162.814 162.992 162.782  1.00  0.00     0.094 A 
ATOM      7  C   UNL     1     161.771 163.756 162.245  1.00  0.00     0.336 A 
ATOM      8  O   UNL     1     161.819 164.125 161.042  1.00  0.00    -0.246 OA
ATOM      9  O   UNL     1     160.729 164.097 162.999  1.00  0.00    -0.423 OA
ATOM     10  C   UNL     1     161.516 162.592 166.232  1.00  0.00     0.058 A 
ATOM     11  C   UNL     1     160.392 162.982 166.970  1.00  0.00     0.116 A 
ENDROOT
BRANCH  11  12
ATOM     12  O   UNL     1     160.285 162.604 168.307  1.00  0.00    -0.508 OA
ATOM     13  H   UNL     1     159.869 163.218 168.998  1.00  0.00     0.293 HD
ENDBRANCH  11  12
TORSDOF 1
ENDMDL
MODEL 6
REMARK VINA RESULT:    -2.753     21.462     23.097
REMARK INTER + INTRA:          -2.833
REMARK INTER:                  -2.833
REMARK INTRA:                   0.000
REMARK UNBOUND:                 0.000
REMARK SMILES O=c1ccc2cc(O)ccc2o1
REMARK SMILES IDX 9 1 10 2 11 3 5 4 4 5 3 6 2 7 1 8 12 9 6 10 7 11 8 12
REMARK H PARENT 8 13
REMARK Flexibility Score: inf
ROOT
ATOM      1  C   UNL     1     160.543 144.501 175.037  1.00  0.00     0.050 A 
ATOM      2  C   UNL     1     159.695 144.237 173.956  1.00  0.00     0.052 A 
ATOM      3  C   UNL     1     159.906 144.871 172.728  1.00  0.00     0.138 A 
ATOM      4  C   UNL     1     160.978 145.779 172.583  1.00  0.00     0.021 A 
ATOM      5  C   UNL     1     161.164 146.398 171.343  1.00  0.00     0.019 A 
ATOM      6  C   UNL     1     160.293 146.105 170.294  1.00  0.00     0.094 A 
ATOM      7  C   UNL     1     159.253 145.194 170.511  1.00  0.00     0.336 A 
ATOM      8  O   UNL     1     158.456 144.917 169.576  1.00  0.00    -0.246 OA
ATOM      9  O   UNL     1     159.098 144.620 171.701  1.00  0.00    -0.423 OA
ATOM     10  C   UNL     1     161.826 146.040 173.670  1.00  0.00     0.058 A 
ATOM     11  C   UNL     1     161.609 145.401 174.896  1.00  0.00     0.116 A 
ENDROOT
BRANCH  11  12
ATOM     12  O   UNL     1     162.458 145.669 175.968  1.00  0.00    -0.508 OA
ATOM     13  H   UNL     1     163.422 145.360 175.970  1.00  0.00     0.293 HD
ENDBRANCH  11  12
TORSDOF 1
ENDMDL
MODEL 7
REMARK VINA RESULT:    -2.474     14.067     15.354
REMARK INTER + INTRA:          -2.547
REMARK INTER:                  -2.547
REMARK INTRA:                   0.000
REMARK UNBOUND:                 0.000
REMARK SMILES O=c1ccc2cc(O)ccc2o1
REMARK SMILES IDX 9 1 10 2 11 3 5 4 4 5 3 6 2 7 1 8 12 9 6 10 7 11 8 12
REMARK H PARENT 8 13
REMARK Flexibility Score: inf
ROOT
ATOM      1  C   UNL     1     162.929 162.899 162.877  1.00  0.00     0.050 A 
ATOM      2  C   UNL     1     162.742 162.492 164.203  1.00  0.00     0.052 A 
ATOM      3  C   UNL     1     161.605 162.898 164.907  1.00  0.00     0.138 A 
ATOM      4  C   UNL     1     160.645 163.720 164.275  1.00  0.00     0.021 A 
ATOM      5  C   UNL     1     159.518 164.111 165.004  1.00  0.00     0.019 A 
ATOM      6  C   UNL     1     159.373 163.682 166.323  1.00  0.00     0.094 A 
ATOM      7  C   UNL     1     160.365 162.868 166.884  1.00  0.00     0.336 A 
ATOM      8  O   UNL     1     160.252 162.471 168.073  1.00  0.00    -0.246 OA
ATOM      9  O   UNL     1     161.428 162.512 166.168  1.00  0.00    -0.423 OA
ATOM     10  C   UNL     1     160.837 164.125 162.945  1.00  0.00     0.058 A 
ATOM     11  C   UNL     1     161.978 163.714 162.246  1.00  0.00     0.116 A 
ENDROOT
BRANCH  11  12
ATOM     12  O   UNL     1     162.159 164.123 160.927  1.00  0.00    -0.508 OA
ATOM     13  H   UNL     1     162.986 164.633 160.639  1.00  0.00     0.293 HD
ENDBRANCH  11  12
TORSDOF 1
ENDMDL
MODEL 8
REMARK VINA RESULT:    -2.127     13.760     15.065
REMARK INTER + INTRA:          -2.189
REMARK INTER:                  -2.189
REMARK INTRA:                   0.000
REMARK UNBOUND:                 0.000
REMARK SMILES O=c1ccc2cc(O)ccc2o1
REMARK SMILES IDX 9 1 10 2 11 3 5 4 4 5 3 6 2 7 1 8 12 9 6 10 7 11 8 12
REMARK H PARENT 8 13
REMARK Flexibility Score: inf
ROOT
ATOM      1  C   UNL     1     160.688 162.720 166.508  1.00  0.00     0.050 A 
ATOM      2  C   UNL     1     161.747 162.338 165.678  1.00  0.00     0.052 A 
ATOM      3  C   UNL     1     161.813 162.808 164.363  1.00  0.00     0.138 A 
ATOM      4  C   UNL     1     160.806 163.671 163.876  1.00  0.00     0.021 A 
ATOM      5  C   UNL     1     160.897 164.125 162.557  1.00  0.00     0.019 A 
ATOM      6  C   UNL     1     161.971 163.717 161.766  1.00  0.00     0.094 A 
ATOM      7  C   UNL     1     162.932 162.861 162.316  1.00  0.00     0.336 A 
ATOM      8  O   UNL     1     163.909 162.482 161.618  1.00  0.00    -0.246 OA
ATOM      9  O   UNL     1     162.821 162.444 163.574  1.00  0.00    -0.423 OA
ATOM     10  C   UNL     1     159.746 164.051 164.713  1.00  0.00     0.058 A 
ATOM     11  C   UNL     1     159.687 163.577 166.028  1.00  0.00     0.116 A 
ENDROOT
BRANCH  11  12
ATOM     12  O   UNL     1     158.629 163.961 166.850  1.00  0.00    -0.508 OA
ATOM     13  H   UNL     1     158.788 164.438 167.729  1.00  0.00     0.293 HD
ENDBRANCH  11  12
TORSDOF 1
ENDMDL
MODEL 9
REMARK VINA RESULT:    -1.926     20.127     21.770
REMARK INTER + INTRA:          -1.983
REMARK INTER:                  -1.983
REMARK INTRA:                   0.000
REMARK UNBOUND:                 0.000
REMARK SMILES O=c1ccc2cc(O)ccc2o1
REMARK SMILES IDX 9 1 10 2 11 3 5 4 4 5 3 6 2 7 1 8 12 9 6 10 7 11 8 12
REMARK H PARENT 8 13
REMARK Flexibility Score: inf
ROOT
ATOM      1  C   UNL     1     162.129 146.072 171.781  1.00  0.00     0.050 A 
ATOM      2  C   UNL     1     161.848 146.044 170.411  1.00  0.00     0.052 A 
ATOM      3  C   UNL     1     160.563 145.717 169.966  1.00  0.00     0.138 A 
ATOM      4  C   UNL     1     159.552 145.415 170.904  1.00  0.00     0.021 A 
ATOM      5  C   UNL     1     158.277 145.091 170.429  1.00  0.00     0.019 A 
ATOM      6  C   UNL     1     158.042 145.075 169.054  1.00  0.00     0.094 A 
ATOM      7  C   UNL     1     159.093 145.386 168.183  1.00  0.00     0.336 A 
ATOM      8  O   UNL     1     158.901 145.377 166.939  1.00  0.00    -0.246 OA
ATOM      9  O   UNL     1     160.297 145.690 168.662  1.00  0.00    -0.423 OA
ATOM     10  C   UNL     1     159.839 145.444 172.277  1.00  0.00     0.058 A 
ATOM     11  C   UNL     1     161.127 145.773 172.715  1.00  0.00     0.116 A 
ENDROOT
BRANCH  11  12
ATOM     12  O   UNL     1     161.401 145.798 174.081  1.00  0.00    -0.508 OA
ATOM     13  H   UNL     1     161.185 145.008 174.678  1.00  0.00     0.293 HD
ENDBRANCH  11  12
TORSDOF 1
ENDMDL
