MODEL 1
REMARK VINA RESULT:    -3.345      0.000      0.000
REMARK INTER + INTRA:          -4.535
REMARK INTER:                  -4.322
REMARK INTRA:                  -0.212
REMARK UNBOUND:                -0.212
REMARK SMILES CCCCCCC(=O)[O-]
REMARK SMILES IDX 5 1 6 2 7 3 8 4 9 5 4 6 3 7 2 8 1 9
REMARK H PARENT
REMARK Flexibility Score: inf
ROOT
ATOM      1  C   UNL     1      37.776   6.177  41.885  1.00  0.00     0.006 C 
ENDROOT
BRANCH   1   2
ATOM      2  C   UNL     1      36.968   6.873  40.781  1.00  0.00     0.053 C 
BRANCH   2   3
ATOM      3  C   UNL     1      35.582   6.315  40.717  1.00  0.00     0.041 C 
ATOM      4  O   UNL     1      34.763   6.548  41.644  1.00  0.00    -0.550 OA
ATOM      5  O   UNL     1      35.210   5.497  39.657  1.00  0.00    -0.550 OA
ENDBRANCH   2   3
ENDBRANCH   1   2
BRANCH   1   6
ATOM      6  C   UNL     1      38.840   5.219  41.325  1.00  0.00     0.000 C 
BRANCH   6   7
ATOM      7  C   UNL     1      38.736   5.044  39.803  1.00  0.00    -0.000 C 
BRANCH   7   8
ATOM      8  C   UNL     1      38.417   3.590  39.439  1.00  0.00    -0.003 C 
ATOM      9  C   UNL     1      39.594   2.671  39.753  1.00  0.00     0.004 C 
ENDBRANCH   7   8
ENDBRANCH   6   7
ENDBRANCH   1   6
TORSDOF 5
ENDMDL
MODEL 2
REMARK VINA RESULT:    -3.335     16.516     17.300
REMARK INTER + INTRA:          -4.522
REMARK INTER:                  -4.338
REMARK INTRA:                  -0.184
REMARK UNBOUND:                -0.212
REMARK SMILES CCCCCCC(=O)[O-]
REMARK SMILES IDX 5 1 6 2 7 3 8 4 9 5 4 6 3 7 2 8 1 9
REMARK H PARENT
REMARK Flexibility Score: inf
ROOT
ATOM      1  C   UNL     1      20.890  -0.771  42.449  1.00  0.00     0.006 C 
ENDROOT
BRANCH   1   2
ATOM      2  C   UNL     1      21.005  -1.505  41.107  1.00  0.00     0.053 C 
BRANCH   2   3
ATOM      3  C   UNL     1      22.069  -0.882  40.260  1.00  0.00     0.041 C 
ATOM      4  O   UNL     1      22.116   0.368  40.121  1.00  0.00    -0.550 OA
ATOM      5  O   UNL     1      22.982  -1.685  39.587  1.00  0.00    -0.550 OA
ENDBRANCH   2   3
ENDBRANCH   1   2
BRANCH   1   6
ATOM      6  C   UNL     1      21.085  -1.705  43.653  1.00  0.00     0.000 C 
BRANCH   6   7
ATOM      7  C   UNL     1      22.455  -2.399  43.648  1.00  0.00    -0.000 C 
BRANCH   7   8
ATOM      8  C   UNL     1      22.912  -2.723  45.075  1.00  0.00    -0.003 C 
ATOM      9  C   UNL     1      21.805  -2.443  46.087  1.00  0.00     0.004 C 
ENDBRANCH   7   8
ENDBRANCH   6   7
ENDBRANCH   1   6
TORSDOF 5
ENDMDL
MODEL 3
REMARK VINA RESULT:    -3.299     16.249     17.369
REMARK INTER + INTRA:          -4.476
REMARK INTER:                  -4.224
REMARK INTRA:                  -0.251
REMARK UNBOUND:                -0.212
REMARK SMILES CCCCCCC(=O)[O-]
REMARK SMILES IDX 5 1 6 2 7 3 8 4 9 5 4 6 3 7 2 8 1 9
REMARK H PARENT
REMARK Flexibility Score: inf
ROOT
ATOM      1  C   UNL     1      21.731  -2.563  42.571  1.00  0.00     0.006 C 
ENDROOT
BRANCH   1   2
ATOM      2  C   UNL     1      21.061  -1.675  43.628  1.00  0.00     0.053 C 
BRANCH   2   3
ATOM      3  C   UNL     1      21.516  -2.063  45.000  1.00  0.00     0.041 C 
ATOM      4  O   UNL     1      20.747  -1.918  45.986  1.00  0.00    -0.550 OA
ATOM      5  O   UNL     1      22.806  -2.539  45.197  1.00  0.00    -0.550 OA
ENDBRANCH   2   3
ENDBRANCH   1   2
BRANCH   1   6
ATOM      6  C   UNL     1      22.603  -1.763  41.592  1.00  0.00     0.000 C 
BRANCH   6   7
ATOM      7  C   UNL     1      21.819  -1.274  40.365  1.00  0.00    -0.000 C 
BRANCH   7   8
ATOM      8  C   UNL     1      22.077   0.215  40.106  1.00  0.00    -0.003 C 
ATOM      9  C   UNL     1      22.251   0.982  41.413  1.00  0.00     0.004 C 
ENDBRANCH   7   8
ENDBRANCH   6   7
ENDBRANCH   1   6
TORSDOF 5
ENDMDL
MODEL 4
REMARK VINA RESULT:    -3.289     16.822     18.325
REMARK INTER + INTRA:          -4.463
REMARK INTER:                  -4.282
REMARK INTRA:                  -0.182
REMARK UNBOUND:                -0.212
REMARK SMILES CCCCCCC(=O)[O-]
REMARK SMILES IDX 5 1 6 2 7 3 8 4 9 5 4 6 3 7 2 8 1 9
REMARK H PARENT
REMARK Flexibility Score: inf
ROOT
ATOM      1  C   UNL     1      31.484  -9.095  31.593  1.00  0.00     0.006 C 
ENDROOT
BRANCH   1   2
ATOM      2  C   UNL     1      30.116  -9.647  31.171  1.00  0.00     0.053 C 
BRANCH   2   3
ATOM      3  C   UNL     1      30.159 -11.140  31.088  1.00  0.00     0.041 C 
ATOM      4  O   UNL     1      30.850 -11.705  30.201  1.00  0.00    -0.550 OA
ATOM      5  O   UNL     1      29.398 -11.908  31.962  1.00  0.00    -0.550 OA
ENDBRANCH   2   3
ENDBRANCH   1   2
BRANCH   1   6
ATOM      6  C   UNL     1      31.526  -7.559  31.600  1.00  0.00     0.000 C 
BRANCH   6   7
ATOM      7  C   UNL     1      31.396  -6.971  33.013  1.00  0.00    -0.000 C 
BRANCH   7   8
ATOM      8  C   UNL     1      31.871  -7.973  34.071  1.00  0.00    -0.003 C 
ATOM      9  C   UNL     1      32.993  -7.388  34.922  1.00  0.00     0.004 C 
ENDBRANCH   7   8
ENDBRANCH   6   7
ENDBRANCH   1   6
TORSDOF 5
ENDMDL
MODEL 5
REMARK VINA RESULT:    -3.268     15.976     17.411
REMARK INTER + INTRA:          -4.436
REMARK INTER:                  -4.184
REMARK INTRA:                  -0.252
REMARK UNBOUND:                -0.212
REMARK SMILES CCCCCCC(=O)[O-]
REMARK SMILES IDX 5 1 6 2 7 3 8 4 9 5 4 6 3 7 2 8 1 9
REMARK H PARENT
REMARK Flexibility Score: inf
ROOT
ATOM      1  C   UNL     1      31.246  -7.731  31.439  1.00  0.00     0.006 C 
ENDROOT
BRANCH   1   2
ATOM      2  C   UNL     1      31.370  -6.912  32.731  1.00  0.00     0.053 C 
BRANCH   2   3
ATOM      3  C   UNL     1      31.882  -7.769  33.845  1.00  0.00     0.041 C 
ATOM      4  O   UNL     1      31.422  -8.928  34.015  1.00  0.00    -0.550 OA
ATOM      5  O   UNL     1      32.835  -7.269  34.725  1.00  0.00    -0.550 OA
ENDBRANCH   2   3
ENDBRANCH   1   2
BRANCH   1   6
ATOM      6  C   UNL     1      32.610  -8.080  30.826  1.00  0.00     0.000 C 
BRANCH   6   7
ATOM      7  C   UNL     1      32.755  -9.578  30.517  1.00  0.00    -0.000 C 
BRANCH   7   8
ATOM      8  C   UNL     1      31.544 -10.363  31.033  1.00  0.00    -0.003 C 
ATOM      9  C   UNL     1      31.460 -11.740  30.382  1.00  0.00     0.004 C 
ENDBRANCH   7   8
ENDBRANCH   6   7
ENDBRANCH   1   6
TORSDOF 5
ENDMDL
MODEL 6
REMARK VINA RESULT:    -3.223     17.078     18.531
REMARK INTER + INTRA:          -4.377
REMARK INTER:                  -4.078
REMARK INTRA:                  -0.298
REMARK UNBOUND:                -0.212
REMARK SMILES CCCCCCC(=O)[O-]
REMARK SMILES IDX 5 1 6 2 7 3 8 4 9 5 4 6 3 7 2 8 1 9
REMARK H PARENT
REMARK Flexibility Score: inf
ROOT
ATOM      1  C   UNL     1      31.692  -9.520  31.314  1.00  0.00     0.006 C 
ENDROOT
BRANCH   1   2
ATOM      2  C   UNL     1      31.473  -8.002  31.364  1.00  0.00     0.053 C 
BRANCH   2   3
ATOM      3  C   UNL     1      30.988  -7.590  32.718  1.00  0.00     0.041 C 
ATOM      4  O   UNL     1      29.945  -6.894  32.832  1.00  0.00    -0.550 OA
ATOM      5  O   UNL     1      31.714  -7.933  33.852  1.00  0.00    -0.550 OA
ENDBRANCH   2   3
ENDBRANCH   1   2
BRANCH   1   6
ATOM      6  C   UNL     1      30.414 -10.313  31.626  1.00  0.00     0.000 C 
BRANCH   6   7
ATOM      7  C   UNL     1      29.362 -10.202  30.513  1.00  0.00    -0.000 C 
BRANCH   7   8
ATOM      8  C   UNL     1      28.062  -9.587  31.045  1.00  0.00    -0.003 C 
ATOM      9  C   UNL     1      26.975  -9.580  29.975  1.00  0.00     0.004 C 
ENDBRANCH   7   8
ENDBRANCH   6   7
ENDBRANCH   1   6
TORSDOF 5
ENDMDL
MODEL 7
REMARK VINA RESULT:    -3.216      1.428      2.452
REMARK INTER + INTRA:          -4.369
REMARK INTER:                  -4.009
REMARK INTRA:                  -0.360
REMARK UNBOUND:                -0.212
REMARK SMILES CCCCCCC(=O)[O-]
REMARK SMILES IDX 5 1 6 2 7 3 8 4 9 5 4 6 3 7 2 8 1 9
REMARK H PARENT
REMARK Flexibility Score: inf
ROOT
ATOM      1  C   UNL     1      37.851   5.086  39.300  1.00  0.00     0.006 C 
ENDROOT
BRANCH   1   2
ATOM      2  C   UNL     1      36.378   5.218  39.709  1.00  0.00     0.053 C 
BRANCH   2   3
ATOM      3  C   UNL     1      36.162   6.480  40.483  1.00  0.00     0.041 C 
ATOM      4  O   UNL     1      35.156   6.600  41.230  1.00  0.00    -0.550 OA
ATOM      5  O   UNL     1      37.046   7.543  40.342  1.00  0.00    -0.550 OA
ENDBRANCH   2   3
ENDBRANCH   1   2
BRANCH   1   6
ATOM      6  C   UNL     1      38.470   3.751  39.741  1.00  0.00     0.000 C 
BRANCH   6   7
ATOM      7  C   UNL     1      39.535   3.925  40.834  1.00  0.00    -0.000 C 
BRANCH   7   8
ATOM      8  C   UNL     1      39.842   5.408  41.070  1.00  0.00    -0.003 C 
ATOM      9  C   UNL     1      39.501   5.824  42.497  1.00  0.00     0.004 C 
ENDBRANCH   7   8
ENDBRANCH   6   7
ENDBRANCH   1   6
TORSDOF 5
ENDMDL
MODEL 8
REMARK VINA RESULT:    -3.116      2.210      2.591
REMARK INTER + INTRA:          -4.239
REMARK INTER:                  -3.872
REMARK INTRA:                  -0.368
REMARK UNBOUND:                -0.212
REMARK SMILES CCCCCCC(=O)[O-]
REMARK SMILES IDX 5 1 6 2 7 3 8 4 9 5 4 6 3 7 2 8 1 9
REMARK H PARENT
REMARK Flexibility Score: inf
ROOT
ATOM      1  C   UNL     1      39.565   6.380  41.739  1.00  0.00     0.006 C 
ENDROOT
BRANCH   1   2
ATOM      2  C   UNL     1      38.821   7.707  41.534  1.00  0.00     0.053 C 
BRANCH   2   3
ATOM      3  C   UNL     1      38.341   7.823  40.121  1.00  0.00     0.041 C 
ATOM      4  O   UNL     1      37.128   8.058  39.882  1.00  0.00    -0.550 OA
ATOM      5  O   UNL     1      39.225   7.624  39.068  1.00  0.00    -0.550 OA
ENDBRANCH   2   3
ENDBRANCH   1   2
BRANCH   1   6
ATOM      6  C   UNL     1      38.687   5.156  41.437  1.00  0.00     0.000 C 
BRANCH   6   7
ATOM      7  C   UNL     1      39.456   4.039  40.717  1.00  0.00    -0.000 C 
BRANCH   7   8
ATOM      8  C   UNL     1      38.647   3.487  39.537  1.00  0.00    -0.003 C 
ATOM      9  C   UNL     1      37.437   4.366  39.238  1.00  0.00     0.004 C 
ENDBRANCH   7   8
ENDBRANCH   6   7
ENDBRANCH   1   6
TORSDOF 5
ENDMDL
MODEL 9
REMARK VINA RESULT:    -3.088      2.942      4.336
REMARK INTER + INTRA:          -4.204
REMARK INTER:                  -3.800
REMARK INTRA:                  -0.404
REMARK UNBOUND:                -0.212
REMARK SMILES CCCCCCC(=O)[O-]
REMARK SMILES IDX 5 1 6 2 7 3 8 4 9 5 4 6 3 7 2 8 1 9
REMARK H PARENT
REMARK Flexibility Score: inf
ROOT
ATOM      1  C   UNL     1      37.655   4.332  39.249  1.00  0.00     0.006 C 
ENDROOT
BRANCH   1   2
ATOM      2  C   UNL     1      39.189   4.297  39.235  1.00  0.00     0.053 C 
BRANCH   2   3
ATOM      3  C   UNL     1      39.697   3.293  40.221  1.00  0.00     0.041 C 
ATOM      4  O   UNL     1      40.067   3.661  41.366  1.00  0.00    -0.550 OA
ATOM      5  O   UNL     1      39.808   1.956  39.857  1.00  0.00    -0.550 OA
ENDBRANCH   2   3
ENDBRANCH   1   2
BRANCH   1   6
ATOM      6  C   UNL     1      37.096   5.488  40.094  1.00  0.00     0.000 C 
BRANCH   6   7
ATOM      7  C   UNL     1      37.967   6.751  40.017  1.00  0.00    -0.000 C 
BRANCH   7   8
ATOM      8  C   UNL     1      38.406   7.200  41.416  1.00  0.00    -0.003 C 
ATOM      9  C   UNL     1      37.895   6.245  42.489  1.00  0.00     0.004 C 
ENDBRANCH   7   8
ENDBRANCH   6   7
ENDBRANCH   1   6
TORSDOF 5
ENDMDL
