MODEL 1
REMARK VINA RESULT:     0.000      0.000      0.000
REMARK INTER + INTRA:          -1.023
REMARK INTER:                   0.000
REMARK INTRA:                  -1.023
REMARK UNBOUND:                -1.023
REMARK SMILES O=C([O-])CCCCCCCC(=O)[O-]
REMARK SMILES IDX 7 1 6 2 5 3 4 4 2 5 1 6 3 7 8 8 9 9 10 10 11 11 12 12 13 13
REMARK H PARENT
REMARK Flexibility Score: inf
ROOT
ATOM      1  C   UNL     1     179.901 187.980 189.804  1.00  0.00     0.000 C 
ENDROOT
BRANCH   1   2
ATOM      2  C   UNL     1     179.748 188.910 188.587  1.00  0.00     0.000 C 
BRANCH   2   3
ATOM      3  C   UNL     1     179.725 188.199 187.221  1.00  0.00     0.006 C 
BRANCH   3   4
ATOM      4  C   UNL     1     178.334 188.192 186.574  1.00  0.00     0.053 C 
BRANCH   4   5
ATOM      5  C   UNL     1     177.633 186.900 186.858  1.00  0.00     0.041 C 
ATOM      6  O   UNL     1     176.391 186.800 186.678  1.00  0.00    -0.550 OA
ATOM      7  O   UNL     1     178.344 185.821 187.369  1.00  0.00    -0.550 OA
ENDBRANCH   4   5
ENDBRANCH   3   4
ENDBRANCH   2   3
ENDBRANCH   1   2
BRANCH   1   8
ATOM      8  C   UNL     1     178.555 187.625 190.459  1.00  0.00     0.000 C 
BRANCH   8   9
ATOM      9  C   UNL     1     177.596 188.826 190.523  1.00  0.00     0.006 C 
BRANCH   9  10
ATOM     10  C   UNL     1     176.217 188.516 189.928  1.00  0.00     0.053 C 
BRANCH  10  11
ATOM     11  C   UNL     1     175.844 189.546 188.910  1.00  0.00     0.041 C 
ATOM     12  O   UNL     1     176.577 190.554 188.731  1.00  0.00    -0.550 OA
ATOM     13  O   UNL     1     174.714 189.368 188.122  1.00  0.00    -0.550 OA
ENDBRANCH  10  11
ENDBRANCH   9  10
ENDBRANCH   8   9
ENDBRANCH   1   8
TORSDOF 8
ENDMDL
MODEL 2
REMARK VINA RESULT:     0.000      3.677      6.016
REMARK INTER + INTRA:          -1.022
REMARK INTER:                   0.000
REMARK INTRA:                  -1.022
REMARK UNBOUND:                -1.023
REMARK SMILES O=C([O-])CCCCCCCC(=O)[O-]
REMARK SMILES IDX 7 1 6 2 5 3 4 4 2 5 1 6 3 7 8 8 9 9 10 10 11 11 12 12 13 13
REMARK H PARENT
REMARK Flexibility Score: inf
ROOT
ATOM      1  C   UNL     1     173.805 185.067 186.979  1.00  0.00     0.000 C 
ENDROOT
BRANCH   1   2
ATOM      2  C   UNL     1     174.931 184.860 185.949  1.00  0.00     0.000 C 
BRANCH   2   3
ATOM      3  C   UNL     1     176.006 185.963 185.926  1.00  0.00     0.006 C 
BRANCH   3   4
ATOM      4  C   UNL     1     177.349 185.500 186.506  1.00  0.00     0.053 C 
BRANCH   4   5
ATOM      5  C   UNL     1     177.468 185.917 187.939  1.00  0.00     0.041 C 
ATOM      6  O   UNL     1     178.343 185.396 188.680  1.00  0.00    -0.550 OA
ATOM      7  O   UNL     1     176.580 186.845 188.470  1.00  0.00    -0.550 OA
ENDBRANCH   4   5
ENDBRANCH   3   4
ENDBRANCH   2   3
ENDBRANCH   1   2
BRANCH   1   8
ATOM      8  C   UNL     1     174.052 184.312 188.296  1.00  0.00     0.000 C 
BRANCH   8   9
ATOM      9  C   UNL     1     174.621 182.902 188.068  1.00  0.00     0.006 C 
BRANCH   9  10
ATOM     10  C   UNL     1     175.898 182.639 188.877  1.00  0.00     0.053 C 
BRANCH  10  11
ATOM     11  C   UNL     1     176.992 182.150 187.982  1.00  0.00     0.041 C 
ATOM     12  O   UNL     1     176.755 181.900 186.771  1.00  0.00    -0.550 OA
ATOM     13  O   UNL     1     178.285 182.017 188.472  1.00  0.00    -0.550 OA
ENDBRANCH  10  11
ENDBRANCH   9  10
ENDBRANCH   8   9
ENDBRANCH   1   8
TORSDOF 8
ENDMDL
MODEL 3
REMARK VINA RESULT:     0.000      6.486      8.436
REMARK INTER + INTRA:          -1.022
REMARK INTER:                   0.000
REMARK INTRA:                  -1.022
REMARK UNBOUND:                -1.023
REMARK SMILES O=C([O-])CCCCCCCC(=O)[O-]
REMARK SMILES IDX 7 1 6 2 5 3 4 4 2 5 1 6 3 7 8 8 9 9 10 10 11 11 12 12 13 13
REMARK H PARENT
REMARK Flexibility Score: inf
ROOT
ATOM      1  C   UNL     1     185.406 186.239 191.055  1.00  0.00     0.000 C 
ENDROOT
BRANCH   1   2
ATOM      2  C   UNL     1     185.594 184.772 190.628  1.00  0.00     0.000 C 
BRANCH   2   3
ATOM      3  C   UNL     1     186.016 183.812 191.756  1.00  0.00     0.006 C 
BRANCH   3   4
ATOM      4  C   UNL     1     184.892 182.859 192.181  1.00  0.00     0.053 C 
BRANCH   4   5
ATOM      5  C   UNL     1     184.182 183.395 193.385  1.00  0.00     0.041 C 
ATOM      6  O   UNL     1     183.064 182.925 193.723  1.00  0.00    -0.550 OA
ATOM      7  O   UNL     1     184.732 184.448 194.106  1.00  0.00    -0.550 OA
ENDBRANCH   4   5
ENDBRANCH   3   4
ENDBRANCH   2   3
ENDBRANCH   1   2
BRANCH   1   8
ATOM      8  C   UNL     1     183.940 186.592 191.357  1.00  0.00     0.000 C 
BRANCH   8   9
ATOM      9  C   UNL     1     182.961 185.937 190.368  1.00  0.00     0.006 C 
BRANCH   9  10
ATOM     10  C   UNL     1     181.831 185.174 191.069  1.00  0.00     0.053 C 
BRANCH  10  11
ATOM     11  C   UNL     1     181.725 183.784 190.527  1.00  0.00     0.041 C 
ATOM     12  O   UNL     1     182.453 183.422 189.566  1.00  0.00    -0.550 OA
ATOM     13  O   UNL     1     180.857 182.872 191.115  1.00  0.00    -0.550 OA
ENDBRANCH  10  11
ENDBRANCH   9  10
ENDBRANCH   8   9
ENDBRANCH   1   8
TORSDOF 8
ENDMDL
MODEL 4
REMARK VINA RESULT:     0.001      5.345      7.268
REMARK INTER + INTRA:          -1.021
REMARK INTER:                   0.000
REMARK INTRA:                  -1.021
REMARK UNBOUND:                -1.023
REMARK SMILES O=C([O-])CCCCCCCC(=O)[O-]
REMARK SMILES IDX 7 1 6 2 5 3 4 4 2 5 1 6 3 7 8 8 9 9 10 10 11 11 12 12 13 13
REMARK H PARENT
REMARK Flexibility Score: inf
ROOT
ATOM      1  C   UNL     1     183.623 186.601 191.470  1.00  0.00     0.000 C 
ENDROOT
BRANCH   1   2
ATOM      2  C   UNL     1     183.810 185.134 191.042  1.00  0.00     0.000 C 
BRANCH   2   3
ATOM      3  C   UNL     1     184.212 184.170 192.175  1.00  0.00     0.006 C 
BRANCH   3   4
ATOM      4  C   UNL     1     183.082 183.211 192.572  1.00  0.00     0.053 C 
BRANCH   4   5
ATOM      5  C   UNL     1     182.344 183.740 193.762  1.00  0.00     0.041 C 
ATOM      6  O   UNL     1     182.841 184.666 194.456  1.00  0.00    -0.550 OA
ATOM      7  O   UNL     1     181.129 183.178 194.133  1.00  0.00    -0.550 OA
ENDBRANCH   4   5
ENDBRANCH   3   4
ENDBRANCH   2   3
ENDBRANCH   1   2
BRANCH   1   8
ATOM      8  C   UNL     1     182.156 186.953 191.772  1.00  0.00     0.000 C 
BRANCH   8   9
ATOM      9  C   UNL     1     181.179 186.315 190.771  1.00  0.00     0.006 C 
BRANCH   9  10
ATOM     10  C   UNL     1     180.034 185.560 191.459  1.00  0.00     0.053 C 
BRANCH  10  11
ATOM     11  C   UNL     1     179.919 184.174 190.910  1.00  0.00     0.041 C 
ATOM     12  O   UNL     1     180.668 183.801 189.969  1.00  0.00    -0.550 OA
ATOM     13  O   UNL     1     179.019 183.276 191.471  1.00  0.00    -0.550 OA
ENDBRANCH  10  11
ENDBRANCH   9  10
ENDBRANCH   8   9
ENDBRANCH   1   8
TORSDOF 8
ENDMDL
MODEL 5
REMARK VINA RESULT:     0.002      5.023      6.577
REMARK INTER + INTRA:          -1.020
REMARK INTER:                   0.000
REMARK INTRA:                  -1.020
REMARK UNBOUND:                -1.023
REMARK SMILES O=C([O-])CCCCCCCC(=O)[O-]
REMARK SMILES IDX 7 1 6 2 5 3 4 4 2 5 1 6 3 7 8 8 9 9 10 10 11 11 12 12 13 13
REMARK H PARENT
REMARK Flexibility Score: inf
ROOT
ATOM      1  C   UNL     1     178.964 187.620 195.887  1.00  0.00     0.000 C 
ENDROOT
BRANCH   1   2
ATOM      2  C   UNL     1     177.632 187.000 195.430  1.00  0.00     0.000 C 
BRANCH   2   3
ATOM      3  C   UNL     1     177.428 186.941 193.904  1.00  0.00     0.006 C 
BRANCH   3   4
ATOM      4  C   UNL     1     176.130 187.619 193.448  1.00  0.00     0.053 C 
BRANCH   4   5
ATOM      5  C   UNL     1     176.417 188.639 192.391  1.00  0.00     0.041 C 
ATOM      6  O   UNL     1     177.586 188.774 191.942  1.00  0.00    -0.550 OA
ATOM      7  O   UNL     1     175.404 189.475 191.938  1.00  0.00    -0.550 OA
ENDBRANCH   4   5
ENDBRANCH   3   4
ENDBRANCH   2   3
ENDBRANCH   1   2
BRANCH   1   8
ATOM      8  C   UNL     1     179.395 188.818 195.023  1.00  0.00     0.000 C 
BRANCH   8   9
ATOM      9  C   UNL     1     179.022 190.167 195.658  1.00  0.00     0.006 C 
BRANCH   9  10
ATOM     10  C   UNL     1     177.885 190.879 194.915  1.00  0.00     0.053 C 
BRANCH  10  11
ATOM     11  C   UNL     1     176.580 190.642 195.606  1.00  0.00     0.041 C 
ATOM     12  O   UNL     1     175.497 190.893 195.017  1.00  0.00    -0.550 OA
ATOM     13  O   UNL     1     176.559 190.097 196.884  1.00  0.00    -0.550 OA
ENDBRANCH  10  11
ENDBRANCH   9  10
ENDBRANCH   8   9
ENDBRANCH   1   8
TORSDOF 8
ENDMDL
MODEL 6
REMARK VINA RESULT:     0.002      2.872      4.730
REMARK INTER + INTRA:          -1.020
REMARK INTER:                   0.000
REMARK INTRA:                  -1.020
REMARK UNBOUND:                -1.023
REMARK SMILES O=C([O-])CCCCCCCC(=O)[O-]
REMARK SMILES IDX 7 1 6 2 5 3 4 4 2 5 1 6 3 7 8 8 9 9 10 10 11 11 12 12 13 13
REMARK H PARENT
REMARK Flexibility Score: inf
ROOT
ATOM      1  C   UNL     1     177.891 188.656 191.165  1.00  0.00     0.000 C 
ENDROOT
BRANCH   1   2
ATOM      2  C   UNL     1     177.004 188.667 189.907  1.00  0.00     0.000 C 
BRANCH   2   3
ATOM      3  C   UNL     1     175.711 189.495 190.026  1.00  0.00     0.006 C 
BRANCH   3   4
ATOM      4  C   UNL     1     175.750 190.786 189.199  1.00  0.00     0.053 C 
BRANCH   4   5
ATOM      5  C   UNL     1     176.153 191.944 190.057  1.00  0.00     0.041 C 
ATOM      6  O   UNL     1     176.132 191.840 191.312  1.00  0.00    -0.550 OA
ATOM      7  O   UNL     1     176.507 193.154 189.472  1.00  0.00    -0.550 OA
ENDBRANCH   4   5
ENDBRANCH   3   4
ENDBRANCH   2   3
ENDBRANCH   1   2
BRANCH   1   8
ATOM      8  C   UNL     1     179.014 189.707 191.114  1.00  0.00     0.000 C 
BRANCH   8   9
ATOM      9  C   UNL     1     179.658 189.814 189.722  1.00  0.00     0.006 C 
BRANCH   9  10
ATOM     10  C   UNL     1     179.726 191.258 189.209  1.00  0.00     0.053 C 
BRANCH  10  11
ATOM     11  C   UNL     1     179.140 191.353 187.837  1.00  0.00     0.041 C 
ATOM     12  O   UNL     1     178.735 190.316 187.248  1.00  0.00    -0.550 OA
ATOM     13  O   UNL     1     178.994 192.593 187.227  1.00  0.00    -0.550 OA
ENDBRANCH  10  11
ENDBRANCH   9  10
ENDBRANCH   8   9
ENDBRANCH   1   8
TORSDOF 8
ENDMDL
MODEL 7
REMARK VINA RESULT:     0.002      6.608      8.401
REMARK INTER + INTRA:          -1.020
REMARK INTER:                   0.000
REMARK INTRA:                  -1.020
REMARK UNBOUND:                -1.023
REMARK SMILES O=C([O-])CCCCCCCC(=O)[O-]
REMARK SMILES IDX 7 1 6 2 5 3 4 4 2 5 1 6 3 7 8 8 9 9 10 10 11 11 12 12 13 13
REMARK H PARENT
REMARK Flexibility Score: inf
ROOT
ATOM      1  C   UNL     1     182.053 188.331 182.215  1.00  0.00     0.000 C 
ENDROOT
BRANCH   1   2
ATOM      2  C   UNL     1     183.500 187.833 182.385  1.00  0.00     0.000 C 
BRANCH   2   3
ATOM      3  C   UNL     1     184.585 188.785 181.847  1.00  0.00     0.006 C 
BRANCH   3   4
ATOM      4  C   UNL     1     185.390 189.464 182.963  1.00  0.00     0.053 C 
BRANCH   4   5
ATOM      5  C   UNL     1     184.832 190.822 183.256  1.00  0.00     0.041 C 
ATOM      6  O   UNL     1     184.037 191.368 182.447  1.00  0.00    -0.550 OA
ATOM      7  O   UNL     1     185.230 191.506 184.398  1.00  0.00    -0.550 OA
ENDBRANCH   4   5
ENDBRANCH   3   4
ENDBRANCH   2   3
ENDBRANCH   1   2
BRANCH   1   8
ATOM      8  C   UNL     1     181.508 189.027 183.474  1.00  0.00     0.000 C 
BRANCH   8   9
ATOM      9  C   UNL     1     181.941 188.322 184.770  1.00  0.00     0.006 C 
BRANCH   9  10
ATOM     10  C   UNL     1     182.561 189.285 185.791  1.00  0.00     0.053 C 
BRANCH  10  11
ATOM     11  C   UNL     1     183.879 188.763 186.266  1.00  0.00     0.041 C 
ATOM     12  O   UNL     1     184.299 187.645 185.869  1.00  0.00    -0.550 OA
ATOM     13  O   UNL     1     184.669 189.535 187.109  1.00  0.00    -0.550 OA
ENDBRANCH  10  11
ENDBRANCH   9  10
ENDBRANCH   8   9
ENDBRANCH   1   8
TORSDOF 8
ENDMDL
MODEL 8
REMARK VINA RESULT:     0.002      4.320      6.079
REMARK INTER + INTRA:          -1.020
REMARK INTER:                   0.000
REMARK INTRA:                  -1.020
REMARK UNBOUND:                -1.023
REMARK SMILES O=C([O-])CCCCCCCC(=O)[O-]
REMARK SMILES IDX 7 1 6 2 5 3 4 4 2 5 1 6 3 7 8 8 9 9 10 10 11 11 12 12 13 13
REMARK H PARENT
REMARK Flexibility Score: inf
ROOT
ATOM      1  C   UNL     1     181.587 188.240 188.339  1.00  0.00     0.000 C 
ENDROOT
BRANCH   1   2
ATOM      2  C   UNL     1     181.085 189.479 187.576  1.00  0.00     0.000 C 
BRANCH   2   3
ATOM      3  C   UNL     1     179.874 189.232 186.656  1.00  0.00     0.006 C 
BRANCH   3   4
ATOM      4  C   UNL     1     180.243 189.243 185.167  1.00  0.00     0.053 C 
BRANCH   4   5
ATOM      5  C   UNL     1     180.497 187.850 184.682  1.00  0.00     0.041 C 
ATOM      6  O   UNL     1     181.055 187.658 183.570  1.00  0.00    -0.550 OA
ATOM      7  O   UNL     1     180.073 186.763 185.437  1.00  0.00    -0.550 OA
ENDBRANCH   4   5
ENDBRANCH   3   4
ENDBRANCH   2   3
ENDBRANCH   1   2
BRANCH   1   8
ATOM      8  C   UNL     1     182.796 187.571 187.664  1.00  0.00     0.000 C 
BRANCH   8   9
ATOM      9  C   UNL     1     183.771 188.592 187.055  1.00  0.00     0.006 C 
BRANCH   9  10
ATOM     10  C   UNL     1     184.103 188.294 185.588  1.00  0.00     0.053 C 
BRANCH  10  11
ATOM     11  C   UNL     1     183.891 189.513 184.747  1.00  0.00     0.041 C 
ATOM     12  O   UNL     1     183.942 189.433 183.492  1.00  0.00    -0.550 OA
ATOM     13  O   UNL     1     183.587 190.728 185.348  1.00  0.00    -0.550 OA
ENDBRANCH  10  11
ENDBRANCH   9  10
ENDBRANCH   8   9
ENDBRANCH   1   8
TORSDOF 8
ENDMDL
MODEL 9
REMARK VINA RESULT:     0.002      6.288      7.968
REMARK INTER + INTRA:          -1.019
REMARK INTER:                   0.000
REMARK INTRA:                  -1.019
REMARK UNBOUND:                -1.023
REMARK SMILES O=C([O-])CCCCCCCC(=O)[O-]
REMARK SMILES IDX 7 1 6 2 5 3 4 4 2 5 1 6 3 7 8 8 9 9 10 10 11 11 12 12 13 13
REMARK H PARENT
REMARK Flexibility Score: inf
ROOT
ATOM      1  C   UNL     1     176.336 183.464 190.280  1.00  0.00     0.000 C 
ENDROOT
BRANCH   1   2
ATOM      2  C   UNL     1     176.159 182.006 189.817  1.00  0.00     0.000 C 
BRANCH   2   3
ATOM      3  C   UNL     1     177.072 181.575 188.653  1.00  0.00     0.006 C 
BRANCH   3   4
ATOM      4  C   UNL     1     178.180 180.609 189.090  1.00  0.00     0.053 C 
BRANCH   4   5
ATOM      5  C   UNL     1     179.448 181.358 189.359  1.00  0.00     0.041 C 
ATOM      6  O   UNL     1     179.584 182.541 188.951  1.00  0.00    -0.550 OA
ATOM      7  O   UNL     1     180.500 180.731 190.017  1.00  0.00    -0.550 OA
ENDBRANCH   4   5
ENDBRANCH   3   4
ENDBRANCH   2   3
ENDBRANCH   1   2
BRANCH   1   8
ATOM      8  C   UNL     1     177.270 183.596 191.495  1.00  0.00     0.000 C 
BRANCH   8   9
ATOM      9  C   UNL     1     177.067 182.468 192.520  1.00  0.00     0.006 C 
BRANCH   9  10
ATOM     10  C   UNL     1     178.380 181.781 192.915  1.00  0.00     0.053 C 
BRANCH  10  11
ATOM     11  C   UNL     1     178.255 180.297 192.775  1.00  0.00     0.041 C 
ATOM     12  O   UNL     1     177.157 179.782 192.438  1.00  0.00    -0.550 OA
ATOM     13  O   UNL     1     179.366 179.485 192.966  1.00  0.00    -0.550 OA
ENDBRANCH  10  11
ENDBRANCH   9  10
ENDBRANCH   8   9
ENDBRANCH   1   8
TORSDOF 8
ENDMDL
