MODEL 1
REMARK VINA RESULT:    -3.440      0.000      0.000
REMARK INTER + INTRA:          -3.855
REMARK INTER:                  -3.843
REMARK INTRA:                  -0.012
REMARK UNBOUND:                -0.012
REMARK SMILES CCCC(=O)[O-]
REMARK SMILES IDX 3 1 4 2 5 3 6 4 2 5 1 6
REMARK H PARENT
REMARK Flexibility Score: inf
ROOT
ATOM      1  C   UNL     1     -99.314 -59.979 -66.514  1.00  0.00     0.052 C 
ENDROOT
BRANCH   1   2
ATOM      2  C   UNL     1    -100.784 -60.251 -66.458  1.00  0.00     0.041 C 
ATOM      3  O   UNL     1    -101.310 -61.061 -67.266  1.00  0.00    -0.550 OA
ATOM      4  O   UNL     1    -101.582 -59.572 -65.545  1.00  0.00    -0.550 OA
ENDBRANCH   1   2
BRANCH   1   5
ATOM      5  C   UNL     1     -99.043 -58.638 -67.201  1.00  0.00     0.003 C 
ATOM      6  C   UNL     1     -97.855 -57.923 -66.565  1.00  0.00     0.004 C 
ENDBRANCH   1   5
TORSDOF 2
ENDMDL
MODEL 2
REMARK VINA RESULT:    -3.402      0.149      1.320
REMARK INTER + INTRA:          -3.812
REMARK INTER:                  -3.804
REMARK INTRA:                  -0.008
REMARK UNBOUND:                -0.012
REMARK SMILES CCCC(=O)[O-]
REMARK SMILES IDX 3 1 4 2 5 3 6 4 2 5 1 6
REMARK H PARENT
REMARK Flexibility Score: inf
ROOT
ATOM      1  C   UNL     1     -99.347 -59.915 -66.414  1.00  0.00     0.052 C 
ENDROOT
BRANCH   1   2
ATOM      2  C   UNL     1    -100.819 -60.182 -66.424  1.00  0.00     0.041 C 
ATOM      3  O   UNL     1    -101.544 -59.768 -65.481  1.00  0.00    -0.550 OA
ATOM      4  O   UNL     1    -101.383 -60.933 -67.448  1.00  0.00    -0.550 OA
ENDBRANCH   1   2
BRANCH   1   5
ATOM      5  C   UNL     1     -99.036 -58.605 -67.143  1.00  0.00     0.003 C 
ATOM      6  C   UNL     1     -97.778 -57.948 -66.582  1.00  0.00     0.004 C 
ENDBRANCH   1   5
TORSDOF 2
ENDMDL
MODEL 3
REMARK VINA RESULT:    -3.259      1.904      1.985
REMARK INTER + INTRA:          -3.652
REMARK INTER:                  -3.581
REMARK INTRA:                  -0.071
REMARK UNBOUND:                -0.012
REMARK SMILES CCCC(=O)[O-]
REMARK SMILES IDX 3 1 4 2 5 3 6 4 2 5 1 6
REMARK H PARENT
REMARK Flexibility Score: inf
ROOT
ATOM      1  C   UNL     1     -99.672 -59.474 -66.640  1.00  0.00     0.052 C 
ENDROOT
BRANCH   1   2
ATOM      2  C   UNL     1     -98.906 -60.740 -66.425  1.00  0.00     0.041 C 
ATOM      3  O   UNL     1     -98.510 -61.416 -67.411  1.00  0.00    -0.550 OA
ATOM      4  O   UNL     1     -98.672 -61.201 -65.136  1.00  0.00    -0.550 OA
ENDBRANCH   1   2
BRANCH   1   5
ATOM      5  C   UNL     1     -98.795 -58.427 -67.331  1.00  0.00     0.003 C 
ATOM      6  C   UNL     1     -97.655 -57.976 -66.423  1.00  0.00     0.004 C 
ENDBRANCH   1   5
TORSDOF 2
ENDMDL
MODEL 4
REMARK VINA RESULT:    -3.254      1.820      2.213
REMARK INTER + INTRA:          -3.647
REMARK INTER:                  -3.578
REMARK INTRA:                  -0.069
REMARK UNBOUND:                -0.012
REMARK SMILES CCCC(=O)[O-]
REMARK SMILES IDX 3 1 4 2 5 3 6 4 2 5 1 6
REMARK H PARENT
REMARK Flexibility Score: inf
ROOT
ATOM      1  C   UNL     1     -99.599 -59.209 -66.747  1.00  0.00     0.052 C 
ENDROOT
BRANCH   1   2
ATOM      2  C   UNL     1     -99.082 -60.587 -66.479  1.00  0.00     0.041 C 
ATOM      3  O   UNL     1     -99.086 -61.047 -65.307  1.00  0.00    -0.550 OA
ATOM      4  O   UNL     1     -98.550 -61.344 -67.515  1.00  0.00    -0.550 OA
ENDBRANCH   1   2
BRANCH   1   5
ATOM      5  C   UNL     1     -98.497 -58.331 -67.345  1.00  0.00     0.003 C 
ATOM      6  C   UNL     1     -97.453 -57.965 -66.294  1.00  0.00     0.004 C 
ENDBRANCH   1   5
TORSDOF 2
ENDMDL
MODEL 5
REMARK VINA RESULT:    -3.209      1.832      1.923
REMARK INTER + INTRA:          -3.597
REMARK INTER:                  -3.553
REMARK INTRA:                  -0.044
REMARK UNBOUND:                -0.012
REMARK SMILES CCCC(=O)[O-]
REMARK SMILES IDX 3 1 4 2 5 3 6 4 2 5 1 6
REMARK H PARENT
REMARK Flexibility Score: inf
ROOT
ATOM      1  C   UNL     1     -98.859 -60.261 -67.119  1.00  0.00     0.052 C 
ENDROOT
BRANCH   1   2
ATOM      2  C   UNL     1     -99.188 -60.859 -65.788  1.00  0.00     0.041 C 
ATOM      3  O   UNL     1    -100.377 -61.163 -65.506  1.00  0.00    -0.550 OA
ATOM      4  O   UNL     1     -98.189 -61.033 -64.838  1.00  0.00    -0.550 OA
ENDBRANCH   1   2
BRANCH   1   5
ATOM      5  C   UNL     1     -99.118 -58.753 -67.109  1.00  0.00     0.003 C 
ATOM      6  C   UNL     1     -97.886 -57.985 -66.639  1.00  0.00     0.004 C 
ENDBRANCH   1   5
TORSDOF 2
ENDMDL
MODEL 6
REMARK VINA RESULT:    -3.192      2.768      3.179
REMARK INTER + INTRA:          -3.578
REMARK INTER:                  -3.532
REMARK INTRA:                  -0.046
REMARK UNBOUND:                -0.012
REMARK SMILES CCCC(=O)[O-]
REMARK SMILES IDX 3 1 4 2 5 3 6 4 2 5 1 6
REMARK H PARENT
REMARK Flexibility Score: inf
ROOT
ATOM      1  C   UNL     1     -97.852 -60.088 -66.573  1.00  0.00     0.052 C 
ENDROOT
BRANCH   1   2
ATOM      2  C   UNL     1     -98.436 -58.736 -66.834  1.00  0.00     0.041 C 
ATOM      3  O   UNL     1     -99.547 -58.627 -67.418  1.00  0.00    -0.550 OA
ATOM      4  O   UNL     1     -97.730 -57.593 -66.478  1.00  0.00    -0.550 OA
ENDBRANCH   1   2
BRANCH   1   5
ATOM      5  C   UNL     1     -98.169 -61.041 -67.729  1.00  0.00     0.003 C 
ATOM      6  C   UNL     1     -97.076 -61.000 -68.792  1.00  0.00     0.004 C 
ENDBRANCH   1   5
TORSDOF 2
ENDMDL
MODEL 7
REMARK VINA RESULT:    -3.191      2.615      3.149
REMARK INTER + INTRA:          -3.576
REMARK INTER:                  -3.529
REMARK INTRA:                  -0.047
REMARK UNBOUND:                -0.012
REMARK SMILES CCCC(=O)[O-]
REMARK SMILES IDX 3 1 4 2 5 3 6 4 2 5 1 6
REMARK H PARENT
REMARK Flexibility Score: inf
ROOT
ATOM      1  C   UNL     1     -97.636 -60.081 -66.954  1.00  0.00     0.052 C 
ENDROOT
BRANCH   1   2
ATOM      2  C   UNL     1     -98.415 -58.806 -66.881  1.00  0.00     0.041 C 
ATOM      3  O   UNL     1     -99.628 -58.784 -67.219  1.00  0.00    -0.550 OA
ATOM      4  O   UNL     1     -97.788 -57.631 -66.487  1.00  0.00    -0.550 OA
ENDBRANCH   1   2
BRANCH   1   5
ATOM      5  C   UNL     1     -98.144 -61.080 -65.912  1.00  0.00     0.003 C 
ATOM      6  C   UNL     1     -97.402 -60.921 -64.588  1.00  0.00     0.004 C 
ENDBRANCH   1   5
TORSDOF 2
ENDMDL
MODEL 8
REMARK VINA RESULT:    -3.184      2.553      3.400
REMARK INTER + INTRA:          -3.569
REMARK INTER:                  -3.562
REMARK INTRA:                  -0.007
REMARK UNBOUND:                -0.012
REMARK SMILES CCCC(=O)[O-]
REMARK SMILES IDX 3 1 4 2 5 3 6 4 2 5 1 6
REMARK H PARENT
REMARK Flexibility Score: inf
ROOT
ATOM      1  C   UNL     1     -99.707 -59.037 -67.139  1.00  0.00     0.052 C 
ENDROOT
BRANCH   1   2
ATOM      2  C   UNL     1     -98.240 -58.793 -66.982  1.00  0.00     0.041 C 
ATOM      3  O   UNL     1     -97.410 -59.670 -67.342  1.00  0.00    -0.550 OA
ATOM      4  O   UNL     1     -97.789 -57.620 -66.391  1.00  0.00    -0.550 OA
ENDBRANCH   1   2
BRANCH   1   5
ATOM      5  C   UNL     1    -100.151 -60.215 -66.267  1.00  0.00     0.003 C 
ATOM      6  C   UNL     1    -101.520 -59.956 -65.646  1.00  0.00     0.004 C 
ENDBRANCH   1   5
TORSDOF 2
ENDMDL
MODEL 9
REMARK VINA RESULT:    -3.069      2.970      3.442
REMARK INTER + INTRA:          -3.439
REMARK INTER:                  -3.401
REMARK INTRA:                  -0.039
REMARK UNBOUND:                -0.012
REMARK SMILES CCCC(=O)[O-]
REMARK SMILES IDX 3 1 4 2 5 3 6 4 2 5 1 6
REMARK H PARENT
REMARK Flexibility Score: inf
ROOT
ATOM      1  C   UNL     1     -97.934 -61.763 -64.151  1.00  0.00     0.052 C 
ENDROOT
BRANCH   1   2
ATOM      2  C   UNL     1     -99.271 -61.774 -64.821  1.00  0.00     0.041 C 
ATOM      3  O   UNL     1    -100.306 -61.460 -64.176  1.00  0.00    -0.550 OA
ATOM      4  O   UNL     1     -99.382 -62.180 -66.145  1.00  0.00    -0.550 OA
ENDBRANCH   1   2
BRANCH   1   5
ATOM      5  C   UNL     1     -97.030 -60.698 -64.776  1.00  0.00     0.003 C 
ATOM      6  C   UNL     1     -95.930 -61.334 -65.619  1.00  0.00     0.004 C 
ENDBRANCH   1   5
TORSDOF 2
ENDMDL
