MODEL 1
REMARK VINA RESULT:    25.601      0.000      0.000
REMARK INTER + INTRA:          57.264
REMARK INTER:                  58.528
REMARK INTRA:                  -1.264
REMARK UNBOUND:                -1.264
REMARK SMILES CCCCCCCCCCCCCCCCCCCCCCCC(=O)[O-]
REMARK SMILES IDX 13 1 14 2 15 3 16 4 17 5 18 6 19 7 20 8 21 9 22 10 23 11
REMARK SMILES IDX 24 12 25 13 26 14 12 15 11 16 10 17 9 18 8 19 7 20 6 21 5 22
REMARK SMILES IDX 4 23 3 24 2 25 1 26
REMARK H PARENT
REMARK Flexibility Score: inf
ROOT
ATOM      1  C   UNL     1      55.395  49.246  16.296  1.00  0.00     0.000 C 
ENDROOT
BRANCH   1   2
ATOM      2  C   UNL     1      56.800  49.028  16.881  1.00  0.00     0.000 C 
BRANCH   2   3
ATOM      3  C   UNL     1      56.788  47.918  17.941  1.00  0.00     0.000 C 
BRANCH   3   4
ATOM      4  C   UNL     1      55.903  48.310  19.132  1.00  0.00     0.000 C 
BRANCH   4   5
ATOM      5  C   UNL     1      56.497  47.881  20.486  1.00  0.00     0.000 C 
BRANCH   5   6
ATOM      6  C   UNL     1      56.218  46.418  20.888  1.00  0.00     0.000 C 
BRANCH   6   7
ATOM      7  C   UNL     1      55.176  45.684  20.020  1.00  0.00     0.000 C 
BRANCH   7   8
ATOM      8  C   UNL     1      55.409  44.171  19.861  1.00  0.00     0.000 C 
BRANCH   8   9
ATOM      9  C   UNL     1      56.477  43.627  20.825  1.00  0.00     0.000 C 
BRANCH   9  10
ATOM     10  C   UNL     1      56.590  42.095  20.782  1.00  0.00     0.006 C 
BRANCH  10  11
ATOM     11  C   UNL     1      55.397  41.389  21.441  1.00  0.00     0.053 C 
BRANCH  11  12
ATOM     12  C   UNL     1      55.160  40.052  20.810  1.00  0.00     0.041 C 
ATOM     13  O   UNL     1      54.101  39.836  20.162  1.00  0.00    -0.550 OA
ATOM     14  O   UNL     1      56.092  39.033  20.968  1.00  0.00    -0.550 OA
ENDBRANCH  11  12
ENDBRANCH  10  11
ENDBRANCH   9  10
ENDBRANCH   8   9
ENDBRANCH   7   8
ENDBRANCH   6   7
ENDBRANCH   5   6
ENDBRANCH   4   5
ENDBRANCH   3   4
ENDBRANCH   2   3
ENDBRANCH   1   2
BRANCH   1  15
ATOM     15  C   UNL     1      55.225  50.634  15.659  1.00  0.00     0.000 C 
BRANCH  15  16
ATOM     16  C   UNL     1      55.577  51.780  16.624  1.00  0.00     0.000 C 
BRANCH  16  17
ATOM     17  C   UNL     1      54.874  51.642  17.988  1.00  0.00     0.000 C 
BRANCH  17  18
ATOM     18  C   UNL     1      55.248  52.723  19.021  1.00  0.00    -0.000 C 
BRANCH  18  19
ATOM     19  C   UNL     1      54.955  52.286  20.468  1.00  0.00    -0.000 C 
BRANCH  19  20
ATOM     20  C   UNL     1      55.181  53.422  21.482  1.00  0.00    -0.000 C 
BRANCH  20  21
ATOM     21  C   UNL     1      53.886  54.149  21.916  1.00  0.00    -0.000 C 
BRANCH  21  22
ATOM     22  C   UNL     1      53.776  54.366  23.437  1.00  0.00    -0.000 C 
BRANCH  22  23
ATOM     23  C   UNL     1      53.650  55.839  23.873  1.00  0.00    -0.000 C 
BRANCH  23  24
ATOM     24  C   UNL     1      54.986  56.557  24.158  1.00  0.00    -0.000 C 
BRANCH  24  25
ATOM     25  C   UNL     1      55.800  55.975  25.328  1.00  0.00    -0.003 C 
ATOM     26  C   UNL     1      57.169  56.637  25.488  1.00  0.00     0.004 C 
ENDBRANCH  24  25
ENDBRANCH  23  24
ENDBRANCH  22  23
ENDBRANCH  21  22
ENDBRANCH  20  21
ENDBRANCH  19  20
ENDBRANCH  18  19
ENDBRANCH  17  18
ENDBRANCH  16  17
ENDBRANCH  15  16
ENDBRANCH   1  15
TORSDOF 22
ENDMDL
MODEL 2
REMARK VINA RESULT:    25.939      3.205      4.985
REMARK INTER + INTRA:          58.035
REMARK INTER:                  59.521
REMARK INTRA:                  -1.486
REMARK UNBOUND:                -1.264
REMARK SMILES CCCCCCCCCCCCCCCCCCCCCCCC(=O)[O-]
REMARK SMILES IDX 13 1 14 2 15 3 16 4 17 5 18 6 19 7 20 8 21 9 22 10 23 11
REMARK SMILES IDX 24 12 25 13 26 14 12 15 11 16 10 17 9 18 8 19 7 20 6 21 5 22
REMARK SMILES IDX 4 23 3 24 2 25 1 26
REMARK H PARENT
REMARK Flexibility Score: inf
ROOT
ATOM      1  C   UNL     1      55.250  53.328  18.981  1.00  0.00     0.000 C 
ENDROOT
BRANCH   1   2
ATOM      2  C   UNL     1      55.033  52.499  17.705  1.00  0.00     0.000 C 
BRANCH   2   3
ATOM      3  C   UNL     1      56.374  52.103  17.072  1.00  0.00     0.000 C 
BRANCH   3   4
ATOM      4  C   UNL     1      56.152  51.352  15.751  1.00  0.00     0.000 C 
BRANCH   4   5
ATOM      5  C   UNL     1      55.046  50.286  15.847  1.00  0.00     0.000 C 
BRANCH   5   6
ATOM      6  C   UNL     1      55.273  49.206  16.924  1.00  0.00     0.000 C 
BRANCH   6   7
ATOM      7  C   UNL     1      56.744  48.815  17.168  1.00  0.00     0.000 C 
BRANCH   7   8
ATOM      8  C   UNL     1      56.966  47.748  18.254  1.00  0.00     0.000 C 
BRANCH   8   9
ATOM      9  C   UNL     1      56.383  48.155  19.618  1.00  0.00     0.000 C 
BRANCH   9  10
ATOM     10  C   UNL     1      55.721  46.981  20.355  1.00  0.00     0.006 C 
BRANCH  10  11
ATOM     11  C   UNL     1      56.691  46.233  21.280  1.00  0.00     0.053 C 
BRANCH  11  12
ATOM     12  C   UNL     1      57.350  47.182  22.231  1.00  0.00     0.041 C 
ATOM     13  O   UNL     1      58.589  47.398  22.154  1.00  0.00    -0.550 OA
ATOM     14  O   UNL     1      56.603  47.802  23.227  1.00  0.00    -0.550 OA
ENDBRANCH  11  12
ENDBRANCH  10  11
ENDBRANCH   9  10
ENDBRANCH   8   9
ENDBRANCH   7   8
ENDBRANCH   6   7
ENDBRANCH   5   6
ENDBRANCH   4   5
ENDBRANCH   3   4
ENDBRANCH   2   3
ENDBRANCH   1   2
BRANCH   1  15
ATOM     15  C   UNL     1      55.492  52.457  20.224  1.00  0.00     0.000 C 
BRANCH  15  16
ATOM     16  C   UNL     1      55.010  53.129  21.523  1.00  0.00     0.000 C 
BRANCH  16  17
ATOM     17  C   UNL     1      53.477  53.105  21.669  1.00  0.00     0.000 C 
BRANCH  17  18
ATOM     18  C   UNL     1      52.894  54.219  22.558  1.00  0.00    -0.000 C 
BRANCH  18  19
ATOM     19  C   UNL     1      53.760  54.501  23.799  1.00  0.00    -0.000 C 
BRANCH  19  20
ATOM     20  C   UNL     1      53.717  55.981  24.222  1.00  0.00    -0.000 C 
BRANCH  20  21
ATOM     21  C   UNL     1      54.750  56.877  23.496  1.00  0.00    -0.000 C 
BRANCH  21  22
ATOM     22  C   UNL     1      56.180  56.755  24.056  1.00  0.00    -0.000 C 
BRANCH  22  23
ATOM     23  C   UNL     1      56.325  57.125  25.545  1.00  0.00    -0.000 C 
BRANCH  23  24
ATOM     24  C   UNL     1      57.426  56.359  26.308  1.00  0.00    -0.000 C 
BRANCH  24  25
ATOM     25  C   UNL     1      58.291  55.427  25.440  1.00  0.00    -0.003 C 
ATOM     26  C   UNL     1      58.491  54.047  26.065  1.00  0.00     0.004 C 
ENDBRANCH  24  25
ENDBRANCH  23  24
ENDBRANCH  22  23
ENDBRANCH  21  22
ENDBRANCH  20  21
ENDBRANCH  19  20
ENDBRANCH  18  19
ENDBRANCH  17  18
ENDBRANCH  16  17
ENDBRANCH  15  16
ENDBRANCH   1  15
TORSDOF 22
ENDMDL
MODEL 3
REMARK VINA RESULT:    26.405      3.222      5.618
REMARK INTER + INTRA:          59.101
REMARK INTER:                  59.110
REMARK INTRA:                  -0.009
REMARK UNBOUND:                -1.264
REMARK SMILES CCCCCCCCCCCCCCCCCCCCCCCC(=O)[O-]
REMARK SMILES IDX 13 1 14 2 15 3 16 4 17 5 18 6 19 7 20 8 21 9 22 10 23 11
REMARK SMILES IDX 24 12 25 13 26 14 12 15 11 16 10 17 9 18 8 19 7 20 6 21 5 22
REMARK SMILES IDX 4 23 3 24 2 25 1 26
REMARK H PARENT
REMARK Flexibility Score: inf
ROOT
ATOM      1  C   UNL     1      54.491  53.034  19.688  1.00  0.00     0.000 C 
ENDROOT
BRANCH   1   2
ATOM      2  C   UNL     1      55.604  52.815  18.652  1.00  0.00     0.000 C 
BRANCH   2   3
ATOM      3  C   UNL     1      55.036  52.237  17.349  1.00  0.00     0.000 C 
BRANCH   3   4
ATOM      4  C   UNL     1      56.089  51.385  16.625  1.00  0.00     0.000 C 
BRANCH   4   5
ATOM      5  C   UNL     1      55.466  50.311  15.714  1.00  0.00     0.000 C 
BRANCH   5   6
ATOM      6  C   UNL     1      55.955  48.871  15.976  1.00  0.00     0.000 C 
BRANCH   6   7
ATOM      7  C   UNL     1      57.175  48.747  16.909  1.00  0.00     0.000 C 
BRANCH   7   8
ATOM      8  C   UNL     1      56.950  47.892  18.169  1.00  0.00     0.000 C 
BRANCH   8   9
ATOM      9  C   UNL     1      55.729  48.345  18.987  1.00  0.00     0.000 C 
BRANCH   9  10
ATOM     10  C   UNL     1      55.992  48.332  20.501  1.00  0.00     0.006 C 
BRANCH  10  11
ATOM     11  C   UNL     1      56.402  46.949  21.025  1.00  0.00     0.053 C 
BRANCH  11  12
ATOM     12  C   UNL     1      57.198  47.077  22.286  1.00  0.00     0.041 C 
ATOM     13  O   UNL     1      58.369  47.542  22.252  1.00  0.00    -0.550 OA
ATOM     14  O   UNL     1      56.661  46.648  23.495  1.00  0.00    -0.550 OA
ENDBRANCH  11  12
ENDBRANCH  10  11
ENDBRANCH   9  10
ENDBRANCH   8   9
ENDBRANCH   7   8
ENDBRANCH   6   7
ENDBRANCH   5   6
ENDBRANCH   4   5
ENDBRANCH   3   4
ENDBRANCH   2   3
ENDBRANCH   1   2
BRANCH   1  15
ATOM     15  C   UNL     1      54.996  52.930  21.137  1.00  0.00     0.000 C 
BRANCH  15  16
ATOM     16  C   UNL     1      53.863  53.049  22.172  1.00  0.00     0.000 C 
BRANCH  16  17
ATOM     17  C   UNL     1      53.272  54.470  22.242  1.00  0.00     0.000 C 
BRANCH  17  18
ATOM     18  C   UNL     1      53.614  55.250  23.527  1.00  0.00    -0.000 C 
BRANCH  18  19
ATOM     19  C   UNL     1      54.812  56.198  23.344  1.00  0.00    -0.000 C 
BRANCH  19  20
ATOM     20  C   UNL     1      55.735  56.223  24.576  1.00  0.00    -0.000 C 
BRANCH  20  21
ATOM     21  C   UNL     1      54.985  56.308  25.927  1.00  0.00    -0.000 C 
BRANCH  21  22
ATOM     22  C   UNL     1      53.586  55.662  25.901  1.00  0.00    -0.000 C 
BRANCH  22  23
ATOM     23  C   UNL     1      52.974  55.390  27.289  1.00  0.00    -0.000 C 
BRANCH  23  24
ATOM     24  C   UNL     1      52.820  53.899  27.659  1.00  0.00    -0.000 C 
BRANCH  24  25
ATOM     25  C   UNL     1      51.945  53.623  28.895  1.00  0.00    -0.003 C 
ATOM     26  C   UNL     1      51.008  52.430  28.706  1.00  0.00     0.004 C 
ENDBRANCH  24  25
ENDBRANCH  23  24
ENDBRANCH  22  23
ENDBRANCH  21  22
ENDBRANCH  20  21
ENDBRANCH  19  20
ENDBRANCH  18  19
ENDBRANCH  17  18
ENDBRANCH  16  17
ENDBRANCH  15  16
ENDBRANCH   1  15
TORSDOF 22
ENDMDL
MODEL 4
REMARK VINA RESULT:    26.523      2.170      2.946
REMARK INTER + INTRA:          59.371
REMARK INTER:                  60.525
REMARK INTRA:                  -1.154
REMARK UNBOUND:                -1.264
REMARK SMILES CCCCCCCCCCCCCCCCCCCCCCCC(=O)[O-]
REMARK SMILES IDX 13 1 14 2 15 3 16 4 17 5 18 6 19 7 20 8 21 9 22 10 23 11
REMARK SMILES IDX 24 12 25 13 26 14 12 15 11 16 10 17 9 18 8 19 7 20 6 21 5 22
REMARK SMILES IDX 4 23 3 24 2 25 1 26
REMARK H PARENT
REMARK Flexibility Score: inf
ROOT
ATOM      1  C   UNL     1      55.910  48.120  19.785  1.00  0.00     0.000 C 
ENDROOT
BRANCH   1   2
ATOM      2  C   UNL     1      57.248  47.599  20.333  1.00  0.00     0.000 C 
BRANCH   2   3
ATOM      3  C   UNL     1      57.482  48.085  21.769  1.00  0.00     0.000 C 
BRANCH   3   4
ATOM      4  C   UNL     1      57.848  46.912  22.690  1.00  0.00     0.000 C 
BRANCH   4   5
ATOM      5  C   UNL     1      56.628  46.064  23.093  1.00  0.00     0.000 C 
BRANCH   5   6
ATOM      6  C   UNL     1      56.792  44.545  22.883  1.00  0.00     0.000 C 
BRANCH   6   7
ATOM      7  C   UNL     1      57.308  44.123  21.493  1.00  0.00     0.000 C 
BRANCH   7   8
ATOM      8  C   UNL     1      56.379  43.176  20.711  1.00  0.00     0.000 C 
BRANCH   8   9
ATOM      9  C   UNL     1      55.867  42.004  21.565  1.00  0.00     0.000 C 
BRANCH   9  10
ATOM     10  C   UNL     1      55.117  40.949  20.735  1.00  0.00     0.006 C 
BRANCH  10  11
ATOM     11  C   UNL     1      55.242  39.534  21.315  1.00  0.00     0.053 C 
BRANCH  11  12
ATOM     12  C   UNL     1      56.598  38.965  21.031  1.00  0.00     0.041 C 
ATOM     13  O   UNL     1      56.969  37.901  21.596  1.00  0.00    -0.550 OA
ATOM     14  O   UNL     1      57.465  39.629  20.172  1.00  0.00    -0.550 OA
ENDBRANCH  11  12
ENDBRANCH  10  11
ENDBRANCH   9  10
ENDBRANCH   8   9
ENDBRANCH   7   8
ENDBRANCH   6   7
ENDBRANCH   5   6
ENDBRANCH   4   5
ENDBRANCH   3   4
ENDBRANCH   2   3
ENDBRANCH   1   2
BRANCH   1  15
ATOM     15  C   UNL     1      55.101  48.902  20.833  1.00  0.00     0.000 C 
BRANCH  15  16
ATOM     16  C   UNL     1      54.971  50.397  20.489  1.00  0.00     0.000 C 
BRANCH  16  17
ATOM     17  C   UNL     1      53.765  51.060  21.181  1.00  0.00     0.000 C 
BRANCH  17  18
ATOM     18  C   UNL     1      53.815  52.599  21.233  1.00  0.00    -0.000 C 
BRANCH  18  19
ATOM     19  C   UNL     1      53.389  53.159  22.602  1.00  0.00    -0.000 C 
BRANCH  19  20
ATOM     20  C   UNL     1      53.484  54.695  22.664  1.00  0.00    -0.000 C 
BRANCH  20  21
ATOM     21  C   UNL     1      53.276  55.285  24.080  1.00  0.00    -0.000 C 
BRANCH  21  22
ATOM     22  C   UNL     1      53.838  56.709  24.247  1.00  0.00    -0.000 C 
BRANCH  22  23
ATOM     23  C   UNL     1      55.072  56.814  25.164  1.00  0.00    -0.000 C 
BRANCH  23  24
ATOM     24  C   UNL     1      56.433  56.638  24.458  1.00  0.00    -0.000 C 
BRANCH  24  25
ATOM     25  C   UNL     1      57.577  56.145  25.363  1.00  0.00    -0.003 C 
ATOM     26  C   UNL     1      57.904  57.121  26.493  1.00  0.00     0.004 C 
ENDBRANCH  24  25
ENDBRANCH  23  24
ENDBRANCH  22  23
ENDBRANCH  21  22
ENDBRANCH  20  21
ENDBRANCH  19  20
ENDBRANCH  18  19
ENDBRANCH  17  18
ENDBRANCH  16  17
ENDBRANCH  15  16
ENDBRANCH   1  15
TORSDOF 22
ENDMDL
MODEL 5
REMARK VINA RESULT:    26.596      4.907     10.970
REMARK INTER + INTRA:          59.537
REMARK INTER:                  60.246
REMARK INTRA:                  -0.709
REMARK UNBOUND:                -1.264
REMARK SMILES CCCCCCCCCCCCCCCCCCCCCCCC(=O)[O-]
REMARK SMILES IDX 13 1 14 2 15 3 16 4 17 5 18 6 19 7 20 8 21 9 22 10 23 11
REMARK SMILES IDX 24 12 25 13 26 14 12 15 11 16 10 17 9 18 8 19 7 20 6 21 5 22
REMARK SMILES IDX 4 23 3 24 2 25 1 26
REMARK H PARENT
REMARK Flexibility Score: inf
ROOT
ATOM      1  C   UNL     1      55.986  48.951  17.035  1.00  0.00     0.000 C 
ENDROOT
BRANCH   1   2
ATOM      2  C   UNL     1      56.282  50.071  16.025  1.00  0.00     0.000 C 
BRANCH   2   3
ATOM      3  C   UNL     1      54.983  50.649  15.448  1.00  0.00     0.000 C 
BRANCH   3   4
ATOM      4  C   UNL     1      54.195  51.405  16.529  1.00  0.00     0.000 C 
BRANCH   4   5
ATOM      5  C   UNL     1      54.975  51.546  17.849  1.00  0.00     0.000 C 
BRANCH   5   6
ATOM      6  C   UNL     1      55.407  52.985  18.200  1.00  0.00     0.000 C 
BRANCH   6   7
ATOM      7  C   UNL     1      54.611  53.653  19.338  1.00  0.00     0.000 C 
BRANCH   7   8
ATOM      8  C   UNL     1      54.339  52.757  20.559  1.00  0.00     0.000 C 
BRANCH   8   9
ATOM      9  C   UNL     1      53.395  53.412  21.581  1.00  0.00     0.000 C 
BRANCH   9  10
ATOM     10  C   UNL     1      54.141  53.976  22.801  1.00  0.00     0.006 C 
BRANCH  10  11
ATOM     11  C   UNL     1      53.823  55.454  23.066  1.00  0.00     0.053 C 
BRANCH  11  12
ATOM     12  C   UNL     1      54.457  55.909  24.344  1.00  0.00     0.041 C 
ATOM     13  O   UNL     1      53.770  55.995  25.396  1.00  0.00    -0.550 OA
ATOM     14  O   UNL     1      55.798  56.275  24.363  1.00  0.00    -0.550 OA
ENDBRANCH  11  12
ENDBRANCH  10  11
ENDBRANCH   9  10
ENDBRANCH   8   9
ENDBRANCH   7   8
ENDBRANCH   6   7
ENDBRANCH   5   6
ENDBRANCH   4   5
ENDBRANCH   3   4
ENDBRANCH   2   3
ENDBRANCH   1   2
BRANCH   1  15
ATOM     15  C   UNL     1      57.200  48.045  17.294  1.00  0.00     0.000 C 
BRANCH  15  16
ATOM     16  C   UNL     1      57.316  47.612  18.766  1.00  0.00     0.000 C 
BRANCH  16  17
ATOM     17  C   UNL     1      56.072  47.987  19.594  1.00  0.00     0.000 C 
BRANCH  17  18
ATOM     18  C   UNL     1      56.191  47.708  21.104  1.00  0.00    -0.000 C 
BRANCH  18  19
ATOM     19  C   UNL     1      56.563  46.246  21.409  1.00  0.00    -0.000 C 
BRANCH  19  20
ATOM     20  C   UNL     1      55.596  45.244  20.752  1.00  0.00    -0.000 C 
BRANCH  20  21
ATOM     21  C   UNL     1      56.294  44.032  20.091  1.00  0.00    -0.000 C 
BRANCH  21  22
ATOM     22  C   UNL     1      56.285  42.760  20.959  1.00  0.00    -0.000 C 
BRANCH  22  23
ATOM     23  C   UNL     1      55.022  41.889  20.818  1.00  0.00    -0.000 C 
BRANCH  23  24
ATOM     24  C   UNL     1      55.105  40.498  21.481  1.00  0.00    -0.000 C 
BRANCH  24  25
ATOM     25  C   UNL     1      55.723  39.395  20.603  1.00  0.00    -0.003 C 
ATOM     26  C   UNL     1      57.058  38.883  21.143  1.00  0.00     0.004 C 
ENDBRANCH  24  25
ENDBRANCH  23  24
ENDBRANCH  22  23
ENDBRANCH  21  22
ENDBRANCH  20  21
ENDBRANCH  19  20
ENDBRANCH  18  19
ENDBRANCH  17  18
ENDBRANCH  16  17
ENDBRANCH  15  16
ENDBRANCH   1  15
TORSDOF 22
ENDMDL
MODEL 6
REMARK VINA RESULT:    26.630      2.779      3.769
REMARK INTER + INTRA:          59.616
REMARK INTER:                  60.000
REMARK INTRA:                  -0.384
REMARK UNBOUND:                -1.264
REMARK SMILES CCCCCCCCCCCCCCCCCCCCCCCC(=O)[O-]
REMARK SMILES IDX 13 1 14 2 15 3 16 4 17 5 18 6 19 7 20 8 21 9 22 10 23 11
REMARK SMILES IDX 24 12 25 13 26 14 12 15 11 16 10 17 9 18 8 19 7 20 6 21 5 22
REMARK SMILES IDX 4 23 3 24 2 25 1 26
REMARK H PARENT
REMARK Flexibility Score: inf
ROOT
ATOM      1  C   UNL     1      54.942  49.201  19.798  1.00  0.00     0.000 C 
ENDROOT
BRANCH   1   2
ATOM      2  C   UNL     1      56.060  48.148  19.857  1.00  0.00     0.000 C 
BRANCH   2   3
ATOM      3  C   UNL     1      56.105  47.470  21.233  1.00  0.00     0.000 C 
BRANCH   3   4
ATOM      4  C   UNL     1      57.536  47.460  21.790  1.00  0.00     0.000 C 
BRANCH   4   5
ATOM      5  C   UNL     1      57.763  46.352  22.834  1.00  0.00     0.000 C 
BRANCH   5   6
ATOM      6  C   UNL     1      56.782  45.164  22.750  1.00  0.00     0.000 C 
BRANCH   6   7
ATOM      7  C   UNL     1      57.291  43.943  21.960  1.00  0.00     0.000 C 
BRANCH   7   8
ATOM      8  C   UNL     1      56.307  43.382  20.917  1.00  0.00     0.000 C 
BRANCH   8   9
ATOM      9  C   UNL     1      56.343  44.156  19.589  1.00  0.00     0.000 C 
BRANCH   9  10
ATOM     10  C   UNL     1      57.322  43.545  18.573  1.00  0.00     0.006 C 
BRANCH  10  11
ATOM     11  C   UNL     1      57.167  44.135  17.165  1.00  0.00     0.053 C 
BRANCH  11  12
ATOM     12  C   UNL     1      57.919  43.314  16.164  1.00  0.00     0.041 C 
ATOM     13  O   UNL     1      57.368  42.972  15.083  1.00  0.00    -0.550 OA
ATOM     14  O   UNL     1      59.216  42.896  16.440  1.00  0.00    -0.550 OA
ENDBRANCH  11  12
ENDBRANCH  10  11
ENDBRANCH   9  10
ENDBRANCH   8   9
ENDBRANCH   7   8
ENDBRANCH   6   7
ENDBRANCH   5   6
ENDBRANCH   4   5
ENDBRANCH   3   4
ENDBRANCH   2   3
ENDBRANCH   1   2
BRANCH   1  15
ATOM     15  C   UNL     1      55.318  50.510  20.512  1.00  0.00     0.000 C 
BRANCH  15  16
ATOM     16  C   UNL     1      54.139  51.495  20.608  1.00  0.00     0.000 C 
BRANCH  16  17
ATOM     17  C   UNL     1      54.412  52.651  21.590  1.00  0.00     0.000 C 
BRANCH  17  18
ATOM     18  C   UNL     1      53.277  53.688  21.700  1.00  0.00    -0.000 C 
BRANCH  18  19
ATOM     19  C   UNL     1      53.134  54.260  23.121  1.00  0.00    -0.000 C 
BRANCH  19  20
ATOM     20  C   UNL     1      54.287  55.210  23.492  1.00  0.00    -0.000 C 
BRANCH  20  21
ATOM     21  C   UNL     1      53.849  56.676  23.727  1.00  0.00    -0.000 C 
BRANCH  21  22
ATOM     22  C   UNL     1      53.945  57.124  25.197  1.00  0.00    -0.000 C 
BRANCH  22  23
ATOM     23  C   UNL     1      55.321  56.899  25.854  1.00  0.00    -0.000 C 
BRANCH  23  24
ATOM     24  C   UNL     1      56.094  55.661  25.352  1.00  0.00    -0.000 C 
BRANCH  24  25
ATOM     25  C   UNL     1      57.627  55.789  25.398  1.00  0.00    -0.003 C 
ATOM     26  C   UNL     1      58.096  57.125  25.973  1.00  0.00     0.004 C 
ENDBRANCH  24  25
ENDBRANCH  23  24
ENDBRANCH  22  23
ENDBRANCH  21  22
ENDBRANCH  20  21
ENDBRANCH  19  20
ENDBRANCH  18  19
ENDBRANCH  17  18
ENDBRANCH  16  17
ENDBRANCH  15  16
ENDBRANCH   1  15
TORSDOF 22
ENDMDL
MODEL 7
REMARK VINA RESULT:    26.755      5.032     12.380
REMARK INTER + INTRA:          59.902
REMARK INTER:                  59.353
REMARK INTRA:                   0.549
REMARK UNBOUND:                -1.264
REMARK SMILES CCCCCCCCCCCCCCCCCCCCCCCC(=O)[O-]
REMARK SMILES IDX 13 1 14 2 15 3 16 4 17 5 18 6 19 7 20 8 21 9 22 10 23 11
REMARK SMILES IDX 24 12 25 13 26 14 12 15 11 16 10 17 9 18 8 19 7 20 6 21 5 22
REMARK SMILES IDX 4 23 3 24 2 25 1 26
REMARK H PARENT
REMARK Flexibility Score: inf
ROOT
ATOM      1  C   UNL     1      55.196  48.788  19.653  1.00  0.00     0.000 C 
ENDROOT
BRANCH   1   2
ATOM      2  C   UNL     1      55.077  49.907  20.700  1.00  0.00     0.000 C 
BRANCH   2   3
ATOM      3  C   UNL     1      56.219  50.922  20.552  1.00  0.00     0.000 C 
BRANCH   3   4
ATOM      4  C   UNL     1      55.674  52.357  20.520  1.00  0.00     0.000 C 
BRANCH   4   5
ATOM      5  C   UNL     1      54.345  52.509  21.281  1.00  0.00     0.000 C 
BRANCH   5   6
ATOM      6  C   UNL     1      54.296  53.682  22.282  1.00  0.00     0.000 C 
BRANCH   6   7
ATOM      7  C   UNL     1      52.974  54.474  22.307  1.00  0.00     0.000 C 
BRANCH   7   8
ATOM      8  C   UNL     1      52.956  55.687  23.254  1.00  0.00     0.000 C 
BRANCH   8   9
ATOM      9  C   UNL     1      54.286  55.877  24.004  1.00  0.00     0.000 C 
BRANCH   9  10
ATOM     10  C   UNL     1      54.093  56.452  25.416  1.00  0.00     0.006 C 
BRANCH  10  11
ATOM     11  C   UNL     1      55.418  56.653  26.165  1.00  0.00     0.053 C 
BRANCH  11  12
ATOM     12  C   UNL     1      56.581  56.424  25.251  1.00  0.00     0.041 C 
ATOM     13  O   UNL     1      56.409  55.859  24.137  1.00  0.00    -0.550 OA
ATOM     14  O   UNL     1      57.860  56.799  25.644  1.00  0.00    -0.550 OA
ENDBRANCH  11  12
ENDBRANCH  10  11
ENDBRANCH   9  10
ENDBRANCH   8   9
ENDBRANCH   7   8
ENDBRANCH   6   7
ENDBRANCH   5   6
ENDBRANCH   4   5
ENDBRANCH   3   4
ENDBRANCH   2   3
ENDBRANCH   1   2
BRANCH   1  15
ATOM     15  C   UNL     1      56.404  47.870  19.897  1.00  0.00     0.000 C 
BRANCH  15  16
ATOM     16  C   UNL     1      56.364  47.188  21.276  1.00  0.00     0.000 C 
BRANCH  16  17
ATOM     17  C   UNL     1      56.271  45.653  21.175  1.00  0.00     0.000 C 
BRANCH  17  18
ATOM     18  C   UNL     1      55.231  45.133  20.164  1.00  0.00    -0.000 C 
BRANCH  18  19
ATOM     19  C   UNL     1      55.409  43.636  19.849  1.00  0.00    -0.000 C 
BRANCH  19  20
ATOM     20  C   UNL     1      56.237  42.904  20.921  1.00  0.00    -0.000 C 
BRANCH  20  21
ATOM     21  C   UNL     1      55.435  41.864  21.739  1.00  0.00    -0.000 C 
BRANCH  21  22
ATOM     22  C   UNL     1      54.713  40.815  20.872  1.00  0.00    -0.000 C 
BRANCH  22  23
ATOM     23  C   UNL     1      55.418  39.448  20.790  1.00  0.00    -0.000 C 
BRANCH  23  24
ATOM     24  C   UNL     1      56.956  39.493  20.911  1.00  0.00    -0.000 C 
BRANCH  24  25
ATOM     25  C   UNL     1      57.626  38.137  21.196  1.00  0.00    -0.003 C 
ATOM     26  C   UNL     1      56.619  37.025  21.491  1.00  0.00     0.004 C 
ENDBRANCH  24  25
ENDBRANCH  23  24
ENDBRANCH  22  23
ENDBRANCH  21  22
ENDBRANCH  20  21
ENDBRANCH  19  20
ENDBRANCH  18  19
ENDBRANCH  17  18
ENDBRANCH  16  17
ENDBRANCH  15  16
ENDBRANCH   1  15
TORSDOF 22
ENDMDL
MODEL 8
REMARK VINA RESULT:    27.063      4.928     10.040
REMARK INTER + INTRA:          60.605
REMARK INTER:                  61.927
REMARK INTRA:                  -1.322
REMARK UNBOUND:                -1.264
REMARK SMILES CCCCCCCCCCCCCCCCCCCCCCCC(=O)[O-]
REMARK SMILES IDX 13 1 14 2 15 3 16 4 17 5 18 6 19 7 20 8 21 9 22 10 23 11
REMARK SMILES IDX 24 12 25 13 26 14 12 15 11 16 10 17 9 18 8 19 7 20 6 21 5 22
REMARK SMILES IDX 4 23 3 24 2 25 1 26
REMARK H PARENT
REMARK Flexibility Score: inf
ROOT
ATOM      1  C   UNL     1      54.996  52.366  20.049  1.00  0.00     0.000 C 
ENDROOT
BRANCH   1   2
ATOM      2  C   UNL     1      54.828  53.375  21.195  1.00  0.00     0.000 C 
BRANCH   2   3
ATOM      3  C   UNL     1      53.481  53.184  21.904  1.00  0.00     0.000 C 
BRANCH   3   4
ATOM      4  C   UNL     1      53.343  54.154  23.086  1.00  0.00     0.000 C 
BRANCH   4   5
ATOM      5  C   UNL     1      54.538  55.117  23.212  1.00  0.00     0.000 C 
BRANCH   5   6
ATOM      6  C   UNL     1      54.642  55.854  24.563  1.00  0.00     0.000 C 
BRANCH   6   7
ATOM      7  C   UNL     1      53.320  56.441  25.099  1.00  0.00     0.000 C 
BRANCH   7   8
ATOM      8  C   UNL     1      52.790  55.787  26.388  1.00  0.00     0.000 C 
BRANCH   8   9
ATOM      9  C   UNL     1      53.731  54.701  26.935  1.00  0.00     0.000 C 
BRANCH   9  10
ATOM     10  C   UNL     1      52.974  53.550  27.617  1.00  0.00     0.006 C 
BRANCH  10  11
ATOM     11  C   UNL     1      51.859  54.039  28.551  1.00  0.00     0.053 C 
BRANCH  11  12
ATOM     12  C   UNL     1      50.991  52.897  28.980  1.00  0.00     0.041 C 
ATOM     13  O   UNL     1      50.548  52.845  30.158  1.00  0.00    -0.550 OA
ATOM     14  O   UNL     1      50.701  51.870  28.088  1.00  0.00    -0.550 OA
ENDBRANCH  11  12
ENDBRANCH  10  11
ENDBRANCH   9  10
ENDBRANCH   8   9
ENDBRANCH   7   8
ENDBRANCH   6   7
ENDBRANCH   5   6
ENDBRANCH   4   5
ENDBRANCH   3   4
ENDBRANCH   2   3
ENDBRANCH   1   2
BRANCH   1  15
ATOM     15  C   UNL     1      55.194  53.043  18.683  1.00  0.00     0.000 C 
BRANCH  15  16
ATOM     16  C   UNL     1      55.847  52.111  17.646  1.00  0.00     0.000 C 
BRANCH  16  17
ATOM     17  C   UNL     1      54.881  51.719  16.511  1.00  0.00     0.000 C 
BRANCH  17  18
ATOM     18  C   UNL     1      55.270  50.442  15.743  1.00  0.00    -0.000 C 
BRANCH  18  19
ATOM     19  C   UNL     1      55.380  49.210  16.659  1.00  0.00    -0.000 C 
BRANCH  19  20
ATOM     20  C   UNL     1      56.839  48.875  17.021  1.00  0.00    -0.000 C 
BRANCH  20  21
ATOM     21  C   UNL     1      56.986  47.809  18.133  1.00  0.00    -0.000 C 
BRANCH  21  22
ATOM     22  C   UNL     1      56.128  48.090  19.381  1.00  0.00    -0.000 C 
BRANCH  22  23
ATOM     23  C   UNL     1      56.431  47.187  20.592  1.00  0.00    -0.000 C 
BRANCH  23  24
ATOM     24  C   UNL     1      57.103  47.894  21.788  1.00  0.00    -0.000 C 
BRANCH  24  25
ATOM     25  C   UNL     1      57.379  46.993  23.005  1.00  0.00    -0.003 C 
ATOM     26  C   UNL     1      56.256  47.031  24.041  1.00  0.00     0.004 C 
ENDBRANCH  24  25
ENDBRANCH  23  24
ENDBRANCH  22  23
ENDBRANCH  21  22
ENDBRANCH  20  21
ENDBRANCH  19  20
ENDBRANCH  18  19
ENDBRANCH  17  18
ENDBRANCH  16  17
ENDBRANCH  15  16
ENDBRANCH   1  15
TORSDOF 22
ENDMDL
MODEL 9
REMARK VINA RESULT:    27.166      3.469      6.241
REMARK INTER + INTRA:          60.842
REMARK INTER:                  61.547
REMARK INTRA:                  -0.705
REMARK UNBOUND:                -1.264
REMARK SMILES CCCCCCCCCCCCCCCCCCCCCCCC(=O)[O-]
REMARK SMILES IDX 13 1 14 2 15 3 16 4 17 5 18 6 19 7 20 8 21 9 22 10 23 11
REMARK SMILES IDX 24 12 25 13 26 14 12 15 11 16 10 17 9 18 8 19 7 20 6 21 5 22
REMARK SMILES IDX 4 23 3 24 2 25 1 26
REMARK H PARENT
REMARK Flexibility Score: inf
ROOT
ATOM      1  C   UNL     1      55.160  53.172  21.455  1.00  0.00     0.000 C 
ENDROOT
BRANCH   1   2
ATOM      2  C   UNL     1      54.887  52.321  20.205  1.00  0.00     0.000 C 
BRANCH   2   3
ATOM      3  C   UNL     1      55.011  53.164  18.929  1.00  0.00     0.000 C 
BRANCH   3   4
ATOM      4  C   UNL     1      55.759  52.389  17.834  1.00  0.00     0.000 C 
BRANCH   4   5
ATOM      5  C   UNL     1      54.867  51.362  17.112  1.00  0.00     0.000 C 
BRANCH   5   6
ATOM      6  C   UNL     1      55.612  50.410  16.154  1.00  0.00     0.000 C 
BRANCH   6   7
ATOM      7  C   UNL     1      56.242  49.168  16.816  1.00  0.00     0.000 C 
BRANCH   7   8
ATOM      8  C   UNL     1      55.626  48.766  18.169  1.00  0.00     0.000 C 
BRANCH   8   9
ATOM      9  C   UNL     1      56.524  47.809  18.971  1.00  0.00     0.000 C 
BRANCH   9  10
ATOM     10  C   UNL     1      55.970  47.514  20.374  1.00  0.00     0.006 C 
BRANCH  10  11
ATOM     11  C   UNL     1      56.732  48.251  21.484  1.00  0.00     0.053 C 
BRANCH  11  12
ATOM     12  C   UNL     1      57.396  47.276  22.406  1.00  0.00     0.041 C 
ATOM     13  O   UNL     1      58.651  47.158  22.405  1.00  0.00    -0.550 OA
ATOM     14  O   UNL     1      56.628  46.471  23.239  1.00  0.00    -0.550 OA
ENDBRANCH  11  12
ENDBRANCH  10  11
ENDBRANCH   9  10
ENDBRANCH   8   9
ENDBRANCH   7   8
ENDBRANCH   6   7
ENDBRANCH   5   6
ENDBRANCH   4   5
ENDBRANCH   3   4
ENDBRANCH   2   3
ENDBRANCH   1   2
BRANCH   1  15
ATOM     15  C   UNL     1      53.879  53.767  22.063  1.00  0.00     0.000 C 
BRANCH  15  16
ATOM     16  C   UNL     1      54.167  54.884  23.082  1.00  0.00     0.000 C 
BRANCH  16  17
ATOM     17  C   UNL     1      55.665  55.232  23.172  1.00  0.00     0.000 C 
BRANCH  17  18
ATOM     18  C   UNL     1      55.990  56.484  24.008  1.00  0.00    -0.000 C 
BRANCH  18  19
ATOM     19  C   UNL     1      55.421  56.407  25.437  1.00  0.00    -0.000 C 
BRANCH  19  20
ATOM     20  C   UNL     1      53.948  56.850  25.508  1.00  0.00    -0.000 C 
BRANCH  20  21
ATOM     21  C   UNL     1      52.971  55.727  25.931  1.00  0.00    -0.000 C 
BRANCH  21  22
ATOM     22  C   UNL     1      52.625  55.738  27.432  1.00  0.00    -0.000 C 
BRANCH  22  23
ATOM     23  C   UNL     1      52.979  54.442  28.187  1.00  0.00    -0.000 C 
BRANCH  23  24
ATOM     24  C   UNL     1      51.951  53.300  28.051  1.00  0.00    -0.000 C 
BRANCH  24  25
ATOM     25  C   UNL     1      51.065  53.071  29.288  1.00  0.00    -0.003 C 
ATOM     26  C   UNL     1      50.395  51.697  29.295  1.00  0.00     0.004 C 
ENDBRANCH  24  25
ENDBRANCH  23  24
ENDBRANCH  22  23
ENDBRANCH  21  22
ENDBRANCH  20  21
ENDBRANCH  19  20
ENDBRANCH  18  19
ENDBRANCH  17  18
ENDBRANCH  16  17
ENDBRANCH  15  16
ENDBRANCH   1  15
TORSDOF 22
ENDMDL
