MODEL 1
REMARK VINA RESULT:    -4.457      0.000      0.000
REMARK INTER + INTRA:          -6.540
REMARK INTER:                  -6.021
REMARK INTRA:                  -0.519
REMARK UNBOUND:                -0.519
REMARK SMILES CCCCCCCC(=O)[O-]
REMARK SMILES IDX 5 1 6 2 7 3 8 4 9 5 10 6 4 7 3 8 2 9 1 10
REMARK H PARENT
REMARK Flexibility Score: inf
ROOT
ATOM      1  C   UNL     1     -99.608 -62.122 -66.113  1.00  0.00     0.000 C 
ENDROOT
BRANCH   1   2
ATOM      2  C   UNL     1     -99.472 -61.675 -64.648  1.00  0.00     0.006 C 
BRANCH   2   3
ATOM      3  C   UNL     1     -98.134 -62.092 -64.023  1.00  0.00     0.053 C 
BRANCH   3   4
ATOM      4  C   UNL     1     -97.023 -61.243 -64.554  1.00  0.00     0.041 C 
ATOM      5  O   UNL     1     -96.943 -60.028 -64.230  1.00  0.00    -0.550 OA
ATOM      6  O   UNL     1     -96.046 -61.803 -65.366  1.00  0.00    -0.550 OA
ENDBRANCH   3   4
ENDBRANCH   2   3
ENDBRANCH   1   2
BRANCH   1   7
ATOM      7  C   UNL     1    -100.405 -61.118 -66.963  1.00  0.00     0.000 C 
BRANCH   7   8
ATOM      8  C   UNL     1     -99.953 -59.661 -66.750  1.00  0.00    -0.000 C 
BRANCH   8   9
ATOM      9  C   UNL     1     -98.571 -59.318 -67.333  1.00  0.00    -0.003 C 
ATOM     10  C   UNL     1     -97.997 -58.012 -66.784  1.00  0.00     0.004 C 
ENDBRANCH   8   9
ENDBRANCH   7   8
ENDBRANCH   1   7
TORSDOF 6
ENDMDL
MODEL 2
REMARK VINA RESULT:    -4.422      2.383      4.053
REMARK INTER + INTRA:          -6.492
REMARK INTER:                  -5.984
REMARK INTRA:                  -0.508
REMARK UNBOUND:                -0.519
REMARK SMILES CCCCCCCC(=O)[O-]
REMARK SMILES IDX 5 1 6 2 7 3 8 4 9 5 10 6 4 7 3 8 2 9 1 10
REMARK H PARENT
REMARK Flexibility Score: inf
ROOT
ATOM      1  C   UNL     1     -98.125 -58.875 -67.160  1.00  0.00     0.000 C 
ENDROOT
BRANCH   1   2
ATOM      2  C   UNL     1     -99.648 -59.037 -67.029  1.00  0.00     0.006 C 
BRANCH   2   3
ATOM      3  C   UNL     1    -100.065 -60.474 -66.690  1.00  0.00     0.053 C 
BRANCH   3   4
ATOM      4  C   UNL     1    -101.022 -60.482 -65.540  1.00  0.00     0.041 C 
ATOM      5  O   UNL     1    -102.116 -59.865 -65.622  1.00  0.00    -0.550 OA
ATOM      6  O   UNL     1    -100.728 -61.212 -64.396  1.00  0.00    -0.550 OA
ENDBRANCH   3   4
ENDBRANCH   2   3
ENDBRANCH   1   2
BRANCH   1   7
ATOM      7  C   UNL     1     -97.414 -60.206 -67.454  1.00  0.00     0.000 C 
BRANCH   7   8
ATOM      8  C   UNL     1     -96.315 -60.538 -66.427  1.00  0.00    -0.000 C 
BRANCH   8   9
ATOM      9  C   UNL     1     -96.742 -60.410 -64.954  1.00  0.00    -0.003 C 
ATOM     10  C   UNL     1     -97.185 -61.738 -64.342  1.00  0.00     0.004 C 
ENDBRANCH   8   9
ENDBRANCH   7   8
ENDBRANCH   1   7
TORSDOF 6
ENDMDL
MODEL 3
REMARK VINA RESULT:    -4.401      1.823      3.291
REMARK INTER + INTRA:          -6.463
REMARK INTER:                  -5.790
REMARK INTRA:                  -0.674
REMARK UNBOUND:                -0.519
REMARK SMILES CCCCCCCC(=O)[O-]
REMARK SMILES IDX 5 1 6 2 7 3 8 4 9 5 10 6 4 7 3 8 2 9 1 10
REMARK H PARENT
REMARK Flexibility Score: inf
ROOT
ATOM      1  C   UNL     1     -97.849 -61.705 -64.221  1.00  0.00     0.000 C 
ENDROOT
BRANCH   1   2
ATOM      2  C   UNL     1     -97.074 -61.215 -65.456  1.00  0.00     0.006 C 
BRANCH   2   3
ATOM      3  C   UNL     1     -96.992 -59.686 -65.535  1.00  0.00     0.053 C 
BRANCH   3   4
ATOM      4  C   UNL     1     -97.647 -59.192 -66.787  1.00  0.00     0.041 C 
ATOM      5  O   UNL     1     -97.640 -59.900 -67.828  1.00  0.00    -0.550 OA
ATOM      6  O   UNL     1     -98.308 -57.971 -66.790  1.00  0.00    -0.550 OA
ENDBRANCH   3   4
ENDBRANCH   2   3
ENDBRANCH   1   2
BRANCH   1   7
ATOM      7  C   UNL     1     -99.361 -61.807 -64.477  1.00  0.00     0.000 C 
BRANCH   7   8
ATOM      8  C   UNL     1     -99.697 -62.360 -65.875  1.00  0.00    -0.000 C 
BRANCH   8   9
ATOM      9  C   UNL     1    -100.627 -61.470 -66.719  1.00  0.00    -0.003 C 
ATOM     10  C   UNL     1    -101.133 -60.244 -65.960  1.00  0.00     0.004 C 
ENDBRANCH   8   9
ENDBRANCH   7   8
ENDBRANCH   1   7
TORSDOF 6
ENDMDL
MODEL 4
REMARK VINA RESULT:    -4.392      2.391      3.385
REMARK INTER + INTRA:          -6.451
REMARK INTER:                  -5.868
REMARK INTRA:                  -0.583
REMARK UNBOUND:                -0.519
REMARK SMILES CCCCCCCC(=O)[O-]
REMARK SMILES IDX 5 1 6 2 7 3 8 4 9 5 10 6 4 7 3 8 2 9 1 10
REMARK H PARENT
REMARK Flexibility Score: inf
ROOT
ATOM      1  C   UNL     1     -97.525 -61.730 -64.466  1.00  0.00     0.000 C 
ENDROOT
BRANCH   1   2
ATOM      2  C   UNL     1     -99.047 -61.746 -64.252  1.00  0.00     0.006 C 
BRANCH   2   3
ATOM      3  C   UNL     1     -99.821 -62.125 -65.521  1.00  0.00     0.053 C 
BRANCH   3   4
ATOM      4  C   UNL     1    -100.772 -61.033 -65.897  1.00  0.00     0.041 C 
ATOM      5  O   UNL     1    -100.989 -60.772 -67.110  1.00  0.00    -0.550 OA
ATOM      6  O   UNL     1    -101.457 -60.337 -64.911  1.00  0.00    -0.550 OA
ENDBRANCH   3   4
ENDBRANCH   2   3
ENDBRANCH   1   2
BRANCH   1   7
ATOM      7  C   UNL     1     -97.010 -60.357 -64.931  1.00  0.00     0.000 C 
BRANCH   7   8
ATOM      8  C   UNL     1     -96.604 -60.342 -66.417  1.00  0.00    -0.000 C 
BRANCH   8   9
ATOM      9  C   UNL     1     -97.617 -59.670 -67.361  1.00  0.00    -0.003 C 
ATOM     10  C   UNL     1     -98.177 -58.361 -66.805  1.00  0.00     0.004 C 
ENDBRANCH   8   9
ENDBRANCH   7   8
ENDBRANCH   1   7
TORSDOF 6
ENDMDL
MODEL 5
REMARK VINA RESULT:    -4.363      2.128      4.099
REMARK INTER + INTRA:          -6.413
REMARK INTER:                  -5.914
REMARK INTRA:                  -0.498
REMARK UNBOUND:                -0.519
REMARK SMILES CCCCCCCC(=O)[O-]
REMARK SMILES IDX 5 1 6 2 7 3 8 4 9 5 10 6 4 7 3 8 2 9 1 10
REMARK H PARENT
REMARK Flexibility Score: inf
ROOT
ATOM      1  C   UNL     1     -96.386 -61.230 -65.781  1.00  0.00     0.000 C 
ENDROOT
BRANCH   1   2
ATOM      2  C   UNL     1     -96.404 -60.168 -66.892  1.00  0.00     0.006 C 
BRANCH   2   3
ATOM      3  C   UNL     1     -97.757 -60.085 -67.612  1.00  0.00     0.053 C 
BRANCH   3   4
ATOM      4  C   UNL     1     -98.508 -58.868 -67.172  1.00  0.00     0.041 C 
ATOM      5  O   UNL     1     -97.886 -57.845 -66.782  1.00  0.00    -0.550 OA
ATOM      6  O   UNL     1     -99.895 -58.846 -67.239  1.00  0.00    -0.550 OA
ENDBRANCH   3   4
ENDBRANCH   2   3
ENDBRANCH   1   2
BRANCH   1   7
ATOM      7  C   UNL     1     -97.058 -60.741 -64.488  1.00  0.00     0.000 C 
BRANCH   7   8
ATOM      8  C   UNL     1     -98.098 -61.737 -63.939  1.00  0.00    -0.000 C 
BRANCH   8   9
ATOM      9  C   UNL     1     -99.243 -62.080 -64.909  1.00  0.00    -0.003 C 
ATOM     10  C   UNL     1    -100.527 -61.304 -64.617  1.00  0.00     0.004 C 
ENDBRANCH   8   9
ENDBRANCH   7   8
ENDBRANCH   1   7
TORSDOF 6
ENDMDL
MODEL 6
REMARK VINA RESULT:    -4.336      1.550      3.591
REMARK INTER + INTRA:          -6.376
REMARK INTER:                  -5.883
REMARK INTRA:                  -0.493
REMARK UNBOUND:                -0.519
REMARK SMILES CCCCCCCC(=O)[O-]
REMARK SMILES IDX 5 1 6 2 7 3 8 4 9 5 10 6 4 7 3 8 2 9 1 10
REMARK H PARENT
REMARK Flexibility Score: inf
ROOT
ATOM      1  C   UNL     1    -100.520 -61.138 -66.817  1.00  0.00     0.000 C 
ENDROOT
BRANCH   1   2
ATOM      2  C   UNL     1    -100.336 -59.697 -66.315  1.00  0.00     0.006 C 
BRANCH   2   3
ATOM      3  C   UNL     1     -99.621 -58.800 -67.334  1.00  0.00     0.053 C 
BRANCH   3   4
ATOM      4  C   UNL     1     -98.155 -58.746 -67.042  1.00  0.00     0.041 C 
ATOM      5  O   UNL     1     -97.383 -59.628 -67.504  1.00  0.00    -0.550 OA
ATOM      6  O   UNL     1     -97.631 -57.693 -66.303  1.00  0.00    -0.550 OA
ENDBRANCH   3   4
ENDBRANCH   2   3
ENDBRANCH   1   2
BRANCH   1   7
ATOM      7  C   UNL     1     -99.615 -62.139 -66.081  1.00  0.00     0.000 C 
BRANCH   7   8
ATOM      8  C   UNL     1     -99.725 -62.032 -64.548  1.00  0.00    -0.000 C 
BRANCH   8   9
ATOM      9  C   UNL     1     -98.382 -61.894 -63.808  1.00  0.00    -0.003 C 
ATOM     10  C   UNL     1     -97.202 -61.659 -64.750  1.00  0.00     0.004 C 
ENDBRANCH   8   9
ENDBRANCH   7   8
ENDBRANCH   1   7
TORSDOF 6
ENDMDL
MODEL 7
REMARK VINA RESULT:    -4.304      1.667      2.472
REMARK INTER + INTRA:          -6.333
REMARK INTER:                  -5.726
REMARK INTRA:                  -0.607
REMARK UNBOUND:                -0.519
REMARK SMILES CCCCCCCC(=O)[O-]
REMARK SMILES IDX 5 1 6 2 7 3 8 4 9 5 10 6 4 7 3 8 2 9 1 10
REMARK H PARENT
REMARK Flexibility Score: inf
ROOT
ATOM      1  C   UNL     1     -96.322 -61.352 -67.756  1.00  0.00     0.000 C 
ENDROOT
BRANCH   1   2
ATOM      2  C   UNL     1     -95.548 -60.957 -66.488  1.00  0.00     0.006 C 
BRANCH   2   3
ATOM      3  C   UNL     1     -95.892 -61.843 -65.284  1.00  0.00     0.053 C 
BRANCH   3   4
ATOM      4  C   UNL     1     -96.999 -61.232 -64.484  1.00  0.00     0.041 C 
ATOM      5  O   UNL     1     -96.947 -60.018 -64.154  1.00  0.00    -0.550 OA
ATOM      6  O   UNL     1     -98.112 -61.989 -64.146  1.00  0.00    -0.550 OA
ENDBRANCH   3   4
ENDBRANCH   2   3
ENDBRANCH   1   2
BRANCH   1   7
ATOM      7  C   UNL     1     -97.308 -60.262 -68.208  1.00  0.00     0.000 C 
BRANCH   7   8
ATOM      8  C   UNL     1     -98.671 -60.355 -67.497  1.00  0.00    -0.000 C 
BRANCH   8   9
ATOM      9  C   UNL     1     -99.134 -59.059 -66.808  1.00  0.00    -0.003 C 
ATOM     10  C   UNL     1     -98.051 -57.982 -66.769  1.00  0.00     0.004 C 
ENDBRANCH   8   9
ENDBRANCH   7   8
ENDBRANCH   1   7
TORSDOF 6
ENDMDL
MODEL 8
REMARK VINA RESULT:    -4.295      1.298      2.711
REMARK INTER + INTRA:          -6.320
REMARK INTER:                  -5.739
REMARK INTRA:                  -0.581
REMARK UNBOUND:                -0.519
REMARK SMILES CCCCCCCC(=O)[O-]
REMARK SMILES IDX 5 1 6 2 7 3 8 4 9 5 10 6 4 7 3 8 2 9 1 10
REMARK H PARENT
REMARK Flexibility Score: inf
ROOT
ATOM      1  C   UNL     1     -97.420 -59.641 -67.427  1.00  0.00     0.000 C 
ENDROOT
BRANCH   1   2
ATOM      2  C   UNL     1     -96.553 -60.404 -66.412  1.00  0.00     0.006 C 
BRANCH   2   3
ATOM      3  C   UNL     1     -96.989 -60.163 -64.961  1.00  0.00     0.053 C 
BRANCH   3   4
ATOM      4  C   UNL     1     -97.269 -61.464 -64.278  1.00  0.00     0.041 C 
ATOM      5  O   UNL     1     -98.412 -61.698 -63.802  1.00  0.00    -0.550 OA
ATOM      6  O   UNL     1     -96.283 -62.439 -64.208  1.00  0.00    -0.550 OA
ENDBRANCH   3   4
ENDBRANCH   2   3
ENDBRANCH   1   2
BRANCH   1   7
ATOM      7  C   UNL     1     -98.463 -58.737 -66.749  1.00  0.00     0.000 C 
BRANCH   7   8
ATOM      8  C   UNL     1     -99.911 -59.119 -67.109  1.00  0.00    -0.000 C 
BRANCH   8   9
ATOM      9  C   UNL     1    -100.537 -60.205 -66.216  1.00  0.00    -0.003 C 
ATOM     10  C   UNL     1    -100.409 -61.610 -66.804  1.00  0.00     0.004 C 
ENDBRANCH   8   9
ENDBRANCH   7   8
ENDBRANCH   1   7
TORSDOF 6
ENDMDL
MODEL 9
REMARK VINA RESULT:    -4.290      0.885      3.048
REMARK INTER + INTRA:          -6.313
REMARK INTER:                  -5.698
REMARK INTRA:                  -0.615
REMARK UNBOUND:                -0.519
REMARK SMILES CCCCCCCC(=O)[O-]
REMARK SMILES IDX 5 1 6 2 7 3 8 4 9 5 10 6 4 7 3 8 2 9 1 10
REMARK H PARENT
REMARK Flexibility Score: inf
ROOT
ATOM      1  C   UNL     1     -98.954 -58.789 -67.184  1.00  0.00     0.000 C 
ENDROOT
BRANCH   1   2
ATOM      2  C   UNL     1     -97.635 -58.719 -66.398  1.00  0.00     0.006 C 
BRANCH   2   3
ATOM      3  C   UNL     1     -96.735 -59.937 -66.639  1.00  0.00     0.053 C 
BRANCH   3   4
ATOM      4  C   UNL     1     -96.560 -60.715 -65.374  1.00  0.00     0.041 C 
ATOM      5  O   UNL     1     -95.848 -61.754 -65.361  1.00  0.00    -0.550 OA
ATOM      6  O   UNL     1     -97.141 -60.266 -64.195  1.00  0.00    -0.550 OA
ENDBRANCH   3   4
ENDBRANCH   2   3
ENDBRANCH   1   2
BRANCH   1   7
ATOM      7  C   UNL     1    -100.035 -59.598 -66.448  1.00  0.00     0.000 C 
BRANCH   7   8
ATOM      8  C   UNL     1    -100.350 -60.941 -67.134  1.00  0.00    -0.000 C 
BRANCH   8   9
ATOM      9  C   UNL     1     -99.808 -62.185 -66.407  1.00  0.00    -0.003 C 
ATOM     10  C   UNL     1    -100.039 -62.143 -64.897  1.00  0.00     0.004 C 
ENDBRANCH   8   9
ENDBRANCH   7   8
ENDBRANCH   1   7
TORSDOF 6
ENDMDL
