MODEL 1
REMARK VINA RESULT:    -3.558      0.000      0.000
REMARK INTER + INTRA:          -4.012
REMARK INTER:                  -3.974
REMARK INTRA:                  -0.038
REMARK UNBOUND:                -0.038
REMARK SMILES CCCC(=O)[O-]
REMARK SMILES IDX 3 1 4 2 5 3 6 4 2 5 1 6
REMARK H PARENT
REMARK Flexibility Score: inf
ROOT
ATOM      1  C   UNL     1      41.354  26.375  16.656  1.00  0.00     0.052 C 
ENDROOT
BRANCH   1   2
ATOM      2  C   UNL     1      42.113  25.493  17.596  1.00  0.00     0.041 C 
ATOM      3  O   UNL     1      41.964  25.614  18.839  1.00  0.00    -0.550 OA
ATOM      4  O   UNL     1      42.952  24.504  17.096  1.00  0.00    -0.550 OA
ENDBRANCH   1   2
BRANCH   1   5
ATOM      5  C   UNL     1      40.128  26.971  17.353  1.00  0.00     0.003 C 
ATOM      6  C   UNL     1      38.851  26.246  16.939  1.00  0.00     0.004 C 
ENDBRANCH   1   5
TORSDOF 2
ENDMDL
MODEL 2
REMARK VINA RESULT:    -3.547      2.439      3.299
REMARK INTER + INTRA:          -4.000
REMARK INTER:                  -3.986
REMARK INTRA:                  -0.014
REMARK UNBOUND:                -0.038
REMARK SMILES CCCC(=O)[O-]
REMARK SMILES IDX 3 1 4 2 5 3 6 4 2 5 1 6
REMARK H PARENT
REMARK Flexibility Score: inf
ROOT
ATOM      1  C   UNL     1      40.983  26.959  16.671  1.00  0.00     0.052 C 
ENDROOT
BRANCH   1   2
ATOM      2  C   UNL     1      39.689  26.613  17.337  1.00  0.00     0.041 C 
ATOM      3  O   UNL     1      38.717  26.199  16.654  1.00  0.00    -0.550 OA
ATOM      4  O   UNL     1      39.572  26.703  18.718  1.00  0.00    -0.550 OA
ENDBRANCH   1   2
BRANCH   1   5
ATOM      5  C   UNL     1      41.698  28.075  17.439  1.00  0.00     0.003 C 
ATOM      6  C   UNL     1      42.053  29.238  16.517  1.00  0.00     0.004 C 
ENDBRANCH   1   5
TORSDOF 2
ENDMDL
MODEL 3
REMARK VINA RESULT:    -3.545      2.472      3.177
REMARK INTER + INTRA:          -3.998
REMARK INTER:                  -3.968
REMARK INTRA:                  -0.030
REMARK UNBOUND:                -0.038
REMARK SMILES CCCC(=O)[O-]
REMARK SMILES IDX 3 1 4 2 5 3 6 4 2 5 1 6
REMARK H PARENT
REMARK Flexibility Score: inf
ROOT
ATOM      1  C   UNL     1      41.375  26.897  16.613  1.00  0.00     0.052 C 
ENDROOT
BRANCH   1   2
ATOM      2  C   UNL     1      41.668  28.237  17.211  1.00  0.00     0.041 C 
ATOM      3  O   UNL     1      41.601  28.403  18.457  1.00  0.00    -0.550 OA
ATOM      4  O   UNL     1      42.061  29.291  16.396  1.00  0.00    -0.550 OA
ENDBRANCH   1   2
BRANCH   1   5
ATOM      5  C   UNL     1      41.520  25.796  17.668  1.00  0.00     0.003 C 
ATOM      6  C   UNL     1      42.681  24.864  17.335  1.00  0.00     0.004 C 
ENDBRANCH   1   5
TORSDOF 2
ENDMDL
MODEL 4
REMARK VINA RESULT:    -3.510      2.318      2.607
REMARK INTER + INTRA:          -3.958
REMARK INTER:                  -3.936
REMARK INTRA:                  -0.022
REMARK UNBOUND:                -0.038
REMARK SMILES CCCC(=O)[O-]
REMARK SMILES IDX 3 1 4 2 5 3 6 4 2 5 1 6
REMARK H PARENT
REMARK Flexibility Score: inf
ROOT
ATOM      1  C   UNL     1      41.110  26.979  16.577  1.00  0.00     0.052 C 
ENDROOT
BRANCH   1   2
ATOM      2  C   UNL     1      41.624  28.250  17.174  1.00  0.00     0.041 C 
ATOM      3  O   UNL     1      41.660  28.394  18.424  1.00  0.00    -0.550 OA
ATOM      4  O   UNL     1      42.107  29.260  16.351  1.00  0.00    -0.550 OA
ENDBRANCH   1   2
BRANCH   1   5
ATOM      5  C   UNL     1      40.037  26.359  17.476  1.00  0.00     0.003 C 
ATOM      6  C   UNL     1      38.693  26.284  16.758  1.00  0.00     0.004 C 
ENDBRANCH   1   5
TORSDOF 2
ENDMDL
MODEL 5
REMARK VINA RESULT:    -3.498      1.248      1.813
REMARK INTER + INTRA:          -3.945
REMARK INTER:                  -3.925
REMARK INTRA:                  -0.020
REMARK UNBOUND:                -0.038
REMARK SMILES CCCC(=O)[O-]
REMARK SMILES IDX 3 1 4 2 5 3 6 4 2 5 1 6
REMARK H PARENT
REMARK Flexibility Score: inf
ROOT
ATOM      1  C   UNL     1      41.388  26.520  16.726  1.00  0.00     0.052 C 
ENDROOT
BRANCH   1   2
ATOM      2  C   UNL     1      42.093  25.548  17.617  1.00  0.00     0.041 C 
ATOM      3  O   UNL     1      41.944  25.609  18.865  1.00  0.00    -0.550 OA
ATOM      4  O   UNL     1      42.879  24.543  17.066  1.00  0.00    -0.550 OA
ENDBRANCH   1   2
BRANCH   1   5
ATOM      5  C   UNL     1      41.286  27.891  17.402  1.00  0.00     0.003 C 
ATOM      6  C   UNL     1      42.017  28.959  16.595  1.00  0.00     0.004 C 
ENDBRANCH   1   5
TORSDOF 2
ENDMDL
MODEL 6
REMARK VINA RESULT:    -3.453      2.127      3.172
REMARK INTER + INTRA:          -3.895
REMARK INTER:                  -3.885
REMARK INTRA:                  -0.010
REMARK UNBOUND:                -0.038
REMARK SMILES CCCC(=O)[O-]
REMARK SMILES IDX 3 1 4 2 5 3 6 4 2 5 1 6
REMARK H PARENT
REMARK Flexibility Score: inf
ROOT
ATOM      1  C   UNL     1      41.198  26.271  16.868  1.00  0.00     0.052 C 
ENDROOT
BRANCH   1   2
ATOM      2  C   UNL     1      39.807  26.423  17.398  1.00  0.00     0.041 C 
ATOM      3  O   UNL     1      39.619  26.778  18.590  1.00  0.00    -0.550 OA
ATOM      4  O   UNL     1      38.718  26.218  16.560  1.00  0.00    -0.550 OA
ENDBRANCH   1   2
BRANCH   1   5
ATOM      5  C   UNL     1      42.083  25.545  17.885  1.00  0.00     0.003 C 
ATOM      6  C   UNL     1      42.928  24.469  17.211  1.00  0.00     0.004 C 
ENDBRANCH   1   5
TORSDOF 2
ENDMDL
MODEL 7
REMARK VINA RESULT:    -3.207      1.659      2.535
REMARK INTER + INTRA:          -3.620
REMARK INTER:                  -3.578
REMARK INTRA:                  -0.042
REMARK UNBOUND:                -0.038
REMARK SMILES CCCC(=O)[O-]
REMARK SMILES IDX 3 1 4 2 5 3 6 4 2 5 1 6
REMARK H PARENT
REMARK Flexibility Score: inf
ROOT
ATOM      1  C   UNL     1      40.168  26.687  17.557  1.00  0.00     0.052 C 
ENDROOT
BRANCH   1   2
ATOM      2  C   UNL     1      40.660  26.596  18.967  1.00  0.00     0.041 C 
ATOM      3  O   UNL     1      39.999  27.117  19.903  1.00  0.00    -0.550 OA
ATOM      4  O   UNL     1      41.825  25.895  19.254  1.00  0.00    -0.550 OA
ENDBRANCH   1   2
BRANCH   1   5
ATOM      5  C   UNL     1      41.277  27.200  16.635  1.00  0.00     0.003 C 
ATOM      6  C   UNL     1      41.794  28.559  17.098  1.00  0.00     0.004 C 
ENDBRANCH   1   5
TORSDOF 2
ENDMDL
MODEL 8
REMARK VINA RESULT:    -3.157      2.141      2.916
REMARK INTER + INTRA:          -3.564
REMARK INTER:                  -3.499
REMARK INTRA:                  -0.066
REMARK UNBOUND:                -0.038
REMARK SMILES CCCC(=O)[O-]
REMARK SMILES IDX 3 1 4 2 5 3 6 4 2 5 1 6
REMARK H PARENT
REMARK Flexibility Score: inf
ROOT
ATOM      1  C   UNL     1      40.174  26.564  18.025  1.00  0.00     0.052 C 
ENDROOT
BRANCH   1   2
ATOM      2  C   UNL     1      40.887  27.138  19.208  1.00  0.00     0.041 C 
ATOM      3  O   UNL     1      41.465  28.252  19.121  1.00  0.00    -0.550 OA
ATOM      4  O   UNL     1      40.874  26.462  20.423  1.00  0.00    -0.550 OA
ENDBRANCH   1   2
BRANCH   1   5
ATOM      5  C   UNL     1      41.163  26.268  16.895  1.00  0.00     0.003 C 
ATOM      6  C   UNL     1      42.251  25.303  17.354  1.00  0.00     0.004 C 
ENDBRANCH   1   5
TORSDOF 2
ENDMDL
MODEL 9
REMARK VINA RESULT:    -3.006      2.618      3.143
REMARK INTER + INTRA:          -3.396
REMARK INTER:                  -3.367
REMARK INTRA:                  -0.029
REMARK UNBOUND:                -0.038
REMARK SMILES CCCC(=O)[O-]
REMARK SMILES IDX 3 1 4 2 5 3 6 4 2 5 1 6
REMARK H PARENT
REMARK Flexibility Score: inf
ROOT
ATOM      1  C   UNL     1      41.401  26.383  18.570  1.00  0.00     0.052 C 
ENDROOT
BRANCH   1   2
ATOM      2  C   UNL     1      41.500  27.215  17.332  1.00  0.00     0.041 C 
ATOM      3  O   UNL     1      41.107  26.757  16.228  1.00  0.00    -0.550 OA
ATOM      4  O   UNL     1      41.983  28.516  17.405  1.00  0.00    -0.550 OA
ENDBRANCH   1   2
BRANCH   1   5
ATOM      5  C   UNL     1      40.380  26.985  19.540  1.00  0.00     0.003 C 
ATOM      6  C   UNL     1      40.994  27.207  20.919  1.00  0.00     0.004 C 
ENDBRANCH   1   5
TORSDOF 2
ENDMDL
