MODEL 1
REMARK VINA RESULT:    -3.609      0.000      0.000
REMARK INTER + INTRA:         -10.771
REMARK INTER:                  -9.096
REMARK INTRA:                  -1.675
REMARK UNBOUND:                -1.675
REMARK SMILES CCCCCCCCCCCCCCCCCCCCCCCCCCCC(=O)[O-]
REMARK SMILES IDX 15 1 16 2 17 3 18 4 19 5 20 6 21 7 22 8 23 9 24 10 25 11
REMARK SMILES IDX 26 12 27 13 28 14 29 15 30 16 14 17 13 18 12 19 11 20 10 21
REMARK SMILES IDX 9 22 8 23 7 24 6 25 5 26 4 27 3 28 2 29 1 30
REMARK H PARENT
REMARK Flexibility Score: inf
ROOT
ATOM      1  C   UNL     1      -1.668  27.981  23.218  1.00  0.00     0.000 C 
ENDROOT
BRANCH   1   2
ATOM      2  C   UNL     1      -0.301  27.848  22.516  1.00  0.00     0.000 C 
BRANCH   2   3
ATOM      3  C   UNL     1       0.743  27.018  23.286  1.00  0.00     0.000 C 
BRANCH   3   4
ATOM      4  C   UNL     1       1.303  25.854  22.455  1.00  0.00     0.000 C 
BRANCH   4   5
ATOM      5  C   UNL     1       0.655  24.525  22.871  1.00  0.00     0.000 C 
BRANCH   5   6
ATOM      6  C   UNL     1       1.345  23.298  22.247  1.00  0.00     0.000 C 
BRANCH   6   7
ATOM      7  C   UNL     1       1.222  23.191  20.715  1.00  0.00     0.000 C 
BRANCH   7   8
ATOM      8  C   UNL     1       0.316  22.030  20.265  1.00  0.00     0.000 C 
BRANCH   8   9
ATOM      9  C   UNL     1      -0.239  22.235  18.847  1.00  0.00     0.000 C 
BRANCH   9  10
ATOM     10  C   UNL     1       0.833  22.063  17.756  1.00  0.00     0.000 C 
BRANCH  10  11
ATOM     11  C   UNL     1       1.724  20.829  18.012  1.00  0.00     0.000 C 
BRANCH  11  12
ATOM     12  C   UNL     1       1.155  19.525  17.427  1.00  0.00     0.006 C 
BRANCH  12  13
ATOM     13  C   UNL     1       1.643  18.273  18.167  1.00  0.00     0.053 C 
BRANCH  13  14
ATOM     14  C   UNL     1       0.576  17.756  19.079  1.00  0.00     0.041 C 
ATOM     15  O   UNL     1      -0.521  17.352  18.608  1.00  0.00    -0.550 OA
ATOM     16  O   UNL     1       0.812  17.669  20.445  1.00  0.00    -0.550 OA
ENDBRANCH  13  14
ENDBRANCH  12  13
ENDBRANCH  11  12
ENDBRANCH  10  11
ENDBRANCH   9  10
ENDBRANCH   8   9
ENDBRANCH   7   8
ENDBRANCH   6   7
ENDBRANCH   5   6
ENDBRANCH   4   5
ENDBRANCH   3   4
ENDBRANCH   2   3
ENDBRANCH   1   2
BRANCH   1  17
ATOM     17  C   UNL     1      -2.012  26.851  24.206  1.00  0.00     0.000 C 
BRANCH  17  18
ATOM     18  C   UNL     1      -2.303  27.302  25.651  1.00  0.00     0.000 C 
BRANCH  18  19
ATOM     19  C   UNL     1      -3.471  26.551  26.326  1.00  0.00     0.000 C 
BRANCH  19  20
ATOM     20  C   UNL     1      -4.036  25.413  25.454  1.00  0.00     0.000 C 
BRANCH  20  21
ATOM     21  C   UNL     1      -3.687  24.022  26.014  1.00  0.00     0.000 C 
BRANCH  21  22
ATOM     22  C   UNL     1      -4.883  23.294  26.657  1.00  0.00    -0.000 C 
BRANCH  22  23
ATOM     23  C   UNL     1      -6.188  23.500  25.866  1.00  0.00    -0.000 C 
BRANCH  23  24
ATOM     24  C   UNL     1      -7.398  22.834  26.539  1.00  0.00    -0.000 C 
BRANCH  24  25
ATOM     25  C   UNL     1      -8.719  23.132  25.808  1.00  0.00    -0.000 C 
BRANCH  25  26
ATOM     26  C   UNL     1      -8.731  24.521  25.151  1.00  0.00    -0.000 C 
BRANCH  26  27
ATOM     27  C   UNL     1      -9.547  24.556  23.852  1.00  0.00    -0.000 C 
BRANCH  27  28
ATOM     28  C   UNL     1     -10.402  23.288  23.710  1.00  0.00    -0.000 C 
BRANCH  28  29
ATOM     29  C   UNL     1     -11.741  23.552  23.003  1.00  0.00    -0.003 C 
ATOM     30  C   UNL     1     -11.649  23.393  21.487  1.00  0.00     0.004 C 
ENDBRANCH  28  29
ENDBRANCH  27  28
ENDBRANCH  26  27
ENDBRANCH  25  26
ENDBRANCH  24  25
ENDBRANCH  23  24
ENDBRANCH  22  23
ENDBRANCH  21  22
ENDBRANCH  20  21
ENDBRANCH  19  20
ENDBRANCH  18  19
ENDBRANCH  17  18
ENDBRANCH   1  17
TORSDOF 26
ENDMDL
MODEL 2
REMARK VINA RESULT:    -2.857      3.827     10.160
REMARK INTER + INTRA:          -8.873
REMARK INTER:                  -7.036
REMARK INTRA:                  -1.837
REMARK UNBOUND:                -1.675
REMARK SMILES CCCCCCCCCCCCCCCCCCCCCCCCCCCC(=O)[O-]
REMARK SMILES IDX 15 1 16 2 17 3 18 4 19 5 20 6 21 7 22 8 23 9 24 10 25 11
REMARK SMILES IDX 26 12 27 13 28 14 29 15 30 16 14 17 13 18 12 19 11 20 10 21
REMARK SMILES IDX 9 22 8 23 7 24 6 25 5 26 4 27 3 28 2 29 1 30
REMARK H PARENT
REMARK Flexibility Score: inf
ROOT
ATOM      1  C   UNL     1      -1.944  27.758  24.626  1.00  0.00     0.000 C 
ENDROOT
BRANCH   1   2
ATOM      2  C   UNL     1      -2.979  27.038  25.514  1.00  0.00     0.000 C 
BRANCH   2   3
ATOM      3  C   UNL     1      -3.020  25.508  25.349  1.00  0.00     0.000 C 
BRANCH   3   4
ATOM      4  C   UNL     1      -3.839  24.815  26.448  1.00  0.00     0.000 C 
BRANCH   4   5
ATOM      5  C   UNL     1      -4.567  23.582  25.893  1.00  0.00     0.000 C 
BRANCH   5   6
ATOM      6  C   UNL     1      -6.068  23.827  25.651  1.00  0.00     0.000 C 
BRANCH   6   7
ATOM      7  C   UNL     1      -7.014  22.908  26.447  1.00  0.00     0.000 C 
BRANCH   7   8
ATOM      8  C   UNL     1      -8.482  23.372  26.398  1.00  0.00     0.000 C 
BRANCH   8   9
ATOM      9  C   UNL     1      -9.461  22.202  26.217  1.00  0.00     0.000 C 
BRANCH   9  10
ATOM     10  C   UNL     1     -10.017  22.104  24.785  1.00  0.00     0.000 C 
BRANCH  10  11
ATOM     11  C   UNL     1     -10.131  23.489  24.115  1.00  0.00     0.000 C 
BRANCH  11  12
ATOM     12  C   UNL     1     -11.312  23.606  23.136  1.00  0.00     0.006 C 
BRANCH  12  13
ATOM     13  C   UNL     1     -11.016  22.991  21.763  1.00  0.00     0.053 C 
BRANCH  13  14
ATOM     14  C   UNL     1     -11.938  23.555  20.728  1.00  0.00     0.041 C 
ATOM     15  O   UNL     1     -12.671  22.789  20.047  1.00  0.00    -0.550 OA
ATOM     16  O   UNL     1     -12.029  24.929  20.553  1.00  0.00    -0.550 OA
ENDBRANCH  13  14
ENDBRANCH  12  13
ENDBRANCH  11  12
ENDBRANCH  10  11
ENDBRANCH   9  10
ENDBRANCH   8   9
ENDBRANCH   7   8
ENDBRANCH   6   7
ENDBRANCH   5   6
ENDBRANCH   4   5
ENDBRANCH   3   4
ENDBRANCH   2   3
ENDBRANCH   1   2
BRANCH   1  17
ATOM     17  C   UNL     1      -0.599  28.074  25.308  1.00  0.00     0.000 C 
BRANCH  17  18
ATOM     18  C   UNL     1       0.653  27.544  24.580  1.00  0.00     0.000 C 
BRANCH  18  19
ATOM     19  C   UNL     1       0.345  26.621  23.382  1.00  0.00     0.000 C 
BRANCH  19  20
ATOM     20  C   UNL     1       1.204  25.342  23.373  1.00  0.00     0.000 C 
BRANCH  20  21
ATOM     21  C   UNL     1       0.407  24.107  22.914  1.00  0.00     0.000 C 
BRANCH  21  22
ATOM     22  C   UNL     1       1.046  23.364  21.726  1.00  0.00    -0.000 C 
BRANCH  22  23
ATOM     23  C   UNL     1       0.043  22.448  21.000  1.00  0.00    -0.000 C 
BRANCH  23  24
ATOM     24  C   UNL     1       0.721  21.241  20.334  1.00  0.00    -0.000 C 
BRANCH  24  25
ATOM     25  C   UNL     1       0.390  21.131  18.835  1.00  0.00    -0.000 C 
BRANCH  25  26
ATOM     26  C   UNL     1      -0.414  22.334  18.317  1.00  0.00    -0.000 C 
BRANCH  26  27
ATOM     27  C   UNL     1       0.449  23.327  17.526  1.00  0.00    -0.000 C 
BRANCH  27  28
ATOM     28  C   UNL     1      -0.129  24.748  17.620  1.00  0.00    -0.000 C 
BRANCH  28  29
ATOM     29  C   UNL     1       0.378  25.512  18.852  1.00  0.00    -0.003 C 
ATOM     30  C   UNL     1       0.718  26.969  18.544  1.00  0.00     0.004 C 
ENDBRANCH  28  29
ENDBRANCH  27  28
ENDBRANCH  26  27
ENDBRANCH  25  26
ENDBRANCH  24  25
ENDBRANCH  23  24
ENDBRANCH  22  23
ENDBRANCH  21  22
ENDBRANCH  20  21
ENDBRANCH  19  20
ENDBRANCH  18  19
ENDBRANCH  17  18
ENDBRANCH   1  17
TORSDOF 26
ENDMDL
MODEL 3
REMARK VINA RESULT:    -2.735      3.708      9.950
REMARK INTER + INTRA:          -8.566
REMARK INTER:                  -6.276
REMARK INTRA:                  -2.290
REMARK UNBOUND:                -1.675
REMARK SMILES CCCCCCCCCCCCCCCCCCCCCCCCCCCC(=O)[O-]
REMARK SMILES IDX 15 1 16 2 17 3 18 4 19 5 20 6 21 7 22 8 23 9 24 10 25 11
REMARK SMILES IDX 26 12 27 13 28 14 29 15 30 16 14 17 13 18 12 19 11 20 10 21
REMARK SMILES IDX 9 22 8 23 7 24 6 25 5 26 4 27 3 28 2 29 1 30
REMARK H PARENT
REMARK Flexibility Score: inf
ROOT
ATOM      1  C   UNL     1       1.789  26.704  22.083  1.00  0.00     0.000 C 
ENDROOT
BRANCH   1   2
ATOM      2  C   UNL     1       0.935  25.463  22.415  1.00  0.00     0.000 C 
BRANCH   2   3
ATOM      3  C   UNL     1       0.123  25.568  23.720  1.00  0.00     0.000 C 
BRANCH   3   4
ATOM      4  C   UNL     1       0.083  26.997  24.279  1.00  0.00     0.000 C 
BRANCH   4   5
ATOM      5  C   UNL     1      -1.000  27.132  25.359  1.00  0.00     0.000 C 
BRANCH   5   6
ATOM      6  C   UNL     1      -2.417  27.278  24.774  1.00  0.00     0.000 C 
BRANCH   6   7
ATOM      7  C   UNL     1      -3.546  26.705  25.652  1.00  0.00     0.000 C 
BRANCH   7   8
ATOM      8  C   UNL     1      -3.239  25.290  26.175  1.00  0.00     0.000 C 
BRANCH   8   9
ATOM      9  C   UNL     1      -4.026  24.203  25.427  1.00  0.00     0.000 C 
BRANCH   9  10
ATOM     10  C   UNL     1      -4.887  23.338  26.364  1.00  0.00     0.000 C 
BRANCH  10  11
ATOM     11  C   UNL     1      -6.392  23.643  26.210  1.00  0.00     0.000 C 
BRANCH  11  12
ATOM     12  C   UNL     1      -7.302  22.447  26.539  1.00  0.00     0.006 C 
BRANCH  12  13
ATOM     13  C   UNL     1      -8.772  22.844  26.724  1.00  0.00     0.053 C 
BRANCH  13  14
ATOM     14  C   UNL     1      -9.465  22.913  25.401  1.00  0.00     0.041 C 
ATOM     15  O   UNL     1      -9.293  23.907  24.645  1.00  0.00    -0.550 OA
ATOM     16  O   UNL     1     -10.259  21.855  24.977  1.00  0.00    -0.550 OA
ENDBRANCH  13  14
ENDBRANCH  12  13
ENDBRANCH  11  12
ENDBRANCH  10  11
ENDBRANCH   9  10
ENDBRANCH   8   9
ENDBRANCH   7   8
ENDBRANCH   6   7
ENDBRANCH   5   6
ENDBRANCH   4   5
ENDBRANCH   3   4
ENDBRANCH   2   3
ENDBRANCH   1   2
BRANCH   1  17
ATOM     17  C   UNL     1       1.997  26.975  20.581  1.00  0.00     0.000 C 
BRANCH  17  18
ATOM     18  C   UNL     1       0.979  27.938  19.936  1.00  0.00     0.000 C 
BRANCH  18  19
ATOM     19  C   UNL     1      -0.481  27.439  19.981  1.00  0.00     0.000 C 
BRANCH  19  20
ATOM     20  C   UNL     1      -1.113  27.307  18.582  1.00  0.00     0.000 C 
BRANCH  20  21
ATOM     21  C   UNL     1      -0.156  26.650  17.570  1.00  0.00     0.000 C 
BRANCH  21  22
ATOM     22  C   UNL     1      -0.543  25.206  17.198  1.00  0.00    -0.000 C 
BRANCH  22  23
ATOM     23  C   UNL     1       0.547  24.190  17.587  1.00  0.00    -0.000 C 
BRANCH  23  24
ATOM     24  C   UNL     1       0.496  23.810  19.075  1.00  0.00    -0.000 C 
BRANCH  24  25
ATOM     25  C   UNL     1       1.864  23.358  19.617  1.00  0.00    -0.000 C 
BRANCH  25  26
ATOM     26  C   UNL     1       1.853  21.900  20.106  1.00  0.00    -0.000 C 
BRANCH  26  27
ATOM     27  C   UNL     1       0.713  21.077  19.489  1.00  0.00    -0.000 C 
BRANCH  27  28
ATOM     28  C   UNL     1       0.800  19.608  19.931  1.00  0.00    -0.000 C 
BRANCH  28  29
ATOM     29  C   UNL     1       0.455  18.628  18.799  1.00  0.00    -0.003 C 
ATOM     30  C   UNL     1       1.484  17.510  18.653  1.00  0.00     0.004 C 
ENDBRANCH  28  29
ENDBRANCH  27  28
ENDBRANCH  26  27
ENDBRANCH  25  26
ENDBRANCH  24  25
ENDBRANCH  23  24
ENDBRANCH  22  23
ENDBRANCH  21  22
ENDBRANCH  20  21
ENDBRANCH  19  20
ENDBRANCH  18  19
ENDBRANCH  17  18
ENDBRANCH   1  17
TORSDOF 26
ENDMDL
MODEL 4
REMARK VINA RESULT:    -2.616      3.737     10.296
REMARK INTER + INTRA:          -8.268
REMARK INTER:                  -7.051
REMARK INTRA:                  -1.216
REMARK UNBOUND:                -1.675
REMARK SMILES CCCCCCCCCCCCCCCCCCCCCCCCCCCC(=O)[O-]
REMARK SMILES IDX 15 1 16 2 17 3 18 4 19 5 20 6 21 7 22 8 23 9 24 10 25 11
REMARK SMILES IDX 26 12 27 13 28 14 29 15 30 16 14 17 13 18 12 19 11 20 10 21
REMARK SMILES IDX 9 22 8 23 7 24 6 25 5 26 4 27 3 28 2 29 1 30
REMARK H PARENT
REMARK Flexibility Score: inf
ROOT
ATOM      1  C   UNL     1      -1.331  28.124  26.529  1.00  0.00     0.000 C 
ENDROOT
BRANCH   1   2
ATOM      2  C   UNL     1      -1.963  28.038  25.125  1.00  0.00     0.000 C 
BRANCH   2   3
ATOM      3  C   UNL     1      -2.603  26.679  24.786  1.00  0.00     0.000 C 
BRANCH   3   4
ATOM      4  C   UNL     1      -3.406  26.094  25.957  1.00  0.00     0.000 C 
BRANCH   4   5
ATOM      5  C   UNL     1      -4.443  25.078  25.456  1.00  0.00     0.000 C 
BRANCH   5   6
ATOM      6  C   UNL     1      -4.116  23.631  25.871  1.00  0.00     0.000 C 
BRANCH   6   7
ATOM      7  C   UNL     1      -5.319  22.810  26.372  1.00  0.00     0.000 C 
BRANCH   7   8
ATOM      8  C   UNL     1      -6.655  23.566  26.249  1.00  0.00     0.000 C 
BRANCH   8   9
ATOM      9  C   UNL     1      -7.868  22.665  26.529  1.00  0.00     0.000 C 
BRANCH   9  10
ATOM     10  C   UNL     1      -9.089  23.023  25.663  1.00  0.00     0.000 C 
BRANCH  10  11
ATOM     11  C   UNL     1      -8.830  24.266  24.786  1.00  0.00     0.000 C 
BRANCH  11  12
ATOM     12  C   UNL     1      -9.876  24.466  23.675  1.00  0.00     0.006 C 
BRANCH  12  13
ATOM     13  C   UNL     1     -10.799  23.254  23.495  1.00  0.00     0.053 C 
BRANCH  13  14
ATOM     14  C   UNL     1     -11.770  23.498  22.383  1.00  0.00     0.041 C 
ATOM     15  O   UNL     1     -12.906  23.984  22.630  1.00  0.00    -0.550 OA
ATOM     16  O   UNL     1     -11.402  23.238  21.070  1.00  0.00    -0.550 OA
ENDBRANCH  13  14
ENDBRANCH  12  13
ENDBRANCH  11  12
ENDBRANCH  10  11
ENDBRANCH   9  10
ENDBRANCH   8   9
ENDBRANCH   7   8
ENDBRANCH   6   7
ENDBRANCH   5   6
ENDBRANCH   4   5
ENDBRANCH   3   4
ENDBRANCH   2   3
ENDBRANCH   1   2
BRANCH   1  17
ATOM     17  C   UNL     1       0.209  28.111  26.558  1.00  0.00     0.000 C 
BRANCH  17  18
ATOM     18  C   UNL     1       0.882  27.162  25.546  1.00  0.00     0.000 C 
BRANCH  18  19
ATOM     19  C   UNL     1       1.047  27.758  24.131  1.00  0.00     0.000 C 
BRANCH  19  20
ATOM     20  C   UNL     1       2.026  26.956  23.252  1.00  0.00     0.000 C 
BRANCH  20  21
ATOM     21  C   UNL     1       1.446  26.658  21.857  1.00  0.00     0.000 C 
BRANCH  21  22
ATOM     22  C   UNL     1       1.408  25.157  21.510  1.00  0.00    -0.000 C 
BRANCH  22  23
ATOM     23  C   UNL     1       1.794  24.885  20.045  1.00  0.00    -0.000 C 
BRANCH  23  24
ATOM     24  C   UNL     1       0.580  24.898  19.103  1.00  0.00    -0.000 C 
BRANCH  24  25
ATOM     25  C   UNL     1       0.461  23.606  18.275  1.00  0.00    -0.000 C 
BRANCH  25  26
ATOM     26  C   UNL     1       1.797  22.853  18.159  1.00  0.00    -0.000 C 
BRANCH  26  27
ATOM     27  C   UNL     1       1.668  21.533  17.387  1.00  0.00    -0.000 C 
BRANCH  27  28
ATOM     28  C   UNL     1       0.466  20.720  17.891  1.00  0.00    -0.000 C 
BRANCH  28  29
ATOM     29  C   UNL     1       0.874  19.359  18.474  1.00  0.00    -0.003 C 
ATOM     30  C   UNL     1       0.612  19.257  19.975  1.00  0.00     0.004 C 
ENDBRANCH  28  29
ENDBRANCH  27  28
ENDBRANCH  26  27
ENDBRANCH  25  26
ENDBRANCH  24  25
ENDBRANCH  23  24
ENDBRANCH  22  23
ENDBRANCH  21  22
ENDBRANCH  20  21
ENDBRANCH  19  20
ENDBRANCH  18  19
ENDBRANCH  17  18
ENDBRANCH   1  17
TORSDOF 26
ENDMDL
MODEL 5
REMARK VINA RESULT:    -2.607      3.653     10.079
REMARK INTER + INTRA:          -8.244
REMARK INTER:                  -6.194
REMARK INTRA:                  -2.050
REMARK UNBOUND:                -1.675
REMARK SMILES CCCCCCCCCCCCCCCCCCCCCCCCCCCC(=O)[O-]
REMARK SMILES IDX 15 1 16 2 17 3 18 4 19 5 20 6 21 7 22 8 23 9 24 10 25 11
REMARK SMILES IDX 26 12 27 13 28 14 29 15 30 16 14 17 13 18 12 19 11 20 10 21
REMARK SMILES IDX 9 22 8 23 7 24 6 25 5 26 4 27 3 28 2 29 1 30
REMARK H PARENT
REMARK Flexibility Score: inf
ROOT
ATOM      1  C   UNL     1      -2.271  28.030  25.097  1.00  0.00     0.000 C 
ENDROOT
BRANCH   1   2
ATOM      2  C   UNL     1      -2.755  26.704  24.475  1.00  0.00     0.000 C 
BRANCH   2   3
ATOM      3  C   UNL     1      -2.682  25.485  25.414  1.00  0.00     0.000 C 
BRANCH   3   4
ATOM      4  C   UNL     1      -4.060  25.062  25.943  1.00  0.00     0.000 C 
BRANCH   4   5
ATOM      5  C   UNL     1      -4.506  23.736  25.309  1.00  0.00     0.000 C 
BRANCH   5   6
ATOM      6  C   UNL     1      -5.425  22.910  26.228  1.00  0.00     0.000 C 
BRANCH   6   7
ATOM      7  C   UNL     1      -6.687  23.645  26.719  1.00  0.00     0.000 C 
BRANCH   7   8
ATOM      8  C   UNL     1      -7.852  23.574  25.714  1.00  0.00     0.000 C 
BRANCH   8   9
ATOM      9  C   UNL     1      -8.899  22.520  26.104  1.00  0.00     0.000 C 
BRANCH   9  10
ATOM     10  C   UNL     1     -10.014  22.369  25.054  1.00  0.00     0.000 C 
BRANCH  10  11
ATOM     11  C   UNL     1     -10.186  23.647  24.207  1.00  0.00     0.000 C 
BRANCH  11  12
ATOM     12  C   UNL     1     -10.450  23.370  22.717  1.00  0.00     0.006 C 
BRANCH  12  13
ATOM     13  C   UNL     1     -11.902  23.645  22.305  1.00  0.00     0.053 C 
BRANCH  13  14
ATOM     14  C   UNL     1     -12.019  23.706  20.814  1.00  0.00     0.041 C 
ATOM     15  O   UNL     1     -12.155  22.647  20.145  1.00  0.00    -0.550 OA
ATOM     16  O   UNL     1     -12.033  24.935  20.168  1.00  0.00    -0.550 OA
ENDBRANCH  13  14
ENDBRANCH  12  13
ENDBRANCH  11  12
ENDBRANCH  10  11
ENDBRANCH   9  10
ENDBRANCH   8   9
ENDBRANCH   7   8
ENDBRANCH   6   7
ENDBRANCH   5   6
ENDBRANCH   4   5
ENDBRANCH   3   4
ENDBRANCH   2   3
ENDBRANCH   1   2
BRANCH   1  17
ATOM     17  C   UNL     1      -1.578  27.899  26.466  1.00  0.00     0.000 C 
BRANCH  17  18
ATOM     18  C   UNL     1      -0.039  28.001  26.440  1.00  0.00     0.000 C 
BRANCH  18  19
ATOM     19  C   UNL     1       0.572  28.004  25.022  1.00  0.00     0.000 C 
BRANCH  19  20
ATOM     20  C   UNL     1       1.942  27.303  24.958  1.00  0.00     0.000 C 
BRANCH  20  21
ATOM     21  C   UNL     1       2.076  26.398  23.718  1.00  0.00     0.000 C 
BRANCH  21  22
ATOM     22  C   UNL     1       0.724  25.947  23.132  1.00  0.00    -0.000 C 
BRANCH  22  23
ATOM     23  C   UNL     1       0.645  24.420  22.953  1.00  0.00    -0.000 C 
BRANCH  23  24
ATOM     24  C   UNL     1       1.995  23.801  22.558  1.00  0.00    -0.000 C 
BRANCH  24  25
ATOM     25  C   UNL     1       1.931  23.052  21.215  1.00  0.00    -0.000 C 
BRANCH  25  26
ATOM     26  C   UNL     1       0.644  23.353  20.431  1.00  0.00    -0.000 C 
BRANCH  26  27
ATOM     27  C   UNL     1      -0.033  22.085  19.893  1.00  0.00    -0.000 C 
BRANCH  27  28
ATOM     28  C   UNL     1       1.014  21.039  19.481  1.00  0.00    -0.000 C 
BRANCH  28  29
ATOM     29  C   UNL     1       0.667  19.627  19.975  1.00  0.00    -0.003 C 
ATOM     30  C   UNL     1       0.867  18.560  18.900  1.00  0.00     0.004 C 
ENDBRANCH  28  29
ENDBRANCH  27  28
ENDBRANCH  26  27
ENDBRANCH  25  26
ENDBRANCH  24  25
ENDBRANCH  23  24
ENDBRANCH  22  23
ENDBRANCH  21  22
ENDBRANCH  20  21
ENDBRANCH  19  20
ENDBRANCH  18  19
ENDBRANCH  17  18
ENDBRANCH   1  17
TORSDOF 26
ENDMDL
MODEL 6
REMARK VINA RESULT:    -2.465      3.679     10.494
REMARK INTER + INTRA:          -7.886
REMARK INTER:                  -5.654
REMARK INTRA:                  -2.232
REMARK UNBOUND:                -1.675
REMARK SMILES CCCCCCCCCCCCCCCCCCCCCCCCCCCC(=O)[O-]
REMARK SMILES IDX 15 1 16 2 17 3 18 4 19 5 20 6 21 7 22 8 23 9 24 10 25 11
REMARK SMILES IDX 26 12 27 13 28 14 29 15 30 16 14 17 13 18 12 19 11 20 10 21
REMARK SMILES IDX 9 22 8 23 7 24 6 25 5 26 4 27 3 28 2 29 1 30
REMARK H PARENT
REMARK Flexibility Score: inf
ROOT
ATOM      1  C   UNL     1      -0.085  23.808  23.204  1.00  0.00     0.000 C 
ENDROOT
BRANCH   1   2
ATOM      2  C   UNL     1       1.078  24.731  23.624  1.00  0.00     0.000 C 
BRANCH   2   3
ATOM      3  C   UNL     1       0.835  26.231  23.374  1.00  0.00     0.000 C 
BRANCH   3   4
ATOM      4  C   UNL     1      -0.556  26.516  22.789  1.00  0.00     0.000 C 
BRANCH   4   5
ATOM      5  C   UNL     1      -1.380  27.398  23.739  1.00  0.00     0.000 C 
BRANCH   5   6
ATOM      6  C   UNL     1      -1.228  26.994  25.218  1.00  0.00     0.000 C 
BRANCH   6   7
ATOM      7  C   UNL     1      -2.419  27.369  26.120  1.00  0.00     0.000 C 
BRANCH   7   8
ATOM      8  C   UNL     1      -3.393  26.198  26.346  1.00  0.00     0.000 C 
BRANCH   8   9
ATOM      9  C   UNL     1      -4.062  25.733  25.043  1.00  0.00     0.000 C 
BRANCH   9  10
ATOM     10  C   UNL     1      -4.388  24.229  25.044  1.00  0.00     0.000 C 
BRANCH  10  11
ATOM     11  C   UNL     1      -4.593  23.683  26.473  1.00  0.00     0.000 C 
BRANCH  11  12
ATOM     12  C   UNL     1      -5.936  22.960  26.671  1.00  0.00     0.006 C 
BRANCH  12  13
ATOM     13  C   UNL     1      -7.080  23.588  25.865  1.00  0.00     0.053 C 
BRANCH  13  14
ATOM     14  C   UNL     1      -8.400  23.072  26.343  1.00  0.00     0.041 C 
ATOM     15  O   UNL     1      -9.177  22.483  25.544  1.00  0.00    -0.550 OA
ATOM     16  O   UNL     1      -8.751  23.194  27.681  1.00  0.00    -0.550 OA
ENDBRANCH  13  14
ENDBRANCH  12  13
ENDBRANCH  11  12
ENDBRANCH  10  11
ENDBRANCH   9  10
ENDBRANCH   8   9
ENDBRANCH   7   8
ENDBRANCH   6   7
ENDBRANCH   5   6
ENDBRANCH   4   5
ENDBRANCH   3   4
ENDBRANCH   2   3
ENDBRANCH   1   2
BRANCH   1  17
ATOM     17  C   UNL     1       0.256  22.778  22.111  1.00  0.00     0.000 C 
BRANCH  17  18
ATOM     18  C   UNL     1       1.438  23.154  21.194  1.00  0.00     0.000 C 
BRANCH  18  19
ATOM     19  C   UNL     1       1.024  23.869  19.889  1.00  0.00     0.000 C 
BRANCH  19  20
ATOM     20  C   UNL     1       1.871  23.440  18.675  1.00  0.00     0.000 C 
BRANCH  20  21
ATOM     21  C   UNL     1       1.058  22.615  17.660  1.00  0.00     0.000 C 
BRANCH  21  22
ATOM     22  C   UNL     1       1.468  21.131  17.598  1.00  0.00    -0.000 C 
BRANCH  22  23
ATOM     23  C   UNL     1       0.590  20.243  18.499  1.00  0.00    -0.000 C 
BRANCH  23  24
ATOM     24  C   UNL     1       1.360  19.683  19.705  1.00  0.00    -0.000 C 
BRANCH  24  25
ATOM     25  C   UNL     1       0.714  18.410  20.279  1.00  0.00    -0.000 C 
BRANCH  25  26
ATOM     26  C   UNL     1       1.592  17.163  20.084  1.00  0.00    -0.000 C 
BRANCH  26  27
ATOM     27  C   UNL     1       1.401  16.513  18.706  1.00  0.00    -0.000 C 
BRANCH  27  28
ATOM     28  C   UNL     1       1.884  15.055  18.718  1.00  0.00    -0.000 C 
BRANCH  28  29
ATOM     29  C   UNL     1       0.769  14.059  18.363  1.00  0.00    -0.003 C 
ATOM     30  C   UNL     1       1.043  13.305  17.064  1.00  0.00     0.004 C 
ENDBRANCH  28  29
ENDBRANCH  27  28
ENDBRANCH  26  27
ENDBRANCH  25  26
ENDBRANCH  24  25
ENDBRANCH  23  24
ENDBRANCH  22  23
ENDBRANCH  21  22
ENDBRANCH  20  21
ENDBRANCH  19  20
ENDBRANCH  18  19
ENDBRANCH  17  18
ENDBRANCH   1  17
TORSDOF 26
ENDMDL
MODEL 7
REMARK VINA RESULT:    -2.384      3.276      6.105
REMARK INTER + INTRA:          -7.684
REMARK INTER:                  -5.192
REMARK INTRA:                  -2.491
REMARK UNBOUND:                -1.675
REMARK SMILES CCCCCCCCCCCCCCCCCCCCCCCCCCCC(=O)[O-]
REMARK SMILES IDX 15 1 16 2 17 3 18 4 19 5 20 6 21 7 22 8 23 9 24 10 25 11
REMARK SMILES IDX 26 12 27 13 28 14 29 15 30 16 14 17 13 18 12 19 11 20 10 21
REMARK SMILES IDX 9 22 8 23 7 24 6 25 5 26 4 27 3 28 2 29 1 30
REMARK H PARENT
REMARK Flexibility Score: inf
ROOT
ATOM      1  C   UNL     1       0.915  22.968  20.701  1.00  0.00     0.000 C 
ENDROOT
BRANCH   1   2
ATOM      2  C   UNL     1       1.254  21.468  20.584  1.00  0.00     0.000 C 
BRANCH   2   3
ATOM      3  C   UNL     1       0.275  20.649  19.721  1.00  0.00     0.000 C 
BRANCH   3   4
ATOM      4  C   UNL     1       0.697  20.585  18.246  1.00  0.00     0.000 C 
BRANCH   4   5
ATOM      5  C   UNL     1       0.039  21.714  17.439  1.00  0.00     0.000 C 
BRANCH   5   6
ATOM      6  C   UNL     1       1.058  22.723  16.876  1.00  0.00     0.000 C 
BRANCH   6   7
ATOM      7  C   UNL     1       0.810  24.190  17.277  1.00  0.00     0.000 C 
BRANCH   7   8
ATOM      8  C   UNL     1       2.106  24.942  17.631  1.00  0.00     0.000 C 
BRANCH   8   9
ATOM      9  C   UNL     1       1.857  26.425  17.947  1.00  0.00     0.000 C 
BRANCH   9  10
ATOM     10  C   UNL     1       1.174  26.637  19.309  1.00  0.00     0.000 C 
BRANCH  10  11
ATOM     11  C   UNL     1       1.621  27.953  19.980  1.00  0.00     0.000 C 
BRANCH  11  12
ATOM     12  C   UNL     1       1.096  28.124  21.416  1.00  0.00     0.006 C 
BRANCH  12  13
ATOM     13  C   UNL     1      -0.391  27.776  21.556  1.00  0.00     0.053 C 
BRANCH  13  14
ATOM     14  C   UNL     1      -0.828  27.915  22.980  1.00  0.00     0.041 C 
ATOM     15  O   UNL     1      -2.054  27.988  23.263  1.00  0.00    -0.550 OA
ATOM     16  O   UNL     1       0.115  27.908  24.000  1.00  0.00    -0.550 OA
ENDBRANCH  13  14
ENDBRANCH  12  13
ENDBRANCH  11  12
ENDBRANCH  10  11
ENDBRANCH   9  10
ENDBRANCH   8   9
ENDBRANCH   7   8
ENDBRANCH   6   7
ENDBRANCH   5   6
ENDBRANCH   4   5
ENDBRANCH   3   4
ENDBRANCH   2   3
ENDBRANCH   1   2
BRANCH   1  17
ATOM     17  C   UNL     1       1.899  23.799  21.546  1.00  0.00     0.000 C 
BRANCH  17  18
ATOM     18  C   UNL     1       1.261  24.623  22.684  1.00  0.00     0.000 C 
BRANCH  18  19
ATOM     19  C   UNL     1       0.217  23.849  23.517  1.00  0.00     0.000 C 
BRANCH  19  20
ATOM     20  C   UNL     1      -0.519  24.742  24.535  1.00  0.00     0.000 C 
BRANCH  20  21
ATOM     21  C   UNL     1      -1.756  24.046  25.133  1.00  0.00     0.000 C 
BRANCH  21  22
ATOM     22  C   UNL     1      -2.964  24.983  25.321  1.00  0.00    -0.000 C 
BRANCH  22  23
ATOM     23  C   UNL     1      -3.952  24.459  26.380  1.00  0.00    -0.000 C 
BRANCH  23  24
ATOM     24  C   UNL     1      -4.941  23.432  25.807  1.00  0.00    -0.000 C 
BRANCH  24  25
ATOM     25  C   UNL     1      -6.377  23.979  25.723  1.00  0.00    -0.000 C 
BRANCH  25  26
ATOM     26  C   UNL     1      -7.379  23.134  26.527  1.00  0.00    -0.000 C 
BRANCH  26  27
ATOM     27  C   UNL     1      -8.755  23.044  25.852  1.00  0.00    -0.000 C 
BRANCH  27  28
ATOM     28  C   UNL     1      -8.846  24.017  24.667  1.00  0.00    -0.000 C 
BRANCH  28  29
ATOM     29  C   UNL     1     -10.165  23.882  23.891  1.00  0.00    -0.003 C 
ATOM     30  C   UNL     1     -10.864  22.548  24.142  1.00  0.00     0.004 C 
ENDBRANCH  28  29
ENDBRANCH  27  28
ENDBRANCH  26  27
ENDBRANCH  25  26
ENDBRANCH  24  25
ENDBRANCH  23  24
ENDBRANCH  22  23
ENDBRANCH  21  22
ENDBRANCH  20  21
ENDBRANCH  19  20
ENDBRANCH  18  19
ENDBRANCH  17  18
ENDBRANCH   1  17
TORSDOF 26
ENDMDL
