MODEL 1
REMARK VINA RESULT:    -2.940      0.000      0.000
REMARK INTER + INTRA:          -3.490
REMARK INTER:                  -3.455
REMARK INTRA:                  -0.034
REMARK UNBOUND:                -0.034
REMARK SMILES O=C([O-])CCC(=O)[O-]
REMARK SMILES IDX 4 1 2 2 1 3 3 4 5 5 6 6 7 7 8 8
REMARK H PARENT
REMARK Flexibility Score: inf
ROOT
ATOM      1  C   UNL     1      20.285  42.779  12.194  1.00  0.00     0.059 C 
ENDROOT
BRANCH   1   2
ATOM      2  C   UNL     1      20.635  44.236  12.230  1.00  0.00     0.042 C 
ATOM      3  O   UNL     1      20.156  44.980  13.125  1.00  0.00    -0.550 OA
ATOM      4  O   UNL     1      21.459  44.777  11.251  1.00  0.00    -0.550 OA
ENDBRANCH   1   2
BRANCH   1   5
ATOM      5  C   UNL     1      19.130  42.501  11.226  1.00  0.00     0.059 C 
BRANCH   5   6
ATOM      6  C   UNL     1      19.028  41.044  10.894  1.00  0.00     0.042 C 
ATOM      7  O   UNL     1      19.889  40.233  11.327  1.00  0.00    -0.550 OA
ATOM      8  O   UNL     1      18.005  40.587  10.073  1.00  0.00    -0.550 OA
ENDBRANCH   5   6
ENDBRANCH   1   5
TORSDOF 3
ENDMDL
MODEL 2
REMARK VINA RESULT:    -2.320      0.057      4.297
REMARK INTER + INTRA:          -2.761
REMARK INTER:                  -2.727
REMARK INTRA:                  -0.034
REMARK UNBOUND:                -0.034
REMARK SMILES O=C([O-])CCC(=O)[O-]
REMARK SMILES IDX 4 1 2 2 1 3 3 4 5 5 6 6 7 7 8 8
REMARK H PARENT
REMARK Flexibility Score: inf
ROOT
ATOM      1  C   UNL     1      19.146  42.524  11.142  1.00  0.00     0.059 C 
ENDROOT
BRANCH   1   2
ATOM      2  C   UNL     1      19.006  41.057  10.868  1.00  0.00     0.042 C 
ATOM      3  O   UNL     1      19.876  40.249  11.283  1.00  0.00    -0.550 OA
ATOM      4  O   UNL     1      17.933  40.591  10.118  1.00  0.00    -0.550 OA
ENDBRANCH   1   2
BRANCH   1   5
ATOM      5  C   UNL     1      20.224  42.800  12.196  1.00  0.00     0.059 C 
BRANCH   5   6
ATOM      6  C   UNL     1      20.601  44.250  12.231  1.00  0.00     0.042 C 
ATOM      7  O   UNL     1      20.136  45.004  13.125  1.00  0.00    -0.550 OA
ATOM      8  O   UNL     1      21.435  44.775  11.252  1.00  0.00    -0.550 OA
ENDBRANCH   5   6
ENDBRANCH   1   5
TORSDOF 3
ENDMDL
MODEL 3
REMARK VINA RESULT:    -2.311      1.085      4.133
REMARK INTER + INTRA:          -2.750
REMARK INTER:                  -2.633
REMARK INTRA:                  -0.117
REMARK UNBOUND:                -0.034
REMARK SMILES O=C([O-])CCC(=O)[O-]
REMARK SMILES IDX 4 1 2 2 1 3 3 4 5 5 6 6 7 7 8 8
REMARK H PARENT
REMARK Flexibility Score: inf
ROOT
ATOM      1  C   UNL     1      19.357  42.070  10.355  1.00  0.00     0.059 C 
ENDROOT
BRANCH   1   2
ATOM      2  C   UNL     1      18.873  40.675  10.611  1.00  0.00     0.042 C 
ATOM      3  O   UNL     1      19.537  39.898  11.345  1.00  0.00    -0.550 OA
ATOM      4  O   UNL     1      17.707  40.223  10.006  1.00  0.00    -0.550 OA
ENDBRANCH   1   2
BRANCH   1   5
ATOM      5  C   UNL     1      19.169  42.967  11.584  1.00  0.00     0.059 C 
BRANCH   5   6
ATOM      6  C   UNL     1      20.484  43.361  12.184  1.00  0.00     0.042 C 
ATOM      7  O   UNL     1      21.051  42.608  13.019  1.00  0.00    -0.550 OA
ATOM      8  O   UNL     1      21.063  44.579  11.852  1.00  0.00    -0.550 OA
ENDBRANCH   5   6
ENDBRANCH   1   5
TORSDOF 3
ENDMDL
MODEL 4
REMARK VINA RESULT:    -2.305      1.411      2.129
REMARK INTER + INTRA:          -2.743
REMARK INTER:                  -2.701
REMARK INTRA:                  -0.042
REMARK UNBOUND:                -0.034
REMARK SMILES O=C([O-])CCC(=O)[O-]
REMARK SMILES IDX 4 1 2 2 1 3 3 4 5 5 6 6 7 7 8 8
REMARK H PARENT
REMARK Flexibility Score: inf
ROOT
ATOM      1  C   UNL     1      19.345  42.458  11.215  1.00  0.00     0.059 C 
ENDROOT
BRANCH   1   2
ATOM      2  C   UNL     1      20.169  42.564  12.462  1.00  0.00     0.042 C 
ATOM      3  O   UNL     1      20.451  41.532  13.124  1.00  0.00    -0.550 OA
ATOM      4  O   UNL     1      20.591  43.809  12.912  1.00  0.00    -0.550 OA
ENDBRANCH   1   2
BRANCH   1   5
ATOM      5  C   UNL     1      19.265  41.012  10.713  1.00  0.00     0.059 C 
BRANCH   5   6
ATOM      6  C   UNL     1      17.963  40.740  10.023  1.00  0.00     0.042 C 
ATOM      7  O   UNL     1      17.500  39.570   9.981  1.00  0.00    -0.550 OA
ATOM      8  O   UNL     1      17.282  41.773   9.392  1.00  0.00    -0.550 OA
ENDBRANCH   5   6
ENDBRANCH   1   5
TORSDOF 3
ENDMDL
MODEL 5
REMARK VINA RESULT:    -2.286      1.354      4.277
REMARK INTER + INTRA:          -2.721
REMARK INTER:                  -2.679
REMARK INTRA:                  -0.042
REMARK UNBOUND:                -0.034
REMARK SMILES O=C([O-])CCC(=O)[O-]
REMARK SMILES IDX 4 1 2 2 1 3 3 4 5 5 6 6 7 7 8 8
REMARK H PARENT
REMARK Flexibility Score: inf
ROOT
ATOM      1  C   UNL     1      19.188  40.973  10.831  1.00  0.00     0.059 C 
ENDROOT
BRANCH   1   2
ATOM      2  C   UNL     1      17.930  40.677  10.073  1.00  0.00     0.042 C 
ATOM      3  O   UNL     1      17.600  39.486   9.834  1.00  0.00    -0.550 OA
ATOM      4  O   UNL     1      17.145  41.719   9.596  1.00  0.00    -0.550 OA
ENDBRANCH   1   2
BRANCH   1   5
ATOM      5  C   UNL     1      19.313  42.465  11.156  1.00  0.00     0.059 C 
BRANCH   5   6
ATOM      6  C   UNL     1      20.193  42.697  12.347  1.00  0.00     0.042 C 
ATOM      7  O   UNL     1      20.471  41.747  13.125  1.00  0.00    -0.550 OA
ATOM      8  O   UNL     1      20.673  43.972  12.619  1.00  0.00    -0.550 OA
ENDBRANCH   5   6
ENDBRANCH   1   5
TORSDOF 3
ENDMDL
MODEL 6
REMARK VINA RESULT:    -2.272      1.425      2.283
REMARK INTER + INTRA:          -2.705
REMARK INTER:                  -2.666
REMARK INTRA:                  -0.039
REMARK UNBOUND:                -0.034
REMARK SMILES O=C([O-])CCC(=O)[O-]
REMARK SMILES IDX 4 1 2 2 1 3 3 4 5 5 6 6 7 7 8 8
REMARK H PARENT
REMARK Flexibility Score: inf
ROOT
ATOM      1  C   UNL     1      19.229  42.408  11.168  1.00  0.00     0.059 C 
ENDROOT
BRANCH   1   2
ATOM      2  C   UNL     1      20.167  42.471  12.335  1.00  0.00     0.042 C 
ATOM      3  O   UNL     1      20.767  43.543  12.607  1.00  0.00    -0.550 OA
ATOM      4  O   UNL     1      20.408  41.333  13.094  1.00  0.00    -0.550 OA
ENDBRANCH   1   2
BRANCH   1   5
ATOM      5  C   UNL     1      19.128  40.988  10.601  1.00  0.00     0.059 C 
BRANCH   5   6
ATOM      6  C   UNL     1      17.796  40.745   9.959  1.00  0.00     0.042 C 
ATOM      7  O   UNL     1      17.335  39.576   9.877  1.00  0.00    -0.550 OA
ATOM      8  O   UNL     1      17.082  41.806   9.416  1.00  0.00    -0.550 OA
ENDBRANCH   5   6
ENDBRANCH   1   5
TORSDOF 3
ENDMDL
