MODEL 1
REMARK VINA RESULT:    -4.447      0.000      0.000
REMARK INTER + INTRA:         -10.554
REMARK INTER:                  -8.087
REMARK INTRA:                  -2.467
REMARK UNBOUND:                -2.467
REMARK SMILES CCCCCCCCCCCCCC[C@@H](C)C(=O)[O-]
REMARK SMILES IDX 9 1 10 2 11 3 12 4 13 5 14 6 15 7 16 8 17 9 18 10 19 11 8 12
REMARK SMILES IDX 7 13 6 14 5 15 4 16 3 17 2 18 1 19
REMARK H PARENT
REMARK Flexibility Score: inf
ROOT
ATOM      1  C   UNL     1       4.234   4.877  31.031  1.00  0.00     0.000 C 
ENDROOT
BRANCH   1   2
ATOM      2  C   UNL     1       5.089   5.555  29.939  1.00  0.00     0.000 C 
BRANCH   2   3
ATOM      3  C   UNL     1       5.228   7.079  30.121  1.00  0.00     0.000 C 
BRANCH   3   4
ATOM      4  C   UNL     1       4.531   7.923  29.038  1.00  0.00     0.000 C 
BRANCH   4   5
ATOM      5  C   UNL     1       4.213   7.178  27.728  1.00  0.00     0.001 C 
BRANCH   5   6
ATOM      6  C   UNL     1       2.715   6.989  27.392  1.00  0.00     0.009 C 
BRANCH   6   7
ATOM      7  C   UNL     1       2.317   5.724  26.586  1.00  0.00     0.032 C 
ATOM      8  C   UNL     1       1.450   6.033  25.356  1.00  0.00     0.014 C 
BRANCH   7   9
ATOM      9  C   UNL     1       3.498   4.850  26.248  1.00  0.00     0.044 C 
ATOM     10  O   UNL     1       4.161   5.037  25.194  1.00  0.00    -0.550 OA
ATOM     11  O   UNL     1       3.892   3.856  27.135  1.00  0.00    -0.550 OA
ENDBRANCH   7   9
ENDBRANCH   6   7
ENDBRANCH   5   6
ENDBRANCH   4   5
ENDBRANCH   3   4
ENDBRANCH   2   3
ENDBRANCH   1   2
BRANCH   1  12
ATOM     12  C   UNL     1       2.834   4.492  30.524  1.00  0.00     0.000 C 
BRANCH  12  13
ATOM     13  C   UNL     1       1.715   4.915  31.489  1.00  0.00    -0.000 C 
BRANCH  13  14
ATOM     14  C   UNL     1       1.784   6.404  31.862  1.00  0.00    -0.000 C 
BRANCH  14  15
ATOM     15  C   UNL     1       1.183   7.275  30.748  1.00  0.00    -0.000 C 
BRANCH  15  16
ATOM     16  C   UNL     1      -0.297   6.957  30.482  1.00  0.00    -0.000 C 
BRANCH  16  17
ATOM     17  C   UNL     1      -0.579   6.651  29.000  1.00  0.00    -0.000 C 
BRANCH  17  18
ATOM     18  C   UNL     1      -0.726   5.146  28.729  1.00  0.00    -0.003 C 
ATOM     19  C   UNL     1      -2.136   4.763  28.279  1.00  0.00     0.004 C 
ENDBRANCH  17  18
ENDBRANCH  16  17
ENDBRANCH  15  16
ENDBRANCH  14  15
ENDBRANCH  13  14
ENDBRANCH  12  13
ENDBRANCH   1  12
TORSDOF 14
ENDMDL
MODEL 2
REMARK VINA RESULT:    -4.428      8.030     11.160
REMARK INTER + INTRA:         -10.520
REMARK INTER:                  -7.796
REMARK INTRA:                  -2.724
REMARK UNBOUND:                -2.467
REMARK SMILES CCCCCCCCCCCCCC[C@@H](C)C(=O)[O-]
REMARK SMILES IDX 9 1 10 2 11 3 12 4 13 5 14 6 15 7 16 8 17 9 18 10 19 11 8 12
REMARK SMILES IDX 7 13 6 14 5 15 4 16 3 17 2 18 1 19
REMARK H PARENT
REMARK Flexibility Score: inf
ROOT
ATOM      1  C   UNL     1      -7.720   6.753  20.652  1.00  0.00     0.000 C 
ENDROOT
BRANCH   1   2
ATOM      2  C   UNL     1      -7.750   7.773  21.810  1.00  0.00     0.000 C 
BRANCH   2   3
ATOM      3  C   UNL     1      -6.960   7.320  23.054  1.00  0.00     0.000 C 
BRANCH   3   4
ATOM      4  C   UNL     1      -5.467   7.695  23.042  1.00  0.00     0.000 C 
BRANCH   4   5
ATOM      5  C   UNL     1      -4.641   7.140  24.218  1.00  0.00     0.001 C 
BRANCH   5   6
ATOM      6  C   UNL     1      -4.010   5.743  24.015  1.00  0.00     0.009 C 
BRANCH   6   7
ATOM      7  C   UNL     1      -4.371   4.639  25.043  1.00  0.00     0.032 C 
ATOM      8  C   UNL     1      -5.883   4.396  25.171  1.00  0.00     0.014 C 
BRANCH   7   9
ATOM      9  C   UNL     1      -3.603   3.361  24.826  1.00  0.00     0.044 C 
ATOM     10  O   UNL     1      -4.192   2.305  24.470  1.00  0.00    -0.550 OA
ATOM     11  O   UNL     1      -2.222   3.356  24.969  1.00  0.00    -0.550 OA
ENDBRANCH   7   9
ENDBRANCH   6   7
ENDBRANCH   5   6
ENDBRANCH   4   5
ENDBRANCH   3   4
ENDBRANCH   2   3
ENDBRANCH   1   2
BRANCH   1  12
ATOM     12  C   UNL     1      -7.722   5.299  21.151  1.00  0.00     0.000 C 
BRANCH  12  13
ATOM     13  C   UNL     1      -6.619   4.446  20.504  1.00  0.00    -0.000 C 
BRANCH  13  14
ATOM     14  C   UNL     1      -5.697   3.784  21.538  1.00  0.00    -0.000 C 
BRANCH  14  15
ATOM     15  C   UNL     1      -4.277   3.614  20.976  1.00  0.00    -0.000 C 
BRANCH  15  16
ATOM     16  C   UNL     1      -3.963   4.614  19.851  1.00  0.00    -0.000 C 
BRANCH  16  17
ATOM     17  C   UNL     1      -3.174   5.837  20.351  1.00  0.00    -0.000 C 
BRANCH  17  18
ATOM     18  C   UNL     1      -3.578   7.132  19.628  1.00  0.00    -0.003 C 
ATOM     19  C   UNL     1      -4.599   6.892  18.517  1.00  0.00     0.004 C 
ENDBRANCH  17  18
ENDBRANCH  16  17
ENDBRANCH  15  16
ENDBRANCH  14  15
ENDBRANCH  13  14
ENDBRANCH  12  13
ENDBRANCH   1  12
TORSDOF 14
ENDMDL
MODEL 3
REMARK VINA RESULT:    -4.425      6.117      9.629
REMARK INTER + INTRA:         -10.513
REMARK INTER:                  -8.046
REMARK INTRA:                  -2.467
REMARK UNBOUND:                -2.467
REMARK SMILES CCCCCCCCCCCCCC[C@@H](C)C(=O)[O-]
REMARK SMILES IDX 9 1 10 2 11 3 12 4 13 5 14 6 15 7 16 8 17 9 18 10 19 11 8 12
REMARK SMILES IDX 7 13 6 14 5 15 4 16 3 17 2 18 1 19
REMARK H PARENT
REMARK Flexibility Score: inf
ROOT
ATOM      1  C   UNL     1      -2.959   7.197  21.477  1.00  0.00     0.000 C 
ENDROOT
BRANCH   1   2
ATOM      2  C   UNL     1      -2.594   6.889  20.009  1.00  0.00     0.000 C 
BRANCH   2   3
ATOM      3  C   UNL     1      -3.760   6.297  19.194  1.00  0.00     0.000 C 
BRANCH   3   4
ATOM      4  C   UNL     1      -3.773   4.759  19.111  1.00  0.00     0.000 C 
BRANCH   4   5
ATOM      5  C   UNL     1      -4.748   4.058  20.076  1.00  0.00     0.001 C 
BRANCH   5   6
ATOM      6  C   UNL     1      -4.122   3.410  21.333  1.00  0.00     0.009 C 
BRANCH   6   7
ATOM      7  C   UNL     1      -4.590   3.936  22.716  1.00  0.00     0.032 C 
ATOM      8  C   UNL     1      -5.701   4.993  22.622  1.00  0.00     0.014 C 
BRANCH   7   9
ATOM      9  C   UNL     1      -4.935   2.828  23.678  1.00  0.00     0.044 C 
ATOM     10  O   UNL     1      -6.109   2.378  23.753  1.00  0.00    -0.550 OA
ATOM     11  O   UNL     1      -3.936   2.259  24.457  1.00  0.00    -0.550 OA
ENDBRANCH   7   9
ENDBRANCH   6   7
ENDBRANCH   5   6
ENDBRANCH   4   5
ENDBRANCH   3   4
ENDBRANCH   2   3
ENDBRANCH   1   2
BRANCH   1  12
ATOM     12  C   UNL     1      -1.894   6.691  22.465  1.00  0.00     0.000 C 
BRANCH  12  13
ATOM     13  C   UNL     1      -1.005   5.587  21.868  1.00  0.00    -0.000 C 
BRANCH  13  14
ATOM     14  C   UNL     1      -0.905   4.351  22.773  1.00  0.00    -0.000 C 
BRANCH  14  15
ATOM     15  C   UNL     1      -1.127   4.731  24.245  1.00  0.00    -0.000 C 
BRANCH  15  16
ATOM     16  C   UNL     1       0.020   4.263  25.156  1.00  0.00    -0.000 C 
BRANCH  16  17
ATOM     17  C   UNL     1       1.341   4.995  24.865  1.00  0.00    -0.000 C 
BRANCH  17  18
ATOM     18  C   UNL     1       1.204   6.522  24.978  1.00  0.00    -0.003 C 
ATOM     19  C   UNL     1       0.962   6.987  26.413  1.00  0.00     0.004 C 
ENDBRANCH  17  18
ENDBRANCH  16  17
ENDBRANCH  15  16
ENDBRANCH  14  15
ENDBRANCH  13  14
ENDBRANCH  12  13
ENDBRANCH   1  12
TORSDOF 14
ENDMDL
MODEL 4
REMARK VINA RESULT:    -4.405      1.291      3.218
REMARK INTER + INTRA:         -10.477
REMARK INTER:                  -8.067
REMARK INTRA:                  -2.410
REMARK UNBOUND:                -2.467
REMARK SMILES CCCCCCCCCCCCCC[C@@H](C)C(=O)[O-]
REMARK SMILES IDX 9 1 10 2 11 3 12 4 13 5 14 6 15 7 16 8 17 9 18 10 19 11 8 12
REMARK SMILES IDX 7 13 6 14 5 15 4 16 3 17 2 18 1 19
REMARK H PARENT
REMARK Flexibility Score: inf
ROOT
ATOM      1  C   UNL     1       1.582   6.980  31.534  1.00  0.00     0.000 C 
ENDROOT
BRANCH   1   2
ATOM      2  C   UNL     1       1.350   5.518  31.969  1.00  0.00     0.000 C 
BRANCH   2   3
ATOM      3  C   UNL     1       2.251   4.504  31.238  1.00  0.00     0.000 C 
BRANCH   3   4
ATOM      4  C   UNL     1       3.654   5.029  30.881  1.00  0.00     0.000 C 
BRANCH   4   5
ATOM      5  C   UNL     1       4.127   4.717  29.449  1.00  0.00     0.001 C 
BRANCH   5   6
ATOM      6  C   UNL     1       3.063   4.839  28.332  1.00  0.00     0.009 C 
BRANCH   6   7
ATOM      7  C   UNL     1       3.259   5.961  27.279  1.00  0.00     0.032 C 
ATOM      8  C   UNL     1       3.840   7.256  27.868  1.00  0.00     0.014 C 
BRANCH   7   9
ATOM      9  C   UNL     1       4.016   5.496  26.061  1.00  0.00     0.044 C 
ATOM     10  O   UNL     1       3.949   4.299  25.675  1.00  0.00    -0.550 OA
ATOM     11  O   UNL     1       4.759   6.409  25.324  1.00  0.00    -0.550 OA
ENDBRANCH   7   9
ENDBRANCH   6   7
ENDBRANCH   5   6
ENDBRANCH   4   5
ENDBRANCH   3   4
ENDBRANCH   2   3
ENDBRANCH   1   2
BRANCH   1  12
ATOM     12  C   UNL     1       0.313   7.629  30.956  1.00  0.00     0.000 C 
BRANCH  12  13
ATOM     13  C   UNL     1       0.437   7.948  29.458  1.00  0.00    -0.000 C 
BRANCH  13  14
ATOM     14  C   UNL     1      -0.100   6.821  28.564  1.00  0.00    -0.000 C 
BRANCH  14  15
ATOM     15  C   UNL     1      -1.132   5.969  29.318  1.00  0.00    -0.000 C 
BRANCH  15  16
ATOM     16  C   UNL     1      -1.632   4.775  28.489  1.00  0.00    -0.000 C 
BRANCH  16  17
ATOM     17  C   UNL     1      -1.413   4.971  26.978  1.00  0.00    -0.000 C 
BRANCH  17  18
ATOM     18  C   UNL     1      -0.515   3.883  26.369  1.00  0.00    -0.003 C 
ATOM     19  C   UNL     1       0.446   4.433  25.316  1.00  0.00     0.004 C 
ENDBRANCH  17  18
ENDBRANCH  16  17
ENDBRANCH  15  16
ENDBRANCH  14  15
ENDBRANCH  13  14
ENDBRANCH  12  13
ENDBRANCH   1  12
TORSDOF 14
ENDMDL
MODEL 5
REMARK VINA RESULT:    -4.361      2.963      5.721
REMARK INTER + INTRA:         -10.397
REMARK INTER:                  -8.035
REMARK INTRA:                  -2.362
REMARK UNBOUND:                -2.467
REMARK SMILES CCCCCCCCCCCCCC[C@@H](C)C(=O)[O-]
REMARK SMILES IDX 9 1 10 2 11 3 12 4 13 5 14 6 15 7 16 8 17 9 18 10 19 11 8 12
REMARK SMILES IDX 7 13 6 14 5 15 4 16 3 17 2 18 1 19
REMARK H PARENT
REMARK Flexibility Score: inf
ROOT
ATOM      1  C   UNL     1       3.883   5.562  27.013  1.00  0.00     0.000 C 
ENDROOT
BRANCH   1   2
ATOM      2  C   UNL     1       3.973   4.133  27.589  1.00  0.00     0.000 C 
BRANCH   2   3
ATOM      3  C   UNL     1       2.609   3.424  27.699  1.00  0.00     0.000 C 
BRANCH   3   4
ATOM      4  C   UNL     1       1.804   3.767  28.966  1.00  0.00     0.000 C 
BRANCH   4   5
ATOM      5  C   UNL     1       0.488   4.529  28.721  1.00  0.00     0.001 C 
BRANCH   5   6
ATOM      6  C   UNL     1       0.356   5.909  29.406  1.00  0.00     0.009 C 
BRANCH   6   7
ATOM      7  C   UNL     1       1.626   6.501  30.073  1.00  0.00     0.032 C 
ATOM      8  C   UNL     1       2.056   7.850  29.476  1.00  0.00     0.014 C 
BRANCH   7   9
ATOM      9  C   UNL     1       1.533   6.545  31.576  1.00  0.00     0.044 C 
ATOM     10  O   UNL     1       1.188   5.527  32.234  1.00  0.00    -0.550 OA
ATOM     11  O   UNL     1       1.880   7.707  32.253  1.00  0.00    -0.550 OA
ENDBRANCH   7   9
ENDBRANCH   6   7
ENDBRANCH   5   6
ENDBRANCH   4   5
ENDBRANCH   3   4
ENDBRANCH   2   3
ENDBRANCH   1   2
BRANCH   1  12
ATOM     12  C   UNL     1       3.104   5.612  25.688  1.00  0.00     0.000 C 
BRANCH  12  13
ATOM     13  C   UNL     1       1.952   6.630  25.713  1.00  0.00    -0.000 C 
BRANCH  13  14
ATOM     14  C   UNL     1       0.605   6.012  25.310  1.00  0.00    -0.000 C 
BRANCH  14  15
ATOM     15  C   UNL     1       0.799   4.595  24.749  1.00  0.00    -0.000 C 
BRANCH  15  16
ATOM     16  C   UNL     1       0.569   4.523  23.231  1.00  0.00    -0.000 C 
BRANCH  16  17
ATOM     17  C   UNL     1      -0.919   4.634  22.853  1.00  0.00    -0.000 C 
BRANCH  17  18
ATOM     18  C   UNL     1      -1.171   5.686  21.762  1.00  0.00    -0.003 C 
ATOM     19  C   UNL     1      -1.455   7.074  22.336  1.00  0.00     0.004 C 
ENDBRANCH  17  18
ENDBRANCH  16  17
ENDBRANCH  15  16
ENDBRANCH  14  15
ENDBRANCH  13  14
ENDBRANCH  12  13
ENDBRANCH   1  12
TORSDOF 14
ENDMDL
MODEL 6
REMARK VINA RESULT:    -4.351      1.906      4.763
REMARK INTER + INTRA:         -10.379
REMARK INTER:                  -8.130
REMARK INTRA:                  -2.248
REMARK UNBOUND:                -2.467
REMARK SMILES CCCCCCCCCCCCCC[C@@H](C)C(=O)[O-]
REMARK SMILES IDX 9 1 10 2 11 3 12 4 13 5 14 6 15 7 16 8 17 9 18 10 19 11 8 12
REMARK SMILES IDX 7 13 6 14 5 15 4 16 3 17 2 18 1 19
REMARK H PARENT
REMARK Flexibility Score: inf
ROOT
ATOM      1  C   UNL     1       1.845   7.692  32.049  1.00  0.00     0.000 C 
ENDROOT
BRANCH   1   2
ATOM      2  C   UNL     1       1.072   6.507  31.432  1.00  0.00     0.000 C 
BRANCH   2   3
ATOM      3  C   UNL     1       1.606   5.128  31.866  1.00  0.00     0.000 C 
BRANCH   3   4
ATOM      4  C   UNL     1       2.586   4.475  30.875  1.00  0.00     0.000 C 
BRANCH   4   5
ATOM      5  C   UNL     1       1.959   3.990  29.554  1.00  0.00     0.001 C 
BRANCH   5   6
ATOM      6  C   UNL     1       2.167   4.899  28.320  1.00  0.00     0.009 C 
BRANCH   6   7
ATOM      7  C   UNL     1       3.409   4.624  27.431  1.00  0.00     0.032 C 
ATOM      8  C   UNL     1       4.187   3.364  27.844  1.00  0.00     0.014 C 
BRANCH   7   9
ATOM      9  C   UNL     1       3.091   4.642  25.958  1.00  0.00     0.044 C 
ATOM     10  O   UNL     1       1.900   4.573  25.552  1.00  0.00    -0.550 OA
ATOM     11  O   UNL     1       4.118   4.788  25.035  1.00  0.00    -0.550 OA
ENDBRANCH   7   9
ENDBRANCH   6   7
ENDBRANCH   5   6
ENDBRANCH   4   5
ENDBRANCH   3   4
ENDBRANCH   2   3
ENDBRANCH   1   2
BRANCH   1  12
ATOM     12  C   UNL     1       2.053   8.841  31.048  1.00  0.00     0.000 C 
BRANCH  12  13
ATOM     13  C   UNL     1       1.932   8.386  29.585  1.00  0.00    -0.000 C 
BRANCH  13  14
ATOM     14  C   UNL     1       3.202   8.664  28.768  1.00  0.00    -0.000 C 
BRANCH  14  15
ATOM     15  C   UNL     1       4.460   8.467  29.629  1.00  0.00    -0.000 C 
BRANCH  15  16
ATOM     16  C   UNL     1       4.963   7.014  29.616  1.00  0.00    -0.000 C 
BRANCH  16  17
ATOM     17  C   UNL     1       6.042   6.754  30.682  1.00  0.00    -0.000 C 
BRANCH  17  18
ATOM     18  C   UNL     1       6.255   5.255  30.948  1.00  0.00    -0.003 C 
ATOM     19  C   UNL     1       7.732   4.864  30.969  1.00  0.00     0.004 C 
ENDBRANCH  17  18
ENDBRANCH  16  17
ENDBRANCH  15  16
ENDBRANCH  14  15
ENDBRANCH  13  14
ENDBRANCH  12  13
ENDBRANCH   1  12
TORSDOF 14
ENDMDL
MODEL 7
REMARK VINA RESULT:    -4.309      1.621      3.585
REMARK INTER + INTRA:         -10.302
REMARK INTER:                  -7.474
REMARK INTRA:                  -2.828
REMARK UNBOUND:                -2.467
REMARK SMILES CCCCCCCCCCCCCC[C@@H](C)C(=O)[O-]
REMARK SMILES IDX 9 1 10 2 11 3 12 4 13 5 14 6 15 7 16 8 17 9 18 10 19 11 8 12
REMARK SMILES IDX 7 13 6 14 5 15 4 16 3 17 2 18 1 19
REMARK H PARENT
REMARK Flexibility Score: inf
ROOT
ATOM      1  C   UNL     1       1.033   8.969  29.043  1.00  0.00     0.000 C 
ENDROOT
BRANCH   1   2
ATOM      2  C   UNL     1       1.966   8.571  27.880  1.00  0.00     0.000 C 
BRANCH   2   3
ATOM      3  C   UNL     1       3.392   8.199  28.331  1.00  0.00     0.000 C 
BRANCH   3   4
ATOM      4  C   UNL     1       3.868   6.807  27.878  1.00  0.00     0.000 C 
BRANCH   4   5
ATOM      5  C   UNL     1       4.230   6.691  26.385  1.00  0.00     0.001 C 
BRANCH   5   6
ATOM      6  C   UNL     1       3.671   5.458  25.637  1.00  0.00     0.009 C 
BRANCH   6   7
ATOM      7  C   UNL     1       2.276   4.932  26.067  1.00  0.00     0.032 C 
ATOM      8  C   UNL     1       1.242   4.946  24.930  1.00  0.00     0.014 C 
BRANCH   7   9
ATOM      9  C   UNL     1       2.343   3.597  26.764  1.00  0.00     0.044 C 
ATOM     10  O   UNL     1       3.380   3.241  27.384  1.00  0.00    -0.550 OA
ATOM     11  O   UNL     1       1.229   2.768  26.766  1.00  0.00    -0.550 OA
ENDBRANCH   7   9
ENDBRANCH   6   7
ENDBRANCH   5   6
ENDBRANCH   4   5
ENDBRANCH   3   4
ENDBRANCH   2   3
ENDBRANCH   1   2
BRANCH   1  12
ATOM     12  C   UNL     1      -0.283   8.172  29.038  1.00  0.00     0.000 C 
BRANCH  12  13
ATOM     13  C   UNL     1      -0.368   7.172  27.873  1.00  0.00    -0.000 C 
BRANCH  13  14
ATOM     14  C   UNL     1      -0.480   5.716  28.348  1.00  0.00    -0.000 C 
BRANCH  14  15
ATOM     15  C   UNL     1      -0.066   5.587  29.822  1.00  0.00    -0.000 C 
BRANCH  15  16
ATOM     16  C   UNL     1       1.358   5.033  29.989  1.00  0.00    -0.000 C 
BRANCH  16  17
ATOM     17  C   UNL     1       2.086   5.633  31.205  1.00  0.00    -0.000 C 
BRANCH  17  18
ATOM     18  C   UNL     1       1.129   6.361  32.162  1.00  0.00    -0.003 C 
ATOM     19  C   UNL     1       1.599   7.774  32.505  1.00  0.00     0.004 C 
ENDBRANCH  17  18
ENDBRANCH  16  17
ENDBRANCH  15  16
ENDBRANCH  14  15
ENDBRANCH  13  14
ENDBRANCH  12  13
ENDBRANCH   1  12
TORSDOF 14
ENDMDL
MODEL 8
REMARK VINA RESULT:    -4.305      1.790      4.633
REMARK INTER + INTRA:         -10.295
REMARK INTER:                  -7.590
REMARK INTRA:                  -2.705
REMARK UNBOUND:                -2.467
REMARK SMILES CCCCCCCCCCCCCC[C@@H](C)C(=O)[O-]
REMARK SMILES IDX 9 1 10 2 11 3 12 4 13 5 14 6 15 7 16 8 17 9 18 10 19 11 8 12
REMARK SMILES IDX 7 13 6 14 5 15 4 16 3 17 2 18 1 19
REMARK H PARENT
REMARK Flexibility Score: inf
ROOT
ATOM      1  C   UNL     1       1.327   5.691  31.752  1.00  0.00     0.000 C 
ENDROOT
BRANCH   1   2
ATOM      2  C   UNL     1       1.254   7.015  30.961  1.00  0.00     0.000 C 
BRANCH   2   3
ATOM      3  C   UNL     1      -0.166   7.370  30.479  1.00  0.00     0.000 C 
BRANCH   3   4
ATOM      4  C   UNL     1      -0.510   6.869  29.065  1.00  0.00     0.000 C 
BRANCH   4   5
ATOM      5  C   UNL     1      -1.498   5.688  29.009  1.00  0.00     0.001 C 
BRANCH   5   6
ATOM      6  C   UNL     1      -1.149   4.546  28.026  1.00  0.00     0.009 C 
BRANCH   6   7
ATOM      7  C   UNL     1      -1.592   4.714  26.549  1.00  0.00     0.032 C 
ATOM      8  C   UNL     1      -2.816   5.628  26.380  1.00  0.00     0.014 C 
BRANCH   7   9
ATOM      9  C   UNL     1      -0.458   5.103  25.637  1.00  0.00     0.044 C 
ATOM     10  O   UNL     1       0.236   4.226  25.056  1.00  0.00    -0.550 OA
ATOM     11  O   UNL     1      -0.203   6.446  25.391  1.00  0.00    -0.550 OA
ENDBRANCH   7   9
ENDBRANCH   6   7
ENDBRANCH   5   6
ENDBRANCH   4   5
ENDBRANCH   3   4
ENDBRANCH   2   3
ENDBRANCH   1   2
BRANCH   1  12
ATOM     12  C   UNL     1       2.393   4.733  31.194  1.00  0.00     0.000 C 
BRANCH  12  13
ATOM     13  C   UNL     1       1.995   4.125  29.839  1.00  0.00    -0.000 C 
BRANCH  13  14
ATOM     14  C   UNL     1       3.155   4.107  28.832  1.00  0.00    -0.000 C 
BRANCH  14  15
ATOM     15  C   UNL     1       2.725   4.720  27.491  1.00  0.00    -0.000 C 
BRANCH  15  16
ATOM     16  C   UNL     1       2.633   6.254  27.544  1.00  0.00    -0.000 C 
BRANCH  16  17
ATOM     17  C   UNL     1       4.016   6.928  27.539  1.00  0.00    -0.000 C 
BRANCH  17  18
ATOM     18  C   UNL     1       4.235   7.828  28.765  1.00  0.00    -0.003 C 
ATOM     19  C   UNL     1       5.027   7.134  29.873  1.00  0.00     0.004 C 
ENDBRANCH  17  18
ENDBRANCH  16  17
ENDBRANCH  15  16
ENDBRANCH  14  15
ENDBRANCH  13  14
ENDBRANCH  12  13
ENDBRANCH   1  12
TORSDOF 14
ENDMDL
MODEL 9
REMARK VINA RESULT:    -4.295      2.660      5.248
REMARK INTER + INTRA:         -10.276
REMARK INTER:                  -7.685
REMARK INTRA:                  -2.591
REMARK UNBOUND:                -2.467
REMARK SMILES CCCCCCCCCCCCCC[C@@H](C)C(=O)[O-]
REMARK SMILES IDX 9 1 10 2 11 3 12 4 13 5 14 6 15 7 16 8 17 9 18 10 19 11 8 12
REMARK SMILES IDX 7 13 6 14 5 15 4 16 3 17 2 18 1 19
REMARK H PARENT
REMARK Flexibility Score: inf
ROOT
ATOM      1  C   UNL     1       1.795   7.284  27.755  1.00  0.00     0.000 C 
ENDROOT
BRANCH   1   2
ATOM      2  C   UNL     1       0.255   7.268  27.652  1.00  0.00     0.000 C 
BRANCH   2   3
ATOM      3  C   UNL     1      -0.455   7.243  29.020  1.00  0.00     0.000 C 
BRANCH   3   4
ATOM      4  C   UNL     1      -1.126   5.903  29.374  1.00  0.00     0.000 C 
BRANCH   4   5
ATOM      5  C   UNL     1      -1.310   4.930  28.195  1.00  0.00     0.001 C 
BRANCH   5   6
ATOM      6  C   UNL     1      -2.769   4.610  27.790  1.00  0.00     0.009 C 
BRANCH   6   7
ATOM      7  C   UNL     1      -3.288   5.209  26.456  1.00  0.00     0.032 C 
ATOM      8  C   UNL     1      -3.160   6.739  26.384  1.00  0.00     0.014 C 
BRANCH   7   9
ATOM      9  C   UNL     1      -2.707   4.530  25.243  1.00  0.00     0.044 C 
ATOM     10  O   UNL     1      -2.059   3.455  25.351  1.00  0.00    -0.550 OA
ATOM     11  O   UNL     1      -2.932   5.066  23.981  1.00  0.00    -0.550 OA
ENDBRANCH   7   9
ENDBRANCH   6   7
ENDBRANCH   5   6
ENDBRANCH   4   5
ENDBRANCH   3   4
ENDBRANCH   2   3
ENDBRANCH   1   2
BRANCH   1  12
ATOM     12  C   UNL     1       2.419   5.916  27.431  1.00  0.00     0.000 C 
BRANCH  12  13
ATOM     13  C   UNL     1       3.012   5.225  28.669  1.00  0.00    -0.000 C 
BRANCH  13  14
ATOM     14  C   UNL     1       2.148   4.057  29.168  1.00  0.00    -0.000 C 
BRANCH  14  15
ATOM     15  C   UNL     1       1.952   4.133  30.690  1.00  0.00    -0.000 C 
BRANCH  15  16
ATOM     16  C   UNL     1       2.345   5.501  31.269  1.00  0.00    -0.000 C 
BRANCH  16  17
ATOM     17  C   UNL     1       1.286   6.059  32.237  1.00  0.00    -0.000 C 
BRANCH  17  18
ATOM     18  C   UNL     1       1.315   7.594  32.316  1.00  0.00    -0.003 C 
ATOM     19  C   UNL     1       2.422   8.208  31.459  1.00  0.00     0.004 C 
ENDBRANCH  17  18
ENDBRANCH  16  17
ENDBRANCH  15  16
ENDBRANCH  14  15
ENDBRANCH  13  14
ENDBRANCH  12  13
ENDBRANCH   1  12
TORSDOF 14
ENDMDL
