MODEL 1
REMARK VINA RESULT:    -4.045      0.000      0.000
REMARK INTER + INTRA:          -9.368
REMARK INTER:                  -7.592
REMARK INTRA:                  -1.776
REMARK UNBOUND:                -1.776
REMARK SMILES O=C([O-])CCCCCCCCCCCCCCC(=O)[O-]
REMARK SMILES IDX 10 1 9 2 8 3 7 4 6 5 5 6 4 7 2 8 1 9 3 10 11 11 12 12 13 13
REMARK SMILES IDX 14 14 15 15 16 16 17 17 18 18 19 19 20 20
REMARK H PARENT
REMARK Flexibility Score: inf
ROOT
ATOM      1  C   UNL     1      40.673  21.207   4.643  1.00  0.00     0.000 C 
ENDROOT
BRANCH   1   2
ATOM      2  C   UNL     1      40.893  22.249   5.755  1.00  0.00     0.000 C 
BRANCH   2   3
ATOM      3  C   UNL     1      41.031  21.673   7.179  1.00  0.00     0.000 C 
BRANCH   3   4
ATOM      4  C   UNL     1      41.066  20.136   7.262  1.00  0.00     0.000 C 
BRANCH   4   5
ATOM      5  C   UNL     1      39.864  19.552   8.018  1.00  0.00     0.000 C 
BRANCH   5   6
ATOM      6  C   UNL     1      38.882  18.880   7.051  1.00  0.00     0.006 C 
BRANCH   6   7
ATOM      7  C   UNL     1      37.865  19.891   6.511  1.00  0.00     0.053 C 
BRANCH   7   8
ATOM      8  C   UNL     1      37.369  20.773   7.613  1.00  0.00     0.041 C 
ATOM      9  O   UNL     1      36.709  20.285   8.568  1.00  0.00    -0.550 OA
ATOM     10  O   UNL     1      37.598  22.143   7.563  1.00  0.00    -0.550 OA
ENDBRANCH   7   8
ENDBRANCH   6   7
ENDBRANCH   5   6
ENDBRANCH   4   5
ENDBRANCH   3   4
ENDBRANCH   2   3
ENDBRANCH   1   2
BRANCH   1  11
ATOM     11  C   UNL     1      41.125  21.705   3.260  1.00  0.00     0.000 C 
BRANCH  11  12
ATOM     12  C   UNL     1      40.615  23.121   2.947  1.00  0.00     0.000 C 
BRANCH  12  13
ATOM     13  C   UNL     1      39.647  23.153   1.751  1.00  0.00     0.000 C 
BRANCH  13  14
ATOM     14  C   UNL     1      38.236  23.609   2.159  1.00  0.00     0.000 C 
BRANCH  14  15
ATOM     15  C   UNL     1      37.587  22.707   3.235  1.00  0.00     0.000 C 
BRANCH  15  16
ATOM     16  C   UNL     1      37.493  21.228   2.817  1.00  0.00     0.006 C 
BRANCH  16  17
ATOM     17  C   UNL     1      36.247  20.511   3.359  1.00  0.00     0.053 C 
BRANCH  17  18
ATOM     18  C   UNL     1      35.180  20.381   2.315  1.00  0.00     0.041 C 
ATOM     19  O   UNL     1      34.651  19.261   2.087  1.00  0.00    -0.550 OA
ATOM     20  O   UNL     1      34.758  21.497   1.605  1.00  0.00    -0.550 OA
ENDBRANCH  17  18
ENDBRANCH  16  17
ENDBRANCH  15  16
ENDBRANCH  14  15
ENDBRANCH  13  14
ENDBRANCH  12  13
ENDBRANCH  11  12
ENDBRANCH   1  11
TORSDOF 15
ENDMDL
MODEL 2
REMARK VINA RESULT:    -3.968     16.985     19.895
REMARK INTER + INTRA:          -9.225
REMARK INTER:                  -7.109
REMARK INTRA:                  -2.116
REMARK UNBOUND:                -1.776
REMARK SMILES O=C([O-])CCCCCCCCCCCCCCC(=O)[O-]
REMARK SMILES IDX 10 1 9 2 8 3 7 4 6 5 5 6 4 7 2 8 1 9 3 10 11 11 12 12 13 13
REMARK SMILES IDX 14 14 15 15 16 16 17 17 18 18 19 19 20 20
REMARK H PARENT
REMARK Flexibility Score: inf
ROOT
ATOM      1  C   UNL     1      22.185  23.030  16.731  1.00  0.00     0.000 C 
ENDROOT
BRANCH   1   2
ATOM      2  C   UNL     1      21.547  24.194  17.513  1.00  0.00     0.000 C 
BRANCH   2   3
ATOM      3  C   UNL     1      21.323  23.933  19.017  1.00  0.00     0.000 C 
BRANCH   3   4
ATOM      4  C   UNL     1      22.050  24.904  19.964  1.00  0.00     0.000 C 
BRANCH   4   5
ATOM      5  C   UNL     1      23.097  25.767  19.245  1.00  0.00     0.000 C 
BRANCH   5   6
ATOM      6  C   UNL     1      24.064  26.405  20.249  1.00  0.00     0.006 C 
BRANCH   6   7
ATOM      7  C   UNL     1      25.515  26.259  19.782  1.00  0.00     0.053 C 
BRANCH   7   8
ATOM      8  C   UNL     1      25.950  27.480  19.034  1.00  0.00     0.041 C 
ATOM      9  O   UNL     1      27.023  27.471  18.376  1.00  0.00    -0.550 OA
ATOM     10  O   UNL     1      25.192  28.642  19.100  1.00  0.00    -0.550 OA
ENDBRANCH   7   8
ENDBRANCH   6   7
ENDBRANCH   5   6
ENDBRANCH   4   5
ENDBRANCH   3   4
ENDBRANCH   2   3
ENDBRANCH   1   2
BRANCH   1  11
ATOM     11  C   UNL     1      22.130  21.697  17.495  1.00  0.00     0.000 C 
BRANCH  11  12
ATOM     12  C   UNL     1      23.527  21.117  17.771  1.00  0.00     0.000 C 
BRANCH  12  13
ATOM     13  C   UNL     1      24.224  21.791  18.965  1.00  0.00     0.000 C 
BRANCH  13  14
ATOM     14  C   UNL     1      25.644  22.266  18.616  1.00  0.00     0.000 C 
BRANCH  14  15
ATOM     15  C   UNL     1      25.670  23.409  17.574  1.00  0.00     0.000 C 
BRANCH  15  16
ATOM     16  C   UNL     1      26.166  22.959  16.187  1.00  0.00     0.006 C 
BRANCH  16  17
ATOM     17  C   UNL     1      25.458  23.663  15.019  1.00  0.00     0.053 C 
BRANCH  17  18
ATOM     18  C   UNL     1      25.061  22.698  13.944  1.00  0.00     0.041 C 
ATOM     19  O   UNL     1      25.932  21.983  13.382  1.00  0.00    -0.550 OA
ATOM     20  O   UNL     1      23.729  22.574  13.573  1.00  0.00    -0.550 OA
ENDBRANCH  17  18
ENDBRANCH  16  17
ENDBRANCH  15  16
ENDBRANCH  14  15
ENDBRANCH  13  14
ENDBRANCH  12  13
ENDBRANCH  11  12
ENDBRANCH   1  11
TORSDOF 15
ENDMDL
MODEL 3
REMARK VINA RESULT:    -3.948     17.163     20.321
REMARK INTER + INTRA:          -9.186
REMARK INTER:                  -6.808
REMARK INTRA:                  -2.378
REMARK UNBOUND:                -1.776
REMARK SMILES O=C([O-])CCCCCCCCCCCCCCC(=O)[O-]
REMARK SMILES IDX 10 1 9 2 8 3 7 4 6 5 5 6 4 7 2 8 1 9 3 10 11 11 12 12 13 13
REMARK SMILES IDX 14 14 15 15 16 16 17 17 18 18 19 19 20 20
REMARK H PARENT
REMARK Flexibility Score: inf
ROOT
ATOM      1  C   UNL     1      22.208  21.139  17.368  1.00  0.00     0.000 C 
ENDROOT
BRANCH   1   2
ATOM      2  C   UNL     1      23.674  20.900  17.773  1.00  0.00     0.000 C 
BRANCH   2   3
ATOM      3  C   UNL     1      24.197  21.798  18.914  1.00  0.00     0.000 C 
BRANCH   3   4
ATOM      4  C   UNL     1      25.384  22.705  18.540  1.00  0.00     0.000 C 
BRANCH   4   5
ATOM      5  C   UNL     1      25.731  22.648  17.045  1.00  0.00     0.000 C 
BRANCH   5   6
ATOM      6  C   UNL     1      25.209  23.890  16.314  1.00  0.00     0.006 C 
BRANCH   6   7
ATOM      7  C   UNL     1      25.662  23.897  14.851  1.00  0.00     0.053 C 
BRANCH   7   8
ATOM      8  C   UNL     1      25.015  22.778  14.098  1.00  0.00     0.041 C 
ATOM      9  O   UNL     1      25.707  22.027  13.360  1.00  0.00    -0.550 OA
ATOM     10  O   UNL     1      23.641  22.590  14.175  1.00  0.00    -0.550 OA
ENDBRANCH   7   8
ENDBRANCH   6   7
ENDBRANCH   5   6
ENDBRANCH   4   5
ENDBRANCH   3   4
ENDBRANCH   2   3
ENDBRANCH   1   2
BRANCH   1  11
ATOM     11  C   UNL     1      21.606  22.396  18.018  1.00  0.00     0.000 C 
BRANCH  11  12
ATOM     12  C   UNL     1      21.641  23.617  17.086  1.00  0.00     0.000 C 
BRANCH  12  13
ATOM     13  C   UNL     1      21.942  24.927  17.835  1.00  0.00     0.000 C 
BRANCH  13  14
ATOM     14  C   UNL     1      22.113  24.705  19.347  1.00  0.00     0.000 C 
BRANCH  14  15
ATOM     15  C   UNL     1      23.104  25.695  20.004  1.00  0.00     0.000 C 
BRANCH  15  16
ATOM     16  C   UNL     1      24.193  26.200  19.039  1.00  0.00     0.006 C 
BRANCH  16  17
ATOM     17  C   UNL     1      25.434  26.762  19.747  1.00  0.00     0.053 C 
BRANCH  17  18
ATOM     18  C   UNL     1      25.438  28.261  19.760  1.00  0.00     0.041 C 
ATOM     19  O   UNL     1      26.236  28.885  20.507  1.00  0.00    -0.550 OA
ATOM     20  O   UNL     1      24.573  28.969  18.936  1.00  0.00    -0.550 OA
ENDBRANCH  17  18
ENDBRANCH  16  17
ENDBRANCH  15  16
ENDBRANCH  14  15
ENDBRANCH  13  14
ENDBRANCH  12  13
ENDBRANCH  11  12
ENDBRANCH   1  11
TORSDOF 15
ENDMDL
MODEL 4
REMARK VINA RESULT:    -3.883     17.598     20.016
REMARK INTER + INTRA:          -9.065
REMARK INTER:                  -6.842
REMARK INTRA:                  -2.223
REMARK UNBOUND:                -1.776
REMARK SMILES O=C([O-])CCCCCCCCCCCCCCC(=O)[O-]
REMARK SMILES IDX 10 1 9 2 8 3 7 4 6 5 5 6 4 7 2 8 1 9 3 10 11 11 12 12 13 13
REMARK SMILES IDX 14 14 15 15 16 16 17 17 18 18 19 19 20 20
REMARK H PARENT
REMARK Flexibility Score: inf
ROOT
ATOM      1  C   UNL     1      22.285  21.924  15.804  1.00  0.00     0.000 C 
ENDROOT
BRANCH   1   2
ATOM      2  C   UNL     1      22.322  22.734  14.495  1.00  0.00     0.000 C 
BRANCH   2   3
ATOM      3  C   UNL     1      23.701  22.810  13.808  1.00  0.00     0.000 C 
BRANCH   3   4
ATOM      4  C   UNL     1      24.910  22.644  14.746  1.00  0.00     0.000 C 
BRANCH   4   5
ATOM      5  C   UNL     1      25.265  23.936  15.496  1.00  0.00     0.000 C 
BRANCH   5   6
ATOM      6  C   UNL     1      25.989  23.625  16.811  1.00  0.00     0.006 C 
BRANCH   6   7
ATOM      7  C   UNL     1      26.142  22.114  17.010  1.00  0.00     0.053 C 
BRANCH   7   8
ATOM      8  C   UNL     1      25.600  21.703  18.342  1.00  0.00     0.041 C 
ATOM      9  O   UNL     1      24.533  21.038  18.415  1.00  0.00    -0.550 OA
ATOM     10  O   UNL     1      26.249  22.093  19.507  1.00  0.00    -0.550 OA
ENDBRANCH   7   8
ENDBRANCH   6   7
ENDBRANCH   5   6
ENDBRANCH   4   5
ENDBRANCH   3   4
ENDBRANCH   2   3
ENDBRANCH   1   2
BRANCH   1  11
ATOM     11  C   UNL     1      21.869  22.770  17.019  1.00  0.00     0.000 C 
BRANCH  11  12
ATOM     12  C   UNL     1      21.496  24.211  16.635  1.00  0.00     0.000 C 
BRANCH  12  13
ATOM     13  C   UNL     1      22.188  25.260  17.524  1.00  0.00     0.000 C 
BRANCH  13  14
ATOM     14  C   UNL     1      23.020  24.614  18.644  1.00  0.00     0.000 C 
BRANCH  14  15
ATOM     15  C   UNL     1      22.890  25.341  20.002  1.00  0.00     0.000 C 
BRANCH  15  16
ATOM     16  C   UNL     1      23.962  26.426  20.219  1.00  0.00     0.006 C 
BRANCH  16  17
ATOM     17  C   UNL     1      25.237  26.210  19.390  1.00  0.00     0.053 C 
BRANCH  17  18
ATOM     18  C   UNL     1      25.845  27.508  18.955  1.00  0.00     0.041 C 
ATOM     19  O   UNL     1      25.202  28.583  19.083  1.00  0.00    -0.550 OA
ATOM     20  O   UNL     1      27.128  27.536  18.422  1.00  0.00    -0.550 OA
ENDBRANCH  17  18
ENDBRANCH  16  17
ENDBRANCH  15  16
ENDBRANCH  14  15
ENDBRANCH  13  14
ENDBRANCH  12  13
ENDBRANCH  11  12
ENDBRANCH   1  11
TORSDOF 15
ENDMDL
MODEL 5
REMARK VINA RESULT:    -3.833     17.460     20.591
REMARK INTER + INTRA:          -8.971
REMARK INTER:                  -6.896
REMARK INTRA:                  -2.076
REMARK UNBOUND:                -1.776
REMARK SMILES O=C([O-])CCCCCCCCCCCCCCC(=O)[O-]
REMARK SMILES IDX 10 1 9 2 8 3 7 4 6 5 5 6 4 7 2 8 1 9 3 10 11 11 12 12 13 13
REMARK SMILES IDX 14 14 15 15 16 16 17 17 18 18 19 19 20 20
REMARK H PARENT
REMARK Flexibility Score: inf
ROOT
ATOM      1  C   UNL     1      21.958  22.099  15.896  1.00  0.00     0.000 C 
ENDROOT
BRANCH   1   2
ATOM      2  C   UNL     1      21.518  20.839  16.664  1.00  0.00     0.000 C 
BRANCH   2   3
ATOM      3  C   UNL     1      22.407  20.454  17.864  1.00  0.00     0.000 C 
BRANCH   3   4
ATOM      4  C   UNL     1      23.863  20.947  17.783  1.00  0.00     0.000 C 
BRANCH   4   5
ATOM      5  C   UNL     1      24.243  21.878  18.943  1.00  0.00     0.000 C 
BRANCH   5   6
ATOM      6  C   UNL     1      25.322  22.878  18.512  1.00  0.00     0.006 C 
BRANCH   6   7
ATOM      7  C   UNL     1      25.910  22.499  17.149  1.00  0.00     0.053 C 
BRANCH   7   8
ATOM      8  C   UNL     1      25.792  23.643  16.192  1.00  0.00     0.041 C 
ATOM      9  O   UNL     1      25.280  23.468  15.055  1.00  0.00    -0.550 OA
ATOM     10  O   UNL     1      26.288  24.893  16.538  1.00  0.00    -0.550 OA
ENDBRANCH   7   8
ENDBRANCH   6   7
ENDBRANCH   5   6
ENDBRANCH   4   5
ENDBRANCH   3   4
ENDBRANCH   2   3
ENDBRANCH   1   2
BRANCH   1  11
ATOM     11  C   UNL     1      21.264  23.377  16.396  1.00  0.00     0.000 C 
BRANCH  11  12
ATOM     12  C   UNL     1      22.214  24.297  17.178  1.00  0.00     0.000 C 
BRANCH  12  13
ATOM     13  C   UNL     1      21.523  24.993  18.364  1.00  0.00     0.000 C 
BRANCH  13  14
ATOM     14  C   UNL     1      22.433  25.069  19.602  1.00  0.00     0.000 C 
BRANCH  14  15
ATOM     15  C   UNL     1      22.718  26.516  20.066  1.00  0.00     0.000 C 
BRANCH  15  16
ATOM     16  C   UNL     1      24.075  26.674  20.775  1.00  0.00     0.006 C 
BRANCH  16  17
ATOM     17  C   UNL     1      25.284  26.425  19.860  1.00  0.00     0.053 C 
BRANCH  17  18
ATOM     18  C   UNL     1      25.887  27.708  19.372  1.00  0.00     0.041 C 
ATOM     19  O   UNL     1      25.497  28.809  19.841  1.00  0.00    -0.550 OA
ATOM     20  O   UNL     1      26.891  27.687  18.413  1.00  0.00    -0.550 OA
ENDBRANCH  17  18
ENDBRANCH  16  17
ENDBRANCH  15  16
ENDBRANCH  14  15
ENDBRANCH  13  14
ENDBRANCH  12  13
ENDBRANCH  11  12
ENDBRANCH   1  11
TORSDOF 15
ENDMDL
MODEL 6
REMARK VINA RESULT:    -3.828      3.233      5.359
REMARK INTER + INTRA:          -8.961
REMARK INTER:                  -7.595
REMARK INTRA:                  -1.366
REMARK UNBOUND:                -1.776
REMARK SMILES O=C([O-])CCCCCCCCCCCCCCC(=O)[O-]
REMARK SMILES IDX 10 1 9 2 8 3 7 4 6 5 5 6 4 7 2 8 1 9 3 10 11 11 12 12 13 13
REMARK SMILES IDX 14 14 15 15 16 16 17 17 18 18 19 19 20 20
REMARK H PARENT
REMARK Flexibility Score: inf
ROOT
ATOM      1  C   UNL     1      35.225  21.529   1.128  1.00  0.00     0.000 C 
ENDROOT
BRANCH   1   2
ATOM      2  C   UNL     1      34.913  21.096   2.572  1.00  0.00     0.000 C 
BRANCH   2   3
ATOM      3  C   UNL     1      35.810  19.972   3.131  1.00  0.00     0.000 C 
BRANCH   3   4
ATOM      4  C   UNL     1      36.414  20.248   4.520  1.00  0.00     0.000 C 
BRANCH   4   5
ATOM      5  C   UNL     1      37.949  20.247   4.513  1.00  0.00     0.000 C 
BRANCH   5   6
ATOM      6  C   UNL     1      38.503  21.107   5.656  1.00  0.00     0.006 C 
BRANCH   6   7
ATOM      7  C   UNL     1      38.063  20.559   7.017  1.00  0.00     0.053 C 
BRANCH   7   8
ATOM      8  C   UNL     1      38.979  19.463   7.462  1.00  0.00     0.041 C 
ATOM      9  O   UNL     1      38.509  18.355   7.831  1.00  0.00    -0.550 OA
ATOM     10  O   UNL     1      40.350  19.680   7.511  1.00  0.00    -0.550 OA
ENDBRANCH   7   8
ENDBRANCH   6   7
ENDBRANCH   5   6
ENDBRANCH   4   5
ENDBRANCH   3   4
ENDBRANCH   2   3
ENDBRANCH   1   2
BRANCH   1  11
ATOM     11  C   UNL     1      36.086  22.802   1.059  1.00  0.00     0.000 C 
BRANCH  11  12
ATOM     12  C   UNL     1      37.524  22.568   1.547  1.00  0.00     0.000 C 
BRANCH  12  13
ATOM     13  C   UNL     1      37.892  23.453   2.751  1.00  0.00     0.000 C 
BRANCH  13  14
ATOM     14  C   UNL     1      39.037  24.427   2.427  1.00  0.00     0.000 C 
BRANCH  14  15
ATOM     15  C   UNL     1      38.893  25.106   1.045  1.00  0.00     0.000 C 
BRANCH  15  16
ATOM     16  C   UNL     1      37.937  26.313   1.054  1.00  0.00     0.006 C 
BRANCH  16  17
ATOM     17  C   UNL     1      37.901  27.063   2.395  1.00  0.00     0.053 C 
BRANCH  17  18
ATOM     18  C   UNL     1      37.021  28.275   2.332  1.00  0.00     0.041 C 
ATOM     19  O   UNL     1      37.531  29.421   2.225  1.00  0.00    -0.550 OA
ATOM     20  O   UNL     1      35.640  28.139   2.376  1.00  0.00    -0.550 OA
ENDBRANCH  17  18
ENDBRANCH  16  17
ENDBRANCH  15  16
ENDBRANCH  14  15
ENDBRANCH  13  14
ENDBRANCH  12  13
ENDBRANCH  11  12
ENDBRANCH   1  11
TORSDOF 15
ENDMDL
MODEL 7
REMARK VINA RESULT:    -3.807     17.843     20.296
REMARK INTER + INTRA:          -8.922
REMARK INTER:                  -6.723
REMARK INTRA:                  -2.199
REMARK UNBOUND:                -1.776
REMARK SMILES O=C([O-])CCCCCCCCCCCCCCC(=O)[O-]
REMARK SMILES IDX 10 1 9 2 8 3 7 4 6 5 5 6 4 7 2 8 1 9 3 10 11 11 12 12 13 13
REMARK SMILES IDX 14 14 15 15 16 16 17 17 18 18 19 19 20 20
REMARK H PARENT
REMARK Flexibility Score: inf
ROOT
ATOM      1  C   UNL     1      25.444  24.283  16.842  1.00  0.00     0.000 C 
ENDROOT
BRANCH   1   2
ATOM      2  C   UNL     1      24.923  24.993  18.106  1.00  0.00     0.000 C 
BRANCH   2   3
ATOM      3  C   UNL     1      23.407  25.278  18.124  1.00  0.00     0.000 C 
BRANCH   3   4
ATOM      4  C   UNL     1      22.674  24.835  19.403  1.00  0.00     0.000 C 
BRANCH   4   5
ATOM      5  C   UNL     1      22.778  25.865  20.536  1.00  0.00     0.000 C 
BRANCH   5   6
ATOM      6  C   UNL     1      22.675  27.294  19.990  1.00  0.00     0.006 C 
BRANCH   6   7
ATOM      7  C   UNL     1      23.432  28.280  20.885  1.00  0.00     0.053 C 
BRANCH   7   8
ATOM      8  C   UNL     1      24.806  28.527  20.348  1.00  0.00     0.041 C 
ATOM      9  O   UNL     1      25.739  28.863  21.124  1.00  0.00    -0.550 OA
ATOM     10  O   UNL     1      25.048  28.428  18.984  1.00  0.00    -0.550 OA
ENDBRANCH   7   8
ENDBRANCH   6   7
ENDBRANCH   5   6
ENDBRANCH   4   5
ENDBRANCH   3   4
ENDBRANCH   2   3
ENDBRANCH   1   2
BRANCH   1  11
ATOM     11  C   UNL     1      25.776  22.801  17.083  1.00  0.00     0.000 C 
BRANCH  11  12
ATOM     12  C   UNL     1      25.712  22.416  18.570  1.00  0.00     0.000 C 
BRANCH  12  13
ATOM     13  C   UNL     1      24.466  21.582  18.913  1.00  0.00     0.000 C 
BRANCH  13  14
ATOM     14  C   UNL     1      23.743  21.073  17.655  1.00  0.00     0.000 C 
BRANCH  14  15
ATOM     15  C   UNL     1      22.285  21.576  17.539  1.00  0.00     0.000 C 
BRANCH  15  16
ATOM     16  C   UNL     1      21.783  21.665  16.086  1.00  0.00     0.006 C 
BRANCH  16  17
ATOM     17  C   UNL     1      22.110  23.000  15.400  1.00  0.00     0.053 C 
BRANCH  17  18
ATOM     18  C   UNL     1      22.780  22.797  14.075  1.00  0.00     0.041 C 
ATOM     19  O   UNL     1      24.011  22.537  14.023  1.00  0.00    -0.550 OA
ATOM     20  O   UNL     1      22.045  22.878  12.900  1.00  0.00    -0.550 OA
ENDBRANCH  17  18
ENDBRANCH  16  17
ENDBRANCH  15  16
ENDBRANCH  14  15
ENDBRANCH  13  14
ENDBRANCH  12  13
ENDBRANCH  11  12
ENDBRANCH   1  11
TORSDOF 15
ENDMDL
MODEL 8
REMARK VINA RESULT:    -3.805      2.377      4.548
REMARK INTER + INTRA:          -8.917
REMARK INTER:                  -7.001
REMARK INTRA:                  -1.916
REMARK UNBOUND:                -1.776
REMARK SMILES O=C([O-])CCCCCCCCCCCCCCC(=O)[O-]
REMARK SMILES IDX 10 1 9 2 8 3 7 4 6 5 5 6 4 7 2 8 1 9 3 10 11 11 12 12 13 13
REMARK SMILES IDX 14 14 15 15 16 16 17 17 18 18 19 19 20 20
REMARK H PARENT
REMARK Flexibility Score: inf
ROOT
ATOM      1  C   UNL     1      39.920  21.839   6.844  1.00  0.00     0.000 C 
ENDROOT
BRANCH   1   2
ATOM      2  C   UNL     1      38.418  21.955   7.163  1.00  0.00     0.000 C 
BRANCH   2   3
ATOM      3  C   UNL     1      37.689  20.615   7.396  1.00  0.00     0.000 C 
BRANCH   3   4
ATOM      4  C   UNL     1      37.644  19.675   6.178  1.00  0.00     0.000 C 
BRANCH   4   5
ATOM      5  C   UNL     1      36.583  20.086   5.147  1.00  0.00     0.000 C 
BRANCH   5   6
ATOM      6  C   UNL     1      37.177  20.117   3.734  1.00  0.00     0.006 C 
BRANCH   6   7
ATOM      7  C   UNL     1      36.502  21.195   2.878  1.00  0.00     0.053 C 
BRANCH   7   8
ATOM      8  C   UNL     1      35.229  20.675   2.290  1.00  0.00     0.041 C 
ATOM      9  O   UNL     1      35.109  19.450   2.021  1.00  0.00    -0.550 OA
ATOM     10  O   UNL     1      34.190  21.549   1.996  1.00  0.00    -0.550 OA
ENDBRANCH   7   8
ENDBRANCH   6   7
ENDBRANCH   5   6
ENDBRANCH   4   5
ENDBRANCH   3   4
ENDBRANCH   2   3
ENDBRANCH   1   2
BRANCH   1  11
ATOM     11  C   UNL     1      40.266  22.301   5.418  1.00  0.00     0.000 C 
BRANCH  11  12
ATOM     12  C   UNL     1      40.746  21.147   4.524  1.00  0.00     0.000 C 
BRANCH  12  13
ATOM     13  C   UNL     1      40.431  21.380   3.036  1.00  0.00     0.000 C 
BRANCH  13  14
ATOM     14  C   UNL     1      40.418  22.874   2.672  1.00  0.00     0.000 C 
BRANCH  14  15
ATOM     15  C   UNL     1      39.949  23.148   1.224  1.00  0.00     0.000 C 
BRANCH  15  16
ATOM     16  C   UNL     1      38.497  23.655   1.138  1.00  0.00     0.006 C 
BRANCH  16  17
ATOM     17  C   UNL     1      38.037  24.429   2.383  1.00  0.00     0.053 C 
BRANCH  17  18
ATOM     18  C   UNL     1      37.888  25.894   2.106  1.00  0.00     0.041 C 
ATOM     19  O   UNL     1      37.111  26.289   1.197  1.00  0.00    -0.550 OA
ATOM     20  O   UNL     1      38.591  26.824   2.859  1.00  0.00    -0.550 OA
ENDBRANCH  17  18
ENDBRANCH  16  17
ENDBRANCH  15  16
ENDBRANCH  14  15
ENDBRANCH  13  14
ENDBRANCH  12  13
ENDBRANCH  11  12
ENDBRANCH   1  11
TORSDOF 15
ENDMDL
MODEL 9
REMARK VINA RESULT:    -3.759      2.393      5.063
REMARK INTER + INTRA:          -8.831
REMARK INTER:                  -7.017
REMARK INTRA:                  -1.814
REMARK UNBOUND:                -1.776
REMARK SMILES O=C([O-])CCCCCCCCCCCCCCC(=O)[O-]
REMARK SMILES IDX 10 1 9 2 8 3 7 4 6 5 5 6 4 7 2 8 1 9 3 10 11 11 12 12 13 13
REMARK SMILES IDX 14 14 15 15 16 16 17 17 18 18 19 19 20 20
REMARK H PARENT
REMARK Flexibility Score: inf
ROOT
ATOM      1  C   UNL     1      40.927  22.596   6.481  1.00  0.00     0.000 C 
ENDROOT
BRANCH   1   2
ATOM      2  C   UNL     1      41.122  22.197   5.007  1.00  0.00     0.000 C 
BRANCH   2   3
ATOM      3  C   UNL     1      40.490  23.156   3.976  1.00  0.00     0.000 C 
BRANCH   3   4
ATOM      4  C   UNL     1      40.489  22.645   2.524  1.00  0.00     0.000 C 
BRANCH   4   5
ATOM      5  C   UNL     1      39.173  22.940   1.790  1.00  0.00     0.000 C 
BRANCH   5   6
ATOM      6  C   UNL     1      38.253  23.818   2.646  1.00  0.00     0.006 C 
BRANCH   6   7
ATOM      7  C   UNL     1      37.799  25.058   1.869  1.00  0.00     0.053 C 
BRANCH   7   8
ATOM      8  C   UNL     1      38.474  26.284   2.399  1.00  0.00     0.041 C 
ATOM      9  O   UNL     1      37.798  27.310   2.674  1.00  0.00    -0.550 OA
ATOM     10  O   UNL     1      39.854  26.309   2.547  1.00  0.00    -0.550 OA
ENDBRANCH   7   8
ENDBRANCH   6   7
ENDBRANCH   5   6
ENDBRANCH   4   5
ENDBRANCH   3   4
ENDBRANCH   2   3
ENDBRANCH   1   2
BRANCH   1  11
ATOM     11  C   UNL     1      40.071  21.588   7.265  1.00  0.00     0.000 C 
BRANCH  11  12
ATOM     12  C   UNL     1      38.566  21.770   7.014  1.00  0.00     0.000 C 
BRANCH  12  13
ATOM     13  C   UNL     1      37.743  20.536   7.420  1.00  0.00     0.000 C 
BRANCH  13  14
ATOM     14  C   UNL     1      37.321  19.693   6.205  1.00  0.00     0.000 C 
BRANCH  14  15
ATOM     15  C   UNL     1      38.309  19.791   5.018  1.00  0.00     0.000 C 
BRANCH  15  16
ATOM     16  C   UNL     1      37.674  20.374   3.742  1.00  0.00     0.006 C 
BRANCH  16  17
ATOM     17  C   UNL     1      36.142  20.470   3.802  1.00  0.00     0.053 C 
BRANCH  17  18
ATOM     18  C   UNL     1      35.529  20.468   2.434  1.00  0.00     0.041 C 
ATOM     19  O   UNL     1      34.825  19.494   2.058  1.00  0.00    -0.550 OA
ATOM     20  O   UNL     1      35.721  21.546   1.580  1.00  0.00    -0.550 OA
ENDBRANCH  17  18
ENDBRANCH  16  17
ENDBRANCH  15  16
ENDBRANCH  14  15
ENDBRANCH  13  14
ENDBRANCH  12  13
ENDBRANCH  11  12
ENDBRANCH   1  11
TORSDOF 15
ENDMDL
