MODEL 1
REMARK VINA RESULT:    -6.325      0.000      0.000
REMARK INTER + INTRA:         -14.184
REMARK INTER:                 -12.242
REMARK INTRA:                  -1.942
REMARK UNBOUND:                -1.942
REMARK SMILES CCCCCCCCCCCCCCCCCC(=O)[O-]
REMARK SMILES IDX 10 1 11 2 12 3 13 4 14 5 15 6 16 7 17 8 18 9 19 10 20 11
REMARK SMILES IDX 9 12 8 13 7 14 6 15 5 16 4 17 3 18 2 19 1 20
REMARK H PARENT
REMARK Flexibility Score: inf
ROOT
ATOM      1  C   UNL     1       4.448   8.815  15.113  1.00  0.00     0.000 C 
ENDROOT
BRANCH   1   2
ATOM      2  C   UNL     1       4.517   9.965  14.096  1.00  0.00     0.000 C 
BRANCH   2   3
ATOM      3  C   UNL     1       3.697  11.191  14.536  1.00  0.00     0.000 C 
BRANCH   3   4
ATOM      4  C   UNL     1       4.513  12.493  14.498  1.00  0.00     0.000 C 
BRANCH   4   5
ATOM      5  C   UNL     1       4.830  13.039  15.900  1.00  0.00     0.000 C 
BRANCH   5   6
ATOM      6  C   UNL     1       3.576  13.104  16.800  1.00  0.00     0.000 C 
BRANCH   6   7
ATOM      7  C   UNL     1       3.745  12.370  18.143  1.00  0.00     0.006 C 
BRANCH   7   8
ATOM      8  C   UNL     1       5.205  12.082  18.520  1.00  0.00     0.053 C 
BRANCH   8   9
ATOM      9  C   UNL     1       5.314  11.412  19.857  1.00  0.00     0.041 C 
ATOM     10  O   UNL     1       4.300  10.884  20.383  1.00  0.00    -0.550 OA
ATOM     11  O   UNL     1       6.538  11.350  20.510  1.00  0.00    -0.550 OA
ENDBRANCH   8   9
ENDBRANCH   7   8
ENDBRANCH   6   7
ENDBRANCH   5   6
ENDBRANCH   4   5
ENDBRANCH   3   4
ENDBRANCH   2   3
ENDBRANCH   1   2
BRANCH   1  12
ATOM     12  C   UNL     1       4.062   9.292  16.524  1.00  0.00     0.000 C 
BRANCH  12  13
ATOM     13  C   UNL     1       3.117   8.315  17.247  1.00  0.00    -0.000 C 
BRANCH  13  14
ATOM     14  C   UNL     1       2.250   8.953  18.348  1.00  0.00    -0.000 C 
BRANCH  14  15
ATOM     15  C   UNL     1       0.743   8.854  18.054  1.00  0.00    -0.000 C 
BRANCH  15  16
ATOM     16  C   UNL     1       0.081   7.663  18.765  1.00  0.00    -0.000 C 
BRANCH  16  17
ATOM     17  C   UNL     1      -0.111   6.452  17.835  1.00  0.00    -0.000 C 
BRANCH  17  18
ATOM     18  C   UNL     1       0.615   5.194  18.356  1.00  0.00    -0.000 C 
BRANCH  18  19
ATOM     19  C   UNL     1       1.647   5.492  19.458  1.00  0.00    -0.003 C 
ATOM     20  C   UNL     1       2.539   4.294  19.783  1.00  0.00     0.004 C 
ENDBRANCH  18  19
ENDBRANCH  17  18
ENDBRANCH  16  17
ENDBRANCH  15  16
ENDBRANCH  14  15
ENDBRANCH  13  14
ENDBRANCH  12  13
ENDBRANCH   1  12
TORSDOF 16
ENDMDL
MODEL 2
REMARK VINA RESULT:    -6.216      2.485      3.703
REMARK INTER + INTRA:         -13.973
REMARK INTER:                 -11.787
REMARK INTRA:                  -2.185
REMARK UNBOUND:                -1.942
REMARK SMILES CCCCCCCCCCCCCCCCCC(=O)[O-]
REMARK SMILES IDX 10 1 11 2 12 3 13 4 14 5 15 6 16 7 17 8 18 9 19 10 20 11
REMARK SMILES IDX 9 12 8 13 7 14 6 15 5 16 4 17 3 18 2 19 1 20
REMARK H PARENT
REMARK Flexibility Score: inf
ROOT
ATOM      1  C   UNL     1       5.108  11.255  19.084  1.00  0.00     0.000 C 
ENDROOT
BRANCH   1   2
ATOM      2  C   UNL     1       5.911  11.483  17.793  1.00  0.00     0.000 C 
BRANCH   2   3
ATOM      3  C   UNL     1       5.776  12.920  17.261  1.00  0.00     0.000 C 
BRANCH   3   4
ATOM      4  C   UNL     1       5.392  12.966  15.773  1.00  0.00     0.000 C 
BRANCH   4   5
ATOM      5  C   UNL     1       3.878  13.116  15.551  1.00  0.00     0.000 C 
BRANCH   5   6
ATOM      6  C   UNL     1       3.245  11.840  14.952  1.00  0.00     0.000 C 
BRANCH   6   7
ATOM      7  C   UNL     1       4.277  10.856  14.373  1.00  0.00     0.006 C 
BRANCH   7   8
ATOM      8  C   UNL     1       4.392   9.538  15.153  1.00  0.00     0.053 C 
BRANCH   8   9
ATOM      9  C   UNL     1       4.844   8.410  14.276  1.00  0.00     0.041 C 
ATOM     10  O   UNL     1       4.067   7.450  14.031  1.00  0.00    -0.550 OA
ATOM     11  O   UNL     1       6.113   8.428  13.711  1.00  0.00    -0.550 OA
ENDBRANCH   8   9
ENDBRANCH   7   8
ENDBRANCH   6   7
ENDBRANCH   5   6
ENDBRANCH   4   5
ENDBRANCH   3   4
ENDBRANCH   2   3
ENDBRANCH   1   2
BRANCH   1  12
ATOM     12  C   UNL     1       3.658  11.756  18.977  1.00  0.00     0.000 C 
BRANCH  12  13
ATOM     13  C   UNL     1       2.713  10.717  18.347  1.00  0.00    -0.000 C 
BRANCH  13  14
ATOM     14  C   UNL     1       3.103   9.250  18.605  1.00  0.00    -0.000 C 
BRANCH  14  15
ATOM     15  C   UNL     1       2.164   8.250  17.908  1.00  0.00    -0.000 C 
BRANCH  15  16
ATOM     16  C   UNL     1       0.695   8.439  18.317  1.00  0.00    -0.000 C 
BRANCH  16  17
ATOM     17  C   UNL     1      -0.125   7.142  18.190  1.00  0.00    -0.000 C 
BRANCH  17  18
ATOM     18  C   UNL     1       0.747   5.939  17.776  1.00  0.00    -0.000 C 
BRANCH  18  19
ATOM     19  C   UNL     1       0.754   4.799  18.809  1.00  0.00    -0.003 C 
ATOM     20  C   UNL     1       1.893   4.914  19.821  1.00  0.00     0.004 C 
ENDBRANCH  18  19
ENDBRANCH  17  18
ENDBRANCH  16  17
ENDBRANCH  15  16
ENDBRANCH  14  15
ENDBRANCH  13  14
ENDBRANCH  12  13
ENDBRANCH   1  12
TORSDOF 16
ENDMDL
MODEL 3
REMARK VINA RESULT:    -6.141      2.661      6.291
REMARK INTER + INTRA:         -13.827
REMARK INTER:                 -11.914
REMARK INTRA:                  -1.912
REMARK UNBOUND:                -1.942
REMARK SMILES CCCCCCCCCCCCCCCCCC(=O)[O-]
REMARK SMILES IDX 10 1 11 2 12 3 13 4 14 5 15 6 16 7 17 8 18 9 19 10 20 11
REMARK SMILES IDX 9 12 8 13 7 14 6 15 5 16 4 17 3 18 2 19 1 20
REMARK H PARENT
REMARK Flexibility Score: inf
ROOT
ATOM      1  C   UNL     1       5.171  11.842  19.599  1.00  0.00     0.000 C 
ENDROOT
BRANCH   1   2
ATOM      2  C   UNL     1       4.168  10.679  19.557  1.00  0.00     0.000 C 
BRANCH   2   3
ATOM      3  C   UNL     1       2.937  10.993  18.690  1.00  0.00     0.000 C 
BRANCH   3   4
ATOM      4  C   UNL     1       2.753   9.990  17.539  1.00  0.00     0.000 C 
BRANCH   4   5
ATOM      5  C   UNL     1       2.256   8.615  18.018  1.00  0.00     0.000 C 
BRANCH   5   6
ATOM      6  C   UNL     1       0.714   8.520  18.021  1.00  0.00     0.000 C 
BRANCH   6   7
ATOM      7  C   UNL     1       0.174   7.313  18.811  1.00  0.00     0.006 C 
BRANCH   7   8
ATOM      8  C   UNL     1       1.262   6.484  19.508  1.00  0.00     0.053 C 
BRANCH   8   9
ATOM      9  C   UNL     1       1.302   5.075  18.998  1.00  0.00     0.041 C 
ATOM     10  O   UNL     1       0.637   4.753  17.979  1.00  0.00    -0.550 OA
ATOM     11  O   UNL     1       2.090   4.124  19.633  1.00  0.00    -0.550 OA
ENDBRANCH   8   9
ENDBRANCH   7   8
ENDBRANCH   6   7
ENDBRANCH   5   6
ENDBRANCH   4   5
ENDBRANCH   3   4
ENDBRANCH   2   3
ENDBRANCH   1   2
BRANCH   1  12
ATOM     12  C   UNL     1       6.418  11.582  18.735  1.00  0.00     0.000 C 
BRANCH  12  13
ATOM     13  C   UNL     1       6.104  11.555  17.228  1.00  0.00    -0.000 C 
BRANCH  13  14
ATOM     14  C   UNL     1       5.814  12.934  16.605  1.00  0.00    -0.000 C 
BRANCH  14  15
ATOM     15  C   UNL     1       4.418  13.019  15.966  1.00  0.00    -0.000 C 
BRANCH  15  16
ATOM     16  C   UNL     1       4.397  12.486  14.524  1.00  0.00    -0.000 C 
BRANCH  16  17
ATOM     17  C   UNL     1       3.693  11.122  14.409  1.00  0.00    -0.000 C 
BRANCH  17  18
ATOM     18  C   UNL     1       4.579  10.065  13.718  1.00  0.00    -0.000 C 
BRANCH  18  19
ATOM     19  C   UNL     1       4.975   8.897  14.639  1.00  0.00    -0.003 C 
ATOM     20  C   UNL     1       4.219   7.606  14.327  1.00  0.00     0.004 C 
ENDBRANCH  18  19
ENDBRANCH  17  18
ENDBRANCH  16  17
ENDBRANCH  15  16
ENDBRANCH  14  15
ENDBRANCH  13  14
ENDBRANCH  12  13
ENDBRANCH   1  12
TORSDOF 16
ENDMDL
MODEL 4
REMARK VINA RESULT:    -6.106      2.449      6.497
REMARK INTER + INTRA:         -13.760
REMARK INTER:                 -12.004
REMARK INTRA:                  -1.756
REMARK UNBOUND:                -1.942
REMARK SMILES CCCCCCCCCCCCCCCCCC(=O)[O-]
REMARK SMILES IDX 10 1 11 2 12 3 13 4 14 5 15 6 16 7 17 8 18 9 19 10 20 11
REMARK SMILES IDX 9 12 8 13 7 14 6 15 5 16 4 17 3 18 2 19 1 20
REMARK H PARENT
REMARK Flexibility Score: inf
ROOT
ATOM      1  C   UNL     1       5.058   9.367  15.234  1.00  0.00     0.000 C 
ENDROOT
BRANCH   1   2
ATOM      2  C   UNL     1       3.887   8.813  16.062  1.00  0.00     0.000 C 
BRANCH   2   3
ATOM      3  C   UNL     1       3.798   9.454  17.458  1.00  0.00     0.000 C 
BRANCH   3   4
ATOM      4  C   UNL     1       2.378   9.398  18.044  1.00  0.00     0.000 C 
BRANCH   4   5
ATOM      5  C   UNL     1       1.906   7.963  18.331  1.00  0.00     0.000 C 
BRANCH   5   6
ATOM      6  C   UNL     1       0.367   7.834  18.289  1.00  0.00     0.000 C 
BRANCH   6   7
ATOM      7  C   UNL     1      -0.145   6.446  18.716  1.00  0.00     0.006 C 
BRANCH   7   8
ATOM      8  C   UNL     1       0.562   5.275  18.018  1.00  0.00     0.053 C 
BRANCH   8   9
ATOM      9  C   UNL     1       1.451   4.521  18.959  1.00  0.00     0.041 C 
ATOM     10  O   UNL     1       2.013   3.458  18.583  1.00  0.00    -0.550 OA
ATOM     11  O   UNL     1       1.680   5.002  20.242  1.00  0.00    -0.550 OA
ENDBRANCH   8   9
ENDBRANCH   7   8
ENDBRANCH   6   7
ENDBRANCH   5   6
ENDBRANCH   4   5
ENDBRANCH   3   4
ENDBRANCH   2   3
ENDBRANCH   1   2
BRANCH   1  12
ATOM     12  C   UNL     1       4.592  10.119  13.975  1.00  0.00     0.000 C 
BRANCH  12  13
ATOM     13  C   UNL     1       3.550  11.209  14.284  1.00  0.00    -0.000 C 
BRANCH  13  14
ATOM     14  C   UNL     1       4.128  12.627  14.448  1.00  0.00    -0.000 C 
BRANCH  14  15
ATOM     15  C   UNL     1       3.604  13.345  15.703  1.00  0.00    -0.000 C 
BRANCH  15  16
ATOM     16  C   UNL     1       4.255  12.824  16.994  1.00  0.00    -0.000 C 
BRANCH  16  17
ATOM     17  C   UNL     1       5.784  12.694  16.874  1.00  0.00    -0.000 C 
BRANCH  17  18
ATOM     18  C   UNL     1       6.383  11.804  17.983  1.00  0.00    -0.000 C 
BRANCH  18  19
ATOM     19  C   UNL     1       5.577  11.827  19.293  1.00  0.00    -0.003 C 
ATOM     20  C   UNL     1       6.363  11.294  20.490  1.00  0.00     0.004 C 
ENDBRANCH  18  19
ENDBRANCH  17  18
ENDBRANCH  16  17
ENDBRANCH  15  16
ENDBRANCH  14  15
ENDBRANCH  13  14
ENDBRANCH  12  13
ENDBRANCH   1  12
TORSDOF 16
ENDMDL
MODEL 5
REMARK VINA RESULT:    -6.012      2.496      6.020
REMARK INTER + INTRA:         -13.579
REMARK INTER:                 -11.752
REMARK INTRA:                  -1.826
REMARK UNBOUND:                -1.942
REMARK SMILES CCCCCCCCCCCCCCCCCC(=O)[O-]
REMARK SMILES IDX 10 1 11 2 12 3 13 4 14 5 15 6 16 7 17 8 18 9 19 10 20 11
REMARK SMILES IDX 9 12 8 13 7 14 6 15 5 16 4 17 3 18 2 19 1 20
REMARK H PARENT
REMARK Flexibility Score: inf
ROOT
ATOM      1  C   UNL     1       4.292   9.949  13.932  1.00  0.00     0.000 C 
ENDROOT
BRANCH   1   2
ATOM      2  C   UNL     1       4.622   8.879  14.985  1.00  0.00     0.000 C 
BRANCH   2   3
ATOM      3  C   UNL     1       4.195   9.297  16.403  1.00  0.00     0.000 C 
BRANCH   3   4
ATOM      4  C   UNL     1       3.232   8.290  17.051  1.00  0.00     0.000 C 
BRANCH   4   5
ATOM      5  C   UNL     1       2.478   8.875  18.257  1.00  0.00     0.000 C 
BRANCH   5   6
ATOM      6  C   UNL     1       0.951   8.669  18.150  1.00  0.00     0.000 C 
BRANCH   6   7
ATOM      7  C   UNL     1       0.508   7.216  18.402  1.00  0.00     0.006 C 
BRANCH   7   8
ATOM      8  C   UNL     1       1.324   6.491  19.481  1.00  0.00     0.053 C 
BRANCH   8   9
ATOM      9  C   UNL     1       1.620   5.073  19.096  1.00  0.00     0.041 C 
ATOM     10  O   UNL     1       2.437   4.392  19.771  1.00  0.00    -0.550 OA
ATOM     11  O   UNL     1       0.977   4.495  18.009  1.00  0.00    -0.550 OA
ENDBRANCH   8   9
ENDBRANCH   7   8
ENDBRANCH   6   7
ENDBRANCH   5   6
ENDBRANCH   4   5
ENDBRANCH   3   4
ENDBRANCH   2   3
ENDBRANCH   1   2
BRANCH   1  12
ATOM     12  C   UNL     1       4.351  11.378  14.498  1.00  0.00     0.000 C 
BRANCH  12  13
ATOM     13  C   UNL     1       2.981  12.079  14.493  1.00  0.00    -0.000 C 
BRANCH  13  14
ATOM     14  C   UNL     1       2.918  13.378  15.318  1.00  0.00    -0.000 C 
BRANCH  14  15
ATOM     15  C   UNL     1       3.753  13.308  16.608  1.00  0.00    -0.000 C 
BRANCH  15  16
ATOM     16  C   UNL     1       3.047  12.520  17.724  1.00  0.00    -0.000 C 
BRANCH  16  17
ATOM     17  C   UNL     1       3.762  12.649  19.081  1.00  0.00    -0.000 C 
BRANCH  17  18
ATOM     18  C   UNL     1       4.490  11.349  19.483  1.00  0.00    -0.000 C 
BRANCH  18  19
ATOM     19  C   UNL     1       6.023  11.455  19.413  1.00  0.00    -0.003 C 
ATOM     20  C   UNL     1       6.546  11.655  17.992  1.00  0.00     0.004 C 
ENDBRANCH  18  19
ENDBRANCH  17  18
ENDBRANCH  16  17
ENDBRANCH  15  16
ENDBRANCH  14  15
ENDBRANCH  13  14
ENDBRANCH  12  13
ENDBRANCH   1  12
TORSDOF 16
ENDMDL
MODEL 6
REMARK VINA RESULT:    -5.897      2.364      3.650
REMARK INTER + INTRA:         -13.355
REMARK INTER:                 -11.574
REMARK INTRA:                  -1.781
REMARK UNBOUND:                -1.942
REMARK SMILES CCCCCCCCCCCCCCCCCC(=O)[O-]
REMARK SMILES IDX 10 1 11 2 12 3 13 4 14 5 15 6 16 7 17 8 18 9 19 10 20 11
REMARK SMILES IDX 9 12 8 13 7 14 6 15 5 16 4 17 3 18 2 19 1 20
REMARK H PARENT
REMARK Flexibility Score: inf
ROOT
ATOM      1  C   UNL     1       4.149  10.749  19.147  1.00  0.00     0.000 C 
ENDROOT
BRANCH   1   2
ATOM      2  C   UNL     1       4.382  12.203  18.708  1.00  0.00     0.000 C 
BRANCH   2   3
ATOM      3  C   UNL     1       3.115  12.854  18.127  1.00  0.00     0.000 C 
BRANCH   3   4
ATOM      4  C   UNL     1       3.362  13.512  16.759  1.00  0.00     0.000 C 
BRANCH   4   5
ATOM      5  C   UNL     1       4.498  12.838  15.970  1.00  0.00     0.000 C 
BRANCH   5   6
ATOM      6  C   UNL     1       4.045  12.388  14.563  1.00  0.00     0.000 C 
BRANCH   6   7
ATOM      7  C   UNL     1       3.804  10.872  14.450  1.00  0.00     0.006 C 
BRANCH   7   8
ATOM      8  C   UNL     1       4.894  10.014  15.107  1.00  0.00     0.053 C 
BRANCH   8   9
ATOM      9  C   UNL     1       5.045   8.687  14.426  1.00  0.00     0.041 C 
ATOM     10  O   UNL     1       6.030   8.472  13.672  1.00  0.00    -0.550 OA
ATOM     11  O   UNL     1       4.113   7.680  14.643  1.00  0.00    -0.550 OA
ENDBRANCH   8   9
ENDBRANCH   7   8
ENDBRANCH   6   7
ENDBRANCH   5   6
ENDBRANCH   4   5
ENDBRANCH   3   4
ENDBRANCH   2   3
ENDBRANCH   1   2
BRANCH   1  12
ATOM     12  C   UNL     1       2.781  10.205  18.698  1.00  0.00     0.000 C 
BRANCH  12  13
ATOM     13  C   UNL     1       2.900   9.059  17.678  1.00  0.00    -0.000 C 
BRANCH  13  14
ATOM     14  C   UNL     1       2.152   7.770  18.066  1.00  0.00    -0.000 C 
BRANCH  14  15
ATOM     15  C   UNL     1       0.698   8.030  18.496  1.00  0.00    -0.000 C 
BRANCH  15  16
ATOM     16  C   UNL     1      -0.144   6.744  18.533  1.00  0.00    -0.000 C 
BRANCH  16  17
ATOM     17  C   UNL     1       0.392   5.660  17.580  1.00  0.00    -0.000 C 
BRANCH  17  18
ATOM     18  C   UNL     1       0.805   4.376  18.329  1.00  0.00    -0.000 C 
BRANCH  18  19
ATOM     19  C   UNL     1       1.208   4.621  19.794  1.00  0.00    -0.003 C 
ATOM     20  C   UNL     1       2.702   4.425  20.044  1.00  0.00     0.004 C 
ENDBRANCH  18  19
ENDBRANCH  17  18
ENDBRANCH  16  17
ENDBRANCH  15  16
ENDBRANCH  14  15
ENDBRANCH  13  14
ENDBRANCH  12  13
ENDBRANCH   1  12
TORSDOF 16
ENDMDL
MODEL 7
REMARK VINA RESULT:    -5.051      2.545      4.478
REMARK INTER + INTRA:         -11.718
REMARK INTER:                  -9.687
REMARK INTRA:                  -2.031
REMARK UNBOUND:                -1.942
REMARK SMILES CCCCCCCCCCCCCCCCCC(=O)[O-]
REMARK SMILES IDX 10 1 11 2 12 3 13 4 14 5 15 6 16 7 17 8 18 9 19 10 20 11
REMARK SMILES IDX 9 12 8 13 7 14 6 15 5 16 4 17 3 18 2 19 1 20
REMARK H PARENT
REMARK Flexibility Score: inf
ROOT
ATOM      1  C   UNL     1       5.683  12.916  16.332  1.00  0.00     0.000 C 
ENDROOT
BRANCH   1   2
ATOM      2  C   UNL     1       4.505  13.767  16.832  1.00  0.00     0.000 C 
BRANCH   2   3
ATOM      3  C   UNL     1       3.176  13.390  16.154  1.00  0.00     0.000 C 
BRANCH   3   4
ATOM      4  C   UNL     1       3.344  13.075  14.659  1.00  0.00     0.000 C 
BRANCH   4   5
ATOM      5  C   UNL     1       2.574  11.817  14.224  1.00  0.00     0.000 C 
BRANCH   5   6
ATOM      6  C   UNL     1       3.485  10.788  13.518  1.00  0.00     0.000 C 
BRANCH   6   7
ATOM      7  C   UNL     1       4.596  10.228  14.425  1.00  0.00     0.006 C 
BRANCH   7   8
ATOM      8  C   UNL     1       5.159   8.876  13.963  1.00  0.00     0.053 C 
BRANCH   8   9
ATOM      9  C   UNL     1       4.189   7.758  14.201  1.00  0.00     0.041 C 
ATOM     10  O   UNL     1       3.831   7.472  15.374  1.00  0.00    -0.550 OA
ATOM     11  O   UNL     1       3.663   7.048  13.129  1.00  0.00    -0.550 OA
ENDBRANCH   8   9
ENDBRANCH   7   8
ENDBRANCH   6   7
ENDBRANCH   5   6
ENDBRANCH   4   5
ENDBRANCH   3   4
ENDBRANCH   2   3
ENDBRANCH   1   2
BRANCH   1  12
ATOM     12  C   UNL     1       6.547  12.366  17.481  1.00  0.00     0.000 C 
BRANCH  12  13
ATOM     13  C   UNL     1       5.959  11.090  18.110  1.00  0.00    -0.000 C 
BRANCH  13  14
ATOM     14  C   UNL     1       5.058  11.331  19.335  1.00  0.00    -0.000 C 
BRANCH  14  15
ATOM     15  C   UNL     1       3.606  10.875  19.109  1.00  0.00    -0.000 C 
BRANCH  15  16
ATOM     16  C   UNL     1       3.490   9.803  18.014  1.00  0.00    -0.000 C 
BRANCH  16  17
ATOM     17  C   UNL     1       2.077   9.199  17.926  1.00  0.00    -0.000 C 
BRANCH  17  18
ATOM     18  C   UNL     1       2.071   7.684  18.220  1.00  0.00    -0.000 C 
BRANCH  18  19
ATOM     19  C   UNL     1       0.687   7.139  18.615  1.00  0.00    -0.003 C 
ATOM     20  C   UNL     1       0.642   5.613  18.686  1.00  0.00     0.004 C 
ENDBRANCH  18  19
ENDBRANCH  17  18
ENDBRANCH  16  17
ENDBRANCH  15  16
ENDBRANCH  14  15
ENDBRANCH  13  14
ENDBRANCH  12  13
ENDBRANCH   1  12
TORSDOF 16
ENDMDL
MODEL 8
REMARK VINA RESULT:    -4.860      2.796      6.473
REMARK INTER + INTRA:         -11.348
REMARK INTER:                  -9.766
REMARK INTRA:                  -1.582
REMARK UNBOUND:                -1.942
REMARK SMILES CCCCCCCCCCCCCCCCCC(=O)[O-]
REMARK SMILES IDX 10 1 11 2 12 3 13 4 14 5 15 6 16 7 17 8 18 9 19 10 20 11
REMARK SMILES IDX 9 12 8 13 7 14 6 15 5 16 4 17 3 18 2 19 1 20
REMARK H PARENT
REMARK Flexibility Score: inf
ROOT
ATOM      1  C   UNL     1       5.297  10.982  16.336  1.00  0.00     0.000 C 
ENDROOT
BRANCH   1   2
ATOM      2  C   UNL     1       5.153   9.522  15.880  1.00  0.00     0.000 C 
BRANCH   2   3
ATOM      3  C   UNL     1       3.782   8.924  16.240  1.00  0.00     0.000 C 
BRANCH   3   4
ATOM      4  C   UNL     1       3.421   9.123  17.721  1.00  0.00     0.000 C 
BRANCH   4   5
ATOM      5  C   UNL     1       1.920   8.933  18.001  1.00  0.00     0.000 C 
BRANCH   5   6
ATOM      6  C   UNL     1       1.612   7.557  18.630  1.00  0.00     0.000 C 
BRANCH   6   7
ATOM      7  C   UNL     1       1.841   6.376  17.668  1.00  0.00     0.006 C 
BRANCH   7   8
ATOM      8  C   UNL     1       0.994   5.136  17.987  1.00  0.00     0.053 C 
BRANCH   8   9
ATOM      9  C   UNL     1       1.506   4.406  19.192  1.00  0.00     0.041 C 
ATOM     10  O   UNL     1       0.843   4.410  20.262  1.00  0.00    -0.550 OA
ATOM     11  O   UNL     1       2.701   3.701  19.126  1.00  0.00    -0.550 OA
ENDBRANCH   8   9
ENDBRANCH   7   8
ENDBRANCH   6   7
ENDBRANCH   5   6
ENDBRANCH   4   5
ENDBRANCH   3   4
ENDBRANCH   2   3
ENDBRANCH   1   2
BRANCH   1  12
ATOM     12  C   UNL     1       6.445  11.180  17.342  1.00  0.00     0.000 C 
BRANCH  12  13
ATOM     13  C   UNL     1       6.071  12.125  18.497  1.00  0.00    -0.000 C 
BRANCH  13  14
ATOM     14  C   UNL     1       4.981  11.587  19.443  1.00  0.00    -0.000 C 
BRANCH  14  15
ATOM     15  C   UNL     1       3.730  12.482  19.485  1.00  0.00    -0.000 C 
BRANCH  15  16
ATOM     16  C   UNL     1       2.945  12.456  18.164  1.00  0.00    -0.000 C 
BRANCH  16  17
ATOM     17  C   UNL     1       2.948  13.819  17.448  1.00  0.00    -0.000 C 
BRANCH  17  18
ATOM     18  C   UNL     1       3.412  13.707  15.981  1.00  0.00    -0.000 C 
BRANCH  18  19
ATOM     19  C   UNL     1       2.298  13.269  15.014  1.00  0.00    -0.003 C 
ATOM     20  C   UNL     1       2.707  12.101  14.119  1.00  0.00     0.004 C 
ENDBRANCH  18  19
ENDBRANCH  17  18
ENDBRANCH  16  17
ENDBRANCH  15  16
ENDBRANCH  14  15
ENDBRANCH  13  14
ENDBRANCH  12  13
ENDBRANCH   1  12
TORSDOF 16
ENDMDL
