MODEL 1
REMARK VINA RESULT:    -6.161      0.000      0.000
REMARK INTER + INTRA:          -6.702
REMARK INTER:                  -6.702
REMARK INTRA:                   0.000
REMARK UNBOUND:                 0.000
REMARK SMILES Cc1cc(O)c2c(c1)C(=O)c1cc(O)cc(O)c1C2=O
REMARK SMILES IDX 1 1 2 2 8 3 7 4 6 5 4 6 3 7 19 8 20 9 18 10 11 11 9 12 10 13
REMARK SMILES IDX 12 14 13 15 15 16 16 17 5 18 17 20 14 22
REMARK H PARENT 5 19 17 21 14 23
REMARK Flexibility Score: inf
ROOT
ATOM      1  C   UNL     1      38.693   9.801   7.000  1.00  0.00     0.044 C 
ATOM      2  C   UNL     1      38.582   8.315   7.177  1.00  0.00    -0.047 A 
ATOM      3  C   UNL     1      37.542   7.772   7.938  1.00  0.00     0.016 A 
ATOM      4  C   UNL     1      37.414   6.381   8.087  1.00  0.00     0.038 A 
ATOM      5  C   UNL     1      38.343   5.518   7.462  1.00  0.00     0.076 A 
ATOM      6  C   UNL     1      39.345   6.072   6.623  1.00  0.00     0.127 A 
ATOM      7  C   UNL     1      39.465   7.460   6.507  1.00  0.00     0.050 A 
ATOM      8  C   UNL     1      38.265   4.066   7.762  1.00  0.00     0.201 C 
ATOM      9  O   UNL     1      39.310   3.364   7.738  1.00  0.00    -0.288 OA
ATOM     10  C   UNL     1      36.996   3.485   8.271  1.00  0.00     0.076 A 
ATOM     11  C   UNL     1      36.067   4.350   8.892  1.00  0.00     0.041 A 
ATOM     12  C   UNL     1      36.305   5.813   8.889  1.00  0.00     0.194 C 
ATOM     13  O   UNL     1      35.547   6.577   9.548  1.00  0.00    -0.289 OA
ATOM     14  C   UNL     1      34.921   3.820   9.508  1.00  0.00     0.059 A 
ATOM     15  C   UNL     1      34.681   2.446   9.497  1.00  0.00     0.120 A 
ATOM     16  C   UNL     1      35.575   1.591   8.849  1.00  0.00     0.093 A 
ATOM     17  C   UNL     1      36.713   2.095   8.212  1.00  0.00     0.131 A 
ENDROOT
BRANCH   6  18
ATOM     18  O   UNL     1      40.212   5.284   5.863  1.00  0.00    -0.507 OA
ATOM     19  H   UNL     1      40.111   4.285   5.755  1.00  0.00     0.293 HD
ENDBRANCH   6  18
BRANCH  17  20
ATOM     20  O   UNL     1      37.512   1.191   7.507  1.00  0.00    -0.507 OA
ATOM     21  H   UNL     1      38.483   1.358   7.286  1.00  0.00     0.293 HD
ENDBRANCH  17  20
BRANCH  15  22
ATOM     22  O   UNL     1      33.543   1.942  10.125  1.00  0.00    -0.508 OA
ATOM     23  H   UNL     1      32.662   1.856   9.633  1.00  0.00     0.293 HD
ENDBRANCH  15  22
TORSDOF 3
ENDMDL
MODEL 2
REMARK VINA RESULT:    -6.067      1.627      1.946
REMARK INTER + INTRA:          -6.599
REMARK INTER:                  -6.599
REMARK INTRA:                   0.000
REMARK UNBOUND:                 0.000
REMARK SMILES Cc1cc(O)c2c(c1)C(=O)c1cc(O)cc(O)c1C2=O
REMARK SMILES IDX 1 1 2 2 8 3 7 4 6 5 4 6 3 7 19 8 20 9 18 10 11 11 9 12 10 13
REMARK SMILES IDX 12 14 13 15 15 16 16 17 5 18 17 20 14 22
REMARK H PARENT 5 19 17 21 14 23
REMARK Flexibility Score: inf
ROOT
ATOM      1  C   UNL     1      40.395   7.492   6.001  1.00  0.00     0.044 C 
ATOM      2  C   UNL     1      39.986   6.255   6.744  1.00  0.00    -0.047 A 
ATOM      3  C   UNL     1      38.684   6.129   7.239  1.00  0.00     0.016 A 
ATOM      4  C   UNL     1      38.283   4.963   7.912  1.00  0.00     0.038 A 
ATOM      5  C   UNL     1      39.201   3.903   8.093  1.00  0.00     0.076 A 
ATOM      6  C   UNL     1      40.493   4.003   7.516  1.00  0.00     0.127 A 
ATOM      7  C   UNL     1      40.876   5.182   6.869  1.00  0.00     0.050 A 
ATOM      8  C   UNL     1      38.788   2.752   8.935  1.00  0.00     0.201 C 
ATOM      9  O   UNL     1      39.654   2.111   9.588  1.00  0.00    -0.288 OA
ATOM     10  C   UNL     1      37.345   2.478   9.155  1.00  0.00     0.076 A 
ATOM     11  C   UNL     1      36.428   3.538   8.970  1.00  0.00     0.041 A 
ATOM     12  C   UNL     1      36.898   4.834   8.426  1.00  0.00     0.194 C 
ATOM     13  O   UNL     1      36.113   5.820   8.377  1.00  0.00    -0.289 OA
ATOM     14  C   UNL     1      35.075   3.357   9.299  1.00  0.00     0.059 A 
ATOM     15  C   UNL     1      34.622   2.133   9.794  1.00  0.00     0.120 A 
ATOM     16  C   UNL     1      35.516   1.070   9.939  1.00  0.00     0.093 A 
ATOM     17  C   UNL     1      36.865   1.218   9.599  1.00  0.00     0.131 A 
ENDROOT
BRANCH   6  18
ATOM     18  O   UNL     1      41.409   2.949   7.530  1.00  0.00    -0.507 OA
ATOM     19  H   UNL     1      41.212   2.032   7.155  1.00  0.00     0.293 HD
ENDBRANCH   6  18
BRANCH  17  20
ATOM     20  O   UNL     1      37.679   0.086   9.685  1.00  0.00    -0.507 OA
ATOM     21  H   UNL     1      37.722  -0.626   8.970  1.00  0.00     0.293 HD
ENDBRANCH  17  20
BRANCH  15  22
ATOM     22  O   UNL     1      33.277   1.982  10.125  1.00  0.00    -0.508 OA
ATOM     23  H   UNL     1      32.667   2.782  10.241  1.00  0.00     0.293 HD
ENDBRANCH  15  22
TORSDOF 3
ENDMDL
MODEL 3
REMARK VINA RESULT:    -6.057      1.895      5.229
REMARK INTER + INTRA:          -6.588
REMARK INTER:                  -6.588
REMARK INTRA:                   0.000
REMARK UNBOUND:                 0.000
REMARK SMILES Cc1cc(O)c2c(c1)C(=O)c1cc(O)cc(O)c1C2=O
REMARK SMILES IDX 1 1 2 2 8 3 7 4 6 5 4 6 3 7 19 8 20 9 18 10 11 11 9 12 10 13
REMARK SMILES IDX 12 14 13 15 15 16 16 17 5 18 17 20 14 22
REMARK H PARENT 5 19 17 21 14 23
REMARK Flexibility Score: inf
ROOT
ATOM      1  C   UNL     1      33.525   7.116  10.120  1.00  0.00     0.044 C 
ATOM      2  C   UNL     1      34.676   6.358   9.527  1.00  0.00    -0.047 A 
ATOM      3  C   UNL     1      35.605   7.012   8.711  1.00  0.00     0.016 A 
ATOM      4  C   UNL     1      36.701   6.318   8.173  1.00  0.00     0.038 A 
ATOM      5  C   UNL     1      36.872   4.944   8.457  1.00  0.00     0.076 A 
ATOM      6  C   UNL     1      35.975   4.307   9.353  1.00  0.00     0.127 A 
ATOM      7  C   UNL     1      34.879   5.013   9.859  1.00  0.00     0.050 A 
ATOM      8  C   UNL     1      37.955   4.211   7.754  1.00  0.00     0.201 C 
ATOM      9  O   UNL     1      37.821   2.984   7.504  1.00  0.00    -0.288 OA
ATOM     10  C   UNL     1      39.104   4.960   7.183  1.00  0.00     0.076 A 
ATOM     11  C   UNL     1      38.932   6.335   6.903  1.00  0.00     0.041 A 
ATOM     12  C   UNL     1      37.685   7.022   7.315  1.00  0.00     0.194 C 
ATOM     13  O   UNL     1      37.472   8.213   6.957  1.00  0.00    -0.289 OA
ATOM     14  C   UNL     1      39.944   7.045   6.236  1.00  0.00     0.059 A 
ATOM     15  C   UNL     1      41.128   6.409   5.862  1.00  0.00     0.120 A 
ATOM     16  C   UNL     1      41.320   5.061   6.174  1.00  0.00     0.093 A 
ATOM     17  C   UNL     1      40.336   4.337   6.854  1.00  0.00     0.131 A 
ENDROOT
BRANCH   6  18
ATOM     18  O   UNL     1      36.154   2.993   9.793  1.00  0.00    -0.507 OA
ATOM     19  H   UNL     1      36.008   2.183   9.208  1.00  0.00     0.293 HD
ENDBRANCH   6  18
BRANCH  17  20
ATOM     20  O   UNL     1      40.636   3.020   7.212  1.00  0.00    -0.507 OA
ATOM     21  H   UNL     1      40.109   2.221   6.892  1.00  0.00     0.293 HD
ENDBRANCH  17  20
BRANCH  15  22
ATOM     22  O   UNL     1      42.114   7.132   5.192  1.00  0.00    -0.508 OA
ATOM     23  H   UNL     1      43.065   7.175   5.537  1.00  0.00     0.293 HD
ENDBRANCH  15  22
TORSDOF 3
ENDMDL
MODEL 4
REMARK VINA RESULT:    -5.724      2.381      5.012
REMARK INTER + INTRA:          -6.226
REMARK INTER:                  -6.226
REMARK INTRA:                   0.000
REMARK UNBOUND:                 0.000
REMARK SMILES Cc1cc(O)c2c(c1)C(=O)c1cc(O)cc(O)c1C2=O
REMARK SMILES IDX 1 1 2 2 8 3 7 4 6 5 4 6 3 7 19 8 20 9 18 10 11 11 9 12 10 13
REMARK SMILES IDX 12 14 13 15 15 16 16 17 5 18 17 20 14 22
REMARK H PARENT 5 19 17 21 14 23
REMARK Flexibility Score: inf
ROOT
ATOM      1  C   UNL     1      33.287   6.767   9.815  1.00  0.00     0.044 C 
ATOM      2  C   UNL     1      34.573   6.845   9.046  1.00  0.00    -0.047 A 
ATOM      3  C   UNL     1      35.534   5.837   9.176  1.00  0.00     0.016 A 
ATOM      4  C   UNL     1      36.729   5.887   8.439  1.00  0.00     0.038 A 
ATOM      5  C   UNL     1      36.966   6.964   7.555  1.00  0.00     0.076 A 
ATOM      6  C   UNL     1      35.952   7.938   7.365  1.00  0.00     0.127 A 
ATOM      7  C   UNL     1      34.780   7.879   8.125  1.00  0.00     0.050 A 
ATOM      8  C   UNL     1      38.299   7.060   6.907  1.00  0.00     0.201 C 
ATOM      9  O   UNL     1      38.771   8.190   6.609  1.00  0.00    -0.288 OA
ATOM     10  C   UNL     1      39.150   5.848   6.785  1.00  0.00     0.076 A 
ATOM     11  C   UNL     1      38.908   4.771   7.668  1.00  0.00     0.041 A 
ATOM     12  C   UNL     1      37.739   4.810   8.578  1.00  0.00     0.194 C 
ATOM     13  O   UNL     1      37.589   3.914   9.453  1.00  0.00    -0.289 OA
ATOM     14  C   UNL     1      39.776   3.667   7.677  1.00  0.00     0.059 A 
ATOM     15  C   UNL     1      40.868   3.615   6.810  1.00  0.00     0.120 A 
ATOM     16  C   UNL     1      41.087   4.658   5.907  1.00  0.00     0.093 A 
ATOM     17  C   UNL     1      40.226   5.759   5.864  1.00  0.00     0.131 A 
ENDROOT
BRANCH   6  18
ATOM     18  O   UNL     1      36.051   8.953   6.411  1.00  0.00    -0.507 OA
ATOM     19  H   UNL     1      36.731   8.954   5.663  1.00  0.00     0.293 HD
ENDBRANCH   6  18
BRANCH  17  20
ATOM     20  O   UNL     1      40.455   6.719   4.874  1.00  0.00    -0.507 OA
ATOM     21  H   UNL     1      41.373   6.947   4.520  1.00  0.00     0.293 HD
ENDBRANCH  17  20
BRANCH  15  22
ATOM     22  O   UNL     1      41.722   2.514   6.846  1.00  0.00    -0.508 OA
ATOM     23  H   UNL     1      42.675   2.573   6.507  1.00  0.00     0.293 HD
ENDBRANCH  15  22
TORSDOF 3
ENDMDL
MODEL 5
REMARK VINA RESULT:    -5.693      2.637      4.241
REMARK INTER + INTRA:          -6.192
REMARK INTER:                  -6.192
REMARK INTRA:                   0.000
REMARK UNBOUND:                 0.000
REMARK SMILES Cc1cc(O)c2c(c1)C(=O)c1cc(O)cc(O)c1C2=O
REMARK SMILES IDX 1 1 2 2 8 3 7 4 6 5 4 6 3 7 19 8 20 9 18 10 11 11 9 12 10 13
REMARK SMILES IDX 12 14 13 15 15 16 16 17 5 18 17 20 14 22
REMARK H PARENT 5 19 17 21 14 23
REMARK Flexibility Score: inf
ROOT
ATOM      1  C   UNL     1      31.945   9.402   9.046  1.00  0.00     0.044 C 
ATOM      2  C   UNL     1      33.252   8.836   8.575  1.00  0.00    -0.047 A 
ATOM      3  C   UNL     1      33.715   7.618   9.081  1.00  0.00     0.016 A 
ATOM      4  C   UNL     1      34.924   7.066   8.627  1.00  0.00     0.038 A 
ATOM      5  C   UNL     1      35.683   7.744   7.646  1.00  0.00     0.076 A 
ATOM      6  C   UNL     1      35.167   8.936   7.076  1.00  0.00     0.127 A 
ATOM      7  C   UNL     1      33.972   9.477   7.560  1.00  0.00     0.050 A 
ATOM      8  C   UNL     1      37.023   7.207   7.299  1.00  0.00     0.201 C 
ATOM      9  O   UNL     1      37.935   7.992   6.924  1.00  0.00    -0.288 OA
ATOM     10  C   UNL     1      37.342   5.782   7.574  1.00  0.00     0.076 A 
ATOM     11  C   UNL     1      36.579   5.105   8.552  1.00  0.00     0.041 A 
ATOM     12  C   UNL     1      35.404   5.770   9.164  1.00  0.00     0.194 C 
ATOM     13  O   UNL     1      34.797   5.221  10.124  1.00  0.00    -0.289 OA
ATOM     14  C   UNL     1      36.937   3.802   8.938  1.00  0.00     0.059 A 
ATOM     15  C   UNL     1      38.030   3.163   8.353  1.00  0.00     0.120 A 
ATOM     16  C   UNL     1      38.761   3.813   7.357  1.00  0.00     0.093 A 
ATOM     17  C   UNL     1      38.414   5.102   6.940  1.00  0.00     0.131 A 
ENDROOT
BRANCH   6  18
ATOM     18  O   UNL     1      35.785   9.591   6.008  1.00  0.00    -0.507 OA
ATOM     19  H   UNL     1      35.893  10.594   5.955  1.00  0.00     0.293 HD
ENDBRANCH   6  18
BRANCH  17  20
ATOM     20  O   UNL     1      39.134   5.652   5.876  1.00  0.00    -0.507 OA
ATOM     21  H   UNL     1      38.724   6.251   5.174  1.00  0.00     0.293 HD
ENDBRANCH  17  20
BRANCH  15  22
ATOM     22  O   UNL     1      38.372   1.876   8.761  1.00  0.00    -0.508 OA
ATOM     23  H   UNL     1      38.079   1.509   9.659  1.00  0.00     0.293 HD
ENDBRANCH  15  22
TORSDOF 3
ENDMDL
MODEL 6
REMARK VINA RESULT:    -5.633      1.845      2.475
REMARK INTER + INTRA:          -6.127
REMARK INTER:                  -6.127
REMARK INTRA:                   0.000
REMARK UNBOUND:                 0.000
REMARK SMILES Cc1cc(O)c2c(c1)C(=O)c1cc(O)cc(O)c1C2=O
REMARK SMILES IDX 1 1 2 2 8 3 7 4 6 5 4 6 3 7 19 8 20 9 18 10 11 11 9 12 10 13
REMARK SMILES IDX 12 14 13 15 15 16 16 17 5 18 17 20 14 22
REMARK H PARENT 5 19 17 21 14 23
REMARK Flexibility Score: inf
ROOT
ATOM      1  C   UNL     1      34.363  10.125   8.547  1.00  0.00     0.044 C 
ATOM      2  C   UNL     1      35.265   8.938   8.377  1.00  0.00    -0.047 A 
ATOM      3  C   UNL     1      34.918   7.704   8.936  1.00  0.00     0.016 A 
ATOM      4  C   UNL     1      35.742   6.580   8.759  1.00  0.00     0.038 A 
ATOM      5  C   UNL     1      36.934   6.692   8.008  1.00  0.00     0.076 A 
ATOM      6  C   UNL     1      37.237   7.924   7.373  1.00  0.00     0.127 A 
ATOM      7  C   UNL     1      36.413   9.035   7.581  1.00  0.00     0.050 A 
ATOM      8  C   UNL     1      37.851   5.525   7.967  1.00  0.00     0.201 C 
ATOM      9  O   UNL     1      39.092   5.707   7.843  1.00  0.00    -0.288 OA
ATOM     10  C   UNL     1      37.329   4.166   8.260  1.00  0.00     0.076 A 
ATOM     11  C   UNL     1      36.135   4.056   9.009  1.00  0.00     0.041 A 
ATOM     12  C   UNL     1      35.363   5.274   9.350  1.00  0.00     0.194 C 
ATOM     13  O   UNL     1      34.368   5.195  10.122  1.00  0.00    -0.289 OA
ATOM     14  C   UNL     1      35.684   2.792   9.424  1.00  0.00     0.059 A 
ATOM     15  C   UNL     1      36.396   1.639   9.090  1.00  0.00     0.120 A 
ATOM     16  C   UNL     1      37.554   1.739   8.315  1.00  0.00     0.093 A 
ATOM     17  C   UNL     1      38.014   2.983   7.873  1.00  0.00     0.131 A 
ENDROOT
BRANCH   6  18
ATOM     18  O   UNL     1      38.319   8.079   6.503  1.00  0.00    -0.507 OA
ATOM     19  H   UNL     1      38.784   7.307   6.048  1.00  0.00     0.293 HD
ENDBRANCH   6  18
BRANCH  17  20
ATOM     20  O   UNL     1      39.125   2.997   7.027  1.00  0.00    -0.507 OA
ATOM     21  H   UNL     1      39.192   3.575   6.201  1.00  0.00     0.293 HD
ENDBRANCH  17  20
BRANCH  15  22
ATOM     22  O   UNL     1      35.935   0.397   9.523  1.00  0.00    -0.508 OA
ATOM     23  H   UNL     1      35.408   0.299  10.383  1.00  0.00     0.293 HD
ENDBRANCH  15  22
TORSDOF 3
ENDMDL
MODEL 7
REMARK VINA RESULT:    -5.613      1.607      6.173
REMARK INTER + INTRA:          -6.105
REMARK INTER:                  -6.105
REMARK INTRA:                   0.000
REMARK UNBOUND:                 0.000
REMARK SMILES Cc1cc(O)c2c(c1)C(=O)c1cc(O)cc(O)c1C2=O
REMARK SMILES IDX 1 1 2 2 8 3 7 4 6 5 4 6 3 7 19 8 20 9 18 10 11 11 9 12 10 13
REMARK SMILES IDX 12 14 13 15 15 16 16 17 5 18 17 20 14 22
REMARK H PARENT 5 19 17 21 14 23
REMARK Flexibility Score: inf
ROOT
ATOM      1  C   UNL     1      34.572   1.856  10.070  1.00  0.00     0.044 C 
ATOM      2  C   UNL     1      35.277   3.103   9.626  1.00  0.00    -0.047 A 
ATOM      3  C   UNL     1      36.498   3.019   8.949  1.00  0.00     0.016 A 
ATOM      4  C   UNL     1      37.153   4.179   8.505  1.00  0.00     0.038 A 
ATOM      5  C   UNL     1      36.575   5.448   8.741  1.00  0.00     0.076 A 
ATOM      6  C   UNL     1      35.297   5.521   9.353  1.00  0.00     0.127 A 
ATOM      7  C   UNL     1      34.675   4.354   9.805  1.00  0.00     0.050 A 
ATOM      8  C   UNL     1      37.364   6.656   8.390  1.00  0.00     0.201 C 
ATOM      9  O   UNL     1      37.210   7.718   9.049  1.00  0.00    -0.288 OA
ATOM     10  C   UNL     1      38.462   6.556   7.394  1.00  0.00     0.076 A 
ATOM     11  C   UNL     1      39.036   5.287   7.157  1.00  0.00     0.041 A 
ATOM     12  C   UNL     1      38.443   4.080   7.781  1.00  0.00     0.194 C 
ATOM     13  O   UNL     1      39.024   2.965   7.676  1.00  0.00    -0.289 OA
ATOM     14  C   UNL     1      40.164   5.173   6.328  1.00  0.00     0.059 A 
ATOM     15  C   UNL     1      40.715   6.302   5.721  1.00  0.00     0.120 A 
ATOM     16  C   UNL     1      40.127   7.553   5.919  1.00  0.00     0.093 A 
ATOM     17  C   UNL     1      38.991   7.691   6.724  1.00  0.00     0.131 A 
ENDROOT
BRANCH   6  18
ATOM     18  O   UNL     1      34.598   6.722   9.496  1.00  0.00    -0.507 OA
ATOM     19  H   UNL     1      35.046   7.621   9.596  1.00  0.00     0.293 HD
ENDBRANCH   6  18
BRANCH  17  20
ATOM     20  O   UNL     1      38.405   8.956   6.802  1.00  0.00    -0.507 OA
ATOM     21  H   UNL     1      37.540   9.200   6.341  1.00  0.00     0.293 HD
ENDBRANCH  17  20
BRANCH  15  22
ATOM     22  O   UNL     1      41.842   6.167   4.912  1.00  0.00    -0.508 OA
ATOM     23  H   UNL     1      42.772   6.364   5.262  1.00  0.00     0.293 HD
ENDBRANCH  15  22
TORSDOF 3
ENDMDL
MODEL 8
REMARK VINA RESULT:    -5.177     18.600     19.926
REMARK INTER + INTRA:          -5.631
REMARK INTER:                  -5.631
REMARK INTRA:                   0.000
REMARK UNBOUND:                 0.000
REMARK SMILES Cc1cc(O)c2c(c1)C(=O)c1cc(O)cc(O)c1C2=O
REMARK SMILES IDX 1 1 2 2 8 3 7 4 6 5 4 6 3 7 19 8 20 9 18 10 11 11 9 12 10 13
REMARK SMILES IDX 12 14 13 15 15 16 16 17 5 18 17 20 14 22
REMARK H PARENT 5 19 17 21 14 23
REMARK Flexibility Score: inf
ROOT
ATOM      1  C   UNL     1      35.000  -1.297  -9.479  1.00  0.00     0.044 C 
ATOM      2  C   UNL     1      35.050  -2.787  -9.308  1.00  0.00    -0.047 A 
ATOM      3  C   UNL     1      36.066  -3.374  -8.547  1.00  0.00     0.016 A 
ATOM      4  C   UNL     1      36.106  -4.766  -8.358  1.00  0.00     0.038 A 
ATOM      5  C   UNL     1      35.112  -5.584  -8.941  1.00  0.00     0.076 A 
ATOM      6  C   UNL     1      34.038  -4.975  -9.640  1.00  0.00     0.127 A 
ATOM      7  C   UNL     1      34.031  -3.590  -9.833  1.00  0.00     0.050 A 
ATOM      8  C   UNL     1      35.269  -7.057  -8.845  1.00  0.00     0.201 C 
ATOM      9  O   UNL     1      34.810  -7.798  -9.755  1.00  0.00    -0.288 OA
ATOM     10  C   UNL     1      36.126  -7.640  -7.780  1.00  0.00     0.076 A 
ATOM     11  C   UNL     1      37.117  -6.819  -7.197  1.00  0.00     0.041 A 
ATOM     12  C   UNL     1      37.182  -5.380  -7.544  1.00  0.00     0.194 C 
ATOM     13  O   UNL     1      38.139  -4.672  -7.126  1.00  0.00    -0.289 OA
ATOM     14  C   UNL     1      38.036  -7.370  -6.288  1.00  0.00     0.059 A 
ATOM     15  C   UNL     1      37.969  -8.720  -5.942  1.00  0.00     0.120 A 
ATOM     16  C   UNL     1      36.965  -9.526  -6.484  1.00  0.00     0.093 A 
ATOM     17  C   UNL     1      36.026  -8.998  -7.376  1.00  0.00     0.131 A 
ENDROOT
BRANCH   6  18
ATOM     18  O   UNL     1      32.946  -5.698 -10.125  1.00  0.00    -0.507 OA
ATOM     19  H   UNL     1      32.603  -6.546  -9.697  1.00  0.00     0.293 HD
ENDBRANCH   6  18
BRANCH  17  20
ATOM     20  O   UNL     1      34.998  -9.840  -7.805  1.00  0.00    -0.507 OA
ATOM     21  H   UNL     1      35.129 -10.820  -8.013  1.00  0.00     0.293 HD
ENDBRANCH  17  20
BRANCH  15  22
ATOM     22  O   UNL     1      38.898  -9.247  -5.047  1.00  0.00    -0.508 OA
ATOM     23  H   UNL     1      38.683 -10.056  -4.476  1.00  0.00     0.293 HD
ENDBRANCH  15  22
TORSDOF 3
ENDMDL
MODEL 9
REMARK VINA RESULT:    -4.924      1.830      5.306
REMARK INTER + INTRA:          -5.356
REMARK INTER:                  -5.356
REMARK INTRA:                   0.000
REMARK UNBOUND:                 0.000
REMARK SMILES Cc1cc(O)c2c(c1)C(=O)c1cc(O)cc(O)c1C2=O
REMARK SMILES IDX 1 1 2 2 8 3 7 4 6 5 4 6 3 7 19 8 20 9 18 10 11 11 9 12 10 13
REMARK SMILES IDX 12 14 13 15 15 16 16 17 5 18 17 20 14 22
REMARK H PARENT 5 19 17 21 14 23
REMARK Flexibility Score: inf
ROOT
ATOM      1  C   UNL     1      36.333   0.395  10.116  1.00  0.00     0.044 C 
ATOM      2  C   UNL     1      36.624   1.709   9.453  1.00  0.00    -0.047 A 
ATOM      3  C   UNL     1      35.827   2.825   9.723  1.00  0.00     0.016 A 
ATOM      4  C   UNL     1      36.107   4.067   9.128  1.00  0.00     0.038 A 
ATOM      5  C   UNL     1      37.205   4.193   8.248  1.00  0.00     0.076 A 
ATOM      6  C   UNL     1      38.059   3.079   8.043  1.00  0.00     0.127 A 
ATOM      7  C   UNL     1      37.747   1.848   8.630  1.00  0.00     0.050 A 
ATOM      8  C   UNL     1      37.382   5.479   7.525  1.00  0.00     0.201 C 
ATOM      9  O   UNL     1      37.915   5.488   6.384  1.00  0.00    -0.288 OA
ATOM     10  C   UNL     1      36.762   6.718   8.061  1.00  0.00     0.076 A 
ATOM     11  C   UNL     1      35.667   6.589   8.944  1.00  0.00     0.041 A 
ATOM     12  C   UNL     1      35.261   5.247   9.427  1.00  0.00     0.194 C 
ATOM     13  O   UNL     1      34.210   5.114  10.112  1.00  0.00    -0.289 OA
ATOM     14  C   UNL     1      34.968   7.733   9.364  1.00  0.00     0.059 A 
ATOM     15  C   UNL     1      35.357   9.001   8.929  1.00  0.00     0.120 A 
ATOM     16  C   UNL     1      36.464   9.137   8.089  1.00  0.00     0.093 A 
ATOM     17  C   UNL     1      37.189   8.016   7.673  1.00  0.00     0.131 A 
ENDROOT
BRANCH   6  18
ATOM     18  O   UNL     1      39.239   3.159   7.301  1.00  0.00    -0.507 OA
ATOM     19  H   UNL     1      39.270   3.104   6.292  1.00  0.00     0.293 HD
ENDBRANCH   6  18
BRANCH  17  20
ATOM     20  O   UNL     1      38.337   8.237   6.909  1.00  0.00    -0.507 OA
ATOM     21  H   UNL     1      38.527   9.101   6.423  1.00  0.00     0.293 HD
ENDBRANCH  17  20
BRANCH  15  22
ATOM     22  O   UNL     1      34.641  10.120   9.349  1.00  0.00    -0.508 OA
ATOM     23  H   UNL     1      35.105  10.923   9.758  1.00  0.00     0.293 HD
ENDBRANCH  15  22
TORSDOF 3
ENDMDL
