MODEL 1
REMARK VINA RESULT:    -3.892      0.000      0.000
REMARK INTER + INTRA:          -8.560
REMARK INTER:                  -6.850
REMARK INTRA:                  -1.711
REMARK UNBOUND:                -1.711
REMARK SMILES CCCCCCCCCCCCCCC(=O)[O-]
REMARK SMILES IDX 9 1 10 2 11 3 12 4 13 5 14 6 15 7 16 8 17 9 8 10 7 11 6 12
REMARK SMILES IDX 5 13 4 14 3 15 2 16 1 17
REMARK H PARENT
REMARK Flexibility Score: inf
ROOT
ATOM      1  C   UNL     1       2.933  -6.465  -0.365  1.00  0.00     0.000 C 
ENDROOT
BRANCH   1   2
ATOM      2  C   UNL     1       4.145  -5.597   0.019  1.00  0.00     0.000 C 
BRANCH   2   3
ATOM      3  C   UNL     1       3.918  -4.074  -0.081  1.00  0.00     0.000 C 
BRANCH   3   4
ATOM      4  C   UNL     1       4.885  -3.211   0.754  1.00  0.00     0.000 C 
BRANCH   4   5
ATOM      5  C   UNL     1       4.814  -1.697   0.472  1.00  0.00     0.006 C 
BRANCH   5   6
ATOM      6  C   UNL     1       5.954  -1.162  -0.410  1.00  0.00     0.053 C 
BRANCH   6   7
ATOM      7  C   UNL     1       5.570  -1.119  -1.857  1.00  0.00     0.041 C 
ATOM      8  O   UNL     1       5.660  -2.156  -2.567  1.00  0.00    -0.550 OA
ATOM      9  O   UNL     1       5.082   0.056  -2.414  1.00  0.00    -0.550 OA
ENDBRANCH   6   7
ENDBRANCH   5   6
ENDBRANCH   4   5
ENDBRANCH   3   4
ENDBRANCH   2   3
ENDBRANCH   1   2
BRANCH   1  10
ATOM     10  C   UNL     1       1.599  -5.881   0.133  1.00  0.00     0.000 C 
BRANCH  10  11
ATOM     11  C   UNL     1       0.900  -6.793   1.155  1.00  0.00    -0.000 C 
BRANCH  11  12
ATOM     12  C   UNL     1       0.844  -6.177   2.563  1.00  0.00    -0.000 C 
BRANCH  12  13
ATOM     13  C   UNL     1       1.477  -4.769   2.611  1.00  0.00    -0.000 C 
BRANCH  13  14
ATOM     14  C   UNL     1       2.726  -4.682   3.510  1.00  0.00    -0.000 C 
BRANCH  14  15
ATOM     15  C   UNL     1       3.462  -6.017   3.730  1.00  0.00    -0.000 C 
BRANCH  15  16
ATOM     16  C   UNL     1       3.610  -6.436   5.205  1.00  0.00    -0.003 C 
ATOM     17  C   UNL     1       2.625  -7.531   5.616  1.00  0.00     0.004 C 
ENDBRANCH  15  16
ENDBRANCH  14  15
ENDBRANCH  13  14
ENDBRANCH  12  13
ENDBRANCH  11  12
ENDBRANCH  10  11
ENDBRANCH   1  10
TORSDOF 13
ENDMDL
MODEL 2
REMARK VINA RESULT:    -3.745      1.834      3.738
REMARK INTER + INTRA:          -8.301
REMARK INTER:                  -6.157
REMARK INTRA:                  -2.144
REMARK UNBOUND:                -1.711
REMARK SMILES CCCCCCCCCCCCCCC(=O)[O-]
REMARK SMILES IDX 9 1 10 2 11 3 12 4 13 5 14 6 15 7 16 8 17 9 8 10 7 11 6 12
REMARK SMILES IDX 5 13 4 14 3 15 2 16 1 17
REMARK H PARENT
REMARK Flexibility Score: inf
ROOT
ATOM      1  C   UNL     1       6.831  -3.211   1.414  1.00  0.00     0.000 C 
ENDROOT
BRANCH   1   2
ATOM      2  C   UNL     1       6.554  -1.741   1.050  1.00  0.00     0.000 C 
BRANCH   2   3
ATOM      3  C   UNL     1       5.233  -1.492   0.293  1.00  0.00     0.000 C 
BRANCH   3   4
ATOM      4  C   UNL     1       5.381  -0.777  -1.066  1.00  0.00     0.000 C 
BRANCH   4   5
ATOM      5  C   UNL     1       6.297  -1.491  -2.080  1.00  0.00     0.006 C 
BRANCH   5   6
ATOM      6  C   UNL     1       5.876  -2.932  -2.411  1.00  0.00     0.053 C 
BRANCH   6   7
ATOM      7  C   UNL     1       7.029  -3.885  -2.335  1.00  0.00     0.041 C 
ATOM      8  O   UNL     1       8.137  -3.502  -1.875  1.00  0.00    -0.550 OA
ATOM      9  O   UNL     1       6.870  -5.204  -2.740  1.00  0.00    -0.550 OA
ENDBRANCH   6   7
ENDBRANCH   5   6
ENDBRANCH   4   5
ENDBRANCH   3   4
ENDBRANCH   2   3
ENDBRANCH   1   2
BRANCH   1  10
ATOM     10  C   UNL     1       5.545  -4.049   1.533  1.00  0.00     0.000 C 
BRANCH  10  11
ATOM     11  C   UNL     1       5.590  -5.323   0.674  1.00  0.00    -0.000 C 
BRANCH  11  12
ATOM     12  C   UNL     1       4.246  -5.626  -0.012  1.00  0.00    -0.000 C 
BRANCH  12  13
ATOM     13  C   UNL     1       3.273  -4.429   0.054  1.00  0.00    -0.000 C 
BRANCH  13  14
ATOM     14  C   UNL     1       1.915  -4.771   0.699  1.00  0.00    -0.000 C 
BRANCH  14  15
ATOM     15  C   UNL     1       1.830  -4.506   2.214  1.00  0.00    -0.000 C 
BRANCH  15  16
ATOM     16  C   UNL     1       2.003  -5.756   3.097  1.00  0.00    -0.003 C 
ATOM     17  C   UNL     1       3.295  -5.736   3.913  1.00  0.00     0.004 C 
ENDBRANCH  15  16
ENDBRANCH  14  15
ENDBRANCH  13  14
ENDBRANCH  12  13
ENDBRANCH  11  12
ENDBRANCH  10  11
ENDBRANCH   1  10
TORSDOF 13
ENDMDL
MODEL 3
REMARK VINA RESULT:    -3.715      1.587      3.317
REMARK INTER + INTRA:          -8.249
REMARK INTER:                  -6.382
REMARK INTRA:                  -1.867
REMARK UNBOUND:                -1.711
REMARK SMILES CCCCCCCCCCCCCCC(=O)[O-]
REMARK SMILES IDX 9 1 10 2 11 3 12 4 13 5 14 6 15 7 16 8 17 9 8 10 7 11 6 12
REMARK SMILES IDX 5 13 4 14 3 15 2 16 1 17
REMARK H PARENT
REMARK Flexibility Score: inf
ROOT
ATOM      1  C   UNL     1       5.207  -5.100   0.169  1.00  0.00     0.000 C 
ENDROOT
BRANCH   1   2
ATOM      2  C   UNL     1       4.607  -3.757  -0.284  1.00  0.00     0.000 C 
BRANCH   2   3
ATOM      3  C   UNL     1       4.711  -2.612   0.744  1.00  0.00     0.000 C 
BRANCH   3   4
ATOM      4  C   UNL     1       5.161  -1.254   0.169  1.00  0.00     0.000 C 
BRANCH   4   5
ATOM      5  C   UNL     1       5.280  -1.205  -1.367  1.00  0.00     0.006 C 
BRANCH   5   6
ATOM      6  C   UNL     1       6.068   0.001  -1.904  1.00  0.00     0.053 C 
BRANCH   6   7
ATOM      7  C   UNL     1       7.505  -0.035  -1.482  1.00  0.00     0.041 C 
ATOM      8  O   UNL     1       7.934   0.783  -0.626  1.00  0.00    -0.550 OA
ATOM      9  O   UNL     1       8.362  -0.993  -2.009  1.00  0.00    -0.550 OA
ENDBRANCH   6   7
ENDBRANCH   5   6
ENDBRANCH   4   5
ENDBRANCH   3   4
ENDBRANCH   2   3
ENDBRANCH   1   2
BRANCH   1  10
ATOM     10  C   UNL     1       5.309  -5.221   1.700  1.00  0.00     0.000 C 
BRANCH  10  11
ATOM     11  C   UNL     1       4.763  -6.559   2.224  1.00  0.00    -0.000 C 
BRANCH  11  12
ATOM     12  C   UNL     1       3.533  -6.386   3.132  1.00  0.00    -0.000 C 
BRANCH  12  13
ATOM     13  C   UNL     1       3.123  -4.905   3.285  1.00  0.00    -0.000 C 
BRANCH  13  14
ATOM     14  C   UNL     1       1.788  -4.559   2.597  1.00  0.00    -0.000 C 
BRANCH  14  15
ATOM     15  C   UNL     1       1.235  -5.652   1.664  1.00  0.00    -0.000 C 
BRANCH  15  16
ATOM     16  C   UNL     1       1.428  -5.374   0.161  1.00  0.00    -0.003 C 
ATOM     17  C   UNL     1       1.893  -6.605  -0.618  1.00  0.00     0.004 C 
ENDBRANCH  15  16
ENDBRANCH  14  15
ENDBRANCH  13  14
ENDBRANCH  12  13
ENDBRANCH  11  12
ENDBRANCH  10  11
ENDBRANCH   1  10
TORSDOF 13
ENDMDL
MODEL 4
REMARK VINA RESULT:    -3.705      1.212      3.055
REMARK INTER + INTRA:          -8.231
REMARK INTER:                  -6.215
REMARK INTRA:                  -2.016
REMARK UNBOUND:                -1.711
REMARK SMILES CCCCCCCCCCCCCCC(=O)[O-]
REMARK SMILES IDX 9 1 10 2 11 3 12 4 13 5 14 6 15 7 16 8 17 9 8 10 7 11 6 12
REMARK SMILES IDX 5 13 4 14 3 15 2 16 1 17
REMARK H PARENT
REMARK Flexibility Score: inf
ROOT
ATOM      1  C   UNL     1       5.455  -5.027   2.571  1.00  0.00     0.000 C 
ENDROOT
BRANCH   1   2
ATOM      2  C   UNL     1       5.948  -5.328   1.144  1.00  0.00     0.000 C 
BRANCH   2   3
ATOM      3  C   UNL     1       5.776  -4.175   0.135  1.00  0.00     0.000 C 
BRANCH   3   4
ATOM      4  C   UNL     1       4.774  -3.081   0.553  1.00  0.00     0.000 C 
BRANCH   4   5
ATOM      5  C   UNL     1       5.090  -1.670   0.018  1.00  0.00     0.006 C 
BRANCH   5   6
ATOM      6  C   UNL     1       5.909  -1.654  -1.283  1.00  0.00     0.053 C 
BRANCH   6   7
ATOM      7  C   UNL     1       5.893  -0.307  -1.939  1.00  0.00     0.041 C 
ATOM      8  O   UNL     1       4.948   0.012  -2.708  1.00  0.00    -0.550 OA
ATOM      9  O   UNL     1       6.903   0.609  -1.675  1.00  0.00    -0.550 OA
ENDBRANCH   6   7
ENDBRANCH   5   6
ENDBRANCH   4   5
ENDBRANCH   3   4
ENDBRANCH   2   3
ENDBRANCH   1   2
BRANCH   1  10
ATOM     10  C   UNL     1       4.784  -6.240   3.240  1.00  0.00     0.000 C 
BRANCH  10  11
ATOM     11  C   UNL     1       3.368  -5.926   3.747  1.00  0.00    -0.000 C 
BRANCH  11  12
ATOM     12  C   UNL     1       2.806  -4.614   3.172  1.00  0.00    -0.000 C 
BRANCH  12  13
ATOM     13  C   UNL     1       1.346  -4.764   2.691  1.00  0.00    -0.000 C 
BRANCH  13  14
ATOM     14  C   UNL     1       1.169  -5.798   1.562  1.00  0.00    -0.000 C 
BRANCH  14  15
ATOM     15  C   UNL     1       1.772  -5.388   0.205  1.00  0.00    -0.000 C 
BRANCH  15  16
ATOM     16  C   UNL     1       2.817  -6.368  -0.358  1.00  0.00    -0.003 C 
ATOM     17  C   UNL     1       2.887  -7.680   0.423  1.00  0.00     0.004 C 
ENDBRANCH  15  16
ENDBRANCH  14  15
ENDBRANCH  13  14
ENDBRANCH  12  13
ENDBRANCH  11  12
ENDBRANCH  10  11
ENDBRANCH   1  10
TORSDOF 13
ENDMDL
MODEL 5
REMARK VINA RESULT:    -3.676      1.216      1.990
REMARK INTER + INTRA:          -8.181
REMARK INTER:                  -6.341
REMARK INTRA:                  -1.840
REMARK UNBOUND:                -1.711
REMARK SMILES CCCCCCCCCCCCCCC(=O)[O-]
REMARK SMILES IDX 9 1 10 2 11 3 12 4 13 5 14 6 15 7 16 8 17 9 8 10 7 11 6 12
REMARK SMILES IDX 5 13 4 14 3 15 2 16 1 17
REMARK H PARENT
REMARK Flexibility Score: inf
ROOT
ATOM      1  C   UNL     1       4.214  -5.591  -0.357  1.00  0.00     0.000 C 
ENDROOT
BRANCH   1   2
ATOM      2  C   UNL     1       3.673  -4.173  -0.100  1.00  0.00     0.000 C 
BRANCH   2   3
ATOM      3  C   UNL     1       4.713  -3.159   0.417  1.00  0.00     0.000 C 
BRANCH   3   4
ATOM      4  C   UNL     1       6.064  -3.168  -0.326  1.00  0.00     0.000 C 
BRANCH   4   5
ATOM      5  C   UNL     1       6.036  -2.544  -1.736  1.00  0.00     0.006 C 
BRANCH   5   6
ATOM      6  C   UNL     1       5.206  -1.254  -1.842  1.00  0.00     0.053 C 
BRANCH   6   7
ATOM      7  C   UNL     1       6.069  -0.030  -1.833  1.00  0.00     0.041 C 
ATOM      8  O   UNL     1       5.753   0.973  -2.527  1.00  0.00    -0.550 OA
ATOM      9  O   UNL     1       7.202   0.018  -1.031  1.00  0.00    -0.550 OA
ENDBRANCH   6   7
ENDBRANCH   5   6
ENDBRANCH   4   5
ENDBRANCH   3   4
ENDBRANCH   2   3
ENDBRANCH   1   2
BRANCH   1  10
ATOM     10  C   UNL     1       3.157  -6.685  -0.125  1.00  0.00     0.000 C 
BRANCH  10  11
ATOM     11  C   UNL     1       1.753  -6.107   0.115  1.00  0.00    -0.000 C 
BRANCH  11  12
ATOM     12  C   UNL     1       0.937  -6.926   1.131  1.00  0.00    -0.000 C 
BRANCH  12  13
ATOM     13  C   UNL     1       0.906  -6.264   2.526  1.00  0.00    -0.000 C 
BRANCH  13  14
ATOM     14  C   UNL     1       1.408  -4.807   2.530  1.00  0.00    -0.000 C 
BRANCH  14  15
ATOM     15  C   UNL     1       2.643  -4.548   3.414  1.00  0.00    -0.000 C 
BRANCH  15  16
ATOM     16  C   UNL     1       3.379  -5.818   3.881  1.00  0.00    -0.003 C 
ATOM     17  C   UNL     1       4.753  -5.983   3.232  1.00  0.00     0.004 C 
ENDBRANCH  15  16
ENDBRANCH  14  15
ENDBRANCH  13  14
ENDBRANCH  12  13
ENDBRANCH  11  12
ENDBRANCH  10  11
ENDBRANCH   1  10
TORSDOF 13
ENDMDL
MODEL 6
REMARK VINA RESULT:    -3.665      1.084      1.925
REMARK INTER + INTRA:          -8.161
REMARK INTER:                  -6.732
REMARK INTRA:                  -1.429
REMARK UNBOUND:                -1.711
REMARK SMILES CCCCCCCCCCCCCCC(=O)[O-]
REMARK SMILES IDX 9 1 10 2 11 3 12 4 13 5 14 6 15 7 16 8 17 9 8 10 7 11 6 12
REMARK SMILES IDX 5 13 4 14 3 15 2 16 1 17
REMARK H PARENT
REMARK Flexibility Score: inf
ROOT
ATOM      1  C   UNL     1       2.504  -3.965   1.877  1.00  0.00     0.000 C 
ENDROOT
BRANCH   1   2
ATOM      2  C   UNL     1       3.051  -4.722   0.654  1.00  0.00     0.000 C 
BRANCH   2   3
ATOM      3  C   UNL     1       4.222  -4.032  -0.075  1.00  0.00     0.000 C 
BRANCH   3   4
ATOM      4  C   UNL     1       5.063  -3.076   0.794  1.00  0.00     0.000 C 
BRANCH   4   5
ATOM      5  C   UNL     1       4.929  -1.582   0.437  1.00  0.00     0.006 C 
BRANCH   5   6
ATOM      6  C   UNL     1       6.023  -1.054  -0.505  1.00  0.00     0.053 C 
BRANCH   6   7
ATOM      7  C   UNL     1       5.611  -1.130  -1.943  1.00  0.00     0.041 C 
ATOM      8  O   UNL     1       5.760  -2.201  -2.589  1.00  0.00    -0.550 OA
ATOM      9  O   UNL     1       5.029  -0.029  -2.560  1.00  0.00    -0.550 OA
ENDBRANCH   6   7
ENDBRANCH   5   6
ENDBRANCH   4   5
ENDBRANCH   3   4
ENDBRANCH   2   3
ENDBRANCH   1   2
BRANCH   1  10
ATOM     10  C   UNL     1       1.366  -4.719   2.586  1.00  0.00     0.000 C 
BRANCH  10  11
ATOM     11  C   UNL     1       1.391  -6.229   2.301  1.00  0.00    -0.000 C 
BRANCH  11  12
ATOM     12  C   UNL     1       0.539  -7.038   3.296  1.00  0.00    -0.000 C 
BRANCH  12  13
ATOM     13  C   UNL     1       1.403  -7.758   4.354  1.00  0.00    -0.000 C 
BRANCH  13  14
ATOM     14  C   UNL     1       2.907  -7.440   4.246  1.00  0.00    -0.000 C 
BRANCH  14  15
ATOM     15  C   UNL     1       3.434  -6.432   5.286  1.00  0.00    -0.000 C 
BRANCH  15  16
ATOM     16  C   UNL     1       4.773  -5.766   4.917  1.00  0.00    -0.003 C 
ATOM     17  C   UNL     1       5.132  -5.927   3.440  1.00  0.00     0.004 C 
ENDBRANCH  15  16
ENDBRANCH  14  15
ENDBRANCH  13  14
ENDBRANCH  12  13
ENDBRANCH  11  12
ENDBRANCH  10  11
ENDBRANCH   1  10
TORSDOF 13
ENDMDL
MODEL 7
REMARK VINA RESULT:    -3.656      1.386      3.347
REMARK INTER + INTRA:          -8.145
REMARK INTER:                  -6.685
REMARK INTRA:                  -1.460
REMARK UNBOUND:                -1.711
REMARK SMILES CCCCCCCCCCCCCCC(=O)[O-]
REMARK SMILES IDX 9 1 10 2 11 3 12 4 13 5 14 6 15 7 16 8 17 9 8 10 7 11 6 12
REMARK SMILES IDX 5 13 4 14 3 15 2 16 1 17
REMARK H PARENT
REMARK Flexibility Score: inf
ROOT
ATOM      1  C   UNL     1       5.366  -5.906   3.934  1.00  0.00     0.000 C 
ENDROOT
BRANCH   1   2
ATOM      2  C   UNL     1       5.432  -5.246   2.546  1.00  0.00     0.000 C 
BRANCH   2   3
ATOM      3  C   UNL     1       6.773  -4.562   2.209  1.00  0.00     0.000 C 
BRANCH   3   4
ATOM      4  C   UNL     1       6.654  -3.194   1.506  1.00  0.00     0.000 C 
BRANCH   4   5
ATOM      5  C   UNL     1       5.306  -2.941   0.800  1.00  0.00     0.006 C 
BRANCH   5   6
ATOM      6  C   UNL     1       5.128  -1.510   0.267  1.00  0.00     0.053 C 
BRANCH   6   7
ATOM      7  C   UNL     1       5.322  -1.437  -1.217  1.00  0.00     0.041 C 
ATOM      8  O   UNL     1       5.678  -2.459  -1.861  1.00  0.00    -0.550 OA
ATOM      9  O   UNL     1       5.076  -0.249  -1.893  1.00  0.00    -0.550 OA
ENDBRANCH   6   7
ENDBRANCH   5   6
ENDBRANCH   4   5
ENDBRANCH   3   4
ENDBRANCH   2   3
ENDBRANCH   1   2
BRANCH   1  10
ATOM     10  C   UNL     1       4.099  -5.520   4.719  1.00  0.00     0.000 C 
BRANCH  10  11
ATOM     11  C   UNL     1       3.329  -6.746   5.236  1.00  0.00    -0.000 C 
BRANCH  11  12
ATOM     12  C   UNL     1       2.755  -7.612   4.101  1.00  0.00    -0.000 C 
BRANCH  12  13
ATOM     13  C   UNL     1       1.269  -7.299   3.821  1.00  0.00    -0.000 C 
BRANCH  13  14
ATOM     14  C   UNL     1       1.039  -6.481   2.535  1.00  0.00    -0.000 C 
BRANCH  14  15
ATOM     15  C   UNL     1       1.136  -4.954   2.710  1.00  0.00    -0.000 C 
BRANCH  15  16
ATOM     16  C   UNL     1       2.109  -4.255   1.741  1.00  0.00    -0.003 C 
ATOM     17  C   UNL     1       2.021  -4.796   0.315  1.00  0.00     0.004 C 
ENDBRANCH  15  16
ENDBRANCH  14  15
ENDBRANCH  13  14
ENDBRANCH  12  13
ENDBRANCH  11  12
ENDBRANCH  10  11
ENDBRANCH   1  10
TORSDOF 13
ENDMDL
MODEL 8
REMARK VINA RESULT:    -3.625      3.253      6.673
REMARK INTER + INTRA:          -8.090
REMARK INTER:                  -5.926
REMARK INTRA:                  -2.164
REMARK UNBOUND:                -1.711
REMARK SMILES CCCCCCCCCCCCCCC(=O)[O-]
REMARK SMILES IDX 9 1 10 2 11 3 12 4 13 5 14 6 15 7 16 8 17 9 8 10 7 11 6 12
REMARK SMILES IDX 5 13 4 14 3 15 2 16 1 17
REMARK H PARENT
REMARK Flexibility Score: inf
ROOT
ATOM      1  C   UNL     1       5.460  -3.750   1.496  1.00  0.00     0.000 C 
ENDROOT
BRANCH   1   2
ATOM      2  C   UNL     1       5.573  -5.069   0.712  1.00  0.00     0.000 C 
BRANCH   2   3
ATOM      3  C   UNL     1       4.362  -5.406  -0.182  1.00  0.00     0.000 C 
BRANCH   3   4
ATOM      4  C   UNL     1       3.213  -4.379  -0.143  1.00  0.00     0.000 C 
BRANCH   4   5
ATOM      5  C   UNL     1       1.936  -4.858   0.575  1.00  0.00     0.006 C 
BRANCH   5   6
ATOM      6  C   UNL     1       1.879  -4.508   2.071  1.00  0.00     0.053 C 
BRANCH   6   7
ATOM      7  C   UNL     1       2.060  -5.716   2.938  1.00  0.00     0.041 C 
ATOM      8  O   UNL     1       1.060  -6.390   3.300  1.00  0.00    -0.550 OA
ATOM      9  O   UNL     1       3.335  -6.117   3.316  1.00  0.00    -0.550 OA
ENDBRANCH   6   7
ENDBRANCH   5   6
ENDBRANCH   4   5
ENDBRANCH   3   4
ENDBRANCH   2   3
ENDBRANCH   1   2
BRANCH   1  10
ATOM     10  C   UNL     1       6.754  -2.917   1.452  1.00  0.00     0.000 C 
BRANCH  10  11
ATOM     11  C   UNL     1       6.499  -1.449   1.072  1.00  0.00    -0.000 C 
BRANCH  11  12
ATOM     12  C   UNL     1       5.228  -1.265   0.224  1.00  0.00    -0.000 C 
BRANCH  12  13
ATOM     13  C   UNL     1       5.550  -0.845  -1.227  1.00  0.00    -0.000 C 
BRANCH  13  14
ATOM     14  C   UNL     1       5.508  -2.012  -2.233  1.00  0.00    -0.000 C 
BRANCH  14  15
ATOM     15  C   UNL     1       6.737  -2.940  -2.203  1.00  0.00    -0.000 C 
BRANCH  15  16
ATOM     16  C   UNL     1       6.630  -4.180  -3.110  1.00  0.00    -0.003 C 
ATOM     17  C   UNL     1       7.412  -5.380  -2.575  1.00  0.00     0.004 C 
ENDBRANCH  15  16
ENDBRANCH  14  15
ENDBRANCH  13  14
ENDBRANCH  12  13
ENDBRANCH  11  12
ENDBRANCH  10  11
ENDBRANCH   1  10
TORSDOF 13
ENDMDL
MODEL 9
REMARK VINA RESULT:    -3.579      3.398      6.916
REMARK INTER + INTRA:          -8.009
REMARK INTER:                  -6.256
REMARK INTRA:                  -1.754
REMARK UNBOUND:                -1.711
REMARK SMILES CCCCCCCCCCCCCCC(=O)[O-]
REMARK SMILES IDX 9 1 10 2 11 3 12 4 13 5 14 6 15 7 16 8 17 9 8 10 7 11 6 12
REMARK SMILES IDX 5 13 4 14 3 15 2 16 1 17
REMARK H PARENT
REMARK Flexibility Score: inf
ROOT
ATOM      1  C   UNL     1       5.814  -4.863   1.146  1.00  0.00     0.000 C 
ENDROOT
BRANCH   1   2
ATOM      2  C   UNL     1       4.635  -5.382   0.304  1.00  0.00     0.000 C 
BRANCH   2   3
ATOM      3  C   UNL     1       3.326  -4.579   0.445  1.00  0.00     0.000 C 
BRANCH   3   4
ATOM      4  C   UNL     1       3.162  -3.820   1.777  1.00  0.00     0.000 C 
BRANCH   4   5
ATOM      5  C   UNL     1       2.503  -4.631   2.911  1.00  0.00     0.006 C 
BRANCH   5   6
ATOM      6  C   UNL     1       1.072  -5.101   2.606  1.00  0.00     0.053 C 
BRANCH   6   7
ATOM      7  C   UNL     1       0.966  -6.595   2.574  1.00  0.00     0.041 C 
ATOM      8  O   UNL     1       1.995  -7.298   2.393  1.00  0.00    -0.550 OA
ATOM      9  O   UNL     1      -0.262  -7.211   2.779  1.00  0.00    -0.550 OA
ENDBRANCH   6   7
ENDBRANCH   5   6
ENDBRANCH   4   5
ENDBRANCH   3   4
ENDBRANCH   2   3
ENDBRANCH   1   2
BRANCH   1  10
ATOM     10  C   UNL     1       7.112  -4.719   0.331  1.00  0.00     0.000 C 
BRANCH  10  11
ATOM     11  C   UNL     1       7.876  -3.427   0.659  1.00  0.00    -0.000 C 
BRANCH  11  12
ATOM     12  C   UNL     1       7.122  -2.524   1.652  1.00  0.00    -0.000 C 
BRANCH  12  13
ATOM     13  C   UNL     1       6.615  -1.224   0.990  1.00  0.00    -0.000 C 
BRANCH  13  14
ATOM     14  C   UNL     1       5.192  -1.340   0.408  1.00  0.00    -0.000 C 
BRANCH  14  15
ATOM     15  C   UNL     1       5.130  -1.713  -1.085  1.00  0.00    -0.000 C 
BRANCH  15  16
ATOM     16  C   UNL     1       6.167  -1.000  -1.972  1.00  0.00    -0.003 C 
ATOM     17  C   UNL     1       5.766   0.432  -2.325  1.00  0.00     0.004 C 
ENDBRANCH  15  16
ENDBRANCH  14  15
ENDBRANCH  13  14
ENDBRANCH  12  13
ENDBRANCH  11  12
ENDBRANCH  10  11
ENDBRANCH   1  10
TORSDOF 13
ENDMDL
