MODEL 1
REMARK VINA RESULT:    -3.531      0.000      0.000
REMARK INTER + INTRA:          -4.920
REMARK INTER:                  -4.976
REMARK INTRA:                   0.056
REMARK UNBOUND:                 0.056
REMARK SMILES CC1=CCC(=C(C)C)C(=O)CC(C)=CCC1
REMARK SMILES IDX 12 1 14 2 13 3 15 4 16 5 2 6 1 7 3 8 11 10 9 11 10 12 5 13
REMARK SMILES IDX 6 14 7 15 8 16 4 17
REMARK H PARENT
REMARK Flexibility Score: 60.00
ROOT
ATOM      1  C   UNL     1     -19.540  -3.888  22.033  1.00  0.00    -0.070 C 
ATOM      2  C   UNL     1     -20.324  -3.555  20.978  1.00  0.00    -0.027 C 
ATOM      3  C   UNL     1     -19.673  -5.280  22.597  1.00  0.00     0.039 C 
ENDROOT
BRANCH   2   4
ATOM      4  C   UNL     1     -20.310  -2.221  20.275  1.00  0.00     0.032 C 
BRANCH   4   5
ATOM      5  C   UNL     1     -21.348  -1.262  20.883  1.00  0.00     0.034 C 
BRANCH   5   6
ATOM      6  C   UNL     1     -20.880   0.179  20.929  1.00  0.00    -0.077 C 
ATOM      7  C   UNL     1     -20.897   0.985  19.654  1.00  0.00     0.039 C 
ATOM      8  C   UNL     1     -20.366   0.769  22.037  1.00  0.00    -0.023 CG0
ATOM      9  G   UNL     1     -20.340   0.201  23.441  1.00  0.00     0.000 G0
ENDBRANCH   5   6
ENDBRANCH   4   5
ENDBRANCH   2   4
BRANCH   1  10
ATOM     10  C   UNL     1     -18.549  -2.926  22.675  1.00  0.00     0.111 C 
BRANCH  10  11
ATOM     11  C   UNL     1     -19.200  -2.103  23.762  1.00  0.00     0.163 C 
ATOM     12  O   UNL     1     -19.827  -2.739  24.652  1.00  0.00    -0.294 OA
BRANCH  11  13
ATOM     13  C   UNL     1     -19.123  -0.599  23.841  1.00  0.00    -0.002 C 
ATOM     14  C   UNL     1     -17.974   0.033  24.239  1.00  0.00    -0.069 C 
ATOM     15  C   UNL     1     -16.769  -0.732  24.740  1.00  0.00     0.039 C 
ATOM     16  C   UNL     1     -17.863   1.543  24.251  1.00  0.00     0.039 C 
BRANCH  13  17
ATOM     17  C   UNL     1     -20.349   0.228  23.460  1.00  0.00     0.066 CG0
ATOM     18  G   UNL     1     -20.333   0.756  22.041  1.00  0.00     0.000 G0
ENDBRANCH  13  17
ENDBRANCH  11  13
ENDBRANCH  10  11
ENDBRANCH   1  10
TORSDOF 0
ENDMDL
MODEL 2
REMARK VINA RESULT:    -3.443      6.791      9.930
REMARK INTER + INTRA:          -4.797
REMARK INTER:                  -4.867
REMARK INTRA:                   0.070
REMARK UNBOUND:                 0.056
REMARK SMILES CC1=CCC(=C(C)C)C(=O)CC(C)=CCC1
REMARK SMILES IDX 12 1 14 2 13 3 15 4 16 5 2 6 1 7 3 8 11 10 9 11 10 12 5 13
REMARK SMILES IDX 6 14 7 15 8 16 4 17
REMARK H PARENT
REMARK Flexibility Score: 60.00
ROOT
ATOM      1  C   UNL     1     -16.947   7.226  27.337  1.00  0.00    -0.070 C 
ATOM      2  C   UNL     1     -16.155   7.767  26.379  1.00  0.00    -0.027 C 
ATOM      3  C   UNL     1     -18.428   7.149  27.065  1.00  0.00     0.039 C 
ENDROOT
BRANCH   2   4
ATOM      4  C   UNL     1     -14.656   7.904  26.468  1.00  0.00     0.032 C 
BRANCH   4   5
ATOM      5  C   UNL     1     -13.952   6.928  25.510  1.00  0.00     0.034 C 
BRANCH   5   6
ATOM      6  C   UNL     1     -13.326   5.740  26.215  1.00  0.00    -0.077 C 
ATOM      7  C   UNL     1     -11.877   5.826  26.627  1.00  0.00     0.039 C 
ATOM      8  C   UNL     1     -13.970   4.566  26.429  1.00  0.00    -0.023 CG0
ATOM      9  G   UNL     1     -15.439   4.280  26.199  1.00  0.00     0.000 G0
ENDBRANCH   5   6
ENDBRANCH   4   5
ENDBRANCH   2   4
BRANCH   1  10
ATOM     10  C   UNL     1     -16.415   6.705  28.665  1.00  0.00     0.111 C 
BRANCH  10  11
ATOM     11  C   UNL     1     -15.926   5.281  28.547  1.00  0.00     0.163 C 
ATOM     12  O   UNL     1     -15.149   4.874  29.453  1.00  0.00    -0.294 OA
BRANCH  11  13
ATOM     13  C   UNL     1     -16.325   4.341  27.437  1.00  0.00    -0.002 C 
ATOM     14  C   UNL     1     -17.461   3.580  27.526  1.00  0.00    -0.069 C 
ATOM     15  C   UNL     1     -18.306   3.541  28.780  1.00  0.00     0.039 C 
ATOM     16  C   UNL     1     -17.910   2.689  26.386  1.00  0.00     0.039 C 
BRANCH  13  17
ATOM     17  C   UNL     1     -15.446   4.248  26.192  1.00  0.00     0.066 CG0
ATOM     18  G   UNL     1     -13.980   4.540  26.435  1.00  0.00     0.000 G0
ENDBRANCH  13  17
ENDBRANCH  11  13
ENDBRANCH  10  11
ENDBRANCH   1  10
TORSDOF 0
ENDMDL
MODEL 3
REMARK VINA RESULT:    -3.297      8.438     10.375
REMARK INTER + INTRA:          -4.591
REMARK INTER:                  -4.766
REMARK INTRA:                   0.175
REMARK UNBOUND:                 0.056
REMARK SMILES CC1=CCC(=C(C)C)C(=O)CC(C)=CCC1
REMARK SMILES IDX 12 1 14 2 13 3 15 4 16 5 2 6 1 7 3 8 11 10 9 11 10 12 5 13
REMARK SMILES IDX 6 14 7 15 8 16 4 17
REMARK H PARENT
REMARK Flexibility Score: 60.00
ROOT
ATOM      1  C   UNL     1     -18.952  -0.772  31.991  1.00  0.00    -0.070 C 
ATOM      2  C   UNL     1     -20.103  -0.068  32.118  1.00  0.00    -0.027 C 
ATOM      3  C   UNL     1     -18.778  -1.620  30.757  1.00  0.00     0.039 C 
ENDROOT
BRANCH   2   4
ATOM      4  C   UNL     1     -20.439   0.846  33.269  1.00  0.00     0.032 C 
BRANCH   4   5
ATOM      5  C   UNL     1     -20.160   2.316  32.911  1.00  0.00     0.034 C 
BRANCH   5   6
ATOM      6  C   UNL     1     -18.840   2.827  33.454  1.00  0.00    -0.077 C 
ATOM      7  C   UNL     1     -18.809   3.409  34.846  1.00  0.00     0.039 C 
ATOM      8  C   UNL     1     -17.694   2.869  32.731  1.00  0.00    -0.023 CG0
ATOM      9  G   UNL     1     -17.457   2.258  31.366  1.00  0.00     0.000 G0
ENDBRANCH   5   6
ENDBRANCH   4   5
ENDBRANCH   2   4
BRANCH   1  10
ATOM     10  C   UNL     1     -17.842  -0.754  33.033  1.00  0.00     0.111 C 
BRANCH  10  11
ATOM     11  C   UNL     1     -16.677   0.099  32.588  1.00  0.00     0.163 C 
ATOM     12  O   UNL     1     -15.648   0.073  33.317  1.00  0.00    -0.294 OA
BRANCH  11  13
ATOM     13  C   UNL     1     -16.679   0.945  31.340  1.00  0.00    -0.002 C 
ATOM     14  C   UNL     1     -16.018   0.542  30.209  1.00  0.00    -0.069 C 
ATOM     15  C   UNL     1     -15.151  -0.698  30.184  1.00  0.00     0.039 C 
ATOM     16  C   UNL     1     -16.076   1.347  28.928  1.00  0.00     0.039 C 
BRANCH  13  17
ATOM     17  C   UNL     1     -17.442   2.268  31.341  1.00  0.00     0.066 CG0
ATOM     18  G   UNL     1     -17.692   2.847  32.717  1.00  0.00     0.000 G0
ENDBRANCH  13  17
ENDBRANCH  11  13
ENDBRANCH  10  11
ENDBRANCH   1  10
TORSDOF 0
ENDMDL
MODEL 4
REMARK VINA RESULT:    -3.280      6.149      8.501
REMARK INTER + INTRA:          -4.566
REMARK INTER:                  -4.654
REMARK INTRA:                   0.088
REMARK UNBOUND:                 0.056
REMARK SMILES CC1=CCC(=C(C)C)C(=O)CC(C)=CCC1
REMARK SMILES IDX 12 1 14 2 13 3 15 4 16 5 2 6 1 7 3 8 11 10 9 11 10 12 5 13
REMARK SMILES IDX 6 14 7 15 8 16 4 17
REMARK H PARENT
REMARK Flexibility Score: 60.00
ROOT
ATOM      1  C   UNL     1     -17.270   0.004  32.459  1.00  0.00    -0.070 C 
ATOM      2  C   UNL     1     -18.369  -0.644  32.916  1.00  0.00    -0.027 C 
ATOM      3  C   UNL     1     -15.991  -0.139  33.245  1.00  0.00     0.039 C 
ENDROOT
BRANCH   2   4
ATOM      4  C   UNL     1     -19.721  -0.633  32.249  1.00  0.00     0.032 C 
BRANCH   4   5
ATOM      5  C   UNL     1     -19.806  -1.704  31.148  1.00  0.00     0.034 C 
BRANCH   5   6
ATOM      6  C   UNL     1     -20.390  -1.184  29.849  1.00  0.00    -0.077 C 
ATOM      7  C   UNL     1     -21.857  -0.830  29.807  1.00  0.00     0.039 C 
ATOM      8  C   UNL     1     -19.690  -1.094  28.691  1.00  0.00    -0.023 CG0
ATOM      9  G   UNL     1     -18.199  -1.293  28.512  1.00  0.00     0.000 G0
ENDBRANCH   5   6
ENDBRANCH   4   5
ENDBRANCH   2   4
BRANCH   1  10
ATOM     10  C   UNL     1     -17.270   0.870  31.207  1.00  0.00     0.111 C 
BRANCH  10  11
ATOM     11  C   UNL     1     -16.641   0.152  30.036  1.00  0.00     0.163 C 
ATOM     12  O   UNL     1     -15.480  -0.308  30.214  1.00  0.00    -0.294 OA
BRANCH  11  13
ATOM     13  C   UNL     1     -17.321  -0.050  28.706  1.00  0.00    -0.002 C 
ATOM     14  C   UNL     1     -17.172   0.855  27.687  1.00  0.00    -0.069 C 
ATOM     15  C   UNL     1     -16.429   2.160  27.875  1.00  0.00     0.039 C 
ATOM     16  C   UNL     1     -17.790   0.624  26.324  1.00  0.00     0.039 C 
BRANCH  13  17
ATOM     17  C   UNL     1     -18.183  -1.293  28.494  1.00  0.00     0.066 CG0
ATOM     18  G   UNL     1     -19.667  -1.069  28.695  1.00  0.00     0.000 G0
ENDBRANCH  13  17
ENDBRANCH  11  13
ENDBRANCH  10  11
ENDBRANCH   1  10
TORSDOF 0
ENDMDL
MODEL 5
REMARK VINA RESULT:    -3.210      8.851     10.480
REMARK INTER + INTRA:          -4.469
REMARK INTER:                  -4.815
REMARK INTRA:                   0.346
REMARK UNBOUND:                 0.056
REMARK SMILES CC1=CCC(=C(C)C)C(=O)CC(C)=CCC1
REMARK SMILES IDX 12 1 14 2 13 3 15 4 16 5 2 6 1 7 3 8 11 10 9 11 10 12 5 13
REMARK SMILES IDX 6 14 7 15 8 16 4 17
REMARK H PARENT
REMARK Flexibility Score: 60.00
ROOT
ATOM      1  C   UNL     1     -16.820  -0.010  32.428  1.00  0.00    -0.070 C 
ATOM      2  C   UNL     1     -17.629  -1.091  32.309  1.00  0.00    -0.027 C 
ATOM      3  C   UNL     1     -15.882   0.041  33.607  1.00  0.00     0.039 C 
ENDROOT
BRANCH   2   4
ATOM      4  C   UNL     1     -18.610  -1.321  31.188  1.00  0.00     0.032 C 
BRANCH   4   5
ATOM      5  C   UNL     1     -20.032  -1.547  31.731  1.00  0.00     0.034 C 
BRANCH   5   6
ATOM      6  C   UNL     1     -20.951  -0.360  31.522  1.00  0.00    -0.077 C 
ATOM      7  C   UNL     1     -22.053  -0.471  30.497  1.00  0.00     0.039 C 
ATOM      8  C   UNL     1     -20.792   0.834  32.146  1.00  0.00    -0.023 CG0
ATOM      9  G   UNL     1     -19.834   1.150  33.275  1.00  0.00     0.000 G0
ENDBRANCH   5   6
ENDBRANCH   4   5
ENDBRANCH   2   4
BRANCH   1  10
ATOM     10  C   UNL     1     -16.823   1.149  31.440  1.00  0.00     0.111 C 
BRANCH  10  11
ATOM     11  C   UNL     1     -18.015   2.053  31.648  1.00  0.00     0.163 C 
ATOM     12  O   UNL     1     -18.401   2.717  30.648  1.00  0.00    -0.294 OA
BRANCH  11  13
ATOM     13  C   UNL     1     -18.756   2.184  32.955  1.00  0.00    -0.002 C 
ATOM     14  C   UNL     1     -18.472   3.197  33.833  1.00  0.00    -0.069 C 
ATOM     15  C   UNL     1     -17.325   4.158  33.608  1.00  0.00     0.039 C 
ATOM     16  C   UNL     1     -19.261   3.381  35.113  1.00  0.00     0.039 C 
BRANCH  13  17
ATOM     17  C   UNL     1     -19.848   1.172  33.294  1.00  0.00     0.066 CG0
ATOM     18  G   UNL     1     -20.789   0.856  32.150  1.00  0.00     0.000 G0
ENDBRANCH  13  17
ENDBRANCH  11  13
ENDBRANCH  10  11
ENDBRANCH   1  10
TORSDOF 0
ENDMDL
MODEL 6
REMARK VINA RESULT:    -3.210      7.326      9.619
REMARK INTER + INTRA:          -4.469
REMARK INTER:                  -4.659
REMARK INTRA:                   0.191
REMARK UNBOUND:                 0.056
REMARK SMILES CC1=CCC(=C(C)C)C(=O)CC(C)=CCC1
REMARK SMILES IDX 12 1 14 2 13 3 15 4 16 5 2 6 1 7 3 8 11 10 9 11 10 12 5 13
REMARK SMILES IDX 6 14 7 15 8 16 4 17
REMARK H PARENT
REMARK Flexibility Score: 60.00
ROOT
ATOM      1  C   UNL     1     -13.435   5.703  26.182  1.00  0.00    -0.070 C 
ATOM      2  C   UNL     1     -13.797   7.008  26.223  1.00  0.00    -0.027 C 
ATOM      3  C   UNL     1     -11.963   5.380  26.179  1.00  0.00     0.039 C 
ENDROOT
BRANCH   2   4
ATOM      4  C   UNL     1     -15.217   7.514  26.254  1.00  0.00     0.032 C 
BRANCH   4   5
ATOM      5  C   UNL     1     -15.796   7.458  27.678  1.00  0.00     0.034 C 
BRANCH   5   6
ATOM      6  C   UNL     1     -17.140   6.761  27.754  1.00  0.00    -0.077 C 
ATOM      7  C   UNL     1     -18.328   7.410  27.087  1.00  0.00     0.039 C 
ATOM      8  C   UNL     1     -17.360   5.623  28.458  1.00  0.00    -0.023 CG0
ATOM      9  G   UNL     1     -16.316   4.746  29.116  1.00  0.00     0.000 G0
ENDBRANCH   5   6
ENDBRANCH   4   5
ENDBRANCH   2   4
BRANCH   1  10
ATOM     10  C   UNL     1     -14.439   4.559  26.128  1.00  0.00     0.111 C 
BRANCH  10  11
ATOM     11  C   UNL     1     -14.509   3.820  27.444  1.00  0.00     0.163 C 
ATOM     12  O   UNL     1     -13.420   3.378  27.901  1.00  0.00    -0.294 OA
BRANCH  11  13
ATOM     13  C   UNL     1     -15.781   3.605  28.224  1.00  0.00    -0.002 C 
ATOM     14  C   UNL     1     -16.465   2.420  28.153  1.00  0.00    -0.069 C 
ATOM     15  C   UNL     1     -16.062   1.315  27.201  1.00  0.00     0.039 C 
ATOM     16  C   UNL     1     -17.702   2.167  28.990  1.00  0.00     0.039 C 
BRANCH  13  17
ATOM     17  C   UNL     1     -16.304   4.730  29.115  1.00  0.00     0.066 CG0
ATOM     18  G   UNL     1     -17.347   5.613  28.463  1.00  0.00     0.000 G0
ENDBRANCH  13  17
ENDBRANCH  11  13
ENDBRANCH  10  11
ENDBRANCH   1  10
TORSDOF 0
ENDMDL
MODEL 7
REMARK VINA RESULT:    -3.128      9.198     11.560
REMARK INTER + INTRA:          -4.353
REMARK INTER:                  -4.539
REMARK INTRA:                   0.186
REMARK UNBOUND:                 0.056
REMARK SMILES CC1=CCC(=C(C)C)C(=O)CC(C)=CCC1
REMARK SMILES IDX 12 1 14 2 13 3 15 4 16 5 2 6 1 7 3 8 11 10 9 11 10 12 5 13
REMARK SMILES IDX 6 14 7 15 8 16 4 17
REMARK H PARENT
REMARK Flexibility Score: 60.00
ROOT
ATOM      1  C   UNL     1     -17.099   2.778  33.391  1.00  0.00    -0.070 C 
ATOM      2  C   UNL     1     -16.675   1.500  33.544  1.00  0.00    -0.027 C 
ATOM      3  C   UNL     1     -16.904   3.729  34.545  1.00  0.00     0.039 C 
ENDROOT
BRANCH   2   4
ATOM      4  C   UNL     1     -16.767   0.424  32.493  1.00  0.00     0.032 C 
BRANCH   4   5
ATOM      5  C   UNL     1     -17.651  -0.742  32.969  1.00  0.00     0.034 C 
BRANCH   5   6
ATOM      6  C   UNL     1     -18.987  -0.814  32.255  1.00  0.00    -0.077 C 
ATOM      7  C   UNL     1     -19.154  -1.808  31.132  1.00  0.00     0.039 C 
ATOM      8  C   UNL     1     -20.023   0.023  32.511  1.00  0.00    -0.023 CG0
ATOM      9  G   UNL     1     -20.128   1.021  33.645  1.00  0.00     0.000 G0
ENDBRANCH   5   6
ENDBRANCH   4   5
ENDBRANCH   2   4
BRANCH   1  10
ATOM     10  C   UNL     1     -17.766   3.291  32.121  1.00  0.00     0.111 C 
BRANCH  10  11
ATOM     11  C   UNL     1     -19.210   2.855  32.039  1.00  0.00     0.163 C 
ATOM     12  O   UNL     1     -19.714   2.787  30.884  1.00  0.00    -0.294 OA
BRANCH  11  13
ATOM     13  C   UNL     1     -20.051   2.490  33.236  1.00  0.00    -0.002 C 
ATOM     14  C   UNL     1     -20.730   3.446  33.944  1.00  0.00    -0.069 C 
ATOM     15  C   UNL     1     -20.578   4.923  33.650  1.00  0.00     0.039 C 
ATOM     16  C   UNL     1     -21.637   3.082  35.101  1.00  0.00     0.039 C 
BRANCH  13  17
ATOM     17  C   UNL     1     -20.150   1.024  33.654  1.00  0.00     0.066 CG0
ATOM     18  G   UNL     1     -20.014   0.036  32.515  1.00  0.00     0.000 G0
ENDBRANCH  13  17
ENDBRANCH  11  13
ENDBRANCH  10  11
ENDBRANCH   1  10
TORSDOF 0
ENDMDL
MODEL 8
REMARK VINA RESULT:    -3.125      8.647     10.656
REMARK INTER + INTRA:          -4.348
REMARK INTER:                  -4.608
REMARK INTRA:                   0.259
REMARK UNBOUND:                 0.056
REMARK SMILES CC1=CCC(=C(C)C)C(=O)CC(C)=CCC1
REMARK SMILES IDX 12 1 14 2 13 3 15 4 16 5 2 6 1 7 3 8 11 10 9 11 10 12 5 13
REMARK SMILES IDX 6 14 7 15 8 16 4 17
REMARK H PARENT
REMARK Flexibility Score: 60.00
ROOT
ATOM      1  C   UNL     1     -19.836  -0.487  32.319  1.00  0.00    -0.070 C 
ATOM      2  C   UNL     1     -18.603  -1.050  32.352  1.00  0.00    -0.027 C 
ATOM      3  C   UNL     1     -20.884  -1.136  31.452  1.00  0.00     0.039 C 
ENDROOT
BRANCH   2   4
ATOM      4  C   UNL     1     -17.443  -0.553  33.176  1.00  0.00     0.032 C 
BRANCH   4   5
ATOM      5  C   UNL     1     -16.240  -0.200  32.285  1.00  0.00     0.034 C 
BRANCH   5   6
ATOM      6  C   UNL     1     -16.586   0.752  31.157  1.00  0.00    -0.077 C 
ATOM      7  C   UNL     1     -16.411   0.279  29.734  1.00  0.00     0.039 C 
ATOM      8  C   UNL     1     -16.970   2.039  31.348  1.00  0.00    -0.023 CG0
ATOM      9  G   UNL     1     -17.309   2.700  32.667  1.00  0.00     0.000 G0
ENDBRANCH   5   6
ENDBRANCH   4   5
ENDBRANCH   2   4
BRANCH   1  10
ATOM     10  C   UNL     1     -20.202   0.766  33.104  1.00  0.00     0.111 C 
BRANCH  10  11
ATOM     11  C   UNL     1     -19.828   2.021  32.351  1.00  0.00     0.163 C 
ATOM     12  O   UNL     1     -20.433   2.230  31.265  1.00  0.00    -0.294 OA
BRANCH  11  13
ATOM     13  C   UNL     1     -18.804   3.019  32.832  1.00  0.00    -0.002 C 
ATOM     14  C   UNL     1     -19.183   4.190  33.434  1.00  0.00    -0.069 C 
ATOM     15  C   UNL     1     -20.634   4.608  33.536  1.00  0.00     0.039 C 
ATOM     16  C   UNL     1     -18.163   5.164  33.986  1.00  0.00     0.039 C 
BRANCH  13  17
ATOM     17  C   UNL     1     -17.320   2.706  32.650  1.00  0.00     0.066 CG0
ATOM     18  G   UNL     1     -16.977   2.037  31.336  1.00  0.00     0.000 G0
ENDBRANCH  13  17
ENDBRANCH  11  13
ENDBRANCH  10  11
ENDBRANCH   1  10
TORSDOF 0
ENDMDL
MODEL 9
REMARK VINA RESULT:    -3.088      1.930      4.877
REMARK INTER + INTRA:          -4.297
REMARK INTER:                  -4.503
REMARK INTRA:                   0.207
REMARK UNBOUND:                 0.056
REMARK SMILES CC1=CCC(=C(C)C)C(=O)CC(C)=CCC1
REMARK SMILES IDX 12 1 14 2 13 3 15 4 16 5 2 6 1 7 3 8 11 10 9 11 10 12 5 13
REMARK SMILES IDX 6 14 7 15 8 16 4 17
REMARK H PARENT
REMARK Flexibility Score: 60.00
ROOT
ATOM      1  C   UNL     1     -18.456  -0.090  23.132  1.00  0.00    -0.070 C 
ATOM      2  C   UNL     1     -17.986  -1.314  23.477  1.00  0.00    -0.027 C 
ATOM      3  C   UNL     1     -18.129   1.070  24.038  1.00  0.00     0.039 C 
ENDROOT
BRANCH   2   4
ATOM      4  C   UNL     1     -18.195  -2.578  22.682  1.00  0.00     0.032 C 
BRANCH   4   5
ATOM      5  C   UNL     1     -19.352  -3.412  23.258  1.00  0.00     0.034 C 
BRANCH   5   6
ATOM      6  C   UNL     1     -20.198  -4.082  22.193  1.00  0.00    -0.077 C 
ATOM      7  C   UNL     1     -19.713  -5.380  21.596  1.00  0.00     0.039 C 
ATOM      8  C   UNL     1     -21.333  -3.542  21.683  1.00  0.00    -0.023 CG0
ATOM      9  G   UNL     1     -22.063  -2.315  22.187  1.00  0.00     0.000 G0
ENDBRANCH   5   6
ENDBRANCH   4   5
ENDBRANCH   2   4
BRANCH   1  10
ATOM     10  C   UNL     1     -19.299   0.162  21.890  1.00  0.00     0.111 C 
BRANCH  10  11
ATOM     11  C   UNL     1     -20.773  -0.011  22.175  1.00  0.00     0.163 C 
ATOM     12  O   UNL     1     -21.269   0.743  23.056  1.00  0.00    -0.294 OA
BRANCH  11  13
ATOM     13  C   UNL     1     -21.659  -1.002  21.464  1.00  0.00    -0.002 C 
ATOM     14  C   UNL     1     -22.106  -0.768  20.189  1.00  0.00    -0.069 C 
ATOM     15  C   UNL     1     -21.845   0.540  19.474  1.00  0.00     0.039 C 
ATOM     16  C   UNL     1     -22.934  -1.790  19.439  1.00  0.00     0.039 C 
BRANCH  13  17
ATOM     17  C   UNL     1     -22.054  -2.291  22.180  1.00  0.00     0.066 CG0
ATOM     18  G   UNL     1     -21.348  -3.532  21.674  1.00  0.00     0.000 G0
ENDBRANCH  13  17
ENDBRANCH  11  13
ENDBRANCH  10  11
ENDBRANCH   1  10
TORSDOF 0
ENDMDL
