MODEL 1
REMARK VINA RESULT:    -5.785      0.000      0.000
REMARK INTER + INTRA:          -6.124
REMARK INTER:                  -6.124
REMARK INTRA:                   0.000
REMARK UNBOUND:                 0.000
REMARK SMILES Cc1cc(O)c(C)c(C)c1O
REMARK SMILES IDX 1 1 2 2 3 3 4 4 6 5 8 6 10 7 9 8 7 9 11 10 5 12
REMARK H PARENT 11 11 5 13
REMARK Flexibility Score: inf
ROOT
ATOM      1  C   UNL     1       9.393   7.053  -5.438  1.00  0.00     0.048 C 
ATOM      2  C   UNL     1       9.557   6.124  -4.266  1.00  0.00    -0.005 A 
ATOM      3  C   UNL     1      10.295   4.947  -4.407  1.00  0.00     0.053 A 
ATOM      4  C   UNL     1      10.432   4.056  -3.340  1.00  0.00     0.119 A 
ATOM      5  C   UNL     1       9.827   4.337  -2.097  1.00  0.00    -0.003 A 
ATOM      6  C   UNL     1       9.110   5.553  -1.928  1.00  0.00    -0.002 A 
ATOM      7  C   UNL     1       8.947   6.425  -3.036  1.00  0.00     0.121 A 
ATOM      8  C   UNL     1       8.490   5.929  -0.599  1.00  0.00     0.049 C 
ATOM      9  C   UNL     1       9.969   3.349  -0.962  1.00  0.00     0.049 C 
ENDROOT
BRANCH   7  10
ATOM     10  O   UNL     1       8.181   7.593  -2.946  1.00  0.00    -0.507 OA
ATOM     11  H   UNL     1       8.475   8.420  -2.442  1.00  0.00     0.293 HD
ENDBRANCH   7  10
BRANCH   4  12
ATOM     12  O   UNL     1      11.173   2.886  -3.518  1.00  0.00    -0.508 OA
ATOM     13  H   UNL     1      10.823   2.111  -4.069  1.00  0.00     0.293 HD
ENDBRANCH   4  12
TORSDOF 2
ENDMDL
MODEL 2
REMARK VINA RESULT:    -5.724      1.178      3.101
REMARK INTER + INTRA:          -6.059
REMARK INTER:                  -6.059
REMARK INTRA:                   0.000
REMARK UNBOUND:                 0.000
REMARK SMILES Cc1cc(O)c(C)c(C)c1O
REMARK SMILES IDX 1 1 2 2 3 3 4 4 6 5 8 6 10 7 9 8 7 9 11 10 5 12
REMARK H PARENT 11 11 5 13
REMARK Flexibility Score: inf
ROOT
ATOM      1  C   UNL     1       8.575   4.822   0.044  1.00  0.00     0.048 C 
ATOM      2  C   UNL     1       9.208   5.061  -1.300  1.00  0.00    -0.005 A 
ATOM      3  C   UNL     1       9.762   3.994  -2.010  1.00  0.00     0.053 A 
ATOM      4  C   UNL     1      10.382   4.200  -3.244  1.00  0.00     0.119 A 
ATOM      5  C   UNL     1      10.453   5.497  -3.796  1.00  0.00    -0.003 A 
ATOM      6  C   UNL     1       9.853   6.584  -3.104  1.00  0.00    -0.002 A 
ATOM      7  C   UNL     1       9.264   6.360  -1.832  1.00  0.00     0.121 A 
ATOM      8  C   UNL     1       9.851   7.985  -3.679  1.00  0.00     0.049 C 
ATOM      9  C   UNL     1      11.147   5.701  -5.123  1.00  0.00     0.049 C 
ENDROOT
BRANCH   7  10
ATOM     10  O   UNL     1       8.734   7.410  -1.072  1.00  0.00    -0.507 OA
ATOM     11  H   UNL     1       9.113   8.348  -1.068  1.00  0.00     0.293 HD
ENDBRANCH   7  10
BRANCH   4  12
ATOM     12  O   UNL     1      10.930   3.111  -3.924  1.00  0.00    -0.508 OA
ATOM     13  H   UNL     1      11.678   3.224  -4.599  1.00  0.00     0.293 HD
ENDBRANCH   4  12
TORSDOF 2
ENDMDL
MODEL 3
REMARK VINA RESULT:    -5.714      1.119      3.215
REMARK INTER + INTRA:          -6.049
REMARK INTER:                  -6.049
REMARK INTRA:                   0.000
REMARK UNBOUND:                 0.000
REMARK SMILES Cc1cc(O)c(C)c(C)c1O
REMARK SMILES IDX 1 1 2 2 3 3 4 4 6 5 8 6 10 7 9 8 7 9 11 10 5 12
REMARK H PARENT 11 11 5 13
REMARK Flexibility Score: inf
ROOT
ATOM      1  C   UNL     1      11.228   5.666  -5.163  1.00  0.00     0.048 C 
ATOM      2  C   UNL     1      10.585   5.621  -3.804  1.00  0.00    -0.005 A 
ATOM      3  C   UNL     1      10.025   6.779  -3.259  1.00  0.00     0.053 A 
ATOM      4  C   UNL     1       9.450   6.765  -1.986  1.00  0.00     0.119 A 
ATOM      5  C   UNL     1       9.423   5.574  -1.231  1.00  0.00    -0.003 A 
ATOM      6  C   UNL     1       9.950   4.378  -1.794  1.00  0.00    -0.002 A 
ATOM      7  C   UNL     1      10.566   4.423  -3.071  1.00  0.00     0.121 A 
ATOM      8  C   UNL     1       9.894   3.061  -1.049  1.00  0.00     0.049 C 
ATOM      9  C   UNL     1       8.817   5.586   0.153  1.00  0.00     0.049 C 
ENDROOT
BRANCH   7  10
ATOM     10  O   UNL     1      11.173   3.294  -3.634  1.00  0.00    -0.507 OA
ATOM     11  H   UNL     1      10.855   2.346  -3.475  1.00  0.00     0.293 HD
ENDBRANCH   7  10
BRANCH   4  12
ATOM     12  O   UNL     1       8.905   7.942  -1.470  1.00  0.00    -0.508 OA
ATOM     13  H   UNL     1       8.851   8.792  -2.021  1.00  0.00     0.293 HD
ENDBRANCH   4  12
TORSDOF 2
ENDMDL
MODEL 4
REMARK VINA RESULT:    -5.652      1.103      4.368
REMARK INTER + INTRA:          -5.983
REMARK INTER:                  -5.983
REMARK INTRA:                   0.000
REMARK UNBOUND:                 0.000
REMARK SMILES Cc1cc(O)c(C)c(C)c1O
REMARK SMILES IDX 1 1 2 2 3 3 4 4 6 5 8 6 10 7 9 8 7 9 11 10 5 12
REMARK H PARENT 11 11 5 13
REMARK Flexibility Score: inf
ROOT
ATOM      1  C   UNL     1      10.129   3.183  -0.947  1.00  0.00     0.048 C 
ATOM      2  C   UNL     1      10.102   4.445  -1.765  1.00  0.00    -0.005 A 
ATOM      3  C   UNL     1       9.607   5.627  -1.208  1.00  0.00     0.053 A 
ATOM      4  C   UNL     1       9.545   6.802  -1.961  1.00  0.00     0.119 A 
ATOM      5  C   UNL     1       9.988   6.812  -3.301  1.00  0.00    -0.003 A 
ATOM      6  C   UNL     1      10.535   5.626  -3.865  1.00  0.00    -0.002 A 
ATOM      7  C   UNL     1      10.551   4.434  -3.096  1.00  0.00     0.121 A 
ATOM      8  C   UNL     1      11.077   5.599  -5.278  1.00  0.00     0.049 C 
ATOM      9  C   UNL     1       9.891   8.088  -4.104  1.00  0.00     0.049 C 
ENDROOT
BRANCH   7  10
ATOM     10  O   UNL     1      11.002   3.221  -3.631  1.00  0.00    -0.507 OA
ATOM     11  H   UNL     1      11.148   3.062  -4.619  1.00  0.00     0.293 HD
ENDBRANCH   7  10
BRANCH   4  12
ATOM     12  O   UNL     1       9.039   7.963  -1.375  1.00  0.00    -0.508 OA
ATOM     13  H   UNL     1       8.202   8.417  -1.724  1.00  0.00     0.293 HD
ENDBRANCH   4  12
TORSDOF 2
ENDMDL
MODEL 5
REMARK VINA RESULT:    -5.564      1.732      4.111
REMARK INTER + INTRA:          -5.890
REMARK INTER:                  -5.890
REMARK INTRA:                   0.000
REMARK UNBOUND:                 0.000
REMARK SMILES Cc1cc(O)c(C)c(C)c1O
REMARK SMILES IDX 1 1 2 2 3 3 4 4 6 5 8 6 10 7 9 8 7 9 11 10 5 12
REMARK H PARENT 11 11 5 13
REMARK Flexibility Score: inf
ROOT
ATOM      1  C   UNL     1       8.561   5.513   0.494  1.00  0.00     0.048 C 
ATOM      2  C   UNL     1       9.336   5.590  -0.793  1.00  0.00    -0.005 A 
ATOM      3  C   UNL     1       9.450   6.807  -1.467  1.00  0.00     0.053 A 
ATOM      4  C   UNL     1      10.139   6.893  -2.679  1.00  0.00     0.119 A 
ATOM      5  C   UNL     1      10.736   5.744  -3.240  1.00  0.00    -0.003 A 
ATOM      6  C   UNL     1      10.665   4.508  -2.541  1.00  0.00    -0.002 A 
ATOM      7  C   UNL     1       9.926   4.434  -1.332  1.00  0.00     0.121 A 
ATOM      8  C   UNL     1      11.338   3.260  -3.070  1.00  0.00     0.049 C 
ATOM      9  C   UNL     1      11.458   5.855  -4.563  1.00  0.00     0.049 C 
ENDROOT
BRANCH   7  10
ATOM     10  O   UNL     1       9.756   3.224  -0.648  1.00  0.00    -0.507 OA
ATOM     11  H   UNL     1      10.178   2.351  -0.936  1.00  0.00     0.293 HD
ENDBRANCH   7  10
BRANCH   4  12
ATOM     12  O   UNL     1      10.228   8.126  -3.329  1.00  0.00    -0.508 OA
ATOM     13  H   UNL     1       9.571   8.397  -4.052  1.00  0.00     0.293 HD
ENDBRANCH   4  12
TORSDOF 2
ENDMDL
MODEL 6
REMARK VINA RESULT:    -5.520      2.192      3.115
REMARK INTER + INTRA:          -5.843
REMARK INTER:                  -5.843
REMARK INTRA:                   0.000
REMARK UNBOUND:                 0.000
REMARK SMILES Cc1cc(O)c(C)c(C)c1O
REMARK SMILES IDX 1 1 2 2 3 3 4 4 6 5 8 6 10 7 9 8 7 9 11 10 5 12
REMARK H PARENT 11 11 5 13
REMARK Flexibility Score: inf
ROOT
ATOM      1  C   UNL     1       8.220   8.642  -1.775  1.00  0.00     0.048 C 
ATOM      2  C   UNL     1       8.813   7.262  -1.693  1.00  0.00    -0.005 A 
ATOM      3  C   UNL     1       8.268   6.319  -0.819  1.00  0.00     0.053 A 
ATOM      4  C   UNL     1       8.824   5.042  -0.706  1.00  0.00     0.119 A 
ATOM      5  C   UNL     1       9.947   4.685  -1.480  1.00  0.00    -0.003 A 
ATOM      6  C   UNL     1      10.484   5.621  -2.406  1.00  0.00    -0.002 A 
ATOM      7  C   UNL     1       9.931   6.926  -2.476  1.00  0.00     0.121 A 
ATOM      8  C   UNL     1      11.653   5.268  -3.301  1.00  0.00     0.049 C 
ATOM      9  C   UNL     1      10.546   3.306  -1.325  1.00  0.00     0.049 C 
ENDROOT
BRANCH   7  10
ATOM     10  O   UNL     1      10.474   7.910  -3.310  1.00  0.00    -0.507 OA
ATOM     11  H   UNL     1      11.435   8.224  -3.259  1.00  0.00     0.293 HD
ENDBRANCH   7  10
BRANCH   4  12
ATOM     12  O   UNL     1       8.256   4.127   0.183  1.00  0.00    -0.508 OA
ATOM     13  H   UNL     1       8.324   4.245   1.187  1.00  0.00     0.293 HD
ENDBRANCH   4  12
TORSDOF 2
ENDMDL
MODEL 7
REMARK VINA RESULT:    -5.515      1.797      3.966
REMARK INTER + INTRA:          -5.837
REMARK INTER:                  -5.837
REMARK INTRA:                   0.000
REMARK UNBOUND:                 0.000
REMARK SMILES Cc1cc(O)c(C)c(C)c1O
REMARK SMILES IDX 1 1 2 2 3 3 4 4 6 5 8 6 10 7 9 8 7 9 11 10 5 12
REMARK H PARENT 11 11 5 13
REMARK Flexibility Score: inf
ROOT
ATOM      1  C   UNL     1      10.479   2.912  -2.063  1.00  0.00     0.048 C 
ATOM      2  C   UNL     1       9.829   4.251  -1.852  1.00  0.00    -0.005 A 
ATOM      3  C   UNL     1       9.356   4.606  -0.587  1.00  0.00     0.053 A 
ATOM      4  C   UNL     1       8.721   5.832  -0.378  1.00  0.00     0.119 A 
ATOM      5  C   UNL     1       8.552   6.737  -1.447  1.00  0.00    -0.003 A 
ATOM      6  C   UNL     1       9.070   6.407  -2.730  1.00  0.00    -0.002 A 
ATOM      7  C   UNL     1       9.675   5.139  -2.931  1.00  0.00     0.121 A 
ATOM      8  C   UNL     1       8.967   7.366  -3.896  1.00  0.00     0.049 C 
ATOM      9  C   UNL     1       7.843   8.049  -1.203  1.00  0.00     0.049 C 
ENDROOT
BRANCH   7  10
ATOM     10  O   UNL     1      10.126   4.732  -4.192  1.00  0.00    -0.507 OA
ATOM     11  H   UNL     1      10.488   5.367  -4.891  1.00  0.00     0.293 HD
ENDBRANCH   7  10
BRANCH   4  12
ATOM     12  O   UNL     1       8.255   6.151   0.899  1.00  0.00    -0.508 OA
ATOM     13  H   UNL     1       8.705   6.856   1.472  1.00  0.00     0.293 HD
ENDBRANCH   4  12
TORSDOF 2
ENDMDL
MODEL 8
REMARK VINA RESULT:    -5.497      1.823      2.868
REMARK INTER + INTRA:          -5.818
REMARK INTER:                  -5.818
REMARK INTRA:                   0.000
REMARK UNBOUND:                 0.000
REMARK SMILES Cc1cc(O)c(C)c(C)c1O
REMARK SMILES IDX 1 1 2 2 3 3 4 4 6 5 8 6 10 7 9 8 7 9 11 10 5 12
REMARK H PARENT 11 11 5 13
REMARK Flexibility Score: inf
ROOT
ATOM      1  C   UNL     1       7.808   8.158  -1.073  1.00  0.00     0.048 C 
ATOM      2  C   UNL     1       8.430   6.902  -1.617  1.00  0.00    -0.005 A 
ATOM      3  C   UNL     1       8.691   6.788  -2.984  1.00  0.00     0.053 A 
ATOM      4  C   UNL     1       9.240   5.618  -3.514  1.00  0.00     0.119 A 
ATOM      5  C   UNL     1       9.543   4.530  -2.669  1.00  0.00    -0.003 A 
ATOM      6  C   UNL     1       9.323   4.649  -1.269  1.00  0.00    -0.002 A 
ATOM      7  C   UNL     1       8.727   5.831  -0.757  1.00  0.00     0.121 A 
ATOM      8  C   UNL     1       9.684   3.533  -0.312  1.00  0.00     0.049 C 
ATOM      9  C   UNL     1      10.115   3.264  -3.265  1.00  0.00     0.049 C 
ENDROOT
BRANCH   7  10
ATOM     10  O   UNL     1       8.413   5.967   0.601  1.00  0.00    -0.507 OA
ATOM     11  H   UNL     1       9.107   6.028   1.335  1.00  0.00     0.293 HD
ENDBRANCH   7  10
BRANCH   4  12
ATOM     12  O   UNL     1       9.483   5.537  -4.886  1.00  0.00    -0.508 OA
ATOM     13  H   UNL     1      10.114   4.848  -5.277  1.00  0.00     0.293 HD
ENDBRANCH   4  12
TORSDOF 2
ENDMDL
MODEL 9
REMARK VINA RESULT:    -5.160      1.300      1.507
REMARK INTER + INTRA:          -5.462
REMARK INTER:                  -5.462
REMARK INTRA:                   0.000
REMARK UNBOUND:                 0.000
REMARK SMILES Cc1cc(O)c(C)c(C)c1O
REMARK SMILES IDX 1 1 2 2 3 3 4 4 6 5 8 6 10 7 9 8 7 9 11 10 5 12
REMARK H PARENT 11 11 5 13
REMARK Flexibility Score: inf
ROOT
ATOM      1  C   UNL     1       8.568   8.389  -3.605  1.00  0.00     0.048 C 
ATOM      2  C   UNL     1       9.010   6.993  -3.259  1.00  0.00    -0.005 A 
ATOM      3  C   UNL     1       9.560   6.171  -4.244  1.00  0.00     0.053 A 
ATOM      4  C   UNL     1       9.947   4.861  -3.949  1.00  0.00     0.119 A 
ATOM      5  C   UNL     1       9.790   4.351  -2.643  1.00  0.00    -0.003 A 
ATOM      6  C   UNL     1       9.272   5.193  -1.621  1.00  0.00    -0.002 A 
ATOM      7  C   UNL     1       8.847   6.506  -1.951  1.00  0.00     0.121 A 
ATOM      8  C   UNL     1       9.138   4.712  -0.192  1.00  0.00     0.049 C 
ATOM      9  C   UNL     1      10.195   2.924  -2.351  1.00  0.00     0.049 C 
ENDROOT
BRANCH   7  10
ATOM     10  O   UNL     1       8.254   7.346  -1.001  1.00  0.00    -0.507 OA
ATOM     11  H   UNL     1       8.014   7.053  -0.062  1.00  0.00     0.293 HD
ENDBRANCH   7  10
BRANCH   4  12
ATOM     12  O   UNL     1      10.489   4.065  -4.960  1.00  0.00    -0.508 OA
ATOM     13  H   UNL     1      10.876   4.467  -5.807  1.00  0.00     0.293 HD
ENDBRANCH   4  12
TORSDOF 2
ENDMDL
