MODEL 1
REMARK VINA RESULT:    -5.068      0.000      0.000
REMARK INTER + INTRA:          -7.795
REMARK INTER:                  -7.735
REMARK INTRA:                  -0.060
REMARK UNBOUND:                -0.060
REMARK SMILES CC1=CCC[C@@H](C)C(=O)C[C@@H](C(C)C)C(=O)C1
REMARK SMILES IDX 8 1 9 2 6 3 7 4 5 5 4 6 3 7 2 8 1 9 10 11 11 12 15 13 16 14
REMARK SMILES IDX 17 15 12 17 13 18 14 19
REMARK H PARENT
REMARK Flexibility Score: 70.00
ROOT
ATOM      1  C   UNL     1     -12.059 -16.045  31.152  1.00  0.00     0.136 C 
ATOM      2  O   UNL     1     -11.271 -15.819  32.060  1.00  0.00    -0.299 OA
ENDROOT
BRANCH   1   3
ATOM      3  C   UNL     1     -13.461 -16.516  31.468  1.00  0.00     0.053 C 
ATOM      4  C   UNL     1     -14.243 -15.375  32.129  1.00  0.00     0.016 C 
BRANCH   3   5
ATOM      5  C   UNL     1     -13.479 -17.770  32.374  1.00  0.00     0.015 C 
BRANCH   5   6
ATOM      6  C   UNL     1     -12.701 -18.966  31.792  1.00  0.00     0.028 C 
BRANCH   6   7
ATOM      7  C   UNL     1     -13.425 -19.584  30.616  1.00  0.00    -0.028 C 
ATOM      8  C   UNL     1     -13.028 -19.558  29.322  1.00  0.00    -0.070 CG0
ATOM      9  C   UNL     1     -13.922 -20.208  28.298  1.00  0.00     0.039 C 
ATOM     10  G   UNL     1     -11.708 -18.979  28.858  1.00  0.00     0.000 G0
ENDBRANCH   6   7
ENDBRANCH   5   6
ENDBRANCH   3   5
ENDBRANCH   1   3
BRANCH   1  11
ATOM     11  C   UNL     1     -11.627 -15.818  29.723  1.00  0.00     0.087 C 
BRANCH  11  12
ATOM     12  C   UNL     1     -12.574 -16.506  28.716  1.00  0.00     0.066 C 
BRANCH  12  13
ATOM     13  C   UNL     1     -11.903 -17.711  28.081  1.00  0.00     0.140 C 
ATOM     14  O   UNL     1     -11.480 -17.640  26.936  1.00  0.00    -0.299 OA
BRANCH  13  15
ATOM     15  C   UNL     1     -11.703 -18.987  28.853  1.00  0.00     0.106 CG0
ATOM     16  G   UNL     1     -13.041 -19.532  29.308  1.00  0.00     0.000 G0
ENDBRANCH  13  15
ENDBRANCH  12  13
BRANCH  12  17
ATOM     17  C   UNL     1     -13.150 -15.508  27.665  1.00  0.00    -0.006 C 
ATOM     18  C   UNL     1     -13.945 -14.383  28.347  1.00  0.00     0.008 C 
ATOM     19  C   UNL     1     -14.006 -16.165  26.568  1.00  0.00     0.008 C 
ENDBRANCH  12  17
ENDBRANCH  11  12
ENDBRANCH   1  11
TORSDOF 1
ENDMDL
MODEL 2
REMARK VINA RESULT:    -4.834      1.690      2.292
REMARK INTER + INTRA:          -7.438
REMARK INTER:                  -7.694
REMARK INTRA:                   0.256
REMARK UNBOUND:                -0.060
REMARK SMILES CC1=CCC[C@@H](C)C(=O)C[C@@H](C(C)C)C(=O)C1
REMARK SMILES IDX 8 1 9 2 6 3 7 4 5 5 4 6 3 7 2 8 1 9 10 11 11 12 15 13 16 14
REMARK SMILES IDX 17 15 12 17 13 18 14 19
REMARK H PARENT
REMARK Flexibility Score: 70.00
ROOT
ATOM      1  C   UNL     1     -13.274 -15.639  30.512  1.00  0.00     0.136 C 
ATOM      2  O   UNL     1     -13.980 -14.693  30.193  1.00  0.00    -0.299 OA
ENDROOT
BRANCH   1   3
ATOM      3  C   UNL     1     -13.306 -16.162  31.931  1.00  0.00     0.053 C 
ATOM      4  C   UNL     1     -14.425 -15.458  32.706  1.00  0.00     0.016 C 
BRANCH   3   5
ATOM      5  C   UNL     1     -11.954 -15.983  32.663  1.00  0.00     0.015 C 
BRANCH   5   6
ATOM      6  C   UNL     1     -10.875 -16.993  32.228  1.00  0.00     0.028 C 
BRANCH   6   7
ATOM      7  C   UNL     1     -11.372 -18.418  32.328  1.00  0.00    -0.028 C 
ATOM      8  C   UNL     1     -11.621 -19.258  31.295  1.00  0.00    -0.070 CG0
ATOM      9  C   UNL     1     -12.149 -20.633  31.618  1.00  0.00     0.039 C 
ATOM     10  G   UNL     1     -11.333 -18.921  29.847  1.00  0.00     0.000 G0
ENDBRANCH   6   7
ENDBRANCH   5   6
ENDBRANCH   3   5
ENDBRANCH   1   3
BRANCH   1  11
ATOM     11  C   UNL     1     -12.399 -16.295  29.470  1.00  0.00     0.087 C 
BRANCH  11  12
ATOM     12  C   UNL     1     -13.148 -17.404  28.699  1.00  0.00     0.066 C 
BRANCH  12  13
ATOM     13  C   UNL     1     -12.616 -18.775  29.073  1.00  0.00     0.140 C 
ATOM     14  O   UNL     1     -13.214 -19.780  28.715  1.00  0.00    -0.299 OA
BRANCH  13  15
ATOM     15  C   UNL     1     -11.331 -18.929  29.842  1.00  0.00     0.106 CG0
ATOM     16  G   UNL     1     -11.631 -19.265  31.288  1.00  0.00     0.000 G0
ENDBRANCH  13  15
ENDBRANCH  12  13
BRANCH  12  17
ATOM     17  C   UNL     1     -13.157 -17.155  27.160  1.00  0.00    -0.006 C 
ATOM     18  C   UNL     1     -11.740 -17.265  26.574  1.00  0.00     0.008 C 
ATOM     19  C   UNL     1     -13.798 -15.823  26.735  1.00  0.00     0.008 C 
ENDBRANCH  12  17
ENDBRANCH  11  12
ENDBRANCH   1  11
TORSDOF 1
ENDMDL
MODEL 3
REMARK VINA RESULT:    -4.661      1.790      3.616
REMARK INTER + INTRA:          -7.173
REMARK INTER:                  -7.103
REMARK INTRA:                  -0.070
REMARK UNBOUND:                -0.060
REMARK SMILES CC1=CCC[C@@H](C)C(=O)C[C@@H](C(C)C)C(=O)C1
REMARK SMILES IDX 8 1 9 2 6 3 7 4 5 5 4 6 3 7 2 8 1 9 10 11 11 12 15 13 16 14
REMARK SMILES IDX 17 15 12 17 13 18 14 19
REMARK H PARENT
REMARK Flexibility Score: 70.00
ROOT
ATOM      1  C   UNL     1     -11.367 -18.688  30.980  1.00  0.00     0.136 C 
ATOM      2  O   UNL     1     -10.278 -19.144  30.664  1.00  0.00    -0.299 OA
ENDROOT
BRANCH   1   3
ATOM      3  C   UNL     1     -12.592 -19.576  30.967  1.00  0.00     0.053 C 
ATOM      4  C   UNL     1     -12.363 -20.770  31.900  1.00  0.00     0.016 C 
BRANCH   3   5
ATOM      5  C   UNL     1     -12.954 -20.071  29.546  1.00  0.00     0.015 C 
BRANCH   5   6
ATOM      6  C   UNL     1     -13.594 -18.987  28.657  1.00  0.00     0.028 C 
BRANCH   6   7
ATOM      7  C   UNL     1     -12.632 -18.494  27.598  1.00  0.00    -0.028 C 
ATOM      8  C   UNL     1     -12.338 -17.202  27.316  1.00  0.00    -0.070 CG0
ATOM      9  C   UNL     1     -11.373 -16.929  26.191  1.00  0.00     0.039 C 
ATOM     10  G   UNL     1     -12.866 -16.025  28.110  1.00  0.00     0.000 G0
ENDBRANCH   6   7
ENDBRANCH   5   6
ENDBRANCH   3   5
ENDBRANCH   1   3
BRANCH   1  11
ATOM     11  C   UNL     1     -11.469 -17.245  31.413  1.00  0.00     0.087 C 
BRANCH  11  12
ATOM     12  C   UNL     1     -12.606 -16.499  30.681  1.00  0.00     0.066 C 
BRANCH  12  13
ATOM     13  C   UNL     1     -12.098 -15.867  29.397  1.00  0.00     0.140 C 
ATOM     14  O   UNL     1     -11.034 -15.263  29.395  1.00  0.00    -0.299 OA
BRANCH  13  15
ATOM     15  C   UNL     1     -12.857 -16.006  28.106  1.00  0.00     0.106 CG0
ATOM     16  G   UNL     1     -12.341 -17.199  27.328  1.00  0.00     0.000 G0
ENDBRANCH  13  15
ENDBRANCH  12  13
BRANCH  12  17
ATOM     17  C   UNL     1     -13.344 -15.484  31.606  1.00  0.00    -0.006 C 
ATOM     18  C   UNL     1     -13.987 -16.197  32.808  1.00  0.00     0.008 C 
ATOM     19  C   UNL     1     -14.392 -14.616  30.889  1.00  0.00     0.008 C 
ENDBRANCH  12  17
ENDBRANCH  11  12
ENDBRANCH   1  11
TORSDOF 1
ENDMDL
MODEL 4
REMARK VINA RESULT:    -4.620      1.926      4.831
REMARK INTER + INTRA:          -7.111
REMARK INTER:                  -7.293
REMARK INTRA:                   0.182
REMARK UNBOUND:                -0.060
REMARK SMILES CC1=CCC[C@@H](C)C(=O)C[C@@H](C(C)C)C(=O)C1
REMARK SMILES IDX 8 1 9 2 6 3 7 4 5 5 4 6 3 7 2 8 1 9 10 11 11 12 15 13 16 14
REMARK SMILES IDX 17 15 12 17 13 18 14 19
REMARK H PARENT
REMARK Flexibility Score: 70.00
ROOT
ATOM      1  C   UNL     1     -11.007 -17.555  28.459  1.00  0.00     0.136 C 
ATOM      2  O   UNL     1     -10.007 -16.854  28.403  1.00  0.00    -0.299 OA
ENDROOT
BRANCH   1   3
ATOM      3  C   UNL     1     -12.008 -17.537  27.325  1.00  0.00     0.053 C 
ATOM      4  C   UNL     1     -11.277 -17.254  26.008  1.00  0.00     0.016 C 
BRANCH   3   5
ATOM      5  C   UNL     1     -13.137 -16.501  27.542  1.00  0.00     0.015 C 
BRANCH   5   6
ATOM      6  C   UNL     1     -12.690 -15.251  28.324  1.00  0.00     0.028 C 
BRANCH   6   7
ATOM      7  C   UNL     1     -13.668 -14.900  29.423  1.00  0.00    -0.028 C 
ATOM      8  C   UNL     1     -13.610 -15.307  30.713  1.00  0.00    -0.070 CG0
ATOM      9  C   UNL     1     -14.714 -14.868  31.640  1.00  0.00     0.039 C 
ATOM     10  G   UNL     1     -12.465 -16.114  31.291  1.00  0.00     0.000 G0
ENDBRANCH   6   7
ENDBRANCH   5   6
ENDBRANCH   3   5
ENDBRANCH   1   3
BRANCH   1  11
ATOM     11  C   UNL     1     -11.214 -18.456  29.653  1.00  0.00     0.087 C 
BRANCH  11  12
ATOM     12  C   UNL     1     -12.687 -18.469  30.121  1.00  0.00     0.066 C 
BRANCH  12  13
ATOM     13  C   UNL     1     -12.873 -17.584  31.340  1.00  0.00     0.140 C 
ATOM     14  O   UNL     1     -13.316 -18.059  32.377  1.00  0.00    -0.299 OA
BRANCH  13  15
ATOM     15  C   UNL     1     -12.478 -16.132  31.317  1.00  0.00     0.106 CG0
ATOM     16  G   UNL     1     -13.592 -15.302  30.715  1.00  0.00     0.000 G0
ENDBRANCH  13  15
ENDBRANCH  12  13
BRANCH  12  17
ATOM     17  C   UNL     1     -13.230 -19.915  30.332  1.00  0.00    -0.006 C 
ATOM     18  C   UNL     1     -12.230 -20.772  31.125  1.00  0.00     0.008 C 
ATOM     19  C   UNL     1     -13.628 -20.639  29.034  1.00  0.00     0.008 C 
ENDBRANCH  12  17
ENDBRANCH  11  12
ENDBRANCH   1  11
TORSDOF 1
ENDMDL
MODEL 5
REMARK VINA RESULT:    -4.400      2.187      3.775
REMARK INTER + INTRA:          -6.775
REMARK INTER:                  -7.301
REMARK INTRA:                   0.526
REMARK UNBOUND:                -0.060
REMARK SMILES CC1=CCC[C@@H](C)C(=O)C[C@@H](C(C)C)C(=O)C1
REMARK SMILES IDX 8 1 9 2 6 3 7 4 5 5 4 6 3 7 2 8 1 9 10 11 11 12 15 13 16 14
REMARK SMILES IDX 17 15 12 17 13 18 14 19
REMARK H PARENT
REMARK Flexibility Score: 70.00
ROOT
ATOM      1  C   UNL     1     -12.872 -19.158  29.661  1.00  0.00     0.136 C 
ATOM      2  O   UNL     1     -12.728 -19.982  28.770  1.00  0.00    -0.299 OA
ENDROOT
BRANCH   1   3
ATOM      3  C   UNL     1     -12.904 -19.604  31.106  1.00  0.00     0.053 C 
ATOM      4  C   UNL     1     -13.618 -18.543  31.950  1.00  0.00     0.016 C 
BRANCH   3   5
ATOM      5  C   UNL     1     -11.492 -19.879  31.677  1.00  0.00     0.015 C 
BRANCH   5   6
ATOM      6  C   UNL     1     -10.413 -18.911  31.153  1.00  0.00     0.028 C 
BRANCH   6   7
ATOM      7  C   UNL     1     -10.102 -17.825  32.160  1.00  0.00    -0.028 C 
ATOM      8  C   UNL     1     -10.547 -16.546  32.128  1.00  0.00    -0.070 CG0
ATOM      9  C   UNL     1     -10.084 -15.613  33.217  1.00  0.00     0.039 C 
ATOM     10  G   UNL     1     -11.536 -16.024  31.107  1.00  0.00     0.000 G0
ENDBRANCH   6   7
ENDBRANCH   5   6
ENDBRANCH   3   5
ENDBRANCH   1   3
BRANCH   1  11
ATOM     11  C   UNL     1     -12.985 -17.694  29.306  1.00  0.00     0.087 C 
BRANCH  11  12
ATOM     12  C   UNL     1     -11.668 -17.136  28.723  1.00  0.00     0.066 C 
BRANCH  12  13
ATOM     13  C   UNL     1     -11.005 -16.187  29.705  1.00  0.00     0.140 C 
ATOM     14  O   UNL     1     -10.043 -15.518  29.352  1.00  0.00    -0.299 OA
BRANCH  13  15
ATOM     15  C   UNL     1     -11.537 -16.013  31.102  1.00  0.00     0.106 CG0
ATOM     16  G   UNL     1     -10.537 -16.547  32.107  1.00  0.00     0.000 G0
ENDBRANCH  13  15
ENDBRANCH  12  13
BRANCH  12  17
ATOM     17  C   UNL     1     -11.862 -16.508  27.309  1.00  0.00    -0.006 C 
ATOM     18  C   UNL     1     -13.349 -16.247  27.019  1.00  0.00     0.008 C 
ATOM     19  C   UNL     1     -11.239 -17.323  26.163  1.00  0.00     0.008 C 
ENDBRANCH  12  17
ENDBRANCH  11  12
ENDBRANCH   1  11
TORSDOF 1
ENDMDL
MODEL 6
REMARK VINA RESULT:    -4.276      1.837      3.922
REMARK INTER + INTRA:          -6.587
REMARK INTER:                  -6.928
REMARK INTRA:                   0.341
REMARK UNBOUND:                -0.060
REMARK SMILES CC1=CCC[C@@H](C)C(=O)C[C@@H](C(C)C)C(=O)C1
REMARK SMILES IDX 8 1 9 2 6 3 7 4 5 5 4 6 3 7 2 8 1 9 10 11 11 12 15 13 16 14
REMARK SMILES IDX 17 15 12 17 13 18 14 19
REMARK H PARENT
REMARK Flexibility Score: 70.00
ROOT
ATOM      1  C   UNL     1     -12.063 -15.759  29.138  1.00  0.00     0.136 C 
ATOM      2  O   UNL     1     -11.207 -15.072  29.678  1.00  0.00    -0.299 OA
ENDROOT
BRANCH   1   3
ATOM      3  C   UNL     1     -11.826 -16.307  27.748  1.00  0.00     0.053 C 
ATOM      4  C   UNL     1     -13.175 -16.550  27.062  1.00  0.00     0.016 C 
BRANCH   3   5
ATOM      5  C   UNL     1     -10.989 -17.608  27.755  1.00  0.00     0.015 C 
BRANCH   5   6
ATOM      6  C   UNL     1     -10.406 -17.964  29.137  1.00  0.00     0.028 C 
BRANCH   6   7
ATOM      7  C   UNL     1     -11.153 -19.112  29.779  1.00  0.00    -0.028 C 
ATOM      8  C   UNL     1     -11.639 -19.151  31.042  1.00  0.00    -0.070 CG0
ATOM      9  C   UNL     1     -12.324 -20.414  31.495  1.00  0.00     0.039 C 
ATOM     10  G   UNL     1     -11.598 -17.975  31.996  1.00  0.00     0.000 G0
ENDBRANCH   6   7
ENDBRANCH   5   6
ENDBRANCH   3   5
ENDBRANCH   1   3
BRANCH   1  11
ATOM     11  C   UNL     1     -13.336 -16.078  29.885  1.00  0.00     0.087 C 
BRANCH  11  12
ATOM     12  C   UNL     1     -13.165 -15.930  31.413  1.00  0.00     0.066 C 
BRANCH  12  13
ATOM     13  C   UNL     1     -12.935 -17.282  32.063  1.00  0.00     0.140 C 
ATOM     14  O   UNL     1     -13.862 -17.858  32.617  1.00  0.00    -0.299 OA
BRANCH  13  15
ATOM     15  C   UNL     1     -11.592 -17.958  32.001  1.00  0.00     0.106 CG0
ATOM     16  G   UNL     1     -11.653 -19.148  31.066  1.00  0.00     0.000 G0
ENDBRANCH  13  15
ENDBRANCH  12  13
BRANCH  12  17
ATOM     17  C   UNL     1     -14.334 -15.133  32.067  1.00  0.00    -0.006 C 
ATOM     18  C   UNL     1     -14.885 -14.068  31.104  1.00  0.00     0.008 C 
ATOM     19  C   UNL     1     -13.984 -14.487  33.419  1.00  0.00     0.008 C 
ENDBRANCH  12  17
ENDBRANCH  11  12
ENDBRANCH   1  11
TORSDOF 1
ENDMDL
MODEL 7
REMARK VINA RESULT:    -4.093      1.534      3.752
REMARK INTER + INTRA:          -6.307
REMARK INTER:                  -6.680
REMARK INTRA:                   0.373
REMARK UNBOUND:                -0.060
REMARK SMILES CC1=CCC[C@@H](C)C(=O)C[C@@H](C(C)C)C(=O)C1
REMARK SMILES IDX 8 1 9 2 6 3 7 4 5 5 4 6 3 7 2 8 1 9 10 11 11 12 15 13 16 14
REMARK SMILES IDX 17 15 12 17 13 18 14 19
REMARK H PARENT
REMARK Flexibility Score: 70.00
ROOT
ATOM      1  C   UNL     1     -12.203 -15.437  29.115  1.00  0.00     0.136 C 
ATOM      2  O   UNL     1     -10.984 -15.501  29.032  1.00  0.00    -0.299 OA
ENDROOT
BRANCH   1   3
ATOM      3  C   UNL     1     -13.020 -14.993  27.923  1.00  0.00     0.053 C 
ATOM      4  C   UNL     1     -14.326 -14.357  28.412  1.00  0.00     0.016 C 
BRANCH   3   5
ATOM      5  C   UNL     1     -13.324 -16.151  26.943  1.00  0.00     0.015 C 
BRANCH   5   6
ATOM      6  C   UNL     1     -12.463 -17.407  27.181  1.00  0.00     0.028 C 
BRANCH   6   7
ATOM      7  C   UNL     1     -13.274 -18.534  27.783  1.00  0.00    -0.028 C 
ATOM      8  C   UNL     1     -12.979 -19.226  28.909  1.00  0.00    -0.070 CG0
ATOM      9  C   UNL     1     -13.909 -20.341  29.313  1.00  0.00     0.039 C 
ATOM     10  G   UNL     1     -11.815 -18.897  29.819  1.00  0.00     0.000 G0
ENDBRANCH   6   7
ENDBRANCH   5   6
ENDBRANCH   3   5
ENDBRANCH   1   3
BRANCH   1  11
ATOM     11  C   UNL     1     -12.878 -15.837  30.406  1.00  0.00     0.087 C 
BRANCH  11  12
ATOM     12  C   UNL     1     -11.969 -16.722  31.286  1.00  0.00     0.066 C 
BRANCH  12  13
ATOM     13  C   UNL     1     -12.270 -18.193  31.065  1.00  0.00     0.140 C 
ATOM     14  O   UNL     1     -12.936 -18.809  31.885  1.00  0.00    -0.299 OA
BRANCH  13  15
ATOM     15  C   UNL     1     -11.804 -18.906  29.824  1.00  0.00     0.106 CG0
ATOM     16  G   UNL     1     -12.986 -19.211  28.927  1.00  0.00     0.000 G0
ENDBRANCH  13  15
ENDBRANCH  12  13
BRANCH  12  17
ATOM     17  C   UNL     1     -12.016 -16.312  32.790  1.00  0.00    -0.006 C 
ATOM     18  C   UNL     1     -13.186 -15.353  33.065  1.00  0.00     0.008 C 
ATOM     19  C   UNL     1     -10.706 -15.710  33.325  1.00  0.00     0.008 C 
ENDBRANCH  12  17
ENDBRANCH  11  12
ENDBRANCH   1  11
TORSDOF 1
ENDMDL
MODEL 8
REMARK VINA RESULT:    -3.888      2.029      4.888
REMARK INTER + INTRA:          -5.994
REMARK INTER:                  -6.518
REMARK INTRA:                   0.524
REMARK UNBOUND:                -0.060
REMARK SMILES CC1=CCC[C@@H](C)C(=O)C[C@@H](C(C)C)C(=O)C1
REMARK SMILES IDX 8 1 9 2 6 3 7 4 5 5 4 6 3 7 2 8 1 9 10 11 11 12 15 13 16 14
REMARK SMILES IDX 17 15 12 17 13 18 14 19
REMARK H PARENT
REMARK Flexibility Score: 70.00
ROOT
ATOM      1  C   UNL     1     -12.931 -18.287  28.118  1.00  0.00     0.136 C 
ATOM      2  O   UNL     1     -14.030 -18.745  28.399  1.00  0.00    -0.299 OA
ENDROOT
BRANCH   1   3
ATOM      3  C   UNL     1     -12.806 -17.229  27.044  1.00  0.00     0.053 C 
ATOM      4  C   UNL     1     -11.325 -17.019  26.710  1.00  0.00     0.016 C 
BRANCH   3   5
ATOM      5  C   UNL     1     -13.458 -15.886  27.449  1.00  0.00     0.015 C 
BRANCH   5   6
ATOM      6  C   UNL     1     -12.783 -15.210  28.659  1.00  0.00     0.028 C 
BRANCH   6   7
ATOM      7  C   UNL     1     -13.626 -15.333  29.909  1.00  0.00    -0.028 C 
ATOM      8  C   UNL     1     -13.197 -15.714  31.136  1.00  0.00    -0.070 CG0
ATOM      9  C   UNL     1     -14.216 -15.805  32.242  1.00  0.00     0.039 C 
ATOM     10  G   UNL     1     -11.745 -15.981  31.474  1.00  0.00     0.000 G0
ENDBRANCH   6   7
ENDBRANCH   5   6
ENDBRANCH   3   5
ENDBRANCH   1   3
BRANCH   1  11
ATOM     11  C   UNL     1     -11.715 -18.764  28.874  1.00  0.00     0.087 C 
BRANCH  11  12
ATOM     12  C   UNL     1     -11.758 -18.350  30.362  1.00  0.00     0.066 C 
BRANCH  12  13
ATOM     13  C   UNL     1     -11.127 -16.983  30.560  1.00  0.00     0.140 C 
ATOM     14  O   UNL     1     -10.129 -16.674  29.924  1.00  0.00    -0.299 OA
BRANCH  13  15
ATOM     15  C   UNL     1     -11.735 -15.973  31.495  1.00  0.00     0.106 CG0
ATOM     16  G   UNL     1     -13.181 -15.724  31.119  1.00  0.00     0.000 G0
ENDBRANCH  13  15
ENDBRANCH  12  13
BRANCH  12  17
ATOM     17  C   UNL     1     -11.153 -19.439  31.299  1.00  0.00    -0.006 C 
ATOM     18  C   UNL     1     -12.193 -20.520  31.636  1.00  0.00     0.008 C 
ATOM     19  C   UNL     1     -10.531 -18.888  32.594  1.00  0.00     0.008 C 
ENDBRANCH  12  17
ENDBRANCH  11  12
ENDBRANCH   1  11
TORSDOF 1
ENDMDL
MODEL 9
REMARK VINA RESULT:    -3.813      1.744      2.327
REMARK INTER + INTRA:          -5.879
REMARK INTER:                  -6.462
REMARK INTRA:                   0.582
REMARK UNBOUND:                -0.060
REMARK SMILES CC1=CCC[C@@H](C)C(=O)C[C@@H](C(C)C)C(=O)C1
REMARK SMILES IDX 8 1 9 2 6 3 7 4 5 5 4 6 3 7 2 8 1 9 10 11 11 12 15 13 16 14
REMARK SMILES IDX 17 15 12 17 13 18 14 19
REMARK H PARENT
REMARK Flexibility Score: 70.00
ROOT
ATOM      1  C   UNL     1     -12.373 -15.966  30.477  1.00  0.00     0.136 C 
ATOM      2  O   UNL     1     -13.546 -15.959  30.820  1.00  0.00    -0.299 OA
ENDROOT
BRANCH   1   3
ATOM      3  C   UNL     1     -11.285 -15.737  31.503  1.00  0.00     0.053 C 
ATOM      4  C   UNL     1      -9.924 -15.697  30.799  1.00  0.00     0.016 C 
BRANCH   3   5
ATOM      5  C   UNL     1     -11.279 -16.812  32.616  1.00  0.00     0.015 C 
BRANCH   5   6
ATOM      6  C   UNL     1     -10.437 -18.056  32.272  1.00  0.00     0.028 C 
BRANCH   6   7
ATOM      7  C   UNL     1     -11.307 -19.270  32.030  1.00  0.00    -0.028 C 
ATOM      8  C   UNL     1     -11.820 -19.669  30.841  1.00  0.00    -0.070 CG0
ATOM      9  C   UNL     1     -12.697 -20.895  30.829  1.00  0.00     0.039 C 
ATOM     10  G   UNL     1     -11.503 -18.999  29.520  1.00  0.00     0.000 G0
ENDBRANCH   6   7
ENDBRANCH   5   6
ENDBRANCH   3   5
ENDBRANCH   1   3
BRANCH   1  11
ATOM     11  C   UNL     1     -12.024 -16.235  29.033  1.00  0.00     0.087 C 
BRANCH  11  12
ATOM     12  C   UNL     1     -13.030 -17.197  28.363  1.00  0.00     0.066 C 
BRANCH  12  13
ATOM     13  C   UNL     1     -12.783 -18.629  28.805  1.00  0.00     0.140 C 
ATOM     14  O   UNL     1     -13.610 -19.495  28.557  1.00  0.00    -0.299 OA
BRANCH  13  15
ATOM     15  C   UNL     1     -11.510 -19.019  29.507  1.00  0.00     0.106 CG0
ATOM     16  G   UNL     1     -11.831 -19.676  30.834  1.00  0.00     0.000 G0
ENDBRANCH  13  15
ENDBRANCH  12  13
BRANCH  12  17
ATOM     17  C   UNL     1     -13.062 -17.038  26.813  1.00  0.00    -0.006 C 
ATOM     18  C   UNL     1     -11.640 -16.983  26.232  1.00  0.00     0.008 C 
ATOM     19  C   UNL     1     -13.879 -15.833  26.315  1.00  0.00     0.008 C 
ENDBRANCH  12  17
ENDBRANCH  11  12
ENDBRANCH   1  11
TORSDOF 1
ENDMDL
