MODEL 1
REMARK VINA RESULT:    -6.283      0.000      0.000
REMARK INTER + INTRA:          -6.283
REMARK INTER:                  -6.283
REMARK INTRA:                   0.000
REMARK UNBOUND:                 0.000
REMARK SMILES O=c1ccc2ccccc2o1
REMARK SMILES IDX 7 1 8 2 9 3 10 4 5 5 6 6 4 7 3 8 2 9 1 10 11 11
REMARK H PARENT
REMARK Flexibility Score: inf
ROOT
ATOM      1  C   UNL     1     -12.590 -29.318 -11.040  1.00  0.00     0.001 A 
ATOM      2  C   UNL     1     -12.725 -28.099 -10.367  1.00  0.00     0.004 A 
ATOM      3  C   UNL     1     -13.328 -27.008 -10.999  1.00  0.00     0.048 A 
ATOM      4  C   UNL     1     -13.801 -27.132 -12.311  1.00  0.00     0.138 A 
ATOM      5  C   UNL     1     -13.667 -28.363 -12.991  1.00  0.00     0.018 A 
ATOM      6  C   UNL     1     -13.060 -29.453 -12.351  1.00  0.00     0.012 A 
ATOM      7  C   UNL     1     -14.149 -28.456 -14.300  1.00  0.00     0.019 A 
ATOM      8  C   UNL     1     -14.744 -27.342 -14.892  1.00  0.00     0.094 A 
ATOM      9  C   UNL     1     -14.844 -26.156 -14.157  1.00  0.00     0.336 A 
ATOM     10  O   UNL     1     -15.377 -25.141 -14.674  1.00  0.00    -0.246 OA
ATOM     11  O   UNL     1     -14.376 -26.093 -12.912  1.00  0.00    -0.423 OA
ENDROOT
TORSDOF 0
ENDMDL
MODEL 2
REMARK VINA RESULT:    -6.210      2.375      4.119
REMARK INTER + INTRA:          -6.210
REMARK INTER:                  -6.210
REMARK INTRA:                   0.000
REMARK UNBOUND:                 0.000
REMARK SMILES O=c1ccc2ccccc2o1
REMARK SMILES IDX 7 1 8 2 9 3 10 4 5 5 6 6 4 7 3 8 2 9 1 10 11 11
REMARK H PARENT
REMARK Flexibility Score: inf
ROOT
ATOM      1  C   UNL     1     -14.678 -25.884 -13.135  1.00  0.00     0.001 A 
ATOM      2  C   UNL     1     -14.833 -26.083 -14.510  1.00  0.00     0.004 A 
ATOM      3  C   UNL     1     -14.671 -27.358 -15.061  1.00  0.00     0.048 A 
ATOM      4  C   UNL     1     -14.352 -28.442 -14.235  1.00  0.00     0.138 A 
ATOM      5  C   UNL     1     -14.196 -28.243 -12.845  1.00  0.00     0.018 A 
ATOM      6  C   UNL     1     -14.360 -26.961 -12.300  1.00  0.00     0.012 A 
ATOM      7  C   UNL     1     -13.878 -29.345 -12.046  1.00  0.00     0.019 A 
ATOM      8  C   UNL     1     -13.725 -30.599 -12.637  1.00  0.00     0.094 A 
ATOM      9  C   UNL     1     -13.896 -30.721 -14.020  1.00  0.00     0.336 A 
ATOM     10  O   UNL     1     -13.763 -31.844 -14.572  1.00  0.00    -0.246 OA
ATOM     11  O   UNL     1     -14.198 -29.656 -14.759  1.00  0.00    -0.423 OA
ENDROOT
TORSDOF 0
ENDMDL
MODEL 3
REMARK VINA RESULT:    -6.138      1.756      2.178
REMARK INTER + INTRA:          -6.138
REMARK INTER:                  -6.138
REMARK INTRA:                   0.000
REMARK UNBOUND:                 0.000
REMARK SMILES O=c1ccc2ccccc2o1
REMARK SMILES IDX 7 1 8 2 9 3 10 4 5 5 6 6 4 7 3 8 2 9 1 10 11 11
REMARK H PARENT
REMARK Flexibility Score: inf
ROOT
ATOM      1  C   UNL     1     -11.456 -28.827  -9.577  1.00  0.00     0.001 A 
ATOM      2  C   UNL     1     -12.226 -27.686  -9.330  1.00  0.00     0.004 A 
ATOM      3  C   UNL     1     -13.286 -27.353 -10.180  1.00  0.00     0.048 A 
ATOM      4  C   UNL     1     -13.580 -28.163 -11.283  1.00  0.00     0.138 A 
ATOM      5  C   UNL     1     -12.803 -29.316 -11.533  1.00  0.00     0.018 A 
ATOM      6  C   UNL     1     -11.742 -29.644 -10.677  1.00  0.00     0.012 A 
ATOM      7  C   UNL     1     -13.121 -30.106 -12.642  1.00  0.00     0.019 A 
ATOM      8  C   UNL     1     -14.187 -29.736 -13.463  1.00  0.00     0.094 A 
ATOM      9  C   UNL     1     -14.912 -28.581 -13.153  1.00  0.00     0.336 A 
ATOM     10  O   UNL     1     -15.877 -28.231 -13.881  1.00  0.00    -0.246 OA
ATOM     11  O   UNL     1     -14.589 -27.846 -12.091  1.00  0.00    -0.423 OA
ENDROOT
TORSDOF 0
ENDMDL
MODEL 4
REMARK VINA RESULT:    -6.135      3.133      3.996
REMARK INTER + INTRA:          -6.135
REMARK INTER:                  -6.135
REMARK INTRA:                   0.000
REMARK UNBOUND:                 0.000
REMARK SMILES O=c1ccc2ccccc2o1
REMARK SMILES IDX 7 1 8 2 9 3 10 4 5 5 6 6 4 7 3 8 2 9 1 10 11 11
REMARK H PARENT
REMARK Flexibility Score: inf
ROOT
ATOM      1  C   UNL     1     -12.554 -30.729 -12.626  1.00  0.00     0.001 A 
ATOM      2  C   UNL     1     -11.375 -30.763 -11.874  1.00  0.00     0.004 A 
ATOM      3  C   UNL     1     -11.171 -29.842 -10.841  1.00  0.00     0.048 A 
ATOM      4  C   UNL     1     -12.149 -28.883 -10.556  1.00  0.00     0.138 A 
ATOM      5  C   UNL     1     -13.340 -28.848 -11.314  1.00  0.00     0.018 A 
ATOM      6  C   UNL     1     -13.538 -29.774 -12.349  1.00  0.00     0.012 A 
ATOM      7  C   UNL     1     -14.298 -27.878 -11.006  1.00  0.00     0.019 A 
ATOM      8  C   UNL     1     -14.054 -26.980  -9.968  1.00  0.00     0.094 A 
ATOM      9  C   UNL     1     -12.851 -27.074  -9.259  1.00  0.00     0.336 A 
ATOM     10  O   UNL     1     -12.613 -26.273  -8.319  1.00  0.00    -0.246 OA
ATOM     11  O   UNL     1     -11.955 -28.007  -9.573  1.00  0.00    -0.423 OA
ENDROOT
TORSDOF 0
ENDMDL
MODEL 5
REMARK VINA RESULT:    -6.071      1.933      3.795
REMARK INTER + INTRA:          -6.071
REMARK INTER:                  -6.071
REMARK INTRA:                   0.000
REMARK UNBOUND:                 0.000
REMARK SMILES O=c1ccc2ccccc2o1
REMARK SMILES IDX 7 1 8 2 9 3 10 4 5 5 6 6 4 7 3 8 2 9 1 10 11 11
REMARK H PARENT
REMARK Flexibility Score: inf
ROOT
ATOM      1  C   UNL     1     -14.348 -29.868 -13.756  1.00  0.00     0.001 A 
ATOM      2  C   UNL     1     -15.131 -28.710 -13.760  1.00  0.00     0.004 A 
ATOM      3  C   UNL     1     -14.963 -27.742 -12.764  1.00  0.00     0.048 A 
ATOM      4  C   UNL     1     -14.008 -27.930 -11.759  1.00  0.00     0.138 A 
ATOM      5  C   UNL     1     -13.215 -29.099 -11.755  1.00  0.00     0.018 A 
ATOM      6  C   UNL     1     -13.389 -30.066 -12.756  1.00  0.00     0.012 A 
ATOM      7  C   UNL     1     -12.269 -29.259 -10.738  1.00  0.00     0.019 A 
ATOM      8  C   UNL     1     -12.136 -28.269  -9.765  1.00  0.00     0.094 A 
ATOM      9  C   UNL     1     -12.955 -27.137  -9.833  1.00  0.00     0.336 A 
ATOM     10  O   UNL     1     -12.849 -26.232  -8.965  1.00  0.00    -0.246 OA
ATOM     11  O   UNL     1     -13.848 -27.009 -10.812  1.00  0.00    -0.423 OA
ENDROOT
TORSDOF 0
ENDMDL
MODEL 6
REMARK VINA RESULT:    -6.001      2.589      4.231
REMARK INTER + INTRA:          -6.001
REMARK INTER:                  -6.001
REMARK INTRA:                   0.000
REMARK UNBOUND:                 0.000
REMARK SMILES O=c1ccc2ccccc2o1
REMARK SMILES IDX 7 1 8 2 9 3 10 4 5 5 6 6 4 7 3 8 2 9 1 10 11 11
REMARK H PARENT
REMARK Flexibility Score: inf
ROOT
ATOM      1  C   UNL     1     -14.882 -29.107 -13.769  1.00  0.00     0.001 A 
ATOM      2  C   UNL     1     -13.950 -30.111 -13.489  1.00  0.00     0.004 A 
ATOM      3  C   UNL     1     -13.130 -30.018 -12.360  1.00  0.00     0.048 A 
ATOM      4  C   UNL     1     -13.242 -28.916 -11.504  1.00  0.00     0.138 A 
ATOM      5  C   UNL     1     -14.183 -27.902 -11.785  1.00  0.00     0.018 A 
ATOM      6  C   UNL     1     -15.002 -28.002 -12.919  1.00  0.00     0.012 A 
ATOM      7  C   UNL     1     -14.272 -26.814 -10.911  1.00  0.00     0.019 A 
ATOM      8  C   UNL     1     -13.435 -26.761  -9.797  1.00  0.00     0.094 A 
ATOM      9  C   UNL     1     -12.526 -27.803  -9.581  1.00  0.00     0.336 A 
ATOM     10  O   UNL     1     -11.763 -27.773  -8.581  1.00  0.00    -0.246 OA
ATOM     11  O   UNL     1     -12.462 -28.827 -10.428  1.00  0.00    -0.423 OA
ENDROOT
TORSDOF 0
ENDMDL
MODEL 7
REMARK VINA RESULT:    -5.989      1.334      2.727
REMARK INTER + INTRA:          -5.989
REMARK INTER:                  -5.989
REMARK INTRA:                   0.000
REMARK UNBOUND:                 0.000
REMARK SMILES O=c1ccc2ccccc2o1
REMARK SMILES IDX 7 1 8 2 9 3 10 4 5 5 6 6 4 7 3 8 2 9 1 10 11 11
REMARK H PARENT
REMARK Flexibility Score: inf
ROOT
ATOM      1  C   UNL     1     -13.606 -31.002 -13.016  1.00  0.00     0.001 A 
ATOM      2  C   UNL     1     -13.920 -30.963 -14.378  1.00  0.00     0.004 A 
ATOM      3  C   UNL     1     -14.280 -29.755 -14.984  1.00  0.00     0.048 A 
ATOM      4  C   UNL     1     -14.326 -28.579 -14.227  1.00  0.00     0.138 A 
ATOM      5  C   UNL     1     -14.008 -28.617 -12.851  1.00  0.00     0.018 A 
ATOM      6  C   UNL     1     -13.649 -29.832 -12.250  1.00  0.00     0.012 A 
ATOM      7  C   UNL     1     -14.063 -27.426 -12.121  1.00  0.00     0.019 A 
ATOM      8  C   UNL     1     -14.427 -26.244 -12.766  1.00  0.00     0.094 A 
ATOM      9  C   UNL     1     -14.727 -26.281 -14.132  1.00  0.00     0.336 A 
ATOM     10  O   UNL     1     -15.057 -25.226 -14.731  1.00  0.00    -0.246 OA
ATOM     11  O   UNL     1     -14.668 -27.429 -14.804  1.00  0.00    -0.423 OA
ENDROOT
TORSDOF 0
ENDMDL
MODEL 8
REMARK VINA RESULT:    -5.960      1.961      3.199
REMARK INTER + INTRA:          -5.960
REMARK INTER:                  -5.960
REMARK INTRA:                   0.000
REMARK UNBOUND:                 0.000
REMARK SMILES O=c1ccc2ccccc2o1
REMARK SMILES IDX 7 1 8 2 9 3 10 4 5 5 6 6 4 7 3 8 2 9 1 10 11 11
REMARK H PARENT
REMARK Flexibility Score: inf
ROOT
ATOM      1  C   UNL     1     -10.773 -30.782 -11.127  1.00  0.00     0.001 A 
ATOM      2  C   UNL     1     -11.173 -31.534 -12.236  1.00  0.00     0.004 A 
ATOM      3  C   UNL     1     -12.282 -31.141 -12.991  1.00  0.00     0.048 A 
ATOM      4  C   UNL     1     -12.996 -29.990 -12.639  1.00  0.00     0.138 A 
ATOM      5  C   UNL     1     -12.592 -29.229 -11.519  1.00  0.00     0.018 A 
ATOM      6  C   UNL     1     -11.479 -29.629 -10.766  1.00  0.00     0.012 A 
ATOM      7  C   UNL     1     -13.325 -28.084 -11.193  1.00  0.00     0.019 A 
ATOM      8  C   UNL     1     -14.425 -27.729 -11.974  1.00  0.00     0.094 A 
ATOM      9  C   UNL     1     -14.766 -28.530 -13.069  1.00  0.00     0.336 A 
ATOM     10  O   UNL     1     -15.754 -28.226 -13.785  1.00  0.00    -0.246 OA
ATOM     11  O   UNL     1     -14.051 -29.615 -13.358  1.00  0.00    -0.423 OA
ENDROOT
TORSDOF 0
ENDMDL
MODEL 9
REMARK VINA RESULT:    -5.940      2.352      3.013
REMARK INTER + INTRA:          -5.940
REMARK INTER:                  -5.940
REMARK INTRA:                   0.000
REMARK UNBOUND:                 0.000
REMARK SMILES O=c1ccc2ccccc2o1
REMARK SMILES IDX 7 1 8 2 9 3 10 4 5 5 6 6 4 7 3 8 2 9 1 10 11 11
REMARK H PARENT
REMARK Flexibility Score: inf
ROOT
ATOM      1  C   UNL     1     -12.993 -26.996  -9.809  1.00  0.00     0.001 A 
ATOM      2  C   UNL     1     -12.203 -28.148  -9.749  1.00  0.00     0.004 A 
ATOM      3  C   UNL     1     -12.352 -29.155 -10.708  1.00  0.00     0.048 A 
ATOM      4  C   UNL     1     -13.293 -29.012 -11.734  1.00  0.00     0.138 A 
ATOM      5  C   UNL     1     -14.091 -27.848 -11.796  1.00  0.00     0.018 A 
ATOM      6  C   UNL     1     -13.937 -26.842 -10.831  1.00  0.00     0.012 A 
ATOM      7  C   UNL     1     -15.022 -27.733 -12.832  1.00  0.00     0.019 A 
ATOM      8  C   UNL     1     -15.137 -28.761 -13.767  1.00  0.00     0.094 A 
ATOM      9  C   UNL     1     -14.312 -29.885 -13.644  1.00  0.00     0.336 A 
ATOM     10  O   UNL     1     -14.401 -30.823 -14.477  1.00  0.00    -0.246 OA
ATOM     11  O   UNL     1     -13.434 -29.970 -12.648  1.00  0.00    -0.423 OA
ENDROOT
TORSDOF 0
ENDMDL
