MODEL 1
REMARK VINA RESULT:    -4.031      0.000      0.000
REMARK INTER + INTRA:          -4.149
REMARK INTER:                  -4.149
REMARK INTRA:                   0.000
REMARK UNBOUND:                 0.000
REMARK SMILES Nc1ncnc2nc[nH]c12
REMARK SMILES IDX 8 1 7 2 6 3 5 4 4 5 3 6 2 7 10 8 9 9 1 11
REMARK H PARENT 9 10 1 12 1 13
REMARK Flexibility Score: inf
ROOT
ATOM      1  C   UNL     1       6.966 -44.750  20.633  1.00  0.00     0.199 A 
ATOM      2  N   UNL     1       8.230 -45.072  21.024  1.00  0.00    -0.217 NA
ATOM      3  C   UNL     1       8.958 -44.083  20.481  1.00  0.00     0.182 A 
ATOM      4  N   UNL     1      10.300 -43.926  20.568  1.00  0.00    -0.215 NA
ATOM      5  C   UNL     1      10.866 -42.848  19.945  1.00  0.00     0.226 A 
ATOM      6  N   UNL     1      10.088 -41.957  19.252  1.00  0.00    -0.217 NA
ATOM      7  C   UNL     1       8.733 -42.114  19.162  1.00  0.00     0.152 A 
ATOM      8  C   UNL     1       8.172 -43.216  19.803  1.00  0.00     0.127 A 
ATOM      9  N   UNL     1       6.899 -43.619  19.884  1.00  0.00    -0.340 N 
ATOM     10  H   UNL     1       6.046 -43.178  19.475  1.00  0.00     0.168 HD
ENDROOT
BRANCH   7  11
ATOM     11  N   UNL     1       7.943 -41.174  18.434  1.00  0.00    -0.382 N 
ATOM     12  H   UNL     1       6.912 -41.099  18.582  1.00  0.00     0.158 HD
ATOM     13  H   UNL     1       8.394 -40.542  17.736  1.00  0.00     0.158 HD
ENDBRANCH   7  11
TORSDOF 1
ENDMDL
MODEL 2
REMARK VINA RESULT:    -3.858      9.626     11.208
REMARK INTER + INTRA:          -3.970
REMARK INTER:                  -3.970
REMARK INTRA:                   0.000
REMARK UNBOUND:                 0.000
REMARK SMILES Nc1ncnc2nc[nH]c12
REMARK SMILES IDX 8 1 7 2 6 3 5 4 4 5 3 6 2 7 10 8 9 9 1 11
REMARK H PARENT 9 10 1 12 1 13
REMARK Flexibility Score: inf
ROOT
ATOM      1  C   UNL     1       9.609 -33.808  18.662  1.00  0.00     0.199 A 
ATOM      2  N   UNL     1       9.374 -32.784  17.795  1.00  0.00    -0.217 NA
ATOM      3  C   UNL     1       8.158 -32.361  18.176  1.00  0.00     0.182 A 
ATOM      4  N   UNL     1       7.447 -31.345  17.631  1.00  0.00    -0.215 NA
ATOM      5  C   UNL     1       6.219 -31.059  18.159  1.00  0.00     0.226 A 
ATOM      6  N   UNL     1       5.727 -31.787  19.211  1.00  0.00    -0.217 NA
ATOM      7  C   UNL     1       6.441 -32.813  19.764  1.00  0.00     0.152 A 
ATOM      8  C   UNL     1       7.691 -33.091  19.215  1.00  0.00     0.127 A 
ATOM      9  N   UNL     1       8.598 -34.020  19.543  1.00  0.00    -0.340 N 
ATOM     10  H   UNL     1       8.552 -34.742  20.295  1.00  0.00     0.168 HD
ENDROOT
BRANCH   7  11
ATOM     11  N   UNL     1       5.909 -33.558  20.860  1.00  0.00    -0.382 N 
ATOM     12  H   UNL     1       5.243 -33.127  21.538  1.00  0.00     0.158 HD
ATOM     13  H   UNL     1       6.186 -34.555  20.997  1.00  0.00     0.158 HD
ENDBRANCH   7  11
TORSDOF 1
ENDMDL
MODEL 3
REMARK VINA RESULT:    -3.837     10.068     11.690
REMARK INTER + INTRA:          -3.949
REMARK INTER:                  -3.949
REMARK INTRA:                   0.000
REMARK UNBOUND:                 0.000
REMARK SMILES Nc1ncnc2nc[nH]c12
REMARK SMILES IDX 8 1 7 2 6 3 5 4 4 5 3 6 2 7 10 8 9 9 1 11
REMARK H PARENT 9 10 1 12 1 13
REMARK Flexibility Score: inf
ROOT
ATOM      1  C   UNL     1       5.168 -30.456  18.192  1.00  0.00     0.199 A 
ATOM      2  N   UNL     1       6.292 -30.634  17.444  1.00  0.00    -0.217 NA
ATOM      3  C   UNL     1       6.903 -31.645  18.083  1.00  0.00     0.182 A 
ATOM      4  N   UNL     1       8.081 -32.221  17.745  1.00  0.00    -0.215 NA
ATOM      5  C   UNL     1       8.546 -33.246  18.522  1.00  0.00     0.226 A 
ATOM      6  N   UNL     1       7.833 -33.671  19.613  1.00  0.00    -0.217 NA
ATOM      7  C   UNL     1       6.644 -33.091  19.957  1.00  0.00     0.152 A 
ATOM      8  C   UNL     1       6.184 -32.050  19.155  1.00  0.00     0.127 A 
ATOM      9  N   UNL     1       5.074 -31.307  19.245  1.00  0.00    -0.340 N 
ATOM     10  H   UNL     1       4.308 -31.359  19.953  1.00  0.00     0.168 HD
ENDROOT
BRANCH   7  11
ATOM     11  N   UNL     1       5.918 -33.551  21.097  1.00  0.00    -0.382 N 
ATOM     12  H   UNL     1       6.024 -33.096  22.030  1.00  0.00     0.158 HD
ATOM     13  H   UNL     1       5.263 -34.360  21.008  1.00  0.00     0.158 HD
ENDBRANCH   7  11
TORSDOF 1
ENDMDL
MODEL 4
REMARK VINA RESULT:    -3.793      9.809     11.524
REMARK INTER + INTRA:          -3.904
REMARK INTER:                  -3.904
REMARK INTRA:                   0.000
REMARK UNBOUND:                 0.000
REMARK SMILES Nc1ncnc2nc[nH]c12
REMARK SMILES IDX 8 1 7 2 6 3 5 4 4 5 3 6 2 7 10 8 9 9 1 11
REMARK H PARENT 9 10 1 12 1 13
REMARK Flexibility Score: inf
ROOT
ATOM      1  C   UNL     1       5.568 -31.029  18.625  1.00  0.00     0.199 A 
ATOM      2  N   UNL     1       5.747 -32.217  19.266  1.00  0.00    -0.217 NA
ATOM      3  C   UNL     1       7.005 -32.539  18.926  1.00  0.00     0.182 A 
ATOM      4  N   UNL     1       7.687 -33.646  19.304  1.00  0.00    -0.215 NA
ATOM      5  C   UNL     1       8.969 -33.801  18.854  1.00  0.00     0.226 A 
ATOM      6  N   UNL     1       9.540 -32.855  18.042  1.00  0.00    -0.217 NA
ATOM      7  C   UNL     1       8.854 -31.737  17.658  1.00  0.00     0.152 A 
ATOM      8  C   UNL     1       7.550 -31.594  18.125  1.00  0.00     0.127 A 
ATOM      9  N   UNL     1       6.653 -30.622  17.919  1.00  0.00    -0.340 N 
ATOM     10  H   UNL     1       6.753 -29.751  17.351  1.00  0.00     0.168 HD
ENDROOT
BRANCH   7  11
ATOM     11  N   UNL     1       9.469 -30.766  16.811  1.00  0.00    -0.382 N 
ATOM     12  H   UNL     1       9.392 -29.744  17.009  1.00  0.00     0.158 HD
ATOM     13  H   UNL     1      10.010 -31.073  15.972  1.00  0.00     0.158 HD
ENDBRANCH   7  11
TORSDOF 1
ENDMDL
MODEL 5
REMARK VINA RESULT:    -3.778      9.371     11.286
REMARK INTER + INTRA:          -3.888
REMARK INTER:                  -3.888
REMARK INTRA:                   0.000
REMARK UNBOUND:                 0.000
REMARK SMILES Nc1ncnc2nc[nH]c12
REMARK SMILES IDX 8 1 7 2 6 3 5 4 4 5 3 6 2 7 10 8 9 9 1 11
REMARK H PARENT 9 10 1 12 1 13
REMARK Flexibility Score: inf
ROOT
ATOM      1  C   UNL     1       9.011 -31.378  17.383  1.00  0.00     0.199 A 
ATOM      2  N   UNL     1       9.322 -32.650  17.755  1.00  0.00    -0.217 NA
ATOM      3  C   UNL     1       8.234 -33.018  18.451  1.00  0.00     0.182 A 
ATOM      4  N   UNL     1       8.025 -34.214  19.052  1.00  0.00    -0.215 NA
ATOM      5  C   UNL     1       6.846 -34.404  19.719  1.00  0.00     0.226 A 
ATOM      6  N   UNL     1       5.908 -33.405  19.773  1.00  0.00    -0.217 NA
ATOM      7  C   UNL     1       6.117 -32.198  19.168  1.00  0.00     0.152 A 
ATOM      8  C   UNL     1       7.322 -32.020  18.492  1.00  0.00     0.127 A 
ATOM      9  N   UNL     1       7.794 -30.964  17.819  1.00  0.00    -0.340 N 
ATOM     10  H   UNL     1       7.344 -30.036  17.659  1.00  0.00     0.168 HD
ENDROOT
BRANCH   7  11
ATOM     11  N   UNL     1       5.126 -31.172  19.237  1.00  0.00    -0.382 N 
ATOM     12  H   UNL     1       4.880 -30.713  20.142  1.00  0.00     0.158 HD
ATOM     13  H   UNL     1       4.628 -30.867  18.372  1.00  0.00     0.158 HD
ENDBRANCH   7  11
TORSDOF 1
ENDMDL
MODEL 6
REMARK VINA RESULT:    -3.719      7.576      9.312
REMARK INTER + INTRA:          -3.828
REMARK INTER:                  -3.828
REMARK INTRA:                   0.000
REMARK UNBOUND:                 0.000
REMARK SMILES Nc1ncnc2nc[nH]c12
REMARK SMILES IDX 8 1 7 2 6 3 5 4 4 5 3 6 2 7 10 8 9 9 1 11
REMARK H PARENT 9 10 1 12 1 13
REMARK Flexibility Score: inf
ROOT
ATOM      1  C   UNL     1       6.970 -36.857  18.880  1.00  0.00     0.199 A 
ATOM      2  N   UNL     1       7.411 -36.271  17.733  1.00  0.00    -0.217 NA
ATOM      3  C   UNL     1       7.339 -34.964  18.034  1.00  0.00     0.182 A 
ATOM      4  N   UNL     1       7.669 -33.929  17.225  1.00  0.00    -0.215 NA
ATOM      5  C   UNL     1       7.528 -32.658  17.712  1.00  0.00     0.226 A 
ATOM      6  N   UNL     1       7.064 -32.448  18.985  1.00  0.00    -0.217 NA
ATOM      7  C   UNL     1       6.731 -33.491  19.803  1.00  0.00     0.152 A 
ATOM      8  C   UNL     1       6.881 -34.778  19.293  1.00  0.00     0.127 A 
ATOM      9  N   UNL     1       6.637 -35.970  19.853  1.00  0.00    -0.340 N 
ATOM     10  H   UNL     1       6.278 -36.181  20.809  1.00  0.00     0.168 HD
ENDROOT
BRANCH   7  11
ATOM     11  N   UNL     1       6.250 -33.248  21.125  1.00  0.00    -0.382 N 
ATOM     12  H   UNL     1       6.905 -33.103  21.924  1.00  0.00     0.158 HD
ATOM     13  H   UNL     1       5.222 -33.214  21.309  1.00  0.00     0.158 HD
ENDBRANCH   7  11
TORSDOF 1
ENDMDL
MODEL 7
REMARK VINA RESULT:    -3.680     10.092     11.832
REMARK INTER + INTRA:          -3.788
REMARK INTER:                  -3.788
REMARK INTRA:                   0.000
REMARK UNBOUND:                 0.000
REMARK SMILES Nc1ncnc2nc[nH]c12
REMARK SMILES IDX 8 1 7 2 6 3 5 4 4 5 3 6 2 7 10 8 9 9 1 11
REMARK H PARENT 9 10 1 12 1 13
REMARK Flexibility Score: inf
ROOT
ATOM      1  C   UNL     1       6.687 -33.825  19.946  1.00  0.00     0.199 A 
ATOM      2  N   UNL     1       7.223 -33.861  18.695  1.00  0.00    -0.217 NA
ATOM      3  C   UNL     1       6.732 -32.740  18.142  1.00  0.00     0.182 A 
ATOM      4  N   UNL     1       6.961 -32.292  16.885  1.00  0.00    -0.215 NA
ATOM      5  C   UNL     1       6.370 -31.120  16.499  1.00  0.00     0.226 A 
ATOM      6  N   UNL     1       5.569 -30.426  17.368  1.00  0.00    -0.217 NA
ATOM      7  C   UNL     1       5.336 -30.876  18.638  1.00  0.00     0.152 A 
ATOM      8  C   UNL     1       5.945 -32.070  19.015  1.00  0.00     0.127 A 
ATOM      9  N   UNL     1       5.900 -32.742  20.172  1.00  0.00    -0.340 N 
ATOM     10  H   UNL     1       5.387 -32.501  21.048  1.00  0.00     0.168 HD
ENDROOT
BRANCH   7  11
ATOM     11  N   UNL     1       4.498 -30.136  19.526  1.00  0.00    -0.382 N 
ATOM     12  H   UNL     1       4.078 -29.223  19.244  1.00  0.00     0.158 HD
ATOM     13  H   UNL     1       4.293 -30.506  20.481  1.00  0.00     0.158 HD
ENDBRANCH   7  11
TORSDOF 1
ENDMDL
MODEL 8
REMARK VINA RESULT:    -3.528     11.496     12.870
REMARK INTER + INTRA:          -3.631
REMARK INTER:                  -3.631
REMARK INTRA:                   0.000
REMARK UNBOUND:                 0.000
REMARK SMILES Nc1ncnc2nc[nH]c12
REMARK SMILES IDX 8 1 7 2 6 3 5 4 4 5 3 6 2 7 10 8 9 9 1 11
REMARK H PARENT 9 10 1 12 1 13
REMARK Flexibility Score: inf
ROOT
ATOM      1  C   UNL     1      -2.762 -44.686  19.096  1.00  0.00     0.199 A 
ATOM      2  N   UNL     1      -3.861 -45.262  19.655  1.00  0.00    -0.217 NA
ATOM      3  C   UNL     1      -3.758 -46.535  19.240  1.00  0.00     0.182 A 
ATOM      4  N   UNL     1      -4.612 -47.548  19.519  1.00  0.00    -0.215 NA
ATOM      5  C   UNL     1      -4.339 -48.785  19.004  1.00  0.00     0.226 A 
ATOM      6  N   UNL     1      -3.228 -48.984  18.225  1.00  0.00    -0.217 NA
ATOM      7  C   UNL     1      -2.364 -47.964  17.941  1.00  0.00     0.152 A 
ATOM      8  C   UNL     1      -2.657 -46.711  18.474  1.00  0.00     0.127 A 
ATOM      9  N   UNL     1      -2.005 -45.546  18.367  1.00  0.00    -0.340 N 
ATOM     10  H   UNL     1      -1.123 -45.336  17.850  1.00  0.00     0.168 HD
ENDROOT
BRANCH   7  11
ATOM     11  N   UNL     1      -1.214 -48.194  17.128  1.00  0.00    -0.382 N 
ATOM     12  H   UNL     1      -1.247 -48.078  16.092  1.00  0.00     0.158 HD
ATOM     13  H   UNL     1      -0.313 -48.487  17.569  1.00  0.00     0.158 HD
ENDBRANCH   7  11
TORSDOF 1
ENDMDL
MODEL 9
REMARK VINA RESULT:    -3.426     11.416     12.590
REMARK INTER + INTRA:          -3.527
REMARK INTER:                  -3.527
REMARK INTRA:                   0.000
REMARK UNBOUND:                 0.000
REMARK SMILES Nc1ncnc2nc[nH]c12
REMARK SMILES IDX 8 1 7 2 6 3 5 4 4 5 3 6 2 7 10 8 9 9 1 11
REMARK H PARENT 9 10 1 12 1 13
REMARK Flexibility Score: inf
ROOT
ATOM      1  C   UNL     1      -4.602 -48.440  19.002  1.00  0.00     0.199 A 
ATOM      2  N   UNL     1      -4.030 -48.675  17.788  1.00  0.00    -0.217 NA
ATOM      3  C   UNL     1      -3.290 -47.570  17.602  1.00  0.00     0.182 A 
ATOM      4  N   UNL     1      -2.508 -47.291  16.533  1.00  0.00    -0.215 NA
ATOM      5  C   UNL     1      -1.824 -46.106  16.523  1.00  0.00     0.226 A 
ATOM      6  N   UNL     1      -1.935 -45.231  17.573  1.00  0.00    -0.217 NA
ATOM      7  C   UNL     1      -2.723 -45.510  18.654  1.00  0.00     0.152 A 
ATOM      8  C   UNL     1      -3.412 -46.720  18.648  1.00  0.00     0.127 A 
ATOM      9  N   UNL     1      -4.243 -47.252  19.553  1.00  0.00    -0.340 N 
ATOM     10  H   UNL     1      -4.551 -46.858  20.469  1.00  0.00     0.168 HD
ENDROOT
BRANCH   7  11
ATOM     11  N   UNL     1      -2.823 -44.583  19.735  1.00  0.00    -0.382 N 
ATOM     12  H   UNL     1      -2.631 -44.872  20.719  1.00  0.00     0.158 HD
ATOM     13  H   UNL     1      -3.094 -43.592  19.550  1.00  0.00     0.158 HD
ENDBRANCH   7  11
TORSDOF 1
ENDMDL
