MODEL 1
REMARK VINA RESULT:    -3.335      0.000      0.000
REMARK INTER + INTRA:          -4.201
REMARK INTER:                  -4.115
REMARK INTRA:                  -0.087
REMARK UNBOUND:                -0.087
REMARK SMILES CCCCCC(=O)[O-]
REMARK SMILES IDX 4 1 5 2 6 3 7 4 8 5 3 6 2 7 1 8
REMARK H PARENT
REMARK Flexibility Score: inf
ROOT
ATOM      1  C   UNL     1      -8.802   7.871  -7.832  1.00  0.00     0.006 C 
ENDROOT
BRANCH   1   2
ATOM      2  C   UNL     1      -7.811   8.136  -8.980  1.00  0.00     0.053 C 
BRANCH   2   3
ATOM      3  C   UNL     1      -7.335   6.873  -9.630  1.00  0.00     0.041 C 
ATOM      4  O   UNL     1      -8.148   5.945  -9.883  1.00  0.00    -0.550 OA
ATOM      5  O   UNL     1      -5.987   6.700  -9.919  1.00  0.00    -0.550 OA
ENDBRANCH   2   3
ENDBRANCH   1   2
BRANCH   1   6
ATOM      6  C   UNL     1      -8.717   8.891  -6.681  1.00  0.00     0.000 C 
BRANCH   6   7
ATOM      7  C   UNL     1      -8.614   8.281  -5.273  1.00  0.00    -0.003 C 
ATOM      8  C   UNL     1      -8.885   6.777  -5.253  1.00  0.00     0.004 C 
ENDBRANCH   6   7
ENDBRANCH   1   6
TORSDOF 4
ENDMDL
MODEL 2
REMARK VINA RESULT:    -3.167      2.860      4.384
REMARK INTER + INTRA:          -3.994
REMARK INTER:                  -3.900
REMARK INTRA:                  -0.094
REMARK UNBOUND:                -0.087
REMARK SMILES CCCCCC(=O)[O-]
REMARK SMILES IDX 4 1 5 2 6 3 7 4 8 5 3 6 2 7 1 8
REMARK H PARENT
REMARK Flexibility Score: inf
ROOT
ATOM      1  C   UNL     1      -8.583   8.422  -7.651  1.00  0.00     0.006 C 
ENDROOT
BRANCH   1   2
ATOM      2  C   UNL     1      -9.098   7.204  -6.861  1.00  0.00     0.053 C 
BRANCH   2   3
ATOM      3  C   UNL     1      -8.776   7.290  -5.401  1.00  0.00     0.041 C 
ATOM      4  O   UNL     1      -8.276   8.342  -4.922  1.00  0.00    -0.550 OA
ATOM      5  O   UNL     1      -8.985   6.194  -4.573  1.00  0.00    -0.550 OA
ENDBRANCH   2   3
ENDBRANCH   1   2
BRANCH   1   6
ATOM      6  C   UNL     1      -8.471   8.184  -9.169  1.00  0.00     0.000 C 
BRANCH   6   7
ATOM      7  C   UNL     1      -7.792   6.865  -9.575  1.00  0.00    -0.003 C 
ATOM      8  C   UNL     1      -6.379   7.065 -10.123  1.00  0.00     0.004 C 
ENDBRANCH   6   7
ENDBRANCH   1   6
TORSDOF 4
ENDMDL
MODEL 3
REMARK VINA RESULT:    -3.039     25.064     26.185
REMARK INTER + INTRA:          -3.836
REMARK INTER:                  -3.594
REMARK INTRA:                  -0.242
REMARK UNBOUND:                -0.087
REMARK SMILES CCCCCC(=O)[O-]
REMARK SMILES IDX 4 1 5 2 6 3 7 4 8 5 3 6 2 7 1 8
REMARK H PARENT
REMARK Flexibility Score: inf
ROOT
ATOM      1  C   UNL     1       7.573  -9.342   5.784  1.00  0.00     0.006 C 
ENDROOT
BRANCH   1   2
ATOM      2  C   UNL     1       6.132  -9.462   5.254  1.00  0.00     0.053 C 
BRANCH   2   3
ATOM      3  C   UNL     1       5.270  -8.311   5.673  1.00  0.00     0.041 C 
ATOM      4  O   UNL     1       5.601  -7.131   5.382  1.00  0.00    -0.550 OA
ATOM      5  O   UNL     1       4.121  -8.534   6.422  1.00  0.00    -0.550 OA
ENDBRANCH   2   3
ENDBRANCH   1   2
BRANCH   1   6
ATOM      6  C   UNL     1       7.710  -9.606   7.295  1.00  0.00     0.000 C 
BRANCH   6   7
ATOM      7  C   UNL     1       8.402  -8.488   8.094  1.00  0.00    -0.003 C 
ATOM      8  C   UNL     1       7.460  -7.338   8.450  1.00  0.00     0.004 C 
ENDBRANCH   6   7
ENDBRANCH   1   6
TORSDOF 4
ENDMDL
MODEL 4
REMARK VINA RESULT:    -2.992     24.710     25.900
REMARK INTER + INTRA:          -3.778
REMARK INTER:                  -3.529
REMARK INTRA:                  -0.249
REMARK UNBOUND:                -0.087
REMARK SMILES CCCCCC(=O)[O-]
REMARK SMILES IDX 4 1 5 2 6 3 7 4 8 5 3 6 2 7 1 8
REMARK H PARENT
REMARK Flexibility Score: inf
ROOT
ATOM      1  C   UNL     1       4.547  -8.760   7.875  1.00  0.00     0.006 C 
ENDROOT
BRANCH   1   2
ATOM      2  C   UNL     1       4.280  -8.875   6.363  1.00  0.00     0.053 C 
BRANCH   2   3
ATOM      3  C   UNL     1       5.416  -8.349   5.540  1.00  0.00     0.041 C 
ATOM      4  O   UNL     1       5.641  -7.111   5.486  1.00  0.00    -0.550 OA
ATOM      5  O   UNL     1       6.203  -9.220   4.796  1.00  0.00    -0.550 OA
ENDBRANCH   2   3
ENDBRANCH   1   2
BRANCH   1   6
ATOM      6  C   UNL     1       5.908  -9.330   8.318  1.00  0.00     0.000 C 
BRANCH   6   7
ATOM      7  C   UNL     1       6.729  -8.416   9.243  1.00  0.00    -0.003 C 
ATOM      8  C   UNL     1       7.541  -7.369   8.481  1.00  0.00     0.004 C 
ENDBRANCH   6   7
ENDBRANCH   1   6
TORSDOF 4
ENDMDL
MODEL 5
REMARK VINA RESULT:    -2.987     25.019     26.184
REMARK INTER + INTRA:          -3.772
REMARK INTER:                  -3.535
REMARK INTRA:                  -0.237
REMARK UNBOUND:                -0.087
REMARK SMILES CCCCCC(=O)[O-]
REMARK SMILES IDX 4 1 5 2 6 3 7 4 8 5 3 6 2 7 1 8
REMARK H PARENT
REMARK Flexibility Score: inf
ROOT
ATOM      1  C   UNL     1       5.947  -8.704   8.111  1.00  0.00     0.006 C 
ENDROOT
BRANCH   1   2
ATOM      2  C   UNL     1       4.910  -8.309   7.045  1.00  0.00     0.053 C 
BRANCH   2   3
ATOM      3  C   UNL     1       5.539  -7.999   5.720  1.00  0.00     0.041 C 
ATOM      4  O   UNL     1       5.521  -6.823   5.270  1.00  0.00    -0.550 OA
ATOM      5  O   UNL     1       6.108  -9.015   4.962  1.00  0.00    -0.550 OA
ENDBRANCH   2   3
ENDBRANCH   1   2
BRANCH   1   6
ATOM      6  C   UNL     1       7.108  -7.702   8.260  1.00  0.00     0.000 C 
BRANCH   6   7
ATOM      7  C   UNL     1       8.501  -8.334   8.413  1.00  0.00    -0.003 C 
ATOM      8  C   UNL     1       8.894  -9.212   7.225  1.00  0.00     0.004 C 
ENDBRANCH   6   7
ENDBRANCH   1   6
TORSDOF 4
ENDMDL
MODEL 6
REMARK VINA RESULT:    -2.810     25.020     26.173
REMARK INTER + INTRA:          -3.554
REMARK INTER:                  -3.348
REMARK INTRA:                  -0.206
REMARK UNBOUND:                -0.087
REMARK SMILES CCCCCC(=O)[O-]
REMARK SMILES IDX 4 1 5 2 6 3 7 4 8 5 3 6 2 7 1 8
REMARK H PARENT
REMARK Flexibility Score: inf
ROOT
ATOM      1  C   UNL     1       5.901  -8.060   5.883  1.00  0.00     0.006 C 
ENDROOT
BRANCH   1   2
ATOM      2  C   UNL     1       4.396  -8.343   6.043  1.00  0.00     0.053 C 
BRANCH   2   3
ATOM      3  C   UNL     1       4.079  -9.050   7.325  1.00  0.00     0.041 C 
ATOM      4  O   UNL     1       4.686  -8.744   8.385  1.00  0.00    -0.550 OA
ATOM      5  O   UNL     1       3.143 -10.077   7.345  1.00  0.00    -0.550 OA
ENDBRANCH   2   3
ENDBRANCH   1   2
BRANCH   1   6
ATOM      6  C   UNL     1       6.698  -9.231   5.275  1.00  0.00     0.000 C 
BRANCH   6   7
ATOM      7  C   UNL     1       8.051  -9.518   5.946  1.00  0.00    -0.003 C 
ATOM      8  C   UNL     1       8.125  -9.006   7.385  1.00  0.00     0.004 C 
ENDBRANCH   6   7
ENDBRANCH   1   6
TORSDOF 4
ENDMDL
MODEL 7
REMARK VINA RESULT:    -2.748     25.062     25.797
REMARK INTER + INTRA:          -3.477
REMARK INTER:                  -3.371
REMARK INTRA:                  -0.107
REMARK UNBOUND:                -0.087
REMARK SMILES CCCCCC(=O)[O-]
REMARK SMILES IDX 4 1 5 2 6 3 7 4 8 5 3 6 2 7 1 8
REMARK H PARENT
REMARK Flexibility Score: inf
ROOT
ATOM      1  C   UNL     1       4.338  -8.714   7.623  1.00  0.00     0.006 C 
ENDROOT
BRANCH   1   2
ATOM      2  C   UNL     1       5.087  -9.614   6.622  1.00  0.00     0.053 C 
BRANCH   2   3
ATOM      3  C   UNL     1       5.694  -8.836   5.495  1.00  0.00     0.041 C 
ATOM      4  O   UNL     1       5.535  -7.588   5.427  1.00  0.00    -0.550 OA
ATOM      5  O   UNL     1       6.401  -9.491   4.494  1.00  0.00    -0.550 OA
ENDBRANCH   2   3
ENDBRANCH   1   2
BRANCH   1   6
ATOM      6  C   UNL     1       4.643  -9.028   9.100  1.00  0.00     0.000 C 
BRANCH   6   7
ATOM      7  C   UNL     1       3.426  -8.998  10.039  1.00  0.00    -0.003 C 
ATOM      8  C   UNL     1       2.212  -9.732   9.468  1.00  0.00     0.004 C 
ENDBRANCH   6   7
ENDBRANCH   1   6
TORSDOF 4
ENDMDL
