MODEL 1
REMARK VINA RESULT:    -7.157      0.000      0.000
REMARK INTER + INTRA:          -8.905
REMARK INTER:                  -8.621
REMARK INTRA:                  -0.284
REMARK UNBOUND:                -0.284
REMARK SMILES O=c1c(O)c(-c2ccc(O)c(O)c2)oc2cc(O)cc(O)c12
REMARK SMILES IDX 5 1 3 2 2 3 1 4 22 5 20 6 19 7 17 8 16 9 15 10 14 11 6 12
REMARK SMILES IDX 7 13 8 14 9 15 13 16 11 17 10 18 12 20 4 22 21 24 18 26
REMARK H PARENT 10 19 12 21 4 23 21 25 18 27
REMARK Flexibility Score: inf
ROOT
ATOM      1  C   UNL     1     -38.178   4.690  79.576  1.00  0.00     0.180 A 
ATOM      2  C   UNL     1     -38.703   4.680  80.879  1.00  0.00     0.208 A 
ATOM      3  C   UNL     1     -40.018   4.229  81.081  1.00  0.00     0.238 A 
ATOM      4  O   UNL     1     -40.464   4.172  82.256  1.00  0.00    -0.285 OA
ATOM      5  C   UNL     1     -40.796   3.809  79.975  1.00  0.00     0.111 A 
ATOM      6  C   UNL     1     -42.152   3.372  80.057  1.00  0.00     0.134 A 
ATOM      7  C   UNL     1     -42.782   2.856  78.917  1.00  0.00     0.093 A 
ATOM      8  C   UNL     1     -42.125   2.823  77.685  1.00  0.00     0.123 A 
ATOM      9  C   UNL     1     -40.822   3.302  77.582  1.00  0.00     0.094 A 
ATOM     10  C   UNL     1     -40.155   3.790  78.709  1.00  0.00     0.146 A 
ATOM     11  O   UNL     1     -38.910   4.227  78.569  1.00  0.00    -0.452 OA
ENDROOT
BRANCH   1  12
ATOM     12  C   UNL     1     -36.810   5.173  79.281  1.00  0.00     0.025 A 
ATOM     13  C   UNL     1     -35.681   4.374  79.540  1.00  0.00     0.016 A 
ATOM     14  C   UNL     1     -34.397   4.859  79.277  1.00  0.00     0.051 A 
ATOM     15  C   UNL     1     -34.221   6.152  78.765  1.00  0.00     0.157 A 
ATOM     16  C   UNL     1     -36.626   6.475  78.788  1.00  0.00     0.062 A 
ATOM     17  C   UNL     1     -35.342   6.964  78.522  1.00  0.00     0.158 A 
BRANCH  15  18
ATOM     18  O   UNL     1     -32.939   6.631  78.501  1.00  0.00    -0.504 OA
ATOM     19  H   UNL     1     -32.116   6.065  78.667  1.00  0.00     0.293 HD
ENDBRANCH  15  18
BRANCH  17  20
ATOM     20  O   UNL     1     -35.200   8.257  78.020  1.00  0.00    -0.504 OA
ATOM     21  H   UNL     1     -34.364   8.807  78.180  1.00  0.00     0.293 HD
ENDBRANCH  17  20
ENDBRANCH   1  12
BRANCH   2  22
ATOM     22  O   UNL     1     -37.911   5.078  81.960  1.00  0.00    -0.502 OA
ATOM     23  H   UNL     1     -36.903   5.160  81.896  1.00  0.00     0.293 HD
ENDBRANCH   2  22
BRANCH   6  24
ATOM     24  O   UNL     1     -42.927   3.449  81.218  1.00  0.00    -0.507 OA
ATOM     25  H   UNL     1     -42.595   3.782  82.110  1.00  0.00     0.293 HD
ENDBRANCH   6  24
BRANCH   8  26
ATOM     26  O   UNL     1     -42.765   2.322  76.553  1.00  0.00    -0.508 OA
ATOM     27  H   UNL     1     -42.773   1.331  76.344  1.00  0.00     0.293 HD
ENDBRANCH   8  26
TORSDOF 6
ENDMDL
MODEL 2
REMARK VINA RESULT:    -6.560      9.913     11.608
REMARK INTER + INTRA:          -8.186
REMARK INTER:                  -7.867
REMARK INTRA:                  -0.319
REMARK UNBOUND:                -0.284
REMARK SMILES O=c1c(O)c(-c2ccc(O)c(O)c2)oc2cc(O)cc(O)c12
REMARK SMILES IDX 5 1 3 2 2 3 1 4 22 5 20 6 19 7 17 8 16 9 15 10 14 11 6 12
REMARK SMILES IDX 7 13 8 14 9 15 13 16 11 17 10 18 12 20 4 22 21 24 18 26
REMARK H PARENT 10 19 12 21 4 23 21 25 18 27
REMARK Flexibility Score: inf
ROOT
ATOM      1  C   UNL     1     -46.598   2.147  73.718  1.00  0.00     0.180 A 
ATOM      2  C   UNL     1     -47.267   2.980  74.631  1.00  0.00     0.208 A 
ATOM      3  C   UNL     1     -47.553   4.304  74.261  1.00  0.00     0.238 A 
ATOM      4  O   UNL     1     -48.200   5.028  75.062  1.00  0.00    -0.285 OA
ATOM      5  C   UNL     1     -47.153   4.784  72.991  1.00  0.00     0.111 A 
ATOM      6  C   UNL     1     -47.355   6.119  72.528  1.00  0.00     0.134 A 
ATOM      7  C   UNL     1     -47.035   6.446  71.204  1.00  0.00     0.093 A 
ATOM      8  C   UNL     1     -46.461   5.503  70.348  1.00  0.00     0.123 A 
ATOM      9  C   UNL     1     -46.205   4.215  70.809  1.00  0.00     0.094 A 
ATOM     10  C   UNL     1     -46.546   3.848  72.113  1.00  0.00     0.146 A 
ATOM     11  O   UNL     1     -46.295   2.606  72.509  1.00  0.00    -0.452 OA
ENDROOT
BRANCH   1  12
ATOM     12  C   UNL     1     -46.240   0.747  74.043  1.00  0.00     0.025 A 
ATOM     13  C   UNL     1     -44.966   0.414  74.535  1.00  0.00     0.016 A 
ATOM     14  C   UNL     1     -44.641  -0.917  74.812  1.00  0.00     0.051 A 
ATOM     15  C   UNL     1     -45.579  -1.934  74.590  1.00  0.00     0.157 A 
ATOM     16  C   UNL     1     -47.169  -0.278  73.803  1.00  0.00     0.062 A 
ATOM     17  C   UNL     1     -46.848  -1.612  74.080  1.00  0.00     0.158 A 
BRANCH  15  18
ATOM     18  O   UNL     1     -45.253  -3.260  74.870  1.00  0.00    -0.504 OA
ATOM     19  H   UNL     1     -45.966  -3.950  75.076  1.00  0.00     0.293 HD
ENDBRANCH  15  18
BRANCH  17  20
ATOM     20  O   UNL     1     -47.801  -2.602  73.842  1.00  0.00    -0.504 OA
ATOM     21  H   UNL     1     -48.106  -3.241  74.568  1.00  0.00     0.293 HD
ENDBRANCH  17  20
ENDBRANCH   1  12
BRANCH   2  22
ATOM     22  O   UNL     1     -47.672   2.480  75.872  1.00  0.00    -0.502 OA
ATOM     23  H   UNL     1     -47.230   1.680  76.308  1.00  0.00     0.293 HD
ENDBRANCH   2  22
BRANCH   6  24
ATOM     24  O   UNL     1     -47.836   7.158  73.329  1.00  0.00    -0.507 OA
ATOM     25  H   UNL     1     -48.386   7.032  74.165  1.00  0.00     0.293 HD
ENDBRANCH   6  24
BRANCH   8  26
ATOM     26  O   UNL     1     -46.131   5.842  69.037  1.00  0.00    -0.508 OA
ATOM     27  H   UNL     1     -45.994   5.135  68.325  1.00  0.00     0.293 HD
ENDBRANCH   8  26
TORSDOF 6
ENDMDL
MODEL 3
REMARK VINA RESULT:    -6.379      1.922      7.322
REMARK INTER + INTRA:          -7.968
REMARK INTER:                  -7.703
REMARK INTRA:                  -0.265
REMARK UNBOUND:                -0.284
REMARK SMILES O=c1c(O)c(-c2ccc(O)c(O)c2)oc2cc(O)cc(O)c12
REMARK SMILES IDX 5 1 3 2 2 3 1 4 22 5 20 6 19 7 17 8 16 9 15 10 14 11 6 12
REMARK SMILES IDX 7 13 8 14 9 15 13 16 11 17 10 18 12 20 4 22 21 24 18 26
REMARK H PARENT 10 19 12 21 4 23 21 25 18 27
REMARK Flexibility Score: inf
ROOT
ATOM      1  C   UNL     1     -38.559   6.213  78.314  1.00  0.00     0.180 A 
ATOM      2  C   UNL     1     -38.859   7.377  77.588  1.00  0.00     0.208 A 
ATOM      3  C   UNL     1     -37.816   8.254  77.245  1.00  0.00     0.238 A 
ATOM      4  O   UNL     1     -38.084   9.267  76.547  1.00  0.00    -0.285 OA
ATOM      5  C   UNL     1     -36.490   7.963  77.646  1.00  0.00     0.111 A 
ATOM      6  C   UNL     1     -35.364   8.801  77.390  1.00  0.00     0.134 A 
ATOM      7  C   UNL     1     -34.079   8.351  77.720  1.00  0.00     0.093 A 
ATOM      8  C   UNL     1     -33.888   7.122  78.356  1.00  0.00     0.123 A 
ATOM      9  C   UNL     1     -34.987   6.324  78.665  1.00  0.00     0.094 A 
ATOM     10  C   UNL     1     -36.278   6.730  78.316  1.00  0.00     0.146 A 
ATOM     11  O   UNL     1     -37.296   5.935  78.619  1.00  0.00    -0.452 OA
ENDROOT
BRANCH   1  12
ATOM     12  C   UNL     1     -39.606   5.253  78.733  1.00  0.00     0.025 A 
ATOM     13  C   UNL     1     -40.035   5.177  80.070  1.00  0.00     0.016 A 
ATOM     14  C   UNL     1     -41.007   4.247  80.448  1.00  0.00     0.051 A 
ATOM     15  C   UNL     1     -41.554   3.371  79.500  1.00  0.00     0.157 A 
ATOM     16  C   UNL     1     -40.142   4.359  77.792  1.00  0.00     0.062 A 
ATOM     17  C   UNL     1     -41.116   3.427  78.166  1.00  0.00     0.158 A 
BRANCH  15  18
ATOM     18  O   UNL     1     -42.525   2.447  79.880  1.00  0.00    -0.504 OA
ATOM     19  H   UNL     1     -43.436   2.421  79.437  1.00  0.00     0.293 HD
ENDBRANCH  15  18
BRANCH  17  20
ATOM     20  O   UNL     1     -41.635   2.565  77.201  1.00  0.00    -0.504 OA
ATOM     21  H   UNL     1     -41.119   2.322  76.363  1.00  0.00     0.293 HD
ENDBRANCH  17  20
ENDBRANCH   1  12
BRANCH   2  22
ATOM     22  O   UNL     1     -40.171   7.635  77.182  1.00  0.00    -0.502 OA
ATOM     23  H   UNL     1     -40.534   8.575  77.075  1.00  0.00     0.293 HD
ENDBRANCH   2  22
BRANCH   6  24
ATOM     24  O   UNL     1     -35.454  10.084  76.842  1.00  0.00    -0.507 OA
ATOM     25  H   UNL     1     -36.298  10.633  76.802  1.00  0.00     0.293 HD
ENDBRANCH   6  24
BRANCH   8  26
ATOM     26  O   UNL     1     -32.608   6.689  78.695  1.00  0.00    -0.508 OA
ATOM     27  H   UNL     1     -32.063   7.155  79.411  1.00  0.00     0.293 HD
ENDBRANCH   8  26
TORSDOF 6
ENDMDL
MODEL 4
REMARK VINA RESULT:    -6.358     10.428     11.812
REMARK INTER + INTRA:          -7.943
REMARK INTER:                  -7.656
REMARK INTRA:                  -0.287
REMARK UNBOUND:                -0.284
REMARK SMILES O=c1c(O)c(-c2ccc(O)c(O)c2)oc2cc(O)cc(O)c12
REMARK SMILES IDX 5 1 3 2 2 3 1 4 22 5 20 6 19 7 17 8 16 9 15 10 14 11 6 12
REMARK SMILES IDX 7 13 8 14 9 15 13 16 11 17 10 18 12 20 4 22 21 24 18 26
REMARK H PARENT 10 19 12 21 4 23 21 25 18 27
REMARK Flexibility Score: inf
ROOT
ATOM      1  C   UNL     1     -46.639  -0.415  73.886  1.00  0.00     0.180 A 
ATOM      2  C   UNL     1     -47.777  -1.223  73.728  1.00  0.00     0.208 A 
ATOM      3  C   UNL     1     -47.675  -2.600  73.987  1.00  0.00     0.238 A 
ATOM      4  O   UNL     1     -48.710  -3.311  73.896  1.00  0.00    -0.285 OA
ATOM      5  C   UNL     1     -46.433  -3.152  74.384  1.00  0.00     0.111 A 
ATOM      6  C   UNL     1     -46.205  -4.539  74.632  1.00  0.00     0.134 A 
ATOM      7  C   UNL     1     -44.970  -4.955  75.146  1.00  0.00     0.093 A 
ATOM      8  C   UNL     1     -43.934  -4.041  75.358  1.00  0.00     0.123 A 
ATOM      9  C   UNL     1     -44.127  -2.695  75.062  1.00  0.00     0.094 A 
ATOM     10  C   UNL     1     -45.360  -2.244  74.582  1.00  0.00     0.146 A 
ATOM     11  O   UNL     1     -45.506  -0.951  74.323  1.00  0.00    -0.452 OA
ENDROOT
BRANCH   1  12
ATOM     12  C   UNL     1     -46.662   1.041  73.609  1.00  0.00     0.025 A 
ATOM     13  C   UNL     1     -46.121   1.568  72.424  1.00  0.00     0.016 A 
ATOM     14  C   UNL     1     -46.131   2.947  72.194  1.00  0.00     0.051 A 
ATOM     15  C   UNL     1     -46.669   3.818  73.150  1.00  0.00     0.157 A 
ATOM     16  C   UNL     1     -47.181   1.920  74.573  1.00  0.00     0.062 A 
ATOM     17  C   UNL     1     -47.194   3.301  74.347  1.00  0.00     0.158 A 
BRANCH  15  18
ATOM     18  O   UNL     1     -46.680   5.192  72.917  1.00  0.00    -0.504 OA
ATOM     19  H   UNL     1     -47.275   5.816  73.449  1.00  0.00     0.293 HD
ENDBRANCH  15  18
BRANCH  17  20
ATOM     20  O   UNL     1     -47.731   4.142  75.321  1.00  0.00    -0.504 OA
ATOM     21  H   UNL     1     -47.712   5.151  75.230  1.00  0.00     0.293 HD
ENDBRANCH  17  20
ENDBRANCH   1  12
BRANCH   2  22
ATOM     22  O   UNL     1     -48.999  -0.655  73.356  1.00  0.00    -0.502 OA
ATOM     23  H   UNL     1     -49.890  -1.059  73.620  1.00  0.00     0.293 HD
ENDBRANCH   2  22
BRANCH   6  24
ATOM     24  O   UNL     1     -47.140  -5.543  74.367  1.00  0.00    -0.507 OA
ATOM     25  H   UNL     1     -47.247  -6.387  74.909  1.00  0.00     0.293 HD
ENDBRANCH   6  24
BRANCH   8  26
ATOM     26  O   UNL     1     -42.703  -4.466  75.855  1.00  0.00    -0.508 OA
ATOM     27  H   UNL     1     -42.304  -4.065  76.695  1.00  0.00     0.293 HD
ENDBRANCH   8  26
TORSDOF 6
ENDMDL
MODEL 5
REMARK VINA RESULT:    -6.268      1.568      3.223
REMARK INTER + INTRA:          -7.835
REMARK INTER:                  -7.534
REMARK INTRA:                  -0.300
REMARK UNBOUND:                -0.284
REMARK SMILES O=c1c(O)c(-c2ccc(O)c(O)c2)oc2cc(O)cc(O)c12
REMARK SMILES IDX 5 1 3 2 2 3 1 4 22 5 20 6 19 7 17 8 16 9 15 10 14 11 6 12
REMARK SMILES IDX 7 13 8 14 9 15 13 16 11 17 10 18 12 20 4 22 21 24 18 26
REMARK H PARENT 10 19 12 21 4 23 21 25 18 27
REMARK Flexibility Score: inf
ROOT
ATOM      1  C   UNL     1     -37.945   5.009  80.076  1.00  0.00     0.180 A 
ATOM      2  C   UNL     1     -38.973   4.916  79.123  1.00  0.00     0.208 A 
ATOM      3  C   UNL     1     -40.247   4.490  79.533  1.00  0.00     0.238 A 
ATOM      4  O   UNL     1     -41.176   4.461  78.686  1.00  0.00    -0.285 OA
ATOM      5  C   UNL     1     -40.472   4.148  80.889  1.00  0.00     0.111 A 
ATOM      6  C   UNL     1     -41.711   3.665  81.407  1.00  0.00     0.134 A 
ATOM      7  C   UNL     1     -41.856   3.482  82.788  1.00  0.00     0.093 A 
ATOM      8  C   UNL     1     -40.787   3.702  83.660  1.00  0.00     0.123 A 
ATOM      9  C   UNL     1     -39.557   4.115  83.157  1.00  0.00     0.094 A 
ATOM     10  C   UNL     1     -39.391   4.341  81.788  1.00  0.00     0.146 A 
ATOM     11  O   UNL     1     -38.205   4.745  81.351  1.00  0.00    -0.452 OA
ENDROOT
BRANCH   1  12
ATOM     12  C   UNL     1     -36.571   5.428  79.715  1.00  0.00     0.025 A 
ATOM     13  C   UNL     1     -35.542   4.485  79.543  1.00  0.00     0.016 A 
ATOM     14  C   UNL     1     -34.246   4.904  79.227  1.00  0.00     0.051 A 
ATOM     15  C   UNL     1     -33.957   6.269  79.091  1.00  0.00     0.157 A 
ATOM     16  C   UNL     1     -36.271   6.795  79.599  1.00  0.00     0.062 A 
ATOM     17  C   UNL     1     -34.976   7.218  79.281  1.00  0.00     0.158 A 
BRANCH  15  18
ATOM     18  O   UNL     1     -32.665   6.682  78.774  1.00  0.00    -0.504 OA
ATOM     19  H   UNL     1     -32.348   7.626  78.964  1.00  0.00     0.293 HD
ENDBRANCH  15  18
BRANCH  17  20
ATOM     20  O   UNL     1     -34.720   8.583  79.161  1.00  0.00    -0.504 OA
ATOM     21  H   UNL     1     -34.069   8.950  78.475  1.00  0.00     0.293 HD
ENDBRANCH  17  20
ENDBRANCH   1  12
BRANCH   2  22
ATOM     22  O   UNL     1     -38.735   5.280  77.794  1.00  0.00    -0.502 OA
ATOM     23  H   UNL     1     -38.407   6.202  77.532  1.00  0.00     0.293 HD
ENDBRANCH   2  22
BRANCH   6  24
ATOM     24  O   UNL     1     -42.810   3.328  80.614  1.00  0.00    -0.507 OA
ATOM     25  H   UNL     1     -43.762   3.597  80.806  1.00  0.00     0.293 HD
ENDBRANCH   6  24
BRANCH   8  26
ATOM     26  O   UNL     1     -40.936   3.501  85.032  1.00  0.00    -0.508 OA
ATOM     27  H   UNL     1     -40.453   4.081  85.707  1.00  0.00     0.293 HD
ENDBRANCH   8  26
TORSDOF 6
ENDMDL
MODEL 6
REMARK VINA RESULT:    -6.257      1.554      6.978
REMARK INTER + INTRA:          -7.821
REMARK INTER:                  -7.560
REMARK INTRA:                  -0.261
REMARK UNBOUND:                -0.284
REMARK SMILES O=c1c(O)c(-c2ccc(O)c(O)c2)oc2cc(O)cc(O)c12
REMARK SMILES IDX 5 1 3 2 2 3 1 4 22 5 20 6 19 7 17 8 16 9 15 10 14 11 6 12
REMARK SMILES IDX 7 13 8 14 9 15 13 16 11 17 10 18 12 20 4 22 21 24 18 26
REMARK H PARENT 10 19 12 21 4 23 21 25 18 27
REMARK Flexibility Score: inf
ROOT
ATOM      1  C   UNL     1     -38.031   5.174  78.959  1.00  0.00     0.180 A 
ATOM      2  C   UNL     1     -36.864   4.570  79.458  1.00  0.00     0.208 A 
ATOM      3  C   UNL     1     -35.624   5.188  79.224  1.00  0.00     0.238 A 
ATOM      4  O   UNL     1     -34.589   4.671  79.720  1.00  0.00    -0.285 OA
ATOM      5  C   UNL     1     -35.566   6.392  78.482  1.00  0.00     0.111 A 
ATOM      6  C   UNL     1     -34.361   7.082  78.151  1.00  0.00     0.134 A 
ATOM      7  C   UNL     1     -34.432   8.333  77.525  1.00  0.00     0.093 A 
ATOM      8  C   UNL     1     -35.661   8.887  77.160  1.00  0.00     0.123 A 
ATOM      9  C   UNL     1     -36.839   8.194  77.424  1.00  0.00     0.094 A 
ATOM     10  C   UNL     1     -36.803   6.960  78.081  1.00  0.00     0.146 A 
ATOM     11  O   UNL     1     -37.949   6.337  78.323  1.00  0.00    -0.452 OA
ENDROOT
BRANCH   1  12
ATOM     12  C   UNL     1     -39.371   4.571  79.143  1.00  0.00     0.025 A 
ATOM     13  C   UNL     1     -40.028   4.617  80.385  1.00  0.00     0.016 A 
ATOM     14  C   UNL     1     -41.282   4.020  80.544  1.00  0.00     0.051 A 
ATOM     15  C   UNL     1     -41.891   3.358  79.469  1.00  0.00     0.157 A 
ATOM     16  C   UNL     1     -39.976   3.888  78.076  1.00  0.00     0.062 A 
ATOM     17  C   UNL     1     -41.232   3.290  78.230  1.00  0.00     0.158 A 
BRANCH  15  18
ATOM     18  O   UNL     1     -43.142   2.767  79.630  1.00  0.00    -0.504 OA
ATOM     19  H   UNL     1     -43.252   1.760  79.673  1.00  0.00     0.293 HD
ENDBRANCH  15  18
BRANCH  17  20
ATOM     20  O   UNL     1     -41.807   2.633  77.143  1.00  0.00    -0.504 OA
ATOM     21  H   UNL     1     -41.450   2.738  76.200  1.00  0.00     0.293 HD
ENDBRANCH  17  20
ENDBRANCH   1  12
BRANCH   2  22
ATOM     22  O   UNL     1     -36.946   3.393  80.207  1.00  0.00    -0.502 OA
ATOM     23  H   UNL     1     -36.137   2.969  80.645  1.00  0.00     0.293 HD
ENDBRANCH   2  22
BRANCH   6  24
ATOM     24  O   UNL     1     -33.081   6.575  78.389  1.00  0.00    -0.507 OA
ATOM     25  H   UNL     1     -32.228   6.980  78.038  1.00  0.00     0.293 HD
ENDBRANCH   6  24
BRANCH   8  26
ATOM     26  O   UNL     1     -35.721  10.125  76.522  1.00  0.00    -0.508 OA
ATOM     27  H   UNL     1     -35.493  10.227  75.541  1.00  0.00     0.293 HD
ENDBRANCH   8  26
TORSDOF 6
ENDMDL
MODEL 7
REMARK VINA RESULT:    -6.229      1.517      6.789
REMARK INTER + INTRA:          -7.787
REMARK INTER:                  -7.912
REMARK INTRA:                   0.125
REMARK UNBOUND:                -0.284
REMARK SMILES O=c1c(O)c(-c2ccc(O)c(O)c2)oc2cc(O)cc(O)c12
REMARK SMILES IDX 5 1 3 2 2 3 1 4 22 5 20 6 19 7 17 8 16 9 15 10 14 11 6 12
REMARK SMILES IDX 7 13 8 14 9 15 13 16 11 17 10 18 12 20 4 22 21 24 18 26
REMARK H PARENT 10 19 12 21 4 23 21 25 18 27
REMARK Flexibility Score: inf
ROOT
ATOM      1  C   UNL     1     -38.451   3.854  79.793  1.00  0.00     0.180 A 
ATOM      2  C   UNL     1     -37.941   3.422  81.028  1.00  0.00     0.208 A 
ATOM      3  C   UNL     1     -36.624   3.762  81.378  1.00  0.00     0.238 A 
ATOM      4  O   UNL     1     -36.191   3.418  82.509  1.00  0.00    -0.285 OA
ATOM      5  C   UNL     1     -35.830   4.517  80.482  1.00  0.00     0.111 A 
ATOM      6  C   UNL     1     -34.470   4.884  80.716  1.00  0.00     0.134 A 
ATOM      7  C   UNL     1     -33.823   5.743  79.818  1.00  0.00     0.093 A 
ATOM      8  C   UNL     1     -34.466   6.194  78.663  1.00  0.00     0.123 A 
ATOM      9  C   UNL     1     -35.772   5.793  78.396  1.00  0.00     0.094 A 
ATOM     10  C   UNL     1     -36.456   4.966  79.290  1.00  0.00     0.146 A 
ATOM     11  O   UNL     1     -37.704   4.616  79.003  1.00  0.00    -0.452 OA
ENDROOT
BRANCH   1  12
ATOM     12  C   UNL     1     -39.821   3.515  79.344  1.00  0.00     0.025 A 
ATOM     13  C   UNL     1     -40.078   3.116  78.020  1.00  0.00     0.016 A 
ATOM     14  C   UNL     1     -41.382   2.825  77.610  1.00  0.00     0.051 A 
ATOM     15  C   UNL     1     -42.449   2.939  78.512  1.00  0.00     0.157 A 
ATOM     16  C   UNL     1     -40.896   3.648  80.237  1.00  0.00     0.062 A 
ATOM     17  C   UNL     1     -42.203   3.355  79.832  1.00  0.00     0.158 A 
BRANCH  15  18
ATOM     18  O   UNL     1     -43.747   2.645  78.102  1.00  0.00    -0.504 OA
ATOM     19  H   UNL     1     -44.284   1.899  78.530  1.00  0.00     0.293 HD
ENDBRANCH  15  18
BRANCH  17  20
ATOM     20  O   UNL     1     -43.243   3.485  80.752  1.00  0.00    -0.504 OA
ATOM     21  H   UNL     1     -43.073   3.695  81.729  1.00  0.00     0.293 HD
ENDBRANCH  17  20
ENDBRANCH   1  12
BRANCH   2  22
ATOM     22  O   UNL     1     -38.749   2.696  81.908  1.00  0.00    -0.502 OA
ATOM     23  H   UNL     1     -38.602   2.698  82.911  1.00  0.00     0.293 HD
ENDBRANCH   2  22
BRANCH   6  24
ATOM     24  O   UNL     1     -33.709   4.415  81.790  1.00  0.00    -0.507 OA
ATOM     25  H   UNL     1     -34.047   3.788  82.503  1.00  0.00     0.293 HD
ENDBRANCH   6  24
BRANCH   8  26
ATOM     26  O   UNL     1     -33.808   7.036  77.767  1.00  0.00    -0.508 OA
ATOM     27  H   UNL     1     -33.760   8.036  77.918  1.00  0.00     0.293 HD
ENDBRANCH   8  26
TORSDOF 6
ENDMDL
MODEL 8
REMARK VINA RESULT:    -6.204      9.100     11.663
REMARK INTER + INTRA:          -7.758
REMARK INTER:                  -7.631
REMARK INTRA:                  -0.127
REMARK UNBOUND:                -0.284
REMARK SMILES O=c1c(O)c(-c2ccc(O)c(O)c2)oc2cc(O)cc(O)c12
REMARK SMILES IDX 5 1 3 2 2 3 1 4 22 5 20 6 19 7 17 8 16 9 15 10 14 11 6 12
REMARK SMILES IDX 7 13 8 14 9 15 13 16 11 17 10 18 12 20 4 22 21 24 18 26
REMARK H PARENT 10 19 12 21 4 23 21 25 18 27
REMARK Flexibility Score: inf
ROOT
ATOM      1  C   UNL     1     -46.695   4.661  71.896  1.00  0.00     0.180 A 
ATOM      2  C   UNL     1     -47.879   3.965  71.602  1.00  0.00     0.208 A 
ATOM      3  C   UNL     1     -48.020   2.642  72.051  1.00  0.00     0.238 A 
ATOM      4  O   UNL     1     -49.105   2.042  71.832  1.00  0.00    -0.285 OA
ATOM      5  C   UNL     1     -46.970   2.027  72.774  1.00  0.00     0.111 A 
ATOM      6  C   UNL     1     -46.988   0.678  73.241  1.00  0.00     0.134 A 
ATOM      7  C   UNL     1     -45.948   0.216  74.057  1.00  0.00     0.093 A 
ATOM      8  C   UNL     1     -44.860   1.034  74.369  1.00  0.00     0.123 A 
ATOM      9  C   UNL     1     -44.803   2.332  73.868  1.00  0.00     0.094 A 
ATOM     10  C   UNL     1     -45.843   2.834  73.080  1.00  0.00     0.146 A 
ATOM     11  O   UNL     1     -45.755   4.080  72.632  1.00  0.00    -0.452 OA
ENDROOT
BRANCH   1  12
ATOM     12  C   UNL     1     -46.462   6.050  71.437  1.00  0.00     0.025 A 
ATOM     13  C   UNL     1     -46.316   7.107  72.353  1.00  0.00     0.016 A 
ATOM     14  C   UNL     1     -46.122   8.415  71.897  1.00  0.00     0.051 A 
ATOM     15  C   UNL     1     -46.084   8.686  70.523  1.00  0.00     0.157 A 
ATOM     16  C   UNL     1     -46.445   6.331  70.062  1.00  0.00     0.062 A 
ATOM     17  C   UNL     1     -46.250   7.639  69.601  1.00  0.00     0.158 A 
BRANCH  15  18
ATOM     18  O   UNL     1     -45.888   9.990  70.073  1.00  0.00    -0.504 OA
ATOM     19  H   UNL     1     -46.668  10.598  69.850  1.00  0.00     0.293 HD
ENDBRANCH  15  18
BRANCH  17  20
ATOM     20  O   UNL     1     -46.225   7.877  68.228  1.00  0.00    -0.504 OA
ATOM     21  H   UNL     1     -46.039   7.139  67.557  1.00  0.00     0.293 HD
ENDBRANCH  17  20
ENDBRANCH   1  12
BRANCH   2  22
ATOM     22  O   UNL     1     -48.913   4.598  70.907  1.00  0.00    -0.502 OA
ATOM     23  H   UNL     1     -49.110   4.407  69.931  1.00  0.00     0.293 HD
ENDBRANCH   2  22
BRANCH   6  24
ATOM     24  O   UNL     1     -47.982  -0.248  72.912  1.00  0.00    -0.507 OA
ATOM     25  H   UNL     1     -47.815  -1.137  72.468  1.00  0.00     0.293 HD
ENDBRANCH   6  24
BRANCH   8  26
ATOM     26  O   UNL     1     -43.821   0.561  75.169  1.00  0.00    -0.508 OA
ATOM     27  H   UNL     1     -43.230  -0.206  74.871  1.00  0.00     0.293 HD
ENDBRANCH   8  26
TORSDOF 6
ENDMDL
MODEL 9
REMARK VINA RESULT:    -6.200      9.244     11.670
REMARK INTER + INTRA:          -7.753
REMARK INTER:                  -7.825
REMARK INTRA:                   0.072
REMARK UNBOUND:                -0.284
REMARK SMILES O=c1c(O)c(-c2ccc(O)c(O)c2)oc2cc(O)cc(O)c12
REMARK SMILES IDX 5 1 3 2 2 3 1 4 22 5 20 6 19 7 17 8 16 9 15 10 14 11 6 12
REMARK SMILES IDX 7 13 8 14 9 15 13 16 11 17 10 18 12 20 4 22 21 24 18 26
REMARK H PARENT 10 19 12 21 4 23 21 25 18 27
REMARK Flexibility Score: inf
ROOT
ATOM      1  C   UNL     1     -46.512  -1.469  74.749  1.00  0.00     0.180 A 
ATOM      2  C   UNL     1     -47.786  -1.922  75.129  1.00  0.00     0.208 A 
ATOM      3  C   UNL     1     -47.906  -3.180  75.743  1.00  0.00     0.238 A 
ATOM      4  O   UNL     1     -49.043  -3.557  76.130  1.00  0.00    -0.285 OA
ATOM      5  C   UNL     1     -46.753  -3.974  75.954  1.00  0.00     0.111 A 
ATOM      6  C   UNL     1     -46.763  -5.280  76.529  1.00  0.00     0.134 A 
ATOM      7  C   UNL     1     -45.549  -5.920  76.810  1.00  0.00     0.093 A 
ATOM      8  C   UNL     1     -44.329  -5.327  76.476  1.00  0.00     0.123 A 
ATOM      9  C   UNL     1     -44.311  -4.079  75.860  1.00  0.00     0.094 A 
ATOM     10  C   UNL     1     -45.504  -3.400  75.600  1.00  0.00     0.146 A 
ATOM     11  O   UNL     1     -45.443  -2.207  75.021  1.00  0.00    -0.452 OA
ENDROOT
BRANCH   1  12
ATOM     12  C   UNL     1     -46.308  -0.165  74.076  1.00  0.00     0.025 A 
ATOM     13  C   UNL     1     -47.163   0.268  73.047  1.00  0.00     0.016 A 
ATOM     14  C   UNL     1     -46.937   1.490  72.408  1.00  0.00     0.051 A 
ATOM     15  C   UNL     1     -45.848   2.291  72.779  1.00  0.00     0.157 A 
ATOM     16  C   UNL     1     -45.206   0.631  74.429  1.00  0.00     0.062 A 
ATOM     17  C   UNL     1     -44.978   1.857  73.793  1.00  0.00     0.158 A 
BRANCH  15  18
ATOM     18  O   UNL     1     -45.628   3.511  72.142  1.00  0.00    -0.504 OA
ATOM     19  H   UNL     1     -46.229   3.835  71.393  1.00  0.00     0.293 HD
ENDBRANCH  15  18
BRANCH  17  20
ATOM     20  O   UNL     1     -43.882   2.627  74.180  1.00  0.00    -0.504 OA
ATOM     21  H   UNL     1     -43.988   3.557  74.568  1.00  0.00     0.293 HD
ENDBRANCH  17  20
ENDBRANCH   1  12
BRANCH   2  22
ATOM     22  O   UNL     1     -48.909  -1.114  74.932  1.00  0.00    -0.502 OA
ATOM     23  H   UNL     1     -48.964  -0.163  75.279  1.00  0.00     0.293 HD
ENDBRANCH   2  22
BRANCH   6  24
ATOM     24  O   UNL     1     -47.927  -5.997  76.816  1.00  0.00    -0.507 OA
ATOM     25  H   UNL     1     -48.181  -6.875  76.390  1.00  0.00     0.293 HD
ENDBRANCH   6  24
BRANCH   8  26
ATOM     26  O   UNL     1     -43.126  -5.978  76.745  1.00  0.00    -0.508 OA
ATOM     27  H   UNL     1     -42.263  -5.464  76.874  1.00  0.00     0.293 HD
ENDBRANCH   8  26
TORSDOF 6
ENDMDL
