MODEL 1
REMARK VINA RESULT:    -2.802      0.000      0.000
REMARK INTER + INTRA:          -3.266
REMARK INTER:                  -3.211
REMARK INTRA:                  -0.054
REMARK UNBOUND:                -0.054
REMARK SMILES CC(C)[C@@H]([NH3+])C(=O)[O-]
REMARK SMILES IDX 4 1 5 2 6 6 7 7 8 8 2 9 1 10 3 11
REMARK H PARENT 5 3 5 4 5 5
REMARK Flexibility Score: inf
ROOT
ATOM      1  C   UNL     1       2.143  11.132  -8.138  1.00  0.00     0.230 C 
ENDROOT
BRANCH   1   2
ATOM      2  N   UNL     1       1.380  10.037  -8.754  1.00  0.00    -0.350 N 
ATOM      3  H   UNL     1       1.599   9.118  -8.306  1.00  0.00     0.345 HD
ATOM      4  H   UNL     1       0.356  10.223  -8.650  1.00  0.00     0.345 HD
ATOM      5  H   UNL     1       1.597   9.980  -9.776  1.00  0.00     0.345 HD
ENDBRANCH   1   2
BRANCH   1   6
ATOM      6  C   UNL     1       1.468  11.604  -6.872  1.00  0.00     0.099 C 
ATOM      7  O   UNL     1       0.402  12.271  -6.938  1.00  0.00    -0.544 OA
ATOM      8  O   UNL     1       2.027  11.334  -5.628  1.00  0.00    -0.544 OA
ENDBRANCH   1   6
BRANCH   1   9
ATOM      9  C   UNL     1       3.635  10.743  -7.915  1.00  0.00     0.047 C 
ATOM     10  C   UNL     1       4.041   9.554  -8.798  1.00  0.00     0.014 C 
ATOM     11  C   UNL     1       4.615  11.911  -8.120  1.00  0.00     0.014 C 
ENDBRANCH   1   9
TORSDOF 3
ENDMDL
MODEL 2
REMARK VINA RESULT:    -2.706     10.913     11.637
REMARK INTER + INTRA:          -3.156
REMARK INTER:                  -3.118
REMARK INTRA:                  -0.038
REMARK UNBOUND:                -0.054
REMARK SMILES CC(C)[C@@H]([NH3+])C(=O)[O-]
REMARK SMILES IDX 4 1 5 2 6 6 7 7 8 8 2 9 1 10 3 11
REMARK H PARENT 5 3 5 4 5 5
REMARK Flexibility Score: inf
ROOT
ATOM      1  C   UNL     1       2.708   6.557   3.174  1.00  0.00     0.230 C 
ENDROOT
BRANCH   1   2
ATOM      2  N   UNL     1       4.027   5.937   3.363  1.00  0.00    -0.350 N 
ATOM      3  H   UNL     1       4.209   5.196   2.648  1.00  0.00     0.345 HD
ATOM      4  H   UNL     1       4.772   6.667   3.282  1.00  0.00     0.345 HD
ATOM      5  H   UNL     1       4.091   5.515   4.318  1.00  0.00     0.345 HD
ENDBRANCH   1   2
BRANCH   1   6
ATOM      6  C   UNL     1       2.820   7.793   2.314  1.00  0.00     0.099 C 
ATOM      7  O   UNL     1       1.866   8.126   1.563  1.00  0.00    -0.544 OA
ATOM      8  O   UNL     1       3.982   8.557   2.319  1.00  0.00    -0.544 OA
ENDBRANCH   1   6
BRANCH   1   9
ATOM      9  C   UNL     1       1.663   5.537   2.628  1.00  0.00     0.047 C 
ATOM     10  C   UNL     1       2.222   4.106   2.635  1.00  0.00     0.014 C 
ATOM     11  C   UNL     1       0.315   5.579   3.369  1.00  0.00     0.014 C 
ENDBRANCH   1   9
TORSDOF 3
ENDMDL
MODEL 3
REMARK VINA RESULT:    -2.655     10.212     10.769
REMARK INTER + INTRA:          -3.097
REMARK INTER:                  -3.040
REMARK INTRA:                  -0.057
REMARK UNBOUND:                -0.054
REMARK SMILES CC(C)[C@@H]([NH3+])C(=O)[O-]
REMARK SMILES IDX 4 1 5 2 6 6 7 7 8 8 2 9 1 10 3 11
REMARK H PARENT 5 3 5 4 5 5
REMARK Flexibility Score: inf
ROOT
ATOM      1  C   UNL     1       3.286   8.579   2.197  1.00  0.00     0.230 C 
ENDROOT
BRANCH   1   2
ATOM      2  N   UNL     1       4.416   7.736   2.612  1.00  0.00    -0.350 N 
ATOM      3  H   UNL     1       4.593   6.967   1.925  1.00  0.00     0.345 HD
ATOM      4  H   UNL     1       5.280   8.321   2.687  1.00  0.00     0.345 HD
ATOM      5  H   UNL     1       4.225   7.319   3.552  1.00  0.00     0.345 HD
ENDBRANCH   1   2
BRANCH   1   6
ATOM      6  C   UNL     1       1.979   7.843   2.375  1.00  0.00     0.099 C 
ATOM      7  O   UNL     1       1.360   7.913   3.469  1.00  0.00    -0.544 OA
ATOM      8  O   UNL     1       1.462   7.059   1.349  1.00  0.00    -0.544 OA
ENDBRANCH   1   6
BRANCH   1   9
ATOM      9  C   UNL     1       3.300   9.961   2.918  1.00  0.00     0.047 C 
ATOM     10  C   UNL     1       4.736  10.437   3.184  1.00  0.00     0.014 C 
ATOM     11  C   UNL     1       2.512  11.053   2.173  1.00  0.00     0.014 C 
ENDBRANCH   1   9
TORSDOF 3
ENDMDL
MODEL 4
REMARK VINA RESULT:    -2.622     10.437     11.394
REMARK INTER + INTRA:          -3.059
REMARK INTER:                  -3.009
REMARK INTRA:                  -0.050
REMARK UNBOUND:                -0.054
REMARK SMILES CC(C)[C@@H]([NH3+])C(=O)[O-]
REMARK SMILES IDX 4 1 5 2 6 6 7 7 8 8 2 9 1 10 3 11
REMARK H PARENT 5 3 5 4 5 5
REMARK Flexibility Score: inf
ROOT
ATOM      1  C   UNL     1       2.163   7.126   2.900  1.00  0.00     0.230 C 
ENDROOT
BRANCH   1   2
ATOM      2  N   UNL     1       2.017   5.975   1.998  1.00  0.00    -0.350 N 
ATOM      3  H   UNL     1       2.698   5.216   2.231  1.00  0.00     0.345 HD
ATOM      4  H   UNL     1       1.049   5.587   2.079  1.00  0.00     0.345 HD
ATOM      5  H   UNL     1       2.164   6.275   1.007  1.00  0.00     0.345 HD
ENDBRANCH   1   2
BRANCH   1   6
ATOM      6  C   UNL     1       3.055   8.176   2.281  1.00  0.00     0.099 C 
ATOM      7  O   UNL     1       2.562   9.055   1.526  1.00  0.00    -0.544 OA
ATOM      8  O   UNL     1       4.425   8.168   2.514  1.00  0.00    -0.544 OA
ENDBRANCH   1   6
BRANCH   1   9
ATOM      9  C   UNL     1       0.780   7.694   3.340  1.00  0.00     0.047 C 
ATOM     10  C   UNL     1      -0.360   7.111   2.491  1.00  0.00     0.014 C 
ATOM     11  C   UNL     1       0.479   7.494   4.836  1.00  0.00     0.014 C 
ENDBRANCH   1   9
TORSDOF 3
ENDMDL
MODEL 5
REMARK VINA RESULT:    -2.609     11.096     11.808
REMARK INTER + INTRA:          -3.045
REMARK INTER:                  -3.000
REMARK INTRA:                  -0.045
REMARK UNBOUND:                -0.054
REMARK SMILES CC(C)[C@@H]([NH3+])C(=O)[O-]
REMARK SMILES IDX 4 1 5 2 6 6 7 7 8 8 2 9 1 10 3 11
REMARK H PARENT 5 3 5 4 5 5
REMARK Flexibility Score: inf
ROOT
ATOM      1  C   UNL     1       2.052   6.260   3.065  1.00  0.00     0.230 C 
ENDROOT
BRANCH   1   2
ATOM      2  N   UNL     1       3.520   6.223   3.009  1.00  0.00    -0.350 N 
ATOM      3  H   UNL     1       3.913   5.540   3.697  1.00  0.00     0.345 HD
ATOM      4  H   UNL     1       3.827   5.943   2.049  1.00  0.00     0.345 HD
ATOM      5  H   UNL     1       3.910   7.173   3.208  1.00  0.00     0.345 HD
ENDBRANCH   1   2
BRANCH   1   6
ATOM      6  C   UNL     1       1.507   7.279   2.093  1.00  0.00     0.099 C 
ATOM      7  O   UNL     1       2.296   8.030   1.461  1.00  0.00    -0.544 OA
ATOM      8  O   UNL     1       0.137   7.419   1.907  1.00  0.00    -0.544 OA
ENDBRANCH   1   6
BRANCH   1   9
ATOM      9  C   UNL     1       1.431   4.845   2.864  1.00  0.00     0.047 C 
ATOM     10  C   UNL     1       2.514   3.794   2.576  1.00  0.00     0.014 C 
ATOM     11  C   UNL     1       0.549   4.385   4.038  1.00  0.00     0.014 C 
ENDBRANCH   1   9
TORSDOF 3
ENDMDL
MODEL 6
REMARK VINA RESULT:    -2.572     11.182     12.116
REMARK INTER + INTRA:          -3.003
REMARK INTER:                  -2.960
REMARK INTRA:                  -0.043
REMARK UNBOUND:                -0.054
REMARK SMILES CC(C)[C@@H]([NH3+])C(=O)[O-]
REMARK SMILES IDX 4 1 5 2 6 6 7 7 8 8 2 9 1 10 3 11
REMARK H PARENT 5 3 5 4 5 5
REMARK Flexibility Score: inf
ROOT
ATOM      1  C   UNL     1       0.096   7.005   3.157  1.00  0.00     0.230 C 
ENDROOT
BRANCH   1   2
ATOM      2  N   UNL     1       0.283   6.450   4.505  1.00  0.00    -0.350 N 
ATOM      3  H   UNL     1       1.054   5.744   4.525  1.00  0.00     0.345 HD
ATOM      4  H   UNL     1       0.521   7.221   5.171  1.00  0.00     0.345 HD
ATOM      5  H   UNL     1      -0.603   6.001   4.834  1.00  0.00     0.345 HD
ENDBRANCH   1   2
BRANCH   1   6
ATOM      6  C   UNL     1       1.218   6.572   2.243  1.00  0.00     0.099 C 
ATOM      7  O   UNL     1       1.671   7.370   1.381  1.00  0.00    -0.544 OA
ATOM      8  O   UNL     1       1.739   5.286   2.323  1.00  0.00    -0.544 OA
ENDBRANCH   1   6
BRANCH   1   9
ATOM      9  C   UNL     1      -1.313   6.666   2.583  1.00  0.00     0.047 C 
ATOM     10  C   UNL     1      -1.729   5.230   2.935  1.00  0.00     0.014 C 
ATOM     11  C   UNL     1      -2.410   7.655   3.016  1.00  0.00     0.014 C 
ENDBRANCH   1   9
TORSDOF 3
ENDMDL
MODEL 7
REMARK VINA RESULT:    -2.553     10.670     11.318
REMARK INTER + INTRA:          -2.981
REMARK INTER:                  -2.925
REMARK INTRA:                  -0.056
REMARK UNBOUND:                -0.054
REMARK SMILES CC(C)[C@@H]([NH3+])C(=O)[O-]
REMARK SMILES IDX 4 1 5 2 6 6 7 7 8 8 2 9 1 10 3 11
REMARK H PARENT 5 3 5 4 5 5
REMARK Flexibility Score: inf
ROOT
ATOM      1  C   UNL     1      -0.682   7.456   2.723  1.00  0.00     0.230 C 
ENDROOT
BRANCH   1   2
ATOM      2  N   UNL     1      -1.904   6.740   2.328  1.00  0.00    -0.350 N 
ATOM      3  H   UNL     1      -2.659   7.402   2.038  1.00  0.00     0.345 HD
ATOM      4  H   UNL     1      -1.692   6.104   1.525  1.00  0.00     0.345 HD
ATOM      5  H   UNL     1      -2.248   6.154   3.123  1.00  0.00     0.345 HD
ENDBRANCH   1   2
BRANCH   1   6
ATOM      6  C   UNL     1       0.546   6.688   2.295  1.00  0.00     0.099 C 
ATOM      7  O   UNL     1       0.751   5.529   2.743  1.00  0.00    -0.544 OA
ATOM      8  O   UNL     1       1.473   7.259   1.431  1.00  0.00    -0.544 OA
ENDBRANCH   1   6
BRANCH   1   9
ATOM      9  C   UNL     1      -0.682   8.926   2.207  1.00  0.00     0.047 C 
ATOM     10  C   UNL     1      -1.975   9.252   1.444  1.00  0.00     0.014 C 
ATOM     11  C   UNL     1      -0.447   9.969   3.314  1.00  0.00     0.014 C 
ENDBRANCH   1   9
TORSDOF 3
ENDMDL
MODEL 8
REMARK VINA RESULT:    -2.481     10.940     11.980
REMARK INTER + INTRA:          -2.898
REMARK INTER:                  -2.856
REMARK INTRA:                  -0.042
REMARK UNBOUND:                -0.054
REMARK SMILES CC(C)[C@@H]([NH3+])C(=O)[O-]
REMARK SMILES IDX 4 1 5 2 6 6 7 7 8 8 2 9 1 10 3 11
REMARK H PARENT 5 3 5 4 5 5
REMARK Flexibility Score: inf
ROOT
ATOM      1  C   UNL     1       0.141   6.610   3.119  1.00  0.00     0.230 C 
ENDROOT
BRANCH   1   2
ATOM      2  N   UNL     1       0.955   5.388   3.186  1.00  0.00    -0.350 N 
ATOM      3  H   UNL     1       1.577   5.296   2.350  1.00  0.00     0.345 HD
ATOM      4  H   UNL     1       1.553   5.413   4.044  1.00  0.00     0.345 HD
ATOM      5  H   UNL     1       0.336   4.548   3.248  1.00  0.00     0.345 HD
ENDBRANCH   1   2
BRANCH   1   6
ATOM      6  C   UNL     1       0.676   7.548   2.063  1.00  0.00     0.099 C 
ATOM      7  O   UNL     1       1.717   7.247   1.422  1.00  0.00    -0.544 OA
ATOM      8  O   UNL     1       0.046   8.761   1.809  1.00  0.00    -0.544 OA
ENDBRANCH   1   6
BRANCH   1   9
ATOM      9  C   UNL     1      -1.371   6.286   2.925  1.00  0.00     0.047 C 
ATOM     10  C   UNL     1      -1.643   4.781   3.062  1.00  0.00     0.014 C 
ATOM     11  C   UNL     1      -2.296   7.077   3.867  1.00  0.00     0.014 C 
ENDBRANCH   1   9
TORSDOF 3
ENDMDL
MODEL 9
REMARK VINA RESULT:    -2.455     11.022     11.922
REMARK INTER + INTRA:          -2.869
REMARK INTER:                  -2.814
REMARK INTRA:                  -0.055
REMARK UNBOUND:                -0.054
REMARK SMILES CC(C)[C@@H]([NH3+])C(=O)[O-]
REMARK SMILES IDX 4 1 5 2 6 6 7 7 8 8 2 9 1 10 3 11
REMARK H PARENT 5 3 5 4 5 5
REMARK Flexibility Score: inf
ROOT
ATOM      1  C   UNL     1      -0.540   6.622   2.315  1.00  0.00     0.230 C 
ENDROOT
BRANCH   1   2
ATOM      2  N   UNL     1      -1.885   7.215   2.292  1.00  0.00    -0.350 N 
ATOM      3  H   UNL     1      -2.172   7.550   3.240  1.00  0.00     0.345 HD
ATOM      4  H   UNL     1      -1.898   8.027   1.633  1.00  0.00     0.345 HD
ATOM      5  H   UNL     1      -2.580   6.511   1.952  1.00  0.00     0.345 HD
ENDBRANCH   1   2
BRANCH   1   6
ATOM      6  C   UNL     1       0.517   7.702   2.334  1.00  0.00     0.099 C 
ATOM      7  O   UNL     1       0.377   8.707   3.079  1.00  0.00    -0.544 OA
ATOM      8  O   UNL     1       1.634   7.614   1.511  1.00  0.00    -0.544 OA
ENDBRANCH   1   6
BRANCH   1   9
ATOM      9  C   UNL     1      -0.377   5.602   3.481  1.00  0.00     0.047 C 
ATOM     10  C   UNL     1      -1.650   4.763   3.672  1.00  0.00     0.014 C 
ATOM     11  C   UNL     1       0.844   4.678   3.327  1.00  0.00     0.014 C 
ENDBRANCH   1   9
TORSDOF 3
ENDMDL
