MODEL 1
REMARK VINA RESULT:    -4.317      0.000      0.000
REMARK INTER + INTRA:          -4.554
REMARK INTER:                  -6.084
REMARK INTRA:                   1.529
REMARK UNBOUND:                 1.529
REMARK SMILES CC1=CCC(=C(C)C)C(=O)CC(C)=CCC1
REMARK SMILES IDX 12 1 14 2 13 3 15 4 16 5 2 6 1 7 3 8 11 10 9 11 10 12 5 13
REMARK SMILES IDX 6 14 7 15 8 16 4 17
REMARK H PARENT
REMARK Flexibility Score: 60.00
ROOT
ATOM      1  C   UNL     1      19.678  -0.979  23.179  1.00  0.00    -0.070 C 
ATOM      2  C   UNL     1      20.104  -0.355  24.302  1.00  0.00    -0.027 C 
ATOM      3  C   UNL     1      20.172  -2.378  22.907  1.00  0.00     0.039 C 
ENDROOT
BRANCH   2   4
ATOM      4  C   UNL     1      19.817   1.080  24.673  1.00  0.00     0.032 C 
BRANCH   4   5
ATOM      5  C   UNL     1      21.052   1.929  25.009  1.00  0.00     0.034 C 
BRANCH   5   6
ATOM      6  C   UNL     1      21.312   3.056  24.027  1.00  0.00    -0.077 C 
ATOM      7  C   UNL     1      22.472   3.979  24.307  1.00  0.00     0.039 C 
ATOM      8  C   UNL     1      20.620   3.253  22.877  1.00  0.00    -0.023 CG0
ATOM      9  G   UNL     1      19.342   2.579  22.416  1.00  0.00     0.000 G0
ENDBRANCH   5   6
ENDBRANCH   4   5
ENDBRANCH   2   4
BRANCH   1  10
ATOM     10  C   UNL     1      18.667  -0.379  22.226  1.00  0.00     0.111 C 
BRANCH  10  11
ATOM     11  C   UNL     1      19.350   0.386  21.121  1.00  0.00     0.163 C 
ATOM     12  O   UNL     1      19.927  -0.256  20.202  1.00  0.00    -0.294 OA
BRANCH  11  13
ATOM     13  C   UNL     1      19.360   1.871  21.073  1.00  0.00    -0.002 C 
ATOM     14  C   UNL     1      19.240   2.522  19.884  1.00  0.00    -0.069 C 
ATOM     15  C   UNL     1      19.116   4.027  19.814  1.00  0.00     0.039 C 
ATOM     16  C   UNL     1      19.254   1.755  18.582  1.00  0.00     0.039 C 
BRANCH  13  17
ATOM     17  C   UNL     1      19.331   2.601  22.404  1.00  0.00     0.066 CG0
ATOM     18  G   UNL     1      20.621   3.250  22.866  1.00  0.00     0.000 G0
ENDBRANCH  13  17
ENDBRANCH  11  13
ENDBRANCH  10  11
ENDBRANCH   1  10
TORSDOF 0
ENDMDL
MODEL 2
REMARK VINA RESULT:    -4.124      1.249      1.503
REMARK INTER + INTRA:          -4.282
REMARK INTER:                  -5.029
REMARK INTRA:                   0.746
REMARK UNBOUND:                 1.529
REMARK SMILES CC1=CCC(=C(C)C)C(=O)CC(C)=CCC1
REMARK SMILES IDX 12 1 14 2 13 3 15 4 16 5 2 6 1 7 3 8 11 10 9 11 10 12 5 13
REMARK SMILES IDX 6 14 7 15 8 16 4 17
REMARK H PARENT
REMARK Flexibility Score: 60.00
ROOT
ATOM      1  C   UNL     1      19.494  -0.751  22.026  1.00  0.00    -0.070 C 
ATOM      2  C   UNL     1      19.837  -0.875  23.329  1.00  0.00    -0.027 C 
ATOM      3  C   UNL     1      19.918  -1.837  21.069  1.00  0.00     0.039 C 
ENDROOT
BRANCH   2   4
ATOM      4  C   UNL     1      19.610   0.164  24.400  1.00  0.00     0.032 C 
BRANCH   4   5
ATOM      5  C   UNL     1      20.468   1.433  24.275  1.00  0.00     0.034 C 
BRANCH   5   6
ATOM      6  C   UNL     1      19.671   2.690  23.981  1.00  0.00    -0.077 C 
ATOM      7  C   UNL     1      18.789   3.235  25.077  1.00  0.00     0.039 C 
ATOM      8  C   UNL     1      19.748   3.401  22.829  1.00  0.00    -0.023 CG0
ATOM      9  G   UNL     1      20.433   3.023  21.529  1.00  0.00     0.000 G0
ENDBRANCH   5   6
ENDBRANCH   4   5
ENDBRANCH   2   4
BRANCH   1  10
ATOM     10  C   UNL     1      18.635   0.376  21.495  1.00  0.00     0.111 C 
BRANCH  10  11
ATOM     11  C   UNL     1      19.310   1.076  20.344  1.00  0.00     0.163 C 
ATOM     12  O   UNL     1      19.624   0.407  19.321  1.00  0.00    -0.294 OA
BRANCH  11  13
ATOM     13  C   UNL     1      19.612   2.532  20.368  1.00  0.00    -0.002 C 
ATOM     14  C   UNL     1      19.023   3.372  19.474  1.00  0.00    -0.069 C 
ATOM     15  C   UNL     1      19.207   4.869  19.555  1.00  0.00     0.039 C 
ATOM     16  C   UNL     1      18.178   2.826  18.346  1.00  0.00     0.039 C 
BRANCH  13  17
ATOM     17  C   UNL     1      20.451   3.039  21.526  1.00  0.00     0.066 CG0
ATOM     18  G   UNL     1      19.722   3.388  22.809  1.00  0.00     0.000 G0
ENDBRANCH  13  17
ENDBRANCH  11  13
ENDBRANCH  10  11
ENDBRANCH   1  10
TORSDOF 0
ENDMDL
MODEL 3
REMARK VINA RESULT:    -3.544      1.802      5.002
REMARK INTER + INTRA:          -3.464
REMARK INTER:                  -3.979
REMARK INTRA:                   0.515
REMARK UNBOUND:                 1.529
REMARK SMILES CC1=CCC(=C(C)C)C(=O)CC(C)=CCC1
REMARK SMILES IDX 12 1 14 2 13 3 15 4 16 5 2 6 1 7 3 8 11 10 9 11 10 12 5 13
REMARK SMILES IDX 6 14 7 15 8 16 4 17
REMARK H PARENT
REMARK Flexibility Score: 60.00
ROOT
ATOM      1  C   UNL     1      19.089   2.553  19.544  1.00  0.00    -0.070 C 
ATOM      2  C   UNL     1      19.011   1.343  18.941  1.00  0.00    -0.027 C 
ATOM      3  C   UNL     1      18.415   3.727  18.878  1.00  0.00     0.039 C 
ENDROOT
BRANCH   2   4
ATOM      4  C   UNL     1      19.724   0.091  19.391  1.00  0.00     0.032 C 
BRANCH   4   5
ATOM      5  C   UNL     1      18.910  -0.833  20.310  1.00  0.00     0.034 C 
BRANCH   5   6
ATOM      6  C   UNL     1      19.745  -1.572  21.338  1.00  0.00    -0.077 C 
ATOM      7  C   UNL     1      20.486  -2.806  20.885  1.00  0.00     0.039 C 
ATOM      8  C   UNL     1      19.932  -1.165  22.619  1.00  0.00    -0.023 CG0
ATOM      9  G   UNL     1      19.215  -0.062  23.373  1.00  0.00     0.000 G0
ENDBRANCH   5   6
ENDBRANCH   4   5
ENDBRANCH   2   4
BRANCH   1  10
ATOM     10  C   UNL     1      19.744   2.771  20.890  1.00  0.00     0.111 C 
BRANCH  10  11
ATOM     11  C   UNL     1      18.982   2.068  21.984  1.00  0.00     0.163 C 
ATOM     12  O   UNL     1      17.721   2.073  21.951  1.00  0.00    -0.294 OA
BRANCH  11  13
ATOM     13  C   UNL     1      19.667   1.359  23.097  1.00  0.00    -0.002 C 
ATOM     14  C   UNL     1      20.532   2.025  23.909  1.00  0.00    -0.069 C 
ATOM     15  C   UNL     1      21.143   1.369  25.125  1.00  0.00     0.039 C 
ATOM     16  C   UNL     1      20.934   3.450  23.601  1.00  0.00     0.039 C 
BRANCH  13  17
ATOM     17  C   UNL     1      19.221  -0.064  23.381  1.00  0.00     0.066 CG0
ATOM     18  G   UNL     1      19.932  -1.174  22.631  1.00  0.00     0.000 G0
ENDBRANCH  13  17
ENDBRANCH  11  13
ENDBRANCH  10  11
ENDBRANCH   1  10
TORSDOF 0
ENDMDL
MODEL 4
REMARK VINA RESULT:    -3.322      1.689      3.662
REMARK INTER + INTRA:          -3.153
REMARK INTER:                  -4.847
REMARK INTRA:                   1.694
REMARK UNBOUND:                 1.529
REMARK SMILES CC1=CCC(=C(C)C)C(=O)CC(C)=CCC1
REMARK SMILES IDX 12 1 14 2 13 3 15 4 16 5 2 6 1 7 3 8 11 10 9 11 10 12 5 13
REMARK SMILES IDX 6 14 7 15 8 16 4 17
REMARK H PARENT
REMARK Flexibility Score: 60.00
ROOT
ATOM      1  C   UNL     1      19.590  -1.326  21.691  1.00  0.00    -0.070 C 
ATOM      2  C   UNL     1      19.951  -0.751  20.520  1.00  0.00    -0.027 C 
ATOM      3  C   UNL     1      20.176  -2.672  22.037  1.00  0.00     0.039 C 
ENDROOT
BRANCH   2   4
ATOM      4  C   UNL     1      19.375   0.523  19.953  1.00  0.00     0.032 C 
BRANCH   4   5
ATOM      5  C   UNL     1      18.827   1.514  20.991  1.00  0.00     0.034 C 
BRANCH   5   6
ATOM      6  C   UNL     1      19.633   2.794  21.108  1.00  0.00    -0.077 C 
ATOM      7  C   UNL     1      19.764   3.657  19.877  1.00  0.00     0.039 C 
ATOM      8  C   UNL     1      20.185   3.257  22.258  1.00  0.00    -0.023 CG0
ATOM      9  G   UNL     1      20.328   2.545  23.590  1.00  0.00     0.000 G0
ENDBRANCH   5   6
ENDBRANCH   4   5
ENDBRANCH   2   4
BRANCH   1  10
ATOM     10  C   UNL     1      18.695  -0.652  22.708  1.00  0.00     0.111 C 
BRANCH  10  11
ATOM     11  C   UNL     1      19.505   0.135  23.706  1.00  0.00     0.163 C 
ATOM     12  O   UNL     1      20.447  -0.439  24.317  1.00  0.00    -0.294 OA
BRANCH  11  13
ATOM     13  C   UNL     1      19.237   1.570  23.989  1.00  0.00    -0.002 C 
ATOM     14  C   UNL     1      18.137   1.938  24.699  1.00  0.00    -0.069 C 
ATOM     15  C   UNL     1      17.906   3.373  25.114  1.00  0.00     0.039 C 
ATOM     16  C   UNL     1      17.088   0.918  25.078  1.00  0.00     0.039 C 
BRANCH  13  17
ATOM     17  C   UNL     1      20.324   2.559  23.606  1.00  0.00     0.066 CG0
ATOM     18  G   UNL     1      20.185   3.256  22.266  1.00  0.00     0.000 G0
ENDBRANCH  13  17
ENDBRANCH  11  13
ENDBRANCH  10  11
ENDBRANCH   1  10
TORSDOF 0
ENDMDL
MODEL 5
REMARK VINA RESULT:    -3.125      1.631      3.527
REMARK INTER + INTRA:          -2.874
REMARK INTER:                  -3.789
REMARK INTRA:                   0.915
REMARK UNBOUND:                 1.529
REMARK SMILES CC1=CCC(=C(C)C)C(=O)CC(C)=CCC1
REMARK SMILES IDX 12 1 14 2 13 3 15 4 16 5 2 6 1 7 3 8 11 10 9 11 10 12 5 13
REMARK SMILES IDX 6 14 7 15 8 16 4 17
REMARK H PARENT
REMARK Flexibility Score: 60.00
ROOT
ATOM      1  C   UNL     1      20.126   2.040  24.614  1.00  0.00    -0.070 C 
ATOM      2  C   UNL     1      19.682   0.837  25.050  1.00  0.00    -0.027 C 
ATOM      3  C   UNL     1      21.503   2.489  25.035  1.00  0.00     0.039 C 
ENDROOT
BRANCH   2   4
ATOM      4  C   UNL     1      18.295   0.282  24.836  1.00  0.00     0.032 C 
BRANCH   4   5
ATOM      5  C   UNL     1      18.226  -1.011  24.011  1.00  0.00     0.034 C 
BRANCH   5   6
ATOM      6  C   UNL     1      19.294  -1.116  22.937  1.00  0.00    -0.077 C 
ATOM      7  C   UNL     1      20.331  -2.202  23.083  1.00  0.00     0.039 C 
ATOM      8  C   UNL     1      19.342  -0.351  21.819  1.00  0.00    -0.023 CG0
ATOM      9  G   UNL     1      18.527   0.884  21.483  1.00  0.00     0.000 G0
ENDBRANCH   5   6
ENDBRANCH   4   5
ENDBRANCH   2   4
BRANCH   1  10
ATOM     10  C   UNL     1      19.347   2.918  23.659  1.00  0.00     0.111 C 
BRANCH  10  11
ATOM     11  C   UNL     1      19.942   2.876  22.275  1.00  0.00     0.163 C 
ATOM     12  O   UNL     1      21.040   3.460  22.065  1.00  0.00    -0.294 OA
BRANCH  11  13
ATOM     13  C   UNL     1      19.284   2.161  21.150  1.00  0.00    -0.002 C 
ATOM     14  C   UNL     1      19.496   2.557  19.865  1.00  0.00    -0.069 C 
ATOM     15  C   UNL     1      18.948   1.774  18.695  1.00  0.00     0.039 C 
ATOM     16  C   UNL     1      20.273   3.818  19.567  1.00  0.00     0.039 C 
BRANCH  13  17
ATOM     17  C   UNL     1      18.526   0.891  21.493  1.00  0.00     0.066 CG0
ATOM     18  G   UNL     1      19.350  -0.345  21.800  1.00  0.00     0.000 G0
ENDBRANCH  13  17
ENDBRANCH  11  13
ENDBRANCH  10  11
ENDBRANCH   1  10
TORSDOF 0
ENDMDL
MODEL 6
REMARK VINA RESULT:    -2.996      1.975      4.985
REMARK INTER + INTRA:          -2.692
REMARK INTER:                  -2.920
REMARK INTRA:                   0.228
REMARK UNBOUND:                 1.529
REMARK SMILES CC1=CCC(=C(C)C)C(=O)CC(C)=CCC1
REMARK SMILES IDX 12 1 14 2 13 3 15 4 16 5 2 6 1 7 3 8 11 10 9 11 10 12 5 13
REMARK SMILES IDX 6 14 7 15 8 16 4 17
REMARK H PARENT
REMARK Flexibility Score: 60.00
ROOT
ATOM      1  C   UNL     1      20.115   3.474  23.928  1.00  0.00    -0.070 C 
ATOM      2  C   UNL     1      19.884   3.936  22.677  1.00  0.00    -0.027 C 
ATOM      3  C   UNL     1      19.904   4.416  25.087  1.00  0.00     0.039 C 
ENDROOT
BRANCH   2   4
ATOM      4  C   UNL     1      20.159   3.182  21.398  1.00  0.00     0.032 C 
BRANCH   4   5
ATOM      5  C   UNL     1      18.943   2.484  20.773  1.00  0.00     0.034 C 
BRANCH   5   6
ATOM      6  C   UNL     1      19.271   1.172  20.084  1.00  0.00    -0.077 C 
ATOM      7  C   UNL     1      19.760   1.231  18.659  1.00  0.00     0.039 C 
ATOM      8  C   UNL     1      19.223  -0.046  20.680  1.00  0.00    -0.023 CG0
ATOM      9  G   UNL     1      18.647  -0.414  22.034  1.00  0.00     0.000 G0
ENDBRANCH   5   6
ENDBRANCH   4   5
ENDBRANCH   2   4
BRANCH   1  10
ATOM     10  C   UNL     1      20.492   2.040  24.230  1.00  0.00     0.111 C 
BRANCH  10  11
ATOM     11  C   UNL     1      19.336   1.109  23.968  1.00  0.00     0.163 C 
ATOM     12  O   UNL     1      18.183   1.444  24.354  1.00  0.00    -0.294 OA
BRANCH  11  13
ATOM     13  C   UNL     1      19.506  -0.188  23.262  1.00  0.00    -0.002 C 
ATOM     14  C   UNL     1      20.290  -1.164  23.796  1.00  0.00    -0.069 C 
ATOM     15  C   UNL     1      20.380  -2.537  23.171  1.00  0.00     0.039 C 
ATOM     16  C   UNL     1      21.123  -0.895  25.028  1.00  0.00     0.039 C 
BRANCH  13  17
ATOM     17  C   UNL     1      18.639  -0.422  22.038  1.00  0.00     0.066 CG0
ATOM     18  G   UNL     1      19.228  -0.049  20.691  1.00  0.00     0.000 G0
ENDBRANCH  13  17
ENDBRANCH  11  13
ENDBRANCH  10  11
ENDBRANCH   1  10
TORSDOF 0
ENDMDL
MODEL 7
REMARK VINA RESULT:    -2.992      1.455      3.943
REMARK INTER + INTRA:          -2.687
REMARK INTER:                  -4.768
REMARK INTRA:                   2.081
REMARK UNBOUND:                 1.529
REMARK SMILES CC1=CCC(=C(C)C)C(=O)CC(C)=CCC1
REMARK SMILES IDX 12 1 14 2 13 3 15 4 16 5 2 6 1 7 3 8 11 10 9 11 10 12 5 13
REMARK SMILES IDX 6 14 7 15 8 16 4 17
REMARK H PARENT
REMARK Flexibility Score: 60.00
ROOT
ATOM      1  C   UNL     1      19.014   2.576  20.530  1.00  0.00    -0.070 C 
ATOM      2  C   UNL     1      19.954   3.409  21.036  1.00  0.00    -0.027 C 
ATOM      3  C   UNL     1      18.598   2.756  19.092  1.00  0.00     0.039 C 
ENDROOT
BRANCH   2   4
ATOM      4  C   UNL     1      20.399   3.459  22.477  1.00  0.00     0.032 C 
BRANCH   4   5
ATOM      5  C   UNL     1      19.525   2.668  23.461  1.00  0.00     0.034 C 
BRANCH   5   6
ATOM      6  C   UNL     1      20.293   1.654  24.290  1.00  0.00    -0.077 C 
ATOM      7  C   UNL     1      21.451   2.155  25.116  1.00  0.00     0.039 C 
ATOM      8  C   UNL     1      19.969   0.341  24.397  1.00  0.00    -0.023 CG0
ATOM      9  G   UNL     1      18.960  -0.452  23.589  1.00  0.00     0.000 G0
ENDBRANCH   5   6
ENDBRANCH   4   5
ENDBRANCH   2   4
BRANCH   1  10
ATOM     10  C   UNL     1      18.419   1.423  21.308  1.00  0.00     0.111 C 
BRANCH  10  11
ATOM     11  C   UNL     1      19.232   0.167  21.121  1.00  0.00     0.163 C 
ATOM     12  O   UNL     1      19.859   0.001  20.040  1.00  0.00    -0.294 OA
BRANCH  11  13
ATOM     13  C   UNL     1      19.327  -0.880  22.172  1.00  0.00    -0.002 C 
ATOM     14  C   UNL     1      19.875  -2.093  21.889  1.00  0.00    -0.069 C 
ATOM     15  C   UNL     1      20.104  -3.129  22.964  1.00  0.00     0.039 C 
ATOM     16  C   UNL     1      20.253  -2.454  20.470  1.00  0.00     0.039 C 
BRANCH  13  17
ATOM     17  C   UNL     1      18.952  -0.470  23.585  1.00  0.00     0.066 CG0
ATOM     18  G   UNL     1      19.974   0.332  24.367  1.00  0.00     0.000 G0
ENDBRANCH  13  17
ENDBRANCH  11  13
ENDBRANCH  10  11
ENDBRANCH   1  10
TORSDOF 0
ENDMDL
MODEL 8
REMARK VINA RESULT:    -2.949      1.528      4.061
REMARK INTER + INTRA:          -2.626
REMARK INTER:                  -3.648
REMARK INTRA:                   1.022
REMARK UNBOUND:                 1.529
REMARK SMILES CC1=CCC(=C(C)C)C(=O)CC(C)=CCC1
REMARK SMILES IDX 12 1 14 2 13 3 15 4 16 5 2 6 1 7 3 8 11 10 9 11 10 12 5 13
REMARK SMILES IDX 6 14 7 15 8 16 4 17
REMARK H PARENT
REMARK Flexibility Score: 60.00
ROOT
ATOM      1  C   UNL     1      19.439  -0.595  22.368  1.00  0.00    -0.070 C 
ATOM      2  C   UNL     1      19.623  -0.601  21.027  1.00  0.00    -0.027 C 
ATOM      3  C   UNL     1      20.402  -1.379  23.225  1.00  0.00     0.039 C 
ENDROOT
BRANCH   2   4
ATOM      4  C   UNL     1      18.694   0.017  20.010  1.00  0.00     0.032 C 
BRANCH   4   5
ATOM      5  C   UNL     1      19.376   0.883  18.940  1.00  0.00     0.034 C 
BRANCH   5   6
ATOM      6  C   UNL     1      19.068   2.364  19.055  1.00  0.00    -0.077 C 
ATOM      7  C   UNL     1      18.269   3.004  17.947  1.00  0.00     0.039 C 
ATOM      8  C   UNL     1      19.397   3.141  20.118  1.00  0.00    -0.023 CG0
ATOM      9  G   UNL     1      20.302   2.806  21.288  1.00  0.00     0.000 G0
ENDBRANCH   5   6
ENDBRANCH   4   5
ENDBRANCH   2   4
BRANCH   1  10
ATOM     10  C   UNL     1      18.370   0.223  23.058  1.00  0.00     0.111 C 
BRANCH  10  11
ATOM     11  C   UNL     1      18.380   1.650  22.572  1.00  0.00     0.163 C 
ATOM     12  O   UNL     1      17.317   2.145  22.110  1.00  0.00    -0.294 OA
BRANCH  11  13
ATOM     13  C   UNL     1      19.601   2.497  22.627  1.00  0.00    -0.002 C 
ATOM     14  C   UNL     1      20.148   2.840  23.824  1.00  0.00    -0.069 C 
ATOM     15  C   UNL     1      21.457   3.589  23.912  1.00  0.00     0.039 C 
ATOM     16  C   UNL     1      19.442   2.501  25.117  1.00  0.00     0.039 C 
BRANCH  13  17
ATOM     17  C   UNL     1      20.285   2.801  21.306  1.00  0.00     0.066 CG0
ATOM     18  G   UNL     1      19.394   3.129  20.124  1.00  0.00     0.000 G0
ENDBRANCH  13  17
ENDBRANCH  11  13
ENDBRANCH  10  11
ENDBRANCH   1  10
TORSDOF 0
ENDMDL
MODEL 9
REMARK VINA RESULT:    -2.717      2.225      3.794
REMARK INTER + INTRA:          -2.299
REMARK INTER:                  -5.151
REMARK INTRA:                   2.853
REMARK UNBOUND:                 1.529
REMARK SMILES CC1=CCC(=C(C)C)C(=O)CC(C)=CCC1
REMARK SMILES IDX 12 1 14 2 13 3 15 4 16 5 2 6 1 7 3 8 11 10 9 11 10 12 5 13
REMARK SMILES IDX 6 14 7 15 8 16 4 17
REMARK H PARENT
REMARK Flexibility Score: 60.00
ROOT
ATOM      1  C   UNL     1      19.571  -0.256  21.205  1.00  0.00    -0.070 C 
ATOM      2  C   UNL     1      19.316   0.772  20.361  1.00  0.00    -0.027 C 
ATOM      3  C   UNL     1      19.753  -1.634  20.619  1.00  0.00     0.039 C 
ENDROOT
BRANCH   2   4
ATOM      4  C   UNL     1      18.984   2.185  20.774  1.00  0.00     0.032 C 
BRANCH   4   5
ATOM      5  C   UNL     1      20.143   2.975  21.399  1.00  0.00     0.034 C 
BRANCH   5   6
ATOM      6  C   UNL     1      20.117   3.014  22.915  1.00  0.00    -0.077 C 
ATOM      7  C   UNL     1      21.345   3.528  23.626  1.00  0.00     0.039 C 
ATOM      8  C   UNL     1      19.045   2.686  23.678  1.00  0.00    -0.023 CG0
ATOM      9  G   UNL     1      17.751   2.020  23.251  1.00  0.00     0.000 G0
ENDBRANCH   5   6
ENDBRANCH   4   5
ENDBRANCH   2   4
BRANCH   1  10
ATOM     10  C   UNL     1      19.766  -0.081  22.695  1.00  0.00     0.111 C 
BRANCH  10  11
ATOM     11  C   UNL     1      18.506  -0.416  23.451  1.00  0.00     0.163 C 
ATOM     12  O   UNL     1      18.326  -1.601  23.842  1.00  0.00    -0.294 OA
BRANCH  11  13
ATOM     13  C   UNL     1      17.470   0.605  23.758  1.00  0.00    -0.002 C 
ATOM     14  C   UNL     1      16.429   0.304  24.580  1.00  0.00    -0.069 C 
ATOM     15  C   UNL     1      15.433   1.354  25.015  1.00  0.00     0.039 C 
ATOM     16  C   UNL     1      16.218  -1.111  25.068  1.00  0.00     0.039 C 
BRANCH  13  17
ATOM     17  C   UNL     1      17.729   2.017  23.262  1.00  0.00     0.066 CG0
ATOM     18  G   UNL     1      19.029   2.673  23.688  1.00  0.00     0.000 G0
ENDBRANCH  13  17
ENDBRANCH  11  13
ENDBRANCH  10  11
ENDBRANCH   1  10
TORSDOF 0
ENDMDL
