MODEL 1
REMARK VINA RESULT:    -4.821      0.000      0.000
REMARK INTER + INTRA:          -6.508
REMARK INTER:                  -6.794
REMARK INTRA:                   0.286
REMARK UNBOUND:                 0.286
REMARK SMILES CC1=CCC(=C(C)C)C(=O)CC(C)=CCC1
REMARK SMILES IDX 12 1 14 2 13 3 15 4 16 5 2 6 1 7 3 8 11 10 9 11 10 12 5 13
REMARK SMILES IDX 6 14 7 15 8 16 4 17
REMARK H PARENT
REMARK Flexibility Score: 60.00
ROOT
ATOM      1  C   UNL     1      15.872 -11.870  65.363  1.00  0.00    -0.070 C 
ATOM      2  C   UNL     1      16.327 -11.202  66.448  1.00  0.00    -0.027 C 
ATOM      3  C   UNL     1      14.390 -11.853  65.089  1.00  0.00     0.039 C 
ENDROOT
BRANCH   2   4
ATOM      4  C   UNL     1      17.748 -11.237  66.951  1.00  0.00     0.032 C 
BRANCH   4   5
ATOM      5  C   UNL     1      18.489  -9.972  66.501  1.00  0.00     0.034 C 
BRANCH   5   6
ATOM      6  C   UNL     1      19.394 -10.223  65.312  1.00  0.00    -0.077 C 
ATOM      7  C   UNL     1      20.779 -10.766  65.559  1.00  0.00     0.039 C 
ATOM      8  C   UNL     1      19.004 -10.056  64.023  1.00  0.00    -0.023 CG0
ATOM      9  G   UNL     1      17.693  -9.473  63.524  1.00  0.00     0.000 G0
ENDBRANCH   5   6
ENDBRANCH   4   5
ENDBRANCH   2   4
BRANCH   1  10
ATOM     10  C   UNL     1      16.777 -12.617  64.403  1.00  0.00     0.111 C 
BRANCH  10  11
ATOM     11  C   UNL     1      16.906 -11.904  63.079  1.00  0.00     0.163 C 
ATOM     12  O   UNL     1      17.201 -12.608  62.075  1.00  0.00    -0.294 OA
BRANCH  11  13
ATOM     13  C   UNL     1      16.681 -10.431  62.898  1.00  0.00    -0.002 C 
ATOM     14  C   UNL     1      15.526  -9.969  62.327  1.00  0.00    -0.069 C 
ATOM     15  C   UNL     1      15.157  -8.502  62.339  1.00  0.00     0.039 C 
ATOM     16  C   UNL     1      14.575 -10.897  61.606  1.00  0.00     0.039 C 
BRANCH  13  17
ATOM     17  C   UNL     1      17.685  -9.475  63.532  1.00  0.00     0.066 CG0
ATOM     18  G   UNL     1      18.998 -10.082  63.994  1.00  0.00     0.000 G0
ENDBRANCH  13  17
ENDBRANCH  11  13
ENDBRANCH  10  11
ENDBRANCH   1  10
TORSDOF 0
ENDMDL
MODEL 2
REMARK VINA RESULT:    -4.609      2.345      5.437
REMARK INTER + INTRA:          -6.209
REMARK INTER:                  -6.271
REMARK INTRA:                   0.062
REMARK UNBOUND:                 0.286
REMARK SMILES CC1=CCC(=C(C)C)C(=O)CC(C)=CCC1
REMARK SMILES IDX 12 1 14 2 13 3 15 4 16 5 2 6 1 7 3 8 11 10 9 11 10 12 5 13
REMARK SMILES IDX 6 14 7 15 8 16 4 17
REMARK H PARENT
REMARK Flexibility Score: 60.00
ROOT
ATOM      1  C   UNL     1      20.202  -9.994  65.267  1.00  0.00    -0.070 C 
ATOM      2  C   UNL     1      19.759  -9.972  63.989  1.00  0.00    -0.027 C 
ATOM      3  C   UNL     1      21.531 -10.649  65.545  1.00  0.00     0.039 C 
ENDROOT
BRANCH   2   4
ATOM      4  C   UNL     1      18.396  -9.494  63.556  1.00  0.00     0.032 C 
BRANCH   4   5
ATOM      5  C   UNL     1      17.513 -10.695  63.198  1.00  0.00     0.034 C 
BRANCH   5   6
ATOM      6  C   UNL     1      16.402 -10.918  64.204  1.00  0.00    -0.077 C 
ATOM      7  C   UNL     1      15.069 -10.252  63.969  1.00  0.00     0.039 C 
ATOM      8  C   UNL     1      16.513 -11.745  65.274  1.00  0.00    -0.023 CG0
ATOM      9  G   UNL     1      17.756 -12.475  65.751  1.00  0.00     0.000 G0
ENDBRANCH   5   6
ENDBRANCH   4   5
ENDBRANCH   2   4
BRANCH   1  10
ATOM     10  C   UNL     1      19.442  -9.379  66.425  1.00  0.00     0.111 C 
BRANCH  10  11
ATOM     11  C   UNL     1      18.465 -10.353  67.039  1.00  0.00     0.163 C 
ATOM     12  O   UNL     1      17.511  -9.866  67.703  1.00  0.00    -0.294 OA
BRANCH  11  13
ATOM     13  C   UNL     1      18.561 -11.842  66.880  1.00  0.00    -0.002 C 
ATOM     14  C   UNL     1      19.220 -12.600  67.810  1.00  0.00    -0.069 C 
ATOM     15  C   UNL     1      19.142 -14.110  67.815  1.00  0.00     0.039 C 
ATOM     16  C   UNL     1      20.108 -11.967  68.858  1.00  0.00     0.039 C 
BRANCH  13  17
ATOM     17  C   UNL     1      17.751 -12.493  65.763  1.00  0.00     0.066 CG0
ATOM     18  G   UNL     1      16.520 -11.739  65.294  1.00  0.00     0.000 G0
ENDBRANCH  13  17
ENDBRANCH  11  13
ENDBRANCH  10  11
ENDBRANCH   1  10
TORSDOF 0
ENDMDL
MODEL 3
REMARK VINA RESULT:    -4.584      1.780      3.390
REMARK INTER + INTRA:          -6.174
REMARK INTER:                  -6.529
REMARK INTRA:                   0.355
REMARK UNBOUND:                 0.286
REMARK SMILES CC1=CCC(=C(C)C)C(=O)CC(C)=CCC1
REMARK SMILES IDX 12 1 14 2 13 3 15 4 16 5 2 6 1 7 3 8 11 10 9 11 10 12 5 13
REMARK SMILES IDX 6 14 7 15 8 16 4 17
REMARK H PARENT
REMARK Flexibility Score: 60.00
ROOT
ATOM      1  C   UNL     1      19.437  -9.643  64.594  1.00  0.00    -0.070 C 
ATOM      2  C   UNL     1      19.703  -9.767  65.915  1.00  0.00    -0.027 C 
ATOM      3  C   UNL     1      20.602  -9.597  63.638  1.00  0.00     0.039 C 
ENDROOT
BRANCH   2   4
ATOM      4  C   UNL     1      18.674  -9.681  67.013  1.00  0.00     0.032 C 
BRANCH   4   5
ATOM      5  C   UNL     1      18.804 -10.893  67.943  1.00  0.00     0.034 C 
BRANCH   5   6
ATOM      6  C   UNL     1      18.671 -12.209  67.203  1.00  0.00    -0.077 C 
ATOM      7  C   UNL     1      19.797 -13.208  67.297  1.00  0.00     0.039 C 
ATOM      8  C   UNL     1      17.560 -12.573  66.514  1.00  0.00    -0.023 CG0
ATOM      9  G   UNL     1      16.332 -11.728  66.230  1.00  0.00     0.000 G0
ENDBRANCH   5   6
ENDBRANCH   4   5
ENDBRANCH   2   4
BRANCH   1  10
ATOM     10  C   UNL     1      18.033  -9.567  64.028  1.00  0.00     0.111 C 
BRANCH  10  11
ATOM     11  C   UNL     1      17.364 -10.920  63.994  1.00  0.00     0.163 C 
ATOM     12  O   UNL     1      17.895 -11.805  63.269  1.00  0.00    -0.294 OA
BRANCH  11  13
ATOM     13  C   UNL     1      16.135 -11.263  64.784  1.00  0.00    -0.002 C 
ATOM     14  C   UNL     1      14.910 -11.313  64.178  1.00  0.00    -0.069 C 
ATOM     15  C   UNL     1      13.692 -11.877  64.875  1.00  0.00     0.039 C 
ATOM     16  C   UNL     1      14.694 -10.759  62.787  1.00  0.00     0.039 C 
BRANCH  13  17
ATOM     17  C   UNL     1      16.322 -11.729  66.225  1.00  0.00     0.066 CG0
ATOM     18  G   UNL     1      17.560 -12.559  66.511  1.00  0.00     0.000 G0
ENDBRANCH  13  17
ENDBRANCH  11  13
ENDBRANCH  10  11
ENDBRANCH   1  10
TORSDOF 0
ENDMDL
MODEL 4
REMARK VINA RESULT:    -4.404      2.642      5.076
REMARK INTER + INTRA:          -5.920
REMARK INTER:                  -6.482
REMARK INTRA:                   0.562
REMARK UNBOUND:                 0.286
REMARK SMILES CC1=CCC(=C(C)C)C(=O)CC(C)=CCC1
REMARK SMILES IDX 12 1 14 2 13 3 15 4 16 5 2 6 1 7 3 8 11 10 9 11 10 12 5 13
REMARK SMILES IDX 6 14 7 15 8 16 4 17
REMARK H PARENT
REMARK Flexibility Score: 60.00
ROOT
ATOM      1  C   UNL     1      17.940 -12.777  67.057  1.00  0.00    -0.070 C 
ATOM      2  C   UNL     1      17.160 -12.506  65.985  1.00  0.00    -0.027 C 
ATOM      3  C   UNL     1      18.749 -14.050  67.041  1.00  0.00     0.039 C 
ENDROOT
BRANCH   2   4
ATOM      4  C   UNL     1      16.181 -11.363  65.898  1.00  0.00     0.032 C 
BRANCH   4   5
ATOM      5  C   UNL     1      16.938 -10.030  65.888  1.00  0.00     0.034 C 
BRANCH   5   6
ATOM      6  C   UNL     1      18.064 -10.011  64.874  1.00  0.00    -0.077 C 
ATOM      7  C   UNL     1      17.725 -10.176  63.414  1.00  0.00     0.039 C 
ATOM      8  C   UNL     1      19.362  -9.780  65.198  1.00  0.00    -0.023 CG0
ATOM      9  G   UNL     1      19.955  -9.642  66.589  1.00  0.00     0.000 G0
ENDBRANCH   5   6
ENDBRANCH   4   5
ENDBRANCH   2   4
BRANCH   1  10
ATOM     10  C   UNL     1      18.056 -11.861  68.259  1.00  0.00     0.111 C 
BRANCH  10  11
ATOM     11  C   UNL     1      19.465 -11.354  68.449  1.00  0.00     0.163 C 
ATOM     12  O   UNL     1      19.912 -11.329  69.628  1.00  0.00    -0.294 OA
BRANCH  11  13
ATOM     13  C   UNL     1      20.349 -10.907  67.322  1.00  0.00    -0.002 C 
ATOM     14  C   UNL     1      21.364 -11.709  66.874  1.00  0.00    -0.069 C 
ATOM     15  C   UNL     1      22.123 -11.406  65.602  1.00  0.00     0.039 C 
ATOM     16  C   UNL     1      21.816 -12.921  67.657  1.00  0.00     0.039 C 
BRANCH  13  17
ATOM     17  C   UNL     1      19.968  -9.630  66.581  1.00  0.00     0.066 CG0
ATOM     18  G   UNL     1      19.349  -9.805  65.206  1.00  0.00     0.000 G0
ENDBRANCH  13  17
ENDBRANCH  11  13
ENDBRANCH  10  11
ENDBRANCH   1  10
TORSDOF 0
ENDMDL
MODEL 5
REMARK VINA RESULT:    -4.285      2.858      5.645
REMARK INTER + INTRA:          -5.753
REMARK INTER:                  -5.987
REMARK INTRA:                   0.234
REMARK UNBOUND:                 0.286
REMARK SMILES CC1=CCC(=C(C)C)C(=O)CC(C)=CCC1
REMARK SMILES IDX 12 1 14 2 13 3 15 4 16 5 2 6 1 7 3 8 11 10 9 11 10 12 5 13
REMARK SMILES IDX 6 14 7 15 8 16 4 17
REMARK H PARENT
REMARK Flexibility Score: 60.00
ROOT
ATOM      1  C   UNL     1      19.644  -9.910  64.508  1.00  0.00    -0.070 C 
ATOM      2  C   UNL     1      18.433 -10.157  63.958  1.00  0.00    -0.027 C 
ATOM      3  C   UNL     1      20.862 -10.041  63.629  1.00  0.00     0.039 C 
ENDROOT
BRANCH   2   4
ATOM      4  C   UNL     1      17.135 -10.217  64.723  1.00  0.00     0.032 C 
BRANCH   4   5
ATOM      5  C   UNL     1      16.755 -11.679  64.987  1.00  0.00     0.034 C 
BRANCH   5   6
ATOM      6  C   UNL     1      16.891 -12.058  66.448  1.00  0.00    -0.077 C 
ATOM      7  C   UNL     1      15.742 -11.768  67.381  1.00  0.00     0.039 C 
ATOM      8  C   UNL     1      17.965 -12.714  66.956  1.00  0.00    -0.023 CG0
ATOM      9  G   UNL     1      19.257 -13.063  66.238  1.00  0.00     0.000 G0
ENDBRANCH   5   6
ENDBRANCH   4   5
ENDBRANCH   2   4
BRANCH   1  10
ATOM     10  C   UNL     1      19.837  -9.493  65.952  1.00  0.00     0.111 C 
BRANCH  10  11
ATOM     11  C   UNL     1      20.083 -10.678  66.854  1.00  0.00     0.163 C 
ATOM     12  O   UNL     1      19.985 -10.484  68.096  1.00  0.00    -0.294 OA
BRANCH  11  13
ATOM     13  C   UNL     1      20.409 -12.054  66.353  1.00  0.00    -0.002 C 
ATOM     14  C   UNL     1      21.709 -12.431  66.151  1.00  0.00    -0.069 C 
ATOM     15  C   UNL     1      22.095 -13.867  65.875  1.00  0.00     0.039 C 
ATOM     16  C   UNL     1      22.832 -11.418  66.144  1.00  0.00     0.039 C 
BRANCH  13  17
ATOM     17  C   UNL     1      19.271 -13.065  66.255  1.00  0.00     0.066 CG0
ATOM     18  G   UNL     1      17.976 -12.694  66.955  1.00  0.00     0.000 G0
ENDBRANCH  13  17
ENDBRANCH  11  13
ENDBRANCH  10  11
ENDBRANCH   1  10
TORSDOF 0
ENDMDL
MODEL 6
REMARK VINA RESULT:    -4.268      1.767      4.438
REMARK INTER + INTRA:          -5.728
REMARK INTER:                  -6.082
REMARK INTRA:                   0.354
REMARK UNBOUND:                 0.286
REMARK SMILES CC1=CCC(=C(C)C)C(=O)CC(C)=CCC1
REMARK SMILES IDX 12 1 14 2 13 3 15 4 16 5 2 6 1 7 3 8 11 10 9 11 10 12 5 13
REMARK SMILES IDX 6 14 7 15 8 16 4 17
REMARK H PARENT
REMARK Flexibility Score: 60.00
ROOT
ATOM      1  C   UNL     1      17.543 -12.842  65.492  1.00  0.00    -0.070 C 
ATOM      2  C   UNL     1      17.212 -13.216  64.235  1.00  0.00    -0.027 C 
ATOM      3  C   UNL     1      18.692 -13.552  66.163  1.00  0.00     0.039 C 
ENDROOT
BRANCH   2   4
ATOM      4  C   UNL     1      16.007 -12.719  63.476  1.00  0.00     0.032 C 
BRANCH   4   5
ATOM      5  C   UNL     1      16.430 -11.631  62.482  1.00  0.00     0.034 C 
BRANCH   5   6
ATOM      6  C   UNL     1      16.076 -10.239  62.963  1.00  0.00    -0.077 C 
ATOM      7  C   UNL     1      14.672  -9.733  62.743  1.00  0.00     0.039 C 
ATOM      8  C   UNL     1      16.933  -9.441  63.649  1.00  0.00    -0.023 CG0
ATOM      9  G   UNL     1      18.400  -9.699  63.941  1.00  0.00     0.000 G0
ENDBRANCH   5   6
ENDBRANCH   4   5
ENDBRANCH   2   4
BRANCH   1  10
ATOM     10  C   UNL     1      16.832 -11.738  66.250  1.00  0.00     0.111 C 
BRANCH  10  11
ATOM     11  C   UNL     1      17.644 -10.466  66.287  1.00  0.00     0.163 C 
ATOM     12  O   UNL     1      17.362  -9.632  67.190  1.00  0.00    -0.294 OA
BRANCH  11  13
ATOM     13  C   UNL     1      18.763 -10.162  65.335  1.00  0.00    -0.002 C 
ATOM     14  C   UNL     1      20.059 -10.448  65.670  1.00  0.00    -0.069 C 
ATOM     15  C   UNL     1      21.183 -10.377  64.661  1.00  0.00     0.039 C 
ATOM     16  C   UNL     1      20.447 -10.806  67.087  1.00  0.00     0.039 C 
BRANCH  13  17
ATOM     17  C   UNL     1      18.396  -9.701  63.929  1.00  0.00     0.066 CG0
ATOM     18  G   UNL     1      16.924  -9.437  63.667  1.00  0.00     0.000 G0
ENDBRANCH  13  17
ENDBRANCH  11  13
ENDBRANCH  10  11
ENDBRANCH   1  10
TORSDOF 0
ENDMDL
MODEL 7
REMARK VINA RESULT:    -4.259      1.309      4.188
REMARK INTER + INTRA:          -5.717
REMARK INTER:                  -5.736
REMARK INTRA:                   0.019
REMARK UNBOUND:                 0.286
REMARK SMILES CC1=CCC(=C(C)C)C(=O)CC(C)=CCC1
REMARK SMILES IDX 12 1 14 2 13 3 15 4 16 5 2 6 1 7 3 8 11 10 9 11 10 12 5 13
REMARK SMILES IDX 6 14 7 15 8 16 4 17
REMARK H PARENT
REMARK Flexibility Score: 60.00
ROOT
ATOM      1  C   UNL     1      13.614 -12.223  63.814  1.00  0.00    -0.070 C 
ATOM      2  C   UNL     1      13.224 -11.546  62.710  1.00  0.00    -0.027 C 
ATOM      3  C   UNL     1      13.138 -13.644  63.979  1.00  0.00     0.039 C 
ENDROOT
BRANCH   2   4
ATOM      4  C   UNL     1      13.482 -10.082  62.459  1.00  0.00     0.032 C 
BRANCH   4   5
ATOM      5  C   UNL     1      14.913  -9.888  61.943  1.00  0.00     0.034 C 
BRANCH   5   6
ATOM      6  C   UNL     1      15.609  -8.710  62.594  1.00  0.00    -0.077 C 
ATOM      7  C   UNL     1      15.010  -7.336  62.430  1.00  0.00     0.039 C 
ATOM      8  C   UNL     1      16.707  -8.829  63.381  1.00  0.00    -0.023 CG0
ATOM      9  G   UNL     1      17.519 -10.084  63.649  1.00  0.00     0.000 G0
ENDBRANCH   5   6
ENDBRANCH   4   5
ENDBRANCH   2   4
BRANCH   1  10
ATOM     10  C   UNL     1      14.517 -11.634  64.879  1.00  0.00     0.111 C 
BRANCH  10  11
ATOM     11  C   UNL     1      15.973 -11.930  64.613  1.00  0.00     0.163 C 
ATOM     12  O   UNL     1      16.251 -13.071  64.152  1.00  0.00    -0.294 OA
BRANCH  11  13
ATOM     13  C   UNL     1      17.081 -10.945  64.843  1.00  0.00    -0.002 C 
ATOM     14  C   UNL     1      17.771 -10.937  66.025  1.00  0.00    -0.069 C 
ATOM     15  C   UNL     1      19.035 -10.129  66.211  1.00  0.00     0.039 C 
ATOM     16  C   UNL     1      17.276 -11.703  67.232  1.00  0.00     0.039 C 
BRANCH  13  17
ATOM     17  C   UNL     1      17.529 -10.089  63.663  1.00  0.00     0.066 CG0
ATOM     18  G   UNL     1      16.703  -8.847  63.377  1.00  0.00     0.000 G0
ENDBRANCH  13  17
ENDBRANCH  11  13
ENDBRANCH  10  11
ENDBRANCH   1  10
TORSDOF 0
ENDMDL
MODEL 8
REMARK VINA RESULT:    -4.207     13.226     16.061
REMARK INTER + INTRA:          -5.643
REMARK INTER:                  -5.886
REMARK INTRA:                   0.243
REMARK UNBOUND:                 0.286
REMARK SMILES CC1=CCC(=C(C)C)C(=O)CC(C)=CCC1
REMARK SMILES IDX 12 1 14 2 13 3 15 4 16 5 2 6 1 7 3 8 11 10 9 11 10 12 5 13
REMARK SMILES IDX 6 14 7 15 8 16 4 17
REMARK H PARENT
REMARK Flexibility Score: 60.00
ROOT
ATOM      1  C   UNL     1       7.317   2.070  63.600  1.00  0.00    -0.070 C 
ATOM      2  C   UNL     1       7.395   3.303  63.048  1.00  0.00    -0.027 C 
ATOM      3  C   UNL     1       8.226   1.753  64.759  1.00  0.00     0.039 C 
ENDROOT
BRANCH   2   4
ATOM      4  C   UNL     1       6.671   3.737  61.798  1.00  0.00     0.032 C 
BRANCH   4   5
ATOM      5  C   UNL     1       7.685   4.040  60.689  1.00  0.00     0.034 C 
BRANCH   5   6
ATOM      6  C   UNL     1       7.555   3.095  59.512  1.00  0.00    -0.077 C 
ATOM      7  C   UNL     1       6.788   3.554  58.297  1.00  0.00     0.039 C 
ATOM      8  C   UNL     1       8.156   1.879  59.456  1.00  0.00    -0.023 CG0
ATOM      9  G   UNL     1       8.925   1.179  60.562  1.00  0.00     0.000 G0
ENDBRANCH   5   6
ENDBRANCH   4   5
ENDBRANCH   2   4
BRANCH   1  10
ATOM     10  C   UNL     1       6.353   1.002  63.123  1.00  0.00     0.111 C 
BRANCH  10  11
ATOM     11  C   UNL     1       6.740   0.454  61.771  1.00  0.00     0.163 C 
ATOM     12  O   UNL     1       5.812   0.282  60.934  1.00  0.00    -0.294 OA
BRANCH  11  13
ATOM     13  C   UNL     1       8.151   0.133  61.374  1.00  0.00    -0.002 C 
ATOM     14  C   UNL     1       8.668  -1.116  61.592  1.00  0.00    -0.069 C 
ATOM     15  C   UNL     1       9.991  -1.550  61.002  1.00  0.00     0.039 C 
ATOM     16  C   UNL     1       7.963  -2.118  62.478  1.00  0.00     0.039 C 
BRANCH  13  17
ATOM     17  C   UNL     1       8.918   1.173  60.564  1.00  0.00     0.066 CG0
ATOM     18  G   UNL     1       8.144   1.877  59.464  1.00  0.00     0.000 G0
ENDBRANCH  13  17
ENDBRANCH  11  13
ENDBRANCH  10  11
ENDBRANCH   1  10
TORSDOF 0
ENDMDL
MODEL 9
REMARK VINA RESULT:    -4.106      2.111      2.960
REMARK INTER + INTRA:          -5.500
REMARK INTER:                  -5.605
REMARK INTRA:                   0.105
REMARK UNBOUND:                 0.286
REMARK SMILES CC1=CCC(=C(C)C)C(=O)CC(C)=CCC1
REMARK SMILES IDX 12 1 14 2 13 3 15 4 16 5 2 6 1 7 3 8 11 10 9 11 10 12 5 13
REMARK SMILES IDX 6 14 7 15 8 16 4 17
REMARK H PARENT
REMARK Flexibility Score: 60.00
ROOT
ATOM      1  C   UNL     1      15.833 -13.056  62.802  1.00  0.00    -0.070 C 
ATOM      2  C   UNL     1      17.005 -13.561  63.250  1.00  0.00    -0.027 C 
ATOM      3  C   UNL     1      15.754 -12.617  61.362  1.00  0.00     0.039 C 
ENDROOT
BRANCH   2   4
ATOM      4  C   UNL     1      17.302 -13.908  64.687  1.00  0.00     0.032 C 
BRANCH   4   5
ATOM      5  C   UNL     1      18.226 -12.848  65.298  1.00  0.00     0.034 C 
BRANCH   5   6
ATOM      6  C   UNL     1      17.528 -12.005  66.345  1.00  0.00    -0.077 C 
ATOM      7  C   UNL     1      17.570 -12.456  67.783  1.00  0.00     0.039 C 
ATOM      8  C   UNL     1      16.924 -10.820  66.073  1.00  0.00    -0.023 CG0
ATOM      9  G   UNL     1      16.703 -10.188  64.711  1.00  0.00     0.000 G0
ENDBRANCH   5   6
ENDBRANCH   4   5
ENDBRANCH   2   4
BRANCH   1  10
ATOM     10  C   UNL     1      14.594 -12.927  63.666  1.00  0.00     0.111 C 
BRANCH  10  11
ATOM     11  C   UNL     1      14.579 -11.631  64.441  1.00  0.00     0.163 C 
ATOM     12  O   UNL     1      13.884 -11.600  65.493  1.00  0.00    -0.294 OA
BRANCH  11  13
ATOM     13  C   UNL     1      15.354 -10.411  64.040  1.00  0.00    -0.002 C 
ATOM     14  C   UNL     1      14.789  -9.462  63.231  1.00  0.00    -0.069 C 
ATOM     15  C   UNL     1      15.441  -8.118  62.995  1.00  0.00     0.039 C 
ATOM     16  C   UNL     1      13.500  -9.726  62.487  1.00  0.00     0.039 C 
BRANCH  13  17
ATOM     17  C   UNL     1      16.707 -10.176  64.705  1.00  0.00     0.066 CG0
ATOM     18  G   UNL     1      16.911 -10.817  66.066  1.00  0.00     0.000 G0
ENDBRANCH  13  17
ENDBRANCH  11  13
ENDBRANCH  10  11
ENDBRANCH   1  10
TORSDOF 0
ENDMDL
