MODEL 1
REMARK VINA RESULT:    -4.207      0.000      0.000
REMARK INTER + INTRA:          -6.399
REMARK INTER:                  -5.928
REMARK INTRA:                  -0.471
REMARK UNBOUND:                -0.471
REMARK SMILES CCCCCCCCC(=O)[O-]
REMARK SMILES IDX 6 1 7 2 8 3 9 4 10 5 11 6 5 7 4 8 3 9 2 10 1 11
REMARK H PARENT
REMARK Flexibility Score: inf
ROOT
ATOM      1  C   UNL     1      29.765  -6.047  30.789  1.00  0.00     0.000 C 
ENDROOT
BRANCH   1   2
ATOM      2  C   UNL     1      29.393  -4.962  29.768  1.00  0.00     0.006 C 
BRANCH   2   3
ATOM      3  C   UNL     1      30.211  -3.688  30.000  1.00  0.00     0.053 C 
BRANCH   3   4
ATOM      4  C   UNL     1      29.307  -2.512  30.192  1.00  0.00     0.041 C 
ATOM      5  O   UNL     1      29.761  -1.342  30.106  1.00  0.00    -0.550 OA
ATOM      6  O   UNL     1      27.950  -2.708  30.417  1.00  0.00    -0.550 OA
ENDBRANCH   3   4
ENDBRANCH   2   3
ENDBRANCH   1   2
BRANCH   1   7
ATOM      7  C   UNL     1      28.553  -6.879  31.247  1.00  0.00     0.000 C 
BRANCH   7   8
ATOM      8  C   UNL     1      28.878  -8.324  31.677  1.00  0.00    -0.000 C 
BRANCH   8   9
ATOM      9  C   UNL     1      29.458  -9.220  30.568  1.00  0.00    -0.000 C 
BRANCH   9  10
ATOM     10  C   UNL     1      28.550  -9.302  29.332  1.00  0.00    -0.003 C 
ATOM     11  C   UNL     1      29.257  -8.756  28.094  1.00  0.00     0.004 C 
ENDBRANCH   9  10
ENDBRANCH   8   9
ENDBRANCH   7   8
ENDBRANCH   1   7
TORSDOF 7
ENDMDL
MODEL 2
REMARK VINA RESULT:    -4.184      3.832      7.063
REMARK INTER + INTRA:          -6.367
REMARK INTER:                  -5.623
REMARK INTRA:                  -0.745
REMARK UNBOUND:                -0.471
REMARK SMILES CCCCCCCCC(=O)[O-]
REMARK SMILES IDX 6 1 7 2 8 3 9 4 10 5 11 6 5 7 4 8 3 9 2 10 1 11
REMARK H PARENT
REMARK Flexibility Score: inf
ROOT
ATOM      1  C   UNL     1      27.196  -0.984  28.947  1.00  0.00     0.000 C 
ENDROOT
BRANCH   1   2
ATOM      2  C   UNL     1      26.887  -1.830  30.190  1.00  0.00     0.006 C 
BRANCH   2   3
ATOM      3  C   UNL     1      28.025  -2.812  30.483  1.00  0.00     0.053 C 
BRANCH   3   4
ATOM      4  C   UNL     1      27.494  -4.203  30.625  1.00  0.00     0.041 C 
ATOM      5  O   UNL     1      26.262  -4.427  30.496  1.00  0.00    -0.550 OA
ATOM      6  O   UNL     1      28.367  -5.260  30.849  1.00  0.00    -0.550 OA
ENDBRANCH   3   4
ENDBRANCH   2   3
ENDBRANCH   1   2
BRANCH   1   7
ATOM      7  C   UNL     1      27.019   0.526  29.191  1.00  0.00     0.000 C 
BRANCH   7   8
ATOM      8  C   UNL     1      28.303   1.277  29.604  1.00  0.00    -0.000 C 
BRANCH   8   9
ATOM      9  C   UNL     1      28.547   1.364  31.121  1.00  0.00    -0.000 C 
BRANCH   9  10
ATOM     10  C   UNL     1      29.680   0.442  31.597  1.00  0.00    -0.003 C 
ATOM     11  C   UNL     1      30.534  -0.027  30.423  1.00  0.00     0.004 C 
ENDBRANCH   9  10
ENDBRANCH   8   9
ENDBRANCH   7   8
ENDBRANCH   1   7
TORSDOF 7
ENDMDL
MODEL 3
REMARK VINA RESULT:    -4.116      3.535      6.899
REMARK INTER + INTRA:          -6.271
REMARK INTER:                  -5.538
REMARK INTRA:                  -0.733
REMARK UNBOUND:                -0.471
REMARK SMILES CCCCCCCCC(=O)[O-]
REMARK SMILES IDX 6 1 7 2 8 3 9 4 10 5 11 6 5 7 4 8 3 9 2 10 1 11
REMARK H PARENT
REMARK Flexibility Score: inf
ROOT
ATOM      1  C   UNL     1      29.485  -0.786  31.552  1.00  0.00     0.000 C 
ENDROOT
BRANCH   1   2
ATOM      2  C   UNL     1      29.851  -1.567  30.281  1.00  0.00     0.006 C 
BRANCH   2   3
ATOM      3  C   UNL     1      28.844  -2.690  30.017  1.00  0.00     0.053 C 
BRANCH   3   4
ATOM      4  C   UNL     1      29.530  -4.019  30.011  1.00  0.00     0.041 C 
ATOM      5  O   UNL     1      28.857  -5.079  29.925  1.00  0.00    -0.550 OA
ATOM      6  O   UNL     1      30.917  -4.085  30.050  1.00  0.00    -0.550 OA
ENDBRANCH   3   4
ENDBRANCH   2   3
ENDBRANCH   1   2
BRANCH   1   7
ATOM      7  C   UNL     1      29.464   0.738  31.334  1.00  0.00     0.000 C 
BRANCH   7   8
ATOM      8  C   UNL     1      28.071   1.340  31.057  1.00  0.00    -0.000 C 
BRANCH   8   9
ATOM      9  C   UNL     1      27.677   1.414  29.570  1.00  0.00    -0.000 C 
BRANCH   9  10
ATOM     10  C   UNL     1      26.757   0.263  29.139  1.00  0.00    -0.003 C 
ATOM     11  C   UNL     1      25.995  -0.308  30.332  1.00  0.00     0.004 C 
ENDBRANCH   9  10
ENDBRANCH   8   9
ENDBRANCH   7   8
ENDBRANCH   1   7
TORSDOF 7
ENDMDL
MODEL 4
REMARK VINA RESULT:    -4.088      1.120      2.120
REMARK INTER + INTRA:          -6.232
REMARK INTER:                  -5.709
REMARK INTRA:                  -0.522
REMARK UNBOUND:                -0.471
REMARK SMILES CCCCCCCCC(=O)[O-]
REMARK SMILES IDX 6 1 7 2 8 3 9 4 10 5 11 6 5 7 4 8 3 9 2 10 1 11
REMARK H PARENT
REMARK Flexibility Score: inf
ROOT
ATOM      1  C   UNL     1      27.898  -6.433  29.642  1.00  0.00     0.000 C 
ENDROOT
BRANCH   1   2
ATOM      2  C   UNL     1      28.302  -5.406  30.708  1.00  0.00     0.006 C 
BRANCH   2   3
ATOM      3  C   UNL     1      29.230  -4.339  30.119  1.00  0.00     0.053 C 
BRANCH   3   4
ATOM      4  C   UNL     1      28.552  -3.006  30.103  1.00  0.00     0.041 C 
ATOM      5  O   UNL     1      29.114  -2.015  29.569  1.00  0.00    -0.550 OA
ATOM      6  O   UNL     1      27.275  -2.869  30.634  1.00  0.00    -0.550 OA
ENDBRANCH   3   4
ENDBRANCH   2   3
ENDBRANCH   1   2
BRANCH   1   7
ATOM      7  C   UNL     1      29.105  -7.031  28.896  1.00  0.00     0.000 C 
BRANCH   7   8
ATOM      8  C   UNL     1      29.005  -8.540  28.594  1.00  0.00    -0.000 C 
BRANCH   8   9
ATOM      9  C   UNL     1      28.610  -9.420  29.794  1.00  0.00    -0.000 C 
BRANCH   9  10
ATOM     10  C   UNL     1      29.569  -9.271  30.984  1.00  0.00    -0.003 C 
ATOM     11  C   UNL     1      28.802  -9.013  32.278  1.00  0.00     0.004 C 
ENDBRANCH   9  10
ENDBRANCH   8   9
ENDBRANCH   7   8
ENDBRANCH   1   7
TORSDOF 7
ENDMDL
MODEL 5
REMARK VINA RESULT:    -4.051      3.354      5.809
REMARK INTER + INTRA:          -6.179
REMARK INTER:                  -5.765
REMARK INTRA:                  -0.415
REMARK UNBOUND:                -0.471
REMARK SMILES CCCCCCCCC(=O)[O-]
REMARK SMILES IDX 6 1 7 2 8 3 9 4 10 5 11 6 5 7 4 8 3 9 2 10 1 11
REMARK H PARENT
REMARK Flexibility Score: inf
ROOT
ATOM      1  C   UNL     1      27.057  -5.621  29.999  1.00  0.00     0.000 C 
ENDROOT
BRANCH   1   2
ATOM      2  C   UNL     1      28.323  -6.426  29.678  1.00  0.00     0.006 C 
BRANCH   2   3
ATOM      3  C   UNL     1      29.052  -6.837  30.960  1.00  0.00     0.053 C 
BRANCH   3   4
ATOM      4  C   UNL     1      28.729  -8.253  31.317  1.00  0.00     0.041 C 
ATOM      5  O   UNL     1      28.637  -8.597  32.524  1.00  0.00    -0.550 OA
ATOM      6  O   UNL     1      28.479  -9.182  30.315  1.00  0.00    -0.550 OA
ENDBRANCH   3   4
ENDBRANCH   2   3
ENDBRANCH   1   2
BRANCH   1   7
ATOM      7  C   UNL     1      27.302  -4.501  31.027  1.00  0.00     0.000 C 
BRANCH   7   8
ATOM      8  C   UNL     1      27.369  -3.076  30.439  1.00  0.00    -0.000 C 
BRANCH   8   9
ATOM      9  C   UNL     1      28.764  -2.633  29.960  1.00  0.00    -0.000 C 
BRANCH   9  10
ATOM     10  C   UNL     1      28.718  -1.393  29.056  1.00  0.00    -0.003 C 
ATOM     11  C   UNL     1      27.279  -0.943  28.814  1.00  0.00     0.004 C 
ENDBRANCH   9  10
ENDBRANCH   8   9
ENDBRANCH   7   8
ENDBRANCH   1   7
TORSDOF 7
ENDMDL
MODEL 6
REMARK VINA RESULT:    -4.043      7.344     11.591
REMARK INTER + INTRA:          -6.168
REMARK INTER:                  -5.919
REMARK INTRA:                  -0.249
REMARK UNBOUND:                -0.471
REMARK SMILES CCCCCCCCC(=O)[O-]
REMARK SMILES IDX 6 1 7 2 8 3 9 4 10 5 11 6 5 7 4 8 3 9 2 10 1 11
REMARK H PARENT
REMARK Flexibility Score: inf
ROOT
ATOM      1  C   UNL     1      27.625   3.757  29.319  1.00  0.00     0.000 C 
ENDROOT
BRANCH   1   2
ATOM      2  C   UNL     1      27.685   2.254  29.625  1.00  0.00     0.006 C 
BRANCH   2   3
ATOM      3  C   UNL     1      28.276   1.999  31.014  1.00  0.00     0.053 C 
BRANCH   3   4
ATOM      4  C   UNL     1      29.115   0.761  31.008  1.00  0.00     0.041 C 
ATOM      5  O   UNL     1      29.040  -0.060  31.960  1.00  0.00    -0.550 OA
ATOM      6  O   UNL     1      29.942   0.487  29.927  1.00  0.00    -0.550 OA
ENDBRANCH   3   4
ENDBRANCH   2   3
ENDBRANCH   1   2
BRANCH   1   7
ATOM      7  C   UNL     1      27.891   4.632  30.558  1.00  0.00     0.000 C 
BRANCH   7   8
ATOM      8  C   UNL     1      27.328   6.066  30.479  1.00  0.00    -0.000 C 
BRANCH   8   9
ATOM      9  C   UNL     1      28.348   7.146  30.073  1.00  0.00    -0.000 C 
BRANCH   9  10
ATOM     10  C   UNL     1      27.908   8.562  30.473  1.00  0.00    -0.003 C 
ATOM     11  C   UNL     1      26.406   8.615  30.742  1.00  0.00     0.004 C 
ENDBRANCH   9  10
ENDBRANCH   8   9
ENDBRANCH   7   8
ENDBRANCH   1   7
TORSDOF 7
ENDMDL
MODEL 7
REMARK VINA RESULT:    -4.030      7.954     10.540
REMARK INTER + INTRA:          -6.150
REMARK INTER:                  -5.854
REMARK INTRA:                  -0.296
REMARK UNBOUND:                -0.471
REMARK SMILES CCCCCCCCC(=O)[O-]
REMARK SMILES IDX 6 1 7 2 8 3 9 4 10 5 11 6 5 7 4 8 3 9 2 10 1 11
REMARK H PARENT
REMARK Flexibility Score: inf
ROOT
ATOM      1  C   UNL     1      27.980   4.287  30.478  1.00  0.00     0.000 C 
ENDROOT
BRANCH   1   2
ATOM      2  C   UNL     1      27.327   5.670  30.342  1.00  0.00     0.006 C 
BRANCH   2   3
ATOM      3  C   UNL     1      28.379   6.751  30.082  1.00  0.00     0.053 C 
BRANCH   3   4
ATOM      4  C   UNL     1      27.828   8.106  30.396  1.00  0.00     0.041 C 
ATOM      5  O   UNL     1      26.599   8.252  30.626  1.00  0.00    -0.550 OA
ATOM      6  O   UNL     1      28.679   9.199  30.485  1.00  0.00    -0.550 OA
ENDBRANCH   3   4
ENDBRANCH   2   3
ENDBRANCH   1   2
BRANCH   1   7
ATOM      7  C   UNL     1      27.687   3.364  29.281  1.00  0.00     0.000 C 
BRANCH   7   8
ATOM      8  C   UNL     1      27.945   1.865  29.533  1.00  0.00    -0.000 C 
BRANCH   8   9
ATOM      9  C   UNL     1      28.092   1.468  31.013  1.00  0.00    -0.000 C 
BRANCH   9  10
ATOM     10  C   UNL     1      29.402   0.720  31.303  1.00  0.00    -0.003 C 
ATOM     11  C   UNL     1      29.960   0.079  30.035  1.00  0.00     0.004 C 
ENDBRANCH   9  10
ENDBRANCH   8   9
ENDBRANCH   7   8
ENDBRANCH   1   7
TORSDOF 7
ENDMDL
MODEL 8
REMARK VINA RESULT:    -3.969      1.538      2.078
REMARK INTER + INTRA:          -6.064
REMARK INTER:                  -5.639
REMARK INTRA:                  -0.425
REMARK UNBOUND:                -0.471
REMARK SMILES CCCCCCCCC(=O)[O-]
REMARK SMILES IDX 6 1 7 2 8 3 9 4 10 5 11 6 5 7 4 8 3 9 2 10 1 11
REMARK H PARENT
REMARK Flexibility Score: inf
ROOT
ATOM      1  C   UNL     1      26.878  -5.392  30.007  1.00  0.00     0.000 C 
ENDROOT
BRANCH   1   2
ATOM      2  C   UNL     1      27.291  -4.329  31.035  1.00  0.00     0.006 C 
BRANCH   2   3
ATOM      3  C   UNL     1      27.560  -2.983  30.355  1.00  0.00     0.053 C 
BRANCH   3   4
ATOM      4  C   UNL     1      29.022  -2.671  30.372  1.00  0.00     0.041 C 
ATOM      5  O   UNL     1      29.851  -3.489  29.894  1.00  0.00    -0.550 OA
ATOM      6  O   UNL     1      29.467  -1.452  30.868  1.00  0.00    -0.550 OA
ENDBRANCH   3   4
ENDBRANCH   2   3
ENDBRANCH   1   2
BRANCH   1   7
ATOM      7  C   UNL     1      27.936  -6.497  29.829  1.00  0.00     0.000 C 
BRANCH   7   8
ATOM      8  C   UNL     1      28.743  -6.839  31.098  1.00  0.00    -0.000 C 
BRANCH   8   9
ATOM      9  C   UNL     1      28.823  -8.339  31.435  1.00  0.00    -0.000 C 
BRANCH   9  10
ATOM     10  C   UNL     1      29.074  -9.215  30.198  1.00  0.00    -0.003 C 
ATOM     11  C   UNL     1      27.880 -10.123  29.917  1.00  0.00     0.004 C 
ENDBRANCH   9  10
ENDBRANCH   8   9
ENDBRANCH   7   8
ENDBRANCH   1   7
TORSDOF 7
ENDMDL
MODEL 9
REMARK VINA RESULT:    -3.946      1.389      2.157
REMARK INTER + INTRA:          -6.032
REMARK INTER:                  -5.600
REMARK INTRA:                  -0.432
REMARK UNBOUND:                -0.471
REMARK SMILES CCCCCCCCC(=O)[O-]
REMARK SMILES IDX 6 1 7 2 8 3 9 4 10 5 11 6 5 7 4 8 3 9 2 10 1 11
REMARK H PARENT
REMARK Flexibility Score: inf
ROOT
ATOM      1  C   UNL     1      30.278  -5.021  30.416  1.00  0.00     0.000 C 
ENDROOT
BRANCH   1   2
ATOM      2  C   UNL     1      29.528  -4.025  29.520  1.00  0.00     0.006 C 
BRANCH   2   3
ATOM      3  C   UNL     1      29.039  -2.820  30.329  1.00  0.00     0.053 C 
BRANCH   3   4
ATOM      4  C   UNL     1      27.545  -2.770  30.345  1.00  0.00     0.041 C 
ATOM      5  O   UNL     1      26.876  -3.831  30.446  1.00  0.00    -0.550 OA
ATOM      6  O   UNL     1      26.890  -1.546  30.298  1.00  0.00    -0.550 OA
ENDBRANCH   3   4
ENDBRANCH   2   3
ENDBRANCH   1   2
BRANCH   1   7
ATOM      7  C   UNL     1      29.407  -6.216  30.845  1.00  0.00     0.000 C 
BRANCH   7   8
ATOM      8  C   UNL     1      28.634  -6.905  29.702  1.00  0.00    -0.000 C 
BRANCH   8   9
ATOM      9  C   UNL     1      28.376  -8.409  29.904  1.00  0.00    -0.000 C 
BRANCH   9  10
ATOM     10  C   UNL     1      28.648  -8.874  31.342  1.00  0.00    -0.003 C 
ATOM     11  C   UNL     1      29.732  -9.947  31.377  1.00  0.00     0.004 C 
ENDBRANCH   9  10
ENDBRANCH   8   9
ENDBRANCH   7   8
ENDBRANCH   1   7
TORSDOF 7
ENDMDL
