MODEL 1
REMARK VINA RESULT:    -4.199      0.000      0.000
REMARK INTER + INTRA:          -5.455
REMARK INTER:                  -5.058
REMARK INTRA:                  -0.398
REMARK UNBOUND:                -0.398
REMARK SMILES NC(=O)C[C@H]([NH3+])C(=O)[O-]
REMARK SMILES IDX 4 1 5 2 6 3 7 7 8 8 9 9 2 10 3 11 1 12
REMARK H PARENT 6 4 6 5 6 6 1 13 1 14
REMARK Flexibility Score: inf
ROOT
ATOM      1  C   UNL     1      21.733   1.962   3.412  1.00  0.00     0.171 C 
ENDROOT
BRANCH   1   2
ATOM      2  C   UNL     1      23.202   1.761   3.844  1.00  0.00     0.237 C 
BRANCH   2   3
ATOM      3  N   UNL     1      23.524   0.341   4.043  1.00  0.00    -0.350 N 
ATOM      4  H   UNL     1      22.858  -0.276   3.524  1.00  0.00     0.345 HD
ATOM      5  H   UNL     1      24.498   0.150   3.713  1.00  0.00     0.345 HD
ATOM      6  H   UNL     1      23.475   0.110   5.063  1.00  0.00     0.345 HD
ENDBRANCH   2   3
BRANCH   2   7
ATOM      7  C   UNL     1      23.533   2.576   5.069  1.00  0.00     0.100 C 
ATOM      8  O   UNL     1      24.590   3.260   5.122  1.00  0.00    -0.544 OA
ATOM      9  O   UNL     1      22.692   2.535   6.174  1.00  0.00    -0.544 OA
ENDBRANCH   2   7
ENDBRANCH   1   2
BRANCH   1  10
ATOM     10  C   UNL     1      20.844   0.805   3.772  1.00  0.00     0.223 C 
ATOM     11  O   UNL     1      20.456   0.009   2.875  1.00  0.00    -0.275 OA
ATOM     12  N   UNL     1      20.420   0.609   5.122  1.00  0.00    -0.369 N 
ATOM     13  H   UNL     1      20.725   1.262   5.877  1.00  0.00     0.159 HD
ATOM     14  H   UNL     1      19.794  -0.190   5.366  1.00  0.00     0.159 HD
ENDBRANCH   1  10
TORSDOF 4
ENDMDL
MODEL 2
REMARK VINA RESULT:    -4.193     16.107     17.187
REMARK INTER + INTRA:          -5.448
REMARK INTER:                  -5.125
REMARK INTRA:                  -0.323
REMARK UNBOUND:                -0.398
REMARK SMILES NC(=O)C[C@H]([NH3+])C(=O)[O-]
REMARK SMILES IDX 4 1 5 2 6 3 7 7 8 8 9 9 2 10 3 11 1 12
REMARK H PARENT 6 4 6 5 6 6 1 13 1 14
REMARK Flexibility Score: inf
ROOT
ATOM      1  C   UNL     1      22.207   1.219  22.221  1.00  0.00     0.171 C 
ENDROOT
BRANCH   1   2
ATOM      2  C   UNL     1      22.153   1.287  20.680  1.00  0.00     0.237 C 
BRANCH   2   3
ATOM      3  N   UNL     1      20.775   1.208  20.176  1.00  0.00    -0.350 N 
ATOM      4  H   UNL     1      20.657   0.405  19.517  1.00  0.00     0.345 HD
ATOM      5  H   UNL     1      20.112   1.094  20.977  1.00  0.00     0.345 HD
ATOM      6  H   UNL     1      20.533   2.096  19.677  1.00  0.00     0.345 HD
ENDBRANCH   2   3
BRANCH   2   7
ATOM      7  C   UNL     1      23.030   0.234  20.049  1.00  0.00     0.100 C 
ATOM      8  O   UNL     1      24.148  -0.059  20.551  1.00  0.00    -0.544 OA
ATOM      9  O   UNL     1      22.628  -0.383  18.871  1.00  0.00    -0.544 OA
ENDBRANCH   2   7
ENDBRANCH   1   2
BRANCH   1  10
ATOM     10  C   UNL     1      20.942   0.687  22.837  1.00  0.00     0.223 C 
ATOM     11  O   UNL     1      20.003   1.477  23.119  1.00  0.00    -0.275 OA
ATOM     12  N   UNL     1      20.804  -0.706  23.121  1.00  0.00    -0.369 N 
ATOM     13  H   UNL     1      21.575  -1.374  22.900  1.00  0.00     0.159 HD
ATOM     14  H   UNL     1      19.929  -1.070  23.557  1.00  0.00     0.159 HD
ENDBRANCH   1  10
TORSDOF 4
ENDMDL
MODEL 3
REMARK VINA RESULT:    -4.141     16.951     17.897
REMARK INTER + INTRA:          -5.386
REMARK INTER:                  -4.978
REMARK INTRA:                  -0.409
REMARK UNBOUND:                -0.398
REMARK SMILES NC(=O)C[C@H]([NH3+])C(=O)[O-]
REMARK SMILES IDX 4 1 5 2 6 3 7 7 8 8 9 9 2 10 3 11 1 12
REMARK H PARENT 6 4 6 5 6 6 1 13 1 14
REMARK Flexibility Score: inf
ROOT
ATOM      1  C   UNL     1      37.152  -9.345   4.393  1.00  0.00     0.171 C 
ENDROOT
BRANCH   1   2
ATOM      2  C   UNL     1      37.750  -7.962   4.054  1.00  0.00     0.237 C 
BRANCH   2   3
ATOM      3  N   UNL     1      39.122  -7.819   4.561  1.00  0.00    -0.350 N 
ATOM      4  H   UNL     1      39.164  -7.141   5.355  1.00  0.00     0.345 HD
ATOM      5  H   UNL     1      39.478  -8.748   4.883  1.00  0.00     0.345 HD
ATOM      6  H   UNL     1      39.746  -7.480   3.792  1.00  0.00     0.345 HD
ENDBRANCH   2   3
BRANCH   2   7
ATOM      7  C   UNL     1      36.863  -6.843   4.543  1.00  0.00     0.100 C 
ATOM      8  O   UNL     1      35.697  -6.700   4.088  1.00  0.00    -0.544 OA
ATOM      9  O   UNL     1      37.354  -5.929   5.466  1.00  0.00    -0.544 OA
ENDBRANCH   2   7
ENDBRANCH   1   2
BRANCH   1  10
ATOM     10  C   UNL     1      36.938  -9.555   5.866  1.00  0.00     0.223 C 
ATOM     11  O   UNL     1      37.917  -9.498   6.656  1.00  0.00    -0.275 OA
ATOM     12  N   UNL     1      35.634  -9.835   6.376  1.00  0.00    -0.369 N 
ATOM     13  H   UNL     1      34.811  -9.893   5.735  1.00  0.00     0.159 HD
ATOM     14  H   UNL     1      35.490  -9.990   7.398  1.00  0.00     0.159 HD
ENDBRANCH   1  10
TORSDOF 4
ENDMDL
MODEL 4
REMARK VINA RESULT:    -4.105     16.478     17.397
REMARK INTER + INTRA:          -5.343
REMARK INTER:                  -5.003
REMARK INTRA:                  -0.340
REMARK UNBOUND:                -0.398
REMARK SMILES NC(=O)C[C@H]([NH3+])C(=O)[O-]
REMARK SMILES IDX 4 1 5 2 6 3 7 7 8 8 9 9 2 10 3 11 1 12
REMARK H PARENT 6 4 6 5 6 6 1 13 1 14
REMARK Flexibility Score: inf
ROOT
ATOM      1  C   UNL     1      35.699  -7.659   5.209  1.00  0.00     0.171 C 
ENDROOT
BRANCH   1   2
ATOM      2  C   UNL     1      36.079  -9.156   5.204  1.00  0.00     0.237 C 
BRANCH   2   3
ATOM      3  N   UNL     1      35.418  -9.892   6.290  1.00  0.00    -0.350 N 
ATOM      4  H   UNL     1      35.833 -10.844   6.412  1.00  0.00     0.345 HD
ATOM      5  H   UNL     1      35.511  -9.360   7.186  1.00  0.00     0.345 HD
ATOM      6  H   UNL     1      34.398  -9.992   6.076  1.00  0.00     0.345 HD
ENDBRANCH   2   3
BRANCH   2   7
ATOM      7  C   UNL     1      37.575  -9.346   5.242  1.00  0.00     0.100 C 
ATOM      8  O   UNL     1      38.115 -10.023   6.157  1.00  0.00    -0.544 OA
ATOM      9  O   UNL     1      38.373  -8.726   4.290  1.00  0.00    -0.544 OA
ENDBRANCH   2   7
ENDBRANCH   1   2
BRANCH   1  10
ATOM     10  C   UNL     1      35.105  -7.201   6.512  1.00  0.00     0.223 C 
ATOM     11  O   UNL     1      35.800  -7.233   7.563  1.00  0.00    -0.275 OA
ATOM     12  N   UNL     1      33.752  -6.748   6.573  1.00  0.00    -0.369 N 
ATOM     13  H   UNL     1      33.160  -6.722   5.714  1.00  0.00     0.159 HD
ATOM     14  H   UNL     1      33.340  -6.440   7.481  1.00  0.00     0.159 HD
ENDBRANCH   1  10
TORSDOF 4
ENDMDL
MODEL 5
REMARK VINA RESULT:    -4.078     17.791     18.680
REMARK INTER + INTRA:          -5.310
REMARK INTER:                  -4.905
REMARK INTRA:                  -0.405
REMARK UNBOUND:                -0.398
REMARK SMILES NC(=O)C[C@H]([NH3+])C(=O)[O-]
REMARK SMILES IDX 4 1 5 2 6 3 7 7 8 8 9 9 2 10 3 11 1 12
REMARK H PARENT 6 4 6 5 6 6 1 13 1 14
REMARK Flexibility Score: inf
ROOT
ATOM      1  C   UNL     1      37.551 -10.113   5.530  1.00  0.00     0.171 C 
ENDROOT
BRANCH   1   2
ATOM      2  C   UNL     1      38.836  -9.275   5.702  1.00  0.00     0.237 C 
BRANCH   2   3
ATOM      3  N   UNL     1      39.125  -9.000   7.117  1.00  0.00    -0.350 N 
ATOM      4  H   UNL     1      38.777  -8.055   7.398  1.00  0.00     0.345 HD
ATOM      5  H   UNL     1      38.672  -9.726   7.718  1.00  0.00     0.345 HD
ATOM      6  H   UNL     1      40.158  -9.043   7.278  1.00  0.00     0.345 HD
ENDBRANCH   2   3
BRANCH   2   7
ATOM      7  C   UNL     1      38.777  -8.001   4.896  1.00  0.00     0.100 C 
ATOM      8  O   UNL     1      38.633  -8.037   3.644  1.00  0.00    -0.544 OA
ATOM      9  O   UNL     1      38.935  -6.776   5.530  1.00  0.00    -0.544 OA
ENDBRANCH   2   7
ENDBRANCH   1   2
BRANCH   1  10
ATOM     10  C   UNL     1      36.303  -9.375   5.928  1.00  0.00     0.223 C 
ATOM     11  O   UNL     1      36.115  -9.068   7.135  1.00  0.00    -0.275 OA
ATOM     12  N   UNL     1      35.319  -9.035   4.950  1.00  0.00    -0.369 N 
ATOM     13  H   UNL     1      35.454  -9.288   3.947  1.00  0.00     0.159 HD
ATOM     14  H   UNL     1      34.449  -8.531   5.232  1.00  0.00     0.159 HD
ENDBRANCH   1  10
TORSDOF 4
ENDMDL
MODEL 6
REMARK VINA RESULT:    -4.073     15.713     16.566
REMARK INTER + INTRA:          -5.304
REMARK INTER:                  -4.811
REMARK INTRA:                  -0.493
REMARK UNBOUND:                -0.398
REMARK SMILES NC(=O)C[C@H]([NH3+])C(=O)[O-]
REMARK SMILES IDX 4 1 5 2 6 3 7 7 8 8 9 9 2 10 3 11 1 12
REMARK H PARENT 6 4 6 5 6 6 1 13 1 14
REMARK Flexibility Score: inf
ROOT
ATOM      1  C   UNL     1      36.221  -6.627   5.781  1.00  0.00     0.171 C 
ENDROOT
BRANCH   1   2
ATOM      2  C   UNL     1      36.699  -7.954   5.153  1.00  0.00     0.237 C 
BRANCH   2   3
ATOM      3  N   UNL     1      35.920  -8.307   3.958  1.00  0.00    -0.350 N 
ATOM      4  H   UNL     1      36.265  -7.794   3.115  1.00  0.00     0.345 HD
ATOM      5  H   UNL     1      35.986  -9.336   3.785  1.00  0.00     0.345 HD
ATOM      6  H   UNL     1      34.913  -8.067   4.113  1.00  0.00     0.345 HD
ENDBRANCH   2   3
BRANCH   2   7
ATOM      7  C   UNL     1      36.696  -9.075   6.163  1.00  0.00     0.100 C 
ATOM      8  O   UNL     1      37.407 -10.101   5.989  1.00  0.00    -0.544 OA
ATOM      9  O   UNL     1      35.862  -9.002   7.271  1.00  0.00    -0.544 OA
ENDBRANCH   2   7
ENDBRANCH   1   2
BRANCH   1  10
ATOM     10  C   UNL     1      34.767  -6.340   5.526  1.00  0.00     0.223 C 
ATOM     11  O   UNL     1      34.419  -5.767   4.459  1.00  0.00    -0.275 OA
ATOM     12  N   UNL     1      33.777  -6.696   6.493  1.00  0.00    -0.369 N 
ATOM     13  H   UNL     1      34.048  -7.164   7.386  1.00  0.00     0.159 HD
ATOM     14  H   UNL     1      32.770  -6.486   6.316  1.00  0.00     0.159 HD
ENDBRANCH   1  10
TORSDOF 4
ENDMDL
MODEL 7
REMARK VINA RESULT:    -4.066     16.378     17.423
REMARK INTER + INTRA:          -5.295
REMARK INTER:                  -4.941
REMARK INTRA:                  -0.354
REMARK UNBOUND:                -0.398
REMARK SMILES NC(=O)C[C@H]([NH3+])C(=O)[O-]
REMARK SMILES IDX 4 1 5 2 6 3 7 7 8 8 9 9 2 10 3 11 1 12
REMARK H PARENT 6 4 6 5 6 6 1 13 1 14
REMARK Flexibility Score: inf
ROOT
ATOM      1  C   UNL     1      22.235   0.722  20.381  1.00  0.00     0.171 C 
ENDROOT
BRANCH   1   2
ATOM      2  C   UNL     1      22.202   1.497  21.716  1.00  0.00     0.237 C 
BRANCH   2   3
ATOM      3  N   UNL     1      23.516   1.510  22.374  1.00  0.00    -0.350 N 
ATOM      4  H   UNL     1      24.163   0.810  21.945  1.00  0.00     0.345 HD
ATOM      5  H   UNL     1      23.941   2.463  22.297  1.00  0.00     0.345 HD
ATOM      6  H   UNL     1      23.401   1.287  23.391  1.00  0.00     0.345 HD
ENDBRANCH   2   3
BRANCH   2   7
ATOM      7  C   UNL     1      21.132   0.966  22.637  1.00  0.00     0.100 C 
ATOM      8  O   UNL     1      20.261   1.735  23.125  1.00  0.00    -0.544 OA
ATOM      9  O   UNL     1      21.133  -0.377  22.994  1.00  0.00    -0.544 OA
ENDBRANCH   2   7
ENDBRANCH   1   2
BRANCH   1  10
ATOM     10  C   UNL     1      23.500  -0.068  20.184  1.00  0.00     0.223 C 
ATOM     11  O   UNL     1      23.683  -1.131  20.835  1.00  0.00    -0.275 OA
ATOM     12  N   UNL     1      24.504   0.388  19.277  1.00  0.00    -0.369 N 
ATOM     13  H   UNL     1      24.373   1.270  18.734  1.00  0.00     0.159 HD
ATOM     14  H   UNL     1      25.385  -0.158  19.150  1.00  0.00     0.159 HD
ENDBRANCH   1  10
TORSDOF 4
ENDMDL
MODEL 8
REMARK VINA RESULT:    -4.010     17.097     18.006
REMARK INTER + INTRA:          -5.228
REMARK INTER:                  -4.816
REMARK INTRA:                  -0.412
REMARK UNBOUND:                -0.398
REMARK SMILES NC(=O)C[C@H]([NH3+])C(=O)[O-]
REMARK SMILES IDX 4 1 5 2 6 3 7 7 8 8 9 9 2 10 3 11 1 12
REMARK H PARENT 6 4 6 5 6 6 1 13 1 14
REMARK Flexibility Score: inf
ROOT
ATOM      1  C   UNL     1      37.348  -9.192   4.584  1.00  0.00     0.171 C 
ENDROOT
BRANCH   1   2
ATOM      2  C   UNL     1      36.871  -9.761   5.939  1.00  0.00     0.237 C 
BRANCH   2   3
ATOM      3  N   UNL     1      35.409  -9.897   5.992  1.00  0.00    -0.350 N 
ATOM      4  H   UNL     1      35.018  -9.451   6.853  1.00  0.00     0.345 HD
ATOM      5  H   UNL     1      34.981  -9.448   5.149  1.00  0.00     0.345 HD
ATOM      6  H   UNL     1      35.150 -10.911   5.987  1.00  0.00     0.345 HD
ENDBRANCH   2   3
BRANCH   2   7
ATOM      7  C   UNL     1      37.390  -8.943   7.095  1.00  0.00     0.100 C 
ATOM      8  O   UNL     1      38.619  -8.926   7.372  1.00  0.00    -0.544 OA
ATOM      9  O   UNL     1      36.500  -8.239   7.896  1.00  0.00    -0.544 OA
ENDBRANCH   2   7
ENDBRANCH   1   2
BRANCH   1  10
ATOM     10  C   UNL     1      36.950  -7.758   4.370  1.00  0.00     0.223 C 
ATOM     11  O   UNL     1      35.735  -7.461   4.214  1.00  0.00    -0.275 OA
ATOM     12  N   UNL     1      37.940  -6.730   4.325  1.00  0.00    -0.369 N 
ATOM     13  H   UNL     1      38.952  -6.958   4.446  1.00  0.00     0.159 HD
ATOM     14  H   UNL     1      37.661  -5.737   4.166  1.00  0.00     0.159 HD
ENDBRANCH   1  10
TORSDOF 4
ENDMDL
MODEL 9
REMARK VINA RESULT:    -3.992     19.884     20.312
REMARK INTER + INTRA:          -5.206
REMARK INTER:                  -5.085
REMARK INTRA:                  -0.121
REMARK UNBOUND:                -0.398
REMARK SMILES NC(=O)C[C@H]([NH3+])C(=O)[O-]
REMARK SMILES IDX 4 1 5 2 6 3 7 7 8 8 9 9 2 10 3 11 1 12
REMARK H PARENT 6 4 6 5 6 6 1 13 1 14
REMARK Flexibility Score: inf
ROOT
ATOM      1  C   UNL     1      33.572   9.442  18.497  1.00  0.00     0.171 C 
ENDROOT
BRANCH   1   2
ATOM      2  C   UNL     1      33.470   7.985  18.999  1.00  0.00     0.237 C 
BRANCH   2   3
ATOM      3  N   UNL     1      32.088   7.487  18.959  1.00  0.00    -0.350 N 
ATOM      4  H   UNL     1      31.502   8.046  18.298  1.00  0.00     0.345 HD
ATOM      5  H   UNL     1      32.082   6.484  18.660  1.00  0.00     0.345 HD
ATOM      6  H   UNL     1      31.667   7.543  19.916  1.00  0.00     0.345 HD
ENDBRANCH   2   3
BRANCH   2   7
ATOM      7  C   UNL     1      34.070   7.832  20.375  1.00  0.00     0.100 C 
ATOM      8  O   UNL     1      34.083   8.798  21.183  1.00  0.00    -0.544 OA
ATOM      9  O   UNL     1      34.662   6.629  20.739  1.00  0.00    -0.544 OA
ENDBRANCH   2   7
ENDBRANCH   1   2
BRANCH   1  10
ATOM     10  C   UNL     1      34.782   9.691  17.640  1.00  0.00     0.223 C 
ATOM     11  O   UNL     1      35.842  10.125  18.163  1.00  0.00    -0.275 OA
ATOM     12  N   UNL     1      34.733   9.456  16.232  1.00  0.00    -0.369 N 
ATOM     13  H   UNL     1      33.861   9.104  15.780  1.00  0.00     0.159 HD
ATOM     14  H   UNL     1      35.572   9.640  15.638  1.00  0.00     0.159 HD
ENDBRANCH   1  10
TORSDOF 4
ENDMDL
