MODEL 1
REMARK VINA RESULT:    -7.986      0.000      0.000
REMARK INTER + INTRA:         -12.712
REMARK INTER:                 -10.787
REMARK INTRA:                  -1.925
REMARK UNBOUND:                -1.925
REMARK SMILES O=c1c(-c2ccc(O)cc2)coc2c([C@@H]3O[C@H](CO)[C@H](O)[C@H](O)[C@@H]3O)c(O)ccc12
REMARK SMILES IDX 3 1 11 2 12 3 13 4 30 5 2 6 1 7 29 8 28 9 26 10 14 11 4 12
REMARK SMILES IDX 5 13 6 14 7 15 10 16 9 17 8 18 15 20 24 21 16 22 22 23 17 24
REMARK SMILES IDX 20 25 25 26 23 28 18 30 19 31 21 33 27 35
REMARK H PARENT 8 19 25 27 23 29 19 32 21 34 27 36
REMARK Flexibility Score: inf
ROOT
ATOM      1  C   UNL     1     -12.539 -45.857  -3.691  1.00  0.00     0.065 A 
ATOM      2  C   UNL     1     -12.495 -46.061  -5.086  1.00  0.00     0.208 A 
ATOM      3  O   UNL     1     -13.345 -45.400  -5.911  1.00  0.00    -0.463 OA
ATOM      4  C   UNL     1     -14.261 -44.565  -5.411  1.00  0.00     0.147 A 
ATOM      5  C   UNL     1     -14.623 -44.613  -4.050  1.00  0.00     0.066 A 
ATOM      6  C   UNL     1     -13.721 -45.260  -3.175  1.00  0.00     0.200 A 
ATOM      7  O   UNL     1     -13.995 -45.240  -1.926  1.00  0.00    -0.288 OA
ATOM      8  C   UNL     1     -15.840 -43.922  -3.663  1.00  0.00     0.020 A 
ATOM      9  C   UNL     1     -16.677 -43.377  -4.646  1.00  0.00     0.047 A 
ATOM     10  C   UNL     1     -16.186 -43.363  -5.977  1.00  0.00     0.125 A 
ATOM     11  C   UNL     1     -14.766 -43.504  -6.157  1.00  0.00     0.069 A 
ENDROOT
BRANCH   1  12
ATOM     12  C   UNL     1     -11.223 -45.639  -2.994  1.00  0.00    -0.011 A 
ATOM     13  C   UNL     1      -9.996 -45.612  -3.736  1.00  0.00     0.013 A 
ATOM     14  C   UNL     1      -9.280 -44.391  -3.798  1.00  0.00     0.047 A 
ATOM     15  C   UNL     1      -9.712 -43.308  -3.014  1.00  0.00     0.115 A 
ATOM     16  C   UNL     1     -11.205 -44.852  -1.814  1.00  0.00     0.013 A 
ATOM     17  C   UNL     1     -10.557 -43.617  -1.896  1.00  0.00     0.047 A 
BRANCH  15  18
ATOM     18  O   UNL     1      -9.284 -41.998  -3.247  1.00  0.00    -0.508 OA
ATOM     19  H   UNL     1      -9.893 -41.232  -2.982  1.00  0.00     0.293 HD
ENDBRANCH  15  18
ENDBRANCH   1  12
BRANCH  11  20
ATOM     20  C   UNL     1     -14.036 -42.133  -5.975  1.00  0.00     0.188 C 
ATOM     21  C   UNL     1     -12.491 -42.112  -6.278  1.00  0.00     0.179 C 
ATOM     22  O   UNL     1     -14.757 -41.159  -6.758  1.00  0.00    -0.362 OA
ATOM     23  C   UNL     1     -12.200 -42.437  -7.803  1.00  0.00     0.177 C 
ATOM     24  C   UNL     1     -14.180 -40.849  -8.011  1.00  0.00     0.176 C 
ATOM     25  C   UNL     1     -13.455 -42.084  -8.650  1.00  0.00     0.177 C 
BRANCH  21  26
ATOM     26  O   UNL     1     -11.755 -42.785  -5.279  1.00  0.00    -0.387 OA
ATOM     27  H   UNL     1     -12.367 -43.218  -4.604  1.00  0.00     0.211 HD
ENDBRANCH  21  26
BRANCH  23  28
ATOM     28  O   UNL     1     -11.594 -43.705  -8.168  1.00  0.00    -0.387 OA
ATOM     29  H   UNL     1     -12.167 -44.452  -7.787  1.00  0.00     0.211 HD
ENDBRANCH  23  28
BRANCH  24  30
ATOM     30  C   UNL     1     -15.263 -40.340  -8.943  1.00  0.00     0.191 C 
BRANCH  30  31
ATOM     31  O   UNL     1     -16.509 -40.960  -8.732  1.00  0.00    -0.394 OA
ATOM     32  H   UNL     1     -17.207 -40.364  -9.140  1.00  0.00     0.210 HD
ENDBRANCH  30  31
ENDBRANCH  24  30
BRANCH  25  33
ATOM     33  O   UNL     1     -14.326 -43.180  -8.884  1.00  0.00    -0.388 OA
ATOM     34  H   UNL     1     -14.471 -43.594  -7.989  1.00  0.00     0.211 HD
ENDBRANCH  25  33
ENDBRANCH  11  20
BRANCH  10  35
ATOM     35  O   UNL     1     -17.003 -43.082  -7.079  1.00  0.00    -0.507 OA
ATOM     36  H   UNL     1     -16.884 -42.251  -7.703  1.00  0.00     0.293 HD
ENDBRANCH  10  35
TORSDOF 9
ENDMDL
MODEL 2
REMARK VINA RESULT:    -7.973      2.348      4.659
REMARK INTER + INTRA:         -12.695
REMARK INTER:                 -10.299
REMARK INTRA:                  -2.396
REMARK UNBOUND:                -1.925
REMARK SMILES O=c1c(-c2ccc(O)cc2)coc2c([C@@H]3O[C@H](CO)[C@H](O)[C@H](O)[C@@H]3O)c(O)ccc12
REMARK SMILES IDX 3 1 11 2 12 3 13 4 30 5 2 6 1 7 29 8 28 9 26 10 14 11 4 12
REMARK SMILES IDX 5 13 6 14 7 15 10 16 9 17 8 18 15 20 24 21 16 22 22 23 17 24
REMARK SMILES IDX 20 25 25 26 23 28 18 30 19 31 21 33 27 35
REMARK H PARENT 8 19 25 27 23 29 19 32 21 34 27 36
REMARK Flexibility Score: inf
ROOT
ATOM      1  C   UNL     1     -11.692 -45.465  -5.396  1.00  0.00     0.065 A 
ATOM      2  C   UNL     1     -11.291 -44.128  -5.193  1.00  0.00     0.208 A 
ATOM      3  O   UNL     1     -11.266 -43.246  -6.224  1.00  0.00    -0.463 OA
ATOM      4  C   UNL     1     -11.593 -43.640  -7.459  1.00  0.00     0.147 A 
ATOM      5  C   UNL     1     -11.615 -45.005  -7.806  1.00  0.00     0.066 A 
ATOM      6  C   UNL     1     -11.688 -45.931  -6.739  1.00  0.00     0.200 A 
ATOM      7  O   UNL     1     -11.790 -47.169  -7.040  1.00  0.00    -0.288 OA
ATOM      8  C   UNL     1     -11.648 -45.330  -9.220  1.00  0.00     0.020 A 
ATOM      9  C   UNL     1     -11.503 -44.313 -10.174  1.00  0.00     0.047 A 
ATOM     10  C   UNL     1     -11.524 -42.975  -9.700  1.00  0.00     0.125 A 
ATOM     11  C   UNL     1     -12.095 -42.745  -8.400  1.00  0.00     0.069 A 
ENDROOT
BRANCH   1  12
ATOM     12  C   UNL     1     -12.671 -46.038  -4.407  1.00  0.00    -0.011 A 
ATOM     13  C   UNL     1     -14.073 -46.080  -4.703  1.00  0.00     0.013 A 
ATOM     14  C   UNL     1     -14.683 -47.350  -4.863  1.00  0.00     0.047 A 
ATOM     15  C   UNL     1     -13.937 -48.504  -4.578  1.00  0.00     0.115 A 
ATOM     16  C   UNL     1     -12.229 -47.070  -3.540  1.00  0.00     0.013 A 
ATOM     17  C   UNL     1     -12.782 -48.338  -3.744  1.00  0.00     0.047 A 
BRANCH  15  18
ATOM     18  O   UNL     1     -14.330 -49.775  -5.009  1.00  0.00    -0.508 OA
ATOM     19  H   UNL     1     -14.224 -50.012  -5.988  1.00  0.00     0.293 HD
ENDBRANCH  15  18
ENDBRANCH   1  12
BRANCH  11  20
ATOM     20  C   UNL     1     -13.653 -42.640  -8.479  1.00  0.00     0.188 C 
ATOM     21  C   UNL     1     -14.392 -42.139  -7.183  1.00  0.00     0.179 C 
ATOM     22  O   UNL     1     -13.967 -41.832  -9.631  1.00  0.00    -0.362 OA
ATOM     23  C   UNL     1     -13.981 -40.649  -6.827  1.00  0.00     0.177 C 
ATOM     24  C   UNL     1     -14.288 -40.483  -9.349  1.00  0.00     0.176 C 
ATOM     25  C   UNL     1     -13.492 -39.932  -8.116  1.00  0.00     0.177 C 
BRANCH  21  26
ATOM     26  O   UNL     1     -14.379 -43.117  -6.164  1.00  0.00    -0.387 OA
ATOM     27  H   UNL     1     -13.647 -43.794  -6.318  1.00  0.00     0.211 HD
ENDBRANCH  21  26
BRANCH  23  28
ATOM     28  O   UNL     1     -13.148 -40.386  -5.667  1.00  0.00    -0.387 OA
ATOM     29  H   UNL     1     -12.257 -40.852  -5.805  1.00  0.00     0.211 HD
ENDBRANCH  23  28
BRANCH  24  30
ATOM     30  C   UNL     1     -14.000 -39.638 -10.577  1.00  0.00     0.191 C 
BRANCH  30  31
ATOM     31  O   UNL     1     -12.632 -39.591 -10.905  1.00  0.00    -0.394 OA
ATOM     32  H   UNL     1     -12.260 -38.754 -10.492  1.00  0.00     0.210 HD
ENDBRANCH  30  31
ENDBRANCH  24  30
BRANCH  25  33
ATOM     33  O   UNL     1     -12.085 -39.966  -8.302  1.00  0.00    -0.388 OA
ATOM     34  H   UNL     1     -11.755 -40.663  -7.670  1.00  0.00     0.211 HD
ENDBRANCH  25  33
ENDBRANCH  11  20
BRANCH  10  35
ATOM     35  O   UNL     1     -11.146 -41.887 -10.497  1.00  0.00    -0.507 OA
ATOM     36  H   UNL     1     -10.413 -41.190 -10.232  1.00  0.00     0.293 HD
ENDBRANCH  10  35
TORSDOF 9
ENDMDL
MODEL 3
REMARK VINA RESULT:    -7.895      2.098      6.541
REMARK INTER + INTRA:         -12.590
REMARK INTER:                 -10.265
REMARK INTRA:                  -2.324
REMARK UNBOUND:                -1.925
REMARK SMILES O=c1c(-c2ccc(O)cc2)coc2c([C@@H]3O[C@H](CO)[C@H](O)[C@H](O)[C@@H]3O)c(O)ccc12
REMARK SMILES IDX 3 1 11 2 12 3 13 4 30 5 2 6 1 7 29 8 28 9 26 10 14 11 4 12
REMARK SMILES IDX 5 13 6 14 7 15 10 16 9 17 8 18 15 20 24 21 16 22 22 23 17 24
REMARK SMILES IDX 20 25 25 26 23 28 18 30 19 31 21 33 27 35
REMARK H PARENT 8 19 25 27 23 29 19 32 21 34 27 36
REMARK Flexibility Score: inf
ROOT
ATOM      1  C   UNL     1     -12.285 -43.266  -7.536  1.00  0.00     0.065 A 
ATOM      2  C   UNL     1     -11.949 -44.634  -7.458  1.00  0.00     0.208 A 
ATOM      3  O   UNL     1     -11.867 -45.261  -6.257  1.00  0.00    -0.463 OA
ATOM      4  C   UNL     1     -12.074 -44.582  -5.125  1.00  0.00     0.147 A 
ATOM      5  C   UNL     1     -12.018 -43.175  -5.098  1.00  0.00     0.066 A 
ATOM      6  C   UNL     1     -12.149 -42.511  -6.340  1.00  0.00     0.200 A 
ATOM      7  O   UNL     1     -12.182 -41.233  -6.323  1.00  0.00    -0.288 OA
ATOM      8  C   UNL     1     -11.919 -42.539  -3.797  1.00  0.00     0.020 A 
ATOM      9  C   UNL     1     -11.729 -43.321  -2.650  1.00  0.00     0.047 A 
ATOM     10  C   UNL     1     -11.837 -44.728  -2.802  1.00  0.00     0.125 A 
ATOM     11  C   UNL     1     -12.525 -45.214  -3.968  1.00  0.00     0.069 A 
ENDROOT
BRANCH   1  12
ATOM     12  C   UNL     1     -13.323 -42.879  -8.554  1.00  0.00    -0.011 A 
ATOM     13  C   UNL     1     -14.583 -42.332  -8.144  1.00  0.00     0.013 A 
ATOM     14  C   UNL     1     -14.870 -40.986  -8.486  1.00  0.00     0.047 A 
ATOM     15  C   UNL     1     -13.988 -40.297  -9.334  1.00  0.00     0.115 A 
ATOM     16  C   UNL     1     -12.888 -42.441  -9.832  1.00  0.00     0.013 A 
ATOM     17  C   UNL     1     -13.110 -41.096 -10.140  1.00  0.00     0.047 A 
BRANCH  15  18
ATOM     18  O   UNL     1     -14.005 -38.905  -9.461  1.00  0.00    -0.508 OA
ATOM     19  H   UNL     1     -13.201 -38.442  -9.867  1.00  0.00     0.293 HD
ENDBRANCH  15  18
ENDBRANCH   1  12
BRANCH  11  20
ATOM     20  C   UNL     1     -14.073 -45.215  -3.751  1.00  0.00     0.188 C 
ATOM     21  C   UNL     1     -14.947 -45.832  -4.905  1.00  0.00     0.179 C 
ATOM     22  O   UNL     1     -14.324 -45.849  -2.480  1.00  0.00    -0.362 OA
ATOM     23  C   UNL     1     -14.642 -47.377  -5.092  1.00  0.00     0.177 C 
ATOM     24  C   UNL     1     -14.733 -47.201  -2.554  1.00  0.00     0.176 C 
ATOM     25  C   UNL     1     -14.077 -47.952  -3.763  1.00  0.00     0.177 C 
BRANCH  21  26
ATOM     26  O   UNL     1     -14.976 -44.995  -6.042  1.00  0.00    -0.387 OA
ATOM     27  H   UNL     1     -14.153 -44.413  -6.087  1.00  0.00     0.211 HD
ENDBRANCH  21  26
BRANCH  23  28
ATOM     28  O   UNL     1     -13.928 -47.835  -6.270  1.00  0.00    -0.387 OA
ATOM     29  H   UNL     1     -13.280 -47.106  -6.552  1.00  0.00     0.211 HD
ENDBRANCH  23  28
BRANCH  24  30
ATOM     30  C   UNL     1     -14.381 -47.897  -1.253  1.00  0.00     0.191 C 
BRANCH  30  31
ATOM     31  O   UNL     1     -13.160 -47.458  -0.705  1.00  0.00    -0.394 OA
ATOM     32  H   UNL     1     -12.759 -46.814  -1.363  1.00  0.00     0.210 HD
ENDBRANCH  30  31
ENDBRANCH  24  30
BRANCH  25  33
ATOM     33  O   UNL     1     -12.659 -47.979  -3.698  1.00  0.00    -0.388 OA
ATOM     34  H   UNL     1     -12.351 -47.535  -4.536  1.00  0.00     0.211 HD
ENDBRANCH  25  33
ENDBRANCH  11  20
BRANCH  10  35
ATOM     35  O   UNL     1     -11.432 -45.628  -1.808  1.00  0.00    -0.507 OA
ATOM     36  H   UNL     1     -10.691 -45.425  -1.098  1.00  0.00     0.293 HD
ENDBRANCH  10  35
TORSDOF 9
ENDMDL
MODEL 4
REMARK VINA RESULT:    -7.829      2.230      3.896
REMARK INTER + INTRA:         -12.500
REMARK INTER:                 -10.352
REMARK INTRA:                  -2.148
REMARK UNBOUND:                -1.925
REMARK SMILES O=c1c(-c2ccc(O)cc2)coc2c([C@@H]3O[C@H](CO)[C@H](O)[C@H](O)[C@@H]3O)c(O)ccc12
REMARK SMILES IDX 3 1 11 2 12 3 13 4 30 5 2 6 1 7 29 8 28 9 26 10 14 11 4 12
REMARK SMILES IDX 5 13 6 14 7 15 10 16 9 17 8 18 15 20 24 21 16 22 22 23 17 24
REMARK SMILES IDX 20 25 25 26 23 28 18 30 19 31 21 33 27 35
REMARK H PARENT 8 19 25 27 23 29 19 32 21 34 27 36
REMARK Flexibility Score: inf
ROOT
ATOM      1  C   UNL     1     -15.137 -43.982  -4.516  1.00  0.00     0.065 A 
ATOM      2  C   UNL     1     -15.823 -43.682  -5.711  1.00  0.00     0.208 A 
ATOM      3  O   UNL     1     -15.420 -42.657  -6.504  1.00  0.00    -0.463 OA
ATOM      4  C   UNL     1     -14.383 -41.894  -6.148  1.00  0.00     0.147 A 
ATOM      5  C   UNL     1     -13.914 -41.876  -4.820  1.00  0.00     0.066 A 
ATOM      6  C   UNL     1     -14.290 -42.964  -3.999  1.00  0.00     0.200 A 
ATOM      7  O   UNL     1     -13.806 -43.004  -2.816  1.00  0.00    -0.288 OA
ATOM      8  C   UNL     1     -13.022 -40.794  -4.445  1.00  0.00     0.020 A 
ATOM      9  C   UNL     1     -12.785 -39.743  -5.342  1.00  0.00     0.047 A 
ATOM     10  C   UNL     1     -13.287 -39.893  -6.660  1.00  0.00     0.125 A 
ATOM     11  C   UNL     1     -13.612 -41.224  -7.095  1.00  0.00     0.069 A 
ENDROOT
BRANCH   1  12
ATOM     12  C   UNL     1     -14.809 -45.429  -4.265  1.00  0.00    -0.011 A 
ATOM     13  C   UNL     1     -13.463 -45.907  -4.385  1.00  0.00     0.013 A 
ATOM     14  C   UNL     1     -12.810 -46.363  -3.213  1.00  0.00     0.047 A 
ATOM     15  C   UNL     1     -13.546 -46.471  -2.022  1.00  0.00     0.115 A 
ATOM     16  C   UNL     1     -15.601 -46.151  -3.335  1.00  0.00     0.013 A 
ATOM     17  C   UNL     1     -14.973 -46.540  -2.149  1.00  0.00     0.047 A 
BRANCH  15  18
ATOM     18  O   UNL     1     -12.933 -46.590  -0.771  1.00  0.00    -0.508 OA
ATOM     19  H   UNL     1     -11.925 -46.682  -0.728  1.00  0.00     0.293 HD
ENDBRANCH  15  18
ENDBRANCH   1  12
BRANCH  11  20
ATOM     20  C   UNL     1     -12.338 -41.981  -7.596  1.00  0.00     0.188 C 
ATOM     21  C   UNL     1     -12.580 -43.299  -8.421  1.00  0.00     0.179 C 
ATOM     22  O   UNL     1     -11.533 -41.027  -8.319  1.00  0.00    -0.362 OA
ATOM     23  C   UNL     1     -13.336 -42.995  -9.781  1.00  0.00     0.177 C 
ATOM     24  C   UNL     1     -11.642 -41.095  -9.728  1.00  0.00     0.176 C 
ATOM     25  C   UNL     1     -13.079 -41.517 -10.190  1.00  0.00     0.177 C 
BRANCH  21  26
ATOM     26  O   UNL     1     -13.041 -44.351  -7.599  1.00  0.00    -0.387 OA
ATOM     27  H   UNL     1     -12.433 -44.487  -6.805  1.00  0.00     0.211 HD
ENDBRANCH  21  26
BRANCH  23  28
ATOM     28  O   UNL     1     -14.718 -43.410  -9.948  1.00  0.00    -0.387 OA
ATOM     29  H   UNL     1     -14.723 -44.334 -10.368  1.00  0.00     0.211 HD
ENDBRANCH  23  28
BRANCH  24  30
ATOM     30  C   UNL     1     -11.279 -39.745 -10.318  1.00  0.00     0.191 C 
BRANCH  30  31
ATOM     31  O   UNL     1     -12.207 -39.295 -11.278  1.00  0.00    -0.394 OA
ATOM     32  H   UNL     1     -11.706 -38.701 -11.914  1.00  0.00     0.210 HD
ENDBRANCH  30  31
ENDBRANCH  24  30
BRANCH  25  33
ATOM     33  O   UNL     1     -14.088 -40.613  -9.766  1.00  0.00    -0.388 OA
ATOM     34  H   UNL     1     -13.599 -39.798  -9.465  1.00  0.00     0.211 HD
ENDBRANCH  25  33
ENDBRANCH  11  20
BRANCH  10  35
ATOM     35  O   UNL     1     -13.338 -38.831  -7.573  1.00  0.00    -0.507 OA
ATOM     36  H   UNL     1     -12.516 -38.482  -8.116  1.00  0.00     0.293 HD
ENDBRANCH  10  35
TORSDOF 9
ENDMDL
MODEL 5
REMARK VINA RESULT:    -7.695      2.717      6.487
REMARK INTER + INTRA:         -12.319
REMARK INTER:                 -10.272
REMARK INTRA:                  -2.046
REMARK UNBOUND:                -1.925
REMARK SMILES O=c1c(-c2ccc(O)cc2)coc2c([C@@H]3O[C@H](CO)[C@H](O)[C@H](O)[C@@H]3O)c(O)ccc12
REMARK SMILES IDX 3 1 11 2 12 3 13 4 30 5 2 6 1 7 29 8 28 9 26 10 14 11 4 12
REMARK SMILES IDX 5 13 6 14 7 15 10 16 9 17 8 18 15 20 24 21 16 22 22 23 17 24
REMARK SMILES IDX 20 25 25 26 23 28 18 30 19 31 21 33 27 35
REMARK H PARENT 8 19 25 27 23 29 19 32 21 34 27 36
REMARK Flexibility Score: inf
ROOT
ATOM      1  C   UNL     1     -17.274 -44.975  -2.751  1.00  0.00     0.065 A 
ATOM      2  C   UNL     1     -16.353 -45.983  -2.395  1.00  0.00     0.208 A 
ATOM      3  O   UNL     1     -15.063 -45.924  -2.815  1.00  0.00    -0.463 OA
ATOM      4  C   UNL     1     -14.653 -44.924  -3.600  1.00  0.00     0.147 A 
ATOM      5  C   UNL     1     -15.575 -44.126  -4.305  1.00  0.00     0.066 A 
ATOM      6  C   UNL     1     -16.912 -44.145  -3.846  1.00  0.00     0.200 A 
ATOM      7  O   UNL     1     -17.744 -43.365  -4.424  1.00  0.00    -0.288 OA
ATOM      8  C   UNL     1     -15.053 -43.298  -5.377  1.00  0.00     0.020 A 
ATOM      9  C   UNL     1     -13.715 -43.428  -5.771  1.00  0.00     0.047 A 
ATOM     10  C   UNL     1     -12.879 -44.240  -4.961  1.00  0.00     0.125 A 
ATOM     11  C   UNL     1     -13.323 -44.513  -3.621  1.00  0.00     0.069 A 
ENDROOT
BRANCH   1  12
ATOM     12  C   UNL     1     -18.142 -44.429  -1.650  1.00  0.00    -0.011 A 
ATOM     13  C   UNL     1     -19.242 -45.191  -1.136  1.00  0.00     0.013 A 
ATOM     14  C   UNL     1     -19.171 -45.646   0.204  1.00  0.00     0.047 A 
ATOM     15  C   UNL     1     -18.112 -45.208   1.016  1.00  0.00     0.115 A 
ATOM     16  C   UNL     1     -17.560 -43.542  -0.707  1.00  0.00     0.013 A 
ATOM     17  C   UNL     1     -17.429 -44.017   0.600  1.00  0.00     0.047 A 
BRANCH  15  18
ATOM     18  O   UNL     1     -17.778 -45.841   2.217  1.00  0.00    -0.508 OA
ATOM     19  H   UNL     1     -18.195 -45.507   3.078  1.00  0.00     0.293 HD
ENDBRANCH  15  18
ENDBRANCH   1  12
BRANCH  11  20
ATOM     20  C   UNL     1     -12.957 -43.338  -2.655  1.00  0.00     0.188 C 
ATOM     21  C   UNL     1     -12.960 -43.665  -1.116  1.00  0.00     0.179 C 
ATOM     22  O   UNL     1     -11.691 -42.804  -3.095  1.00  0.00    -0.362 OA
ATOM     23  C   UNL     1     -11.854 -44.743  -0.754  1.00  0.00     0.177 C 
ATOM     24  C   UNL     1     -10.566 -43.237  -2.355  1.00  0.00     0.176 C 
ATOM     25  C   UNL     1     -10.733 -44.705  -1.831  1.00  0.00     0.177 C 
BRANCH  21  26
ATOM     26  O   UNL     1     -14.272 -43.836  -0.622  1.00  0.00    -0.387 OA
ATOM     27  H   UNL     1     -14.867 -44.270  -1.311  1.00  0.00     0.211 HD
ENDBRANCH  21  26
BRANCH  23  28
ATOM     28  O   UNL     1     -12.251 -46.088  -0.379  1.00  0.00    -0.387 OA
ATOM     29  H   UNL     1     -12.081 -46.203   0.615  1.00  0.00     0.211 HD
ENDBRANCH  23  28
BRANCH  24  30
ATOM     30  C   UNL     1      -9.329 -43.130  -3.226  1.00  0.00     0.191 C 
BRANCH  30  31
ATOM     31  O   UNL     1      -9.602 -42.633  -4.514  1.00  0.00    -0.394 OA
ATOM     32  H   UNL     1     -10.408 -43.127  -4.855  1.00  0.00     0.210 HD
ENDBRANCH  30  31
ENDBRANCH  24  30
BRANCH  25  33
ATOM     33  O   UNL     1     -10.898 -45.653  -2.875  1.00  0.00    -0.388 OA
ATOM     34  H   UNL     1      -9.984 -45.793  -3.248  1.00  0.00     0.211 HD
ENDBRANCH  25  33
ENDBRANCH  11  20
BRANCH  10  35
ATOM     35  O   UNL     1     -11.604 -44.652  -5.369  1.00  0.00    -0.507 OA
ATOM     36  H   UNL     1     -11.414 -45.212  -6.232  1.00  0.00     0.293 HD
ENDBRANCH  10  35
TORSDOF 9
ENDMDL
MODEL 6
REMARK VINA RESULT:    -7.693      2.530      6.529
REMARK INTER + INTRA:         -12.317
REMARK INTER:                 -10.453
REMARK INTRA:                  -1.864
REMARK UNBOUND:                -1.925
REMARK SMILES O=c1c(-c2ccc(O)cc2)coc2c([C@@H]3O[C@H](CO)[C@H](O)[C@H](O)[C@@H]3O)c(O)ccc12
REMARK SMILES IDX 3 1 11 2 12 3 13 4 30 5 2 6 1 7 29 8 28 9 26 10 14 11 4 12
REMARK SMILES IDX 5 13 6 14 7 15 10 16 9 17 8 18 15 20 24 21 16 22 22 23 17 24
REMARK SMILES IDX 20 25 25 26 23 28 18 30 19 31 21 33 27 35
REMARK H PARENT 8 19 25 27 23 29 19 32 21 34 27 36
REMARK Flexibility Score: inf
ROOT
ATOM      1  C   UNL     1     -14.837 -42.833  -5.798  1.00  0.00     0.065 A 
ATOM      2  C   UNL     1     -13.759 -43.046  -4.914  1.00  0.00     0.208 A 
ATOM      3  O   UNL     1     -13.853 -43.956  -3.911  1.00  0.00    -0.463 OA
ATOM      4  C   UNL     1     -14.984 -44.645  -3.727  1.00  0.00     0.147 A 
ATOM      5  C   UNL     1     -16.199 -44.215  -4.296  1.00  0.00     0.066 A 
ATOM      6  C   UNL     1     -16.109 -43.302  -5.372  1.00  0.00     0.200 A 
ATOM      7  O   UNL     1     -17.198 -42.966  -5.951  1.00  0.00    -0.288 OA
ATOM      8  C   UNL     1     -17.419 -44.813  -3.784  1.00  0.00     0.020 A 
ATOM      9  C   UNL     1     -17.367 -45.657  -2.667  1.00  0.00     0.047 A 
ATOM     10  C   UNL     1     -16.081 -46.041  -2.205  1.00  0.00     0.125 A 
ATOM     11  C   UNL     1     -14.983 -45.899  -3.122  1.00  0.00     0.069 A 
ENDROOT
BRANCH   1  12
ATOM     12  C   UNL     1     -14.511 -42.781  -7.266  1.00  0.00    -0.011 A 
ATOM     13  C   UNL     1     -15.501 -42.385  -8.224  1.00  0.00     0.013 A 
ATOM     14  C   UNL     1     -15.298 -41.173  -8.931  1.00  0.00     0.047 A 
ATOM     15  C   UNL     1     -14.079 -40.493  -8.781  1.00  0.00     0.115 A 
ATOM     16  C   UNL     1     -13.178 -42.485  -7.653  1.00  0.00     0.013 A 
ATOM     17  C   UNL     1     -12.969 -41.258  -8.288  1.00  0.00     0.047 A 
BRANCH  15  18
ATOM     18  O   UNL     1     -13.913 -39.159  -9.164  1.00  0.00    -0.508 OA
ATOM     19  H   UNL     1     -14.124 -38.429  -8.494  1.00  0.00     0.293 HD
ENDBRANCH  15  18
ENDBRANCH   1  12
BRANCH  11  20
ATOM     20  C   UNL     1     -14.895 -47.123  -4.091  1.00  0.00     0.188 C 
ATOM     21  C   UNL     1     -13.652 -47.172  -5.056  1.00  0.00     0.179 C 
ATOM     22  O   UNL     1     -15.003 -48.314  -3.283  1.00  0.00    -0.362 OA
ATOM     23  C   UNL     1     -12.297 -47.301  -4.241  1.00  0.00     0.177 C 
ATOM     24  C   UNL     1     -13.776 -48.958  -2.996  1.00  0.00     0.176 C 
ATOM     25  C   UNL     1     -12.593 -47.940  -2.855  1.00  0.00     0.177 C 
BRANCH  21  26
ATOM     26  O   UNL     1     -13.748 -46.203  -6.078  1.00  0.00    -0.387 OA
ATOM     27  H   UNL     1     -14.495 -46.423  -6.720  1.00  0.00     0.211 HD
ENDBRANCH  21  26
BRANCH  23  28
ATOM     28  O   UNL     1     -11.383 -46.175  -4.176  1.00  0.00    -0.387 OA
ATOM     29  H   UNL     1     -10.439 -46.524  -4.308  1.00  0.00     0.211 HD
ENDBRANCH  23  28
BRANCH  24  30
ATOM     30  C   UNL     1     -13.927 -49.764  -1.720  1.00  0.00     0.191 C 
BRANCH  30  31
ATOM     31  O   UNL     1     -14.808 -49.172  -0.795  1.00  0.00    -0.394 OA
ATOM     32  H   UNL     1     -15.739 -49.308  -1.148  1.00  0.00     0.210 HD
ENDBRANCH  30  31
ENDBRANCH  24  30
BRANCH  25  33
ATOM     33  O   UNL     1     -12.790 -46.999  -1.811  1.00  0.00    -0.388 OA
ATOM     34  H   UNL     1     -12.098 -46.296  -1.959  1.00  0.00     0.211 HD
ENDBRANCH  25  33
ENDBRANCH  11  20
BRANCH  10  35
ATOM     35  O   UNL     1     -15.879 -46.668  -0.969  1.00  0.00    -0.507 OA
ATOM     36  H   UNL     1     -16.598 -47.248  -0.480  1.00  0.00     0.293 HD
ENDBRANCH  10  35
TORSDOF 9
ENDMDL
MODEL 7
REMARK VINA RESULT:    -7.662      2.117      6.727
REMARK INTER + INTRA:         -12.274
REMARK INTER:                  -9.859
REMARK INTRA:                  -2.415
REMARK UNBOUND:                -1.925
REMARK SMILES O=c1c(-c2ccc(O)cc2)coc2c([C@@H]3O[C@H](CO)[C@H](O)[C@H](O)[C@@H]3O)c(O)ccc12
REMARK SMILES IDX 3 1 11 2 12 3 13 4 30 5 2 6 1 7 29 8 28 9 26 10 14 11 4 12
REMARK SMILES IDX 5 13 6 14 7 15 10 16 9 17 8 18 15 20 24 21 16 22 22 23 17 24
REMARK SMILES IDX 20 25 25 26 23 28 18 30 19 31 21 33 27 35
REMARK H PARENT 8 19 25 27 23 29 19 32 21 34 27 36
REMARK Flexibility Score: inf
ROOT
ATOM      1  C   UNL     1     -14.703 -42.830  -7.723  1.00  0.00     0.065 A 
ATOM      2  C   UNL     1     -15.447 -43.394  -6.665  1.00  0.00     0.208 A 
ATOM      3  O   UNL     1     -14.823 -43.998  -5.622  1.00  0.00    -0.463 OA
ATOM      4  C   UNL     1     -13.491 -44.094  -5.596  1.00  0.00     0.147 A 
ATOM      5  C   UNL     1     -12.725 -43.921  -6.765  1.00  0.00     0.066 A 
ATOM      6  C   UNL     1     -13.351 -43.252  -7.842  1.00  0.00     0.200 A 
ATOM      7  O   UNL     1     -12.644 -43.015  -8.880  1.00  0.00    -0.288 OA
ATOM      8  C   UNL     1     -11.343 -44.366  -6.726  1.00  0.00     0.020 A 
ATOM      9  C   UNL     1     -10.870 -45.075  -5.614  1.00  0.00     0.047 A 
ATOM     10  C   UNL     1     -11.727 -45.156  -4.486  1.00  0.00     0.125 A 
ATOM     11  C   UNL     1     -12.790 -44.192  -4.396  1.00  0.00     0.069 A 
ENDROOT
BRANCH   1  12
ATOM     12  C   UNL     1     -15.101 -41.450  -8.172  1.00  0.00    -0.011 A 
ATOM     13  C   UNL     1     -14.325 -40.305  -7.797  1.00  0.00     0.013 A 
ATOM     14  C   UNL     1     -13.644 -39.596  -8.819  1.00  0.00     0.047 A 
ATOM     15  C   UNL     1     -13.876 -39.945 -10.160  1.00  0.00     0.115 A 
ATOM     16  C   UNL     1     -15.780 -41.312  -9.411  1.00  0.00     0.013 A 
ATOM     17  C   UNL     1     -15.080 -40.673 -10.439  1.00  0.00     0.047 A 
BRANCH  15  18
ATOM     18  O   UNL     1     -13.029 -39.541 -11.196  1.00  0.00    -0.508 OA
ATOM     19  H   UNL     1     -12.120 -39.158 -10.962  1.00  0.00     0.293 HD
ENDBRANCH  15  18
ENDBRANCH   1  12
BRANCH  11  20
ATOM     20  C   UNL     1     -12.280 -42.843  -3.792  1.00  0.00     0.188 C 
ATOM     21  C   UNL     1     -13.378 -41.790  -3.389  1.00  0.00     0.179 C 
ATOM     22  O   UNL     1     -11.412 -43.173  -2.688  1.00  0.00    -0.362 OA
ATOM     23  C   UNL     1     -14.303 -42.342  -2.224  1.00  0.00     0.177 C 
ATOM     24  C   UNL     1     -12.002 -43.065  -1.407  1.00  0.00     0.176 C 
ATOM     25  C   UNL     1     -13.527 -43.427  -1.426  1.00  0.00     0.177 C 
BRANCH  21  26
ATOM     26  O   UNL     1     -13.981 -41.205  -4.524  1.00  0.00    -0.387 OA
ATOM     27  H   UNL     1     -14.827 -41.692  -4.780  1.00  0.00     0.211 HD
ENDBRANCH  21  26
BRANCH  23  28
ATOM     28  O   UNL     1     -15.680 -42.704  -2.505  1.00  0.00    -0.387 OA
ATOM     29  H   UNL     1     -16.217 -41.850  -2.615  1.00  0.00     0.211 HD
ENDBRANCH  23  28
BRANCH  24  30
ATOM     30  C   UNL     1     -11.262 -43.972  -0.442  1.00  0.00     0.191 C 
BRANCH  30  31
ATOM     31  O   UNL     1     -11.338 -45.333  -0.796  1.00  0.00    -0.394 OA
ATOM     32  H   UNL     1     -12.177 -45.449  -1.335  1.00  0.00     0.210 HD
ENDBRANCH  30  31
ENDBRANCH  24  30
BRANCH  25  33
ATOM     33  O   UNL     1     -13.778 -44.756  -1.858  1.00  0.00    -0.388 OA
ATOM     34  H   UNL     1     -12.877 -45.168  -1.970  1.00  0.00     0.211 HD
ENDBRANCH  25  33
ENDBRANCH  11  20
BRANCH  10  35
ATOM     35  O   UNL     1     -11.488 -46.030  -3.418  1.00  0.00    -0.507 OA
ATOM     36  H   UNL     1     -11.842 -45.881  -2.445  1.00  0.00     0.293 HD
ENDBRANCH  10  35
TORSDOF 9
ENDMDL
MODEL 8
REMARK VINA RESULT:    -7.637      3.801      6.449
REMARK INTER + INTRA:         -12.241
REMARK INTER:                 -10.048
REMARK INTRA:                  -2.193
REMARK UNBOUND:                -1.925
REMARK SMILES O=c1c(-c2ccc(O)cc2)coc2c([C@@H]3O[C@H](CO)[C@H](O)[C@H](O)[C@@H]3O)c(O)ccc12
REMARK SMILES IDX 3 1 11 2 12 3 13 4 30 5 2 6 1 7 29 8 28 9 26 10 14 11 4 12
REMARK SMILES IDX 5 13 6 14 7 15 10 16 9 17 8 18 15 20 24 21 16 22 22 23 17 24
REMARK SMILES IDX 20 25 25 26 23 28 18 30 19 31 21 33 27 35
REMARK H PARENT 8 19 25 27 23 29 19 32 21 34 27 36
REMARK Flexibility Score: inf
ROOT
ATOM      1  C   UNL     1     -16.794 -45.488   0.019  1.00  0.00     0.065 A 
ATOM      2  C   UNL     1     -15.707 -46.384  -0.046  1.00  0.00     0.208 A 
ATOM      3  O   UNL     1     -14.999 -46.535  -1.194  1.00  0.00    -0.463 OA
ATOM      4  C   UNL     1     -15.342 -45.858  -2.294  1.00  0.00     0.147 A 
ATOM      5  C   UNL     1     -16.616 -45.271  -2.419  1.00  0.00     0.066 A 
ATOM      6  C   UNL     1     -17.342 -45.066  -1.223  1.00  0.00     0.200 A 
ATOM      7  O   UNL     1     -18.464 -44.461  -1.312  1.00  0.00    -0.288 OA
ATOM      8  C   UNL     1     -17.026 -44.853  -3.748  1.00  0.00     0.020 A 
ATOM      9  C   UNL     1     -16.234 -45.177  -4.857  1.00  0.00     0.047 A 
ATOM     10  C   UNL     1     -14.957 -45.740  -4.597  1.00  0.00     0.125 A 
ATOM     11  C   UNL     1     -14.409 -45.552  -3.281  1.00  0.00     0.069 A 
ENDROOT
BRANCH   1  12
ATOM     12  C   UNL     1     -16.852 -44.574   1.213  1.00  0.00    -0.011 A 
ATOM     13  C   UNL     1     -18.076 -44.388   1.935  1.00  0.00     0.013 A 
ATOM     14  C   UNL     1     -18.141 -44.860   3.270  1.00  0.00     0.047 A 
ATOM     15  C   UNL     1     -16.973 -45.346   3.878  1.00  0.00     0.115 A 
ATOM     16  C   UNL     1     -15.682 -44.417   2.001  1.00  0.00     0.013 A 
ATOM     17  C   UNL     1     -15.725 -44.944   3.295  1.00  0.00     0.047 A 
BRANCH  15  18
ATOM     18  O   UNL     1     -17.001 -46.119   5.043  1.00  0.00    -0.508 OA
ATOM     19  H   UNL     1     -16.733 -47.095   4.988  1.00  0.00     0.293 HD
ENDBRANCH  15  18
ENDBRANCH   1  12
BRANCH  11  20
ATOM     20  C   UNL     1     -13.714 -44.157  -3.154  1.00  0.00     0.188 C 
ATOM     21  C   UNL     1     -13.005 -43.845  -1.784  1.00  0.00     0.179 C 
ATOM     22  O   UNL     1     -12.814 -44.026  -4.274  1.00  0.00    -0.362 OA
ATOM     23  C   UNL     1     -11.796 -44.838  -1.523  1.00  0.00     0.177 C 
ATOM     24  C   UNL     1     -11.454 -44.287  -3.985  1.00  0.00     0.176 C 
ATOM     25  C   UNL     1     -11.285 -45.389  -2.884  1.00  0.00     0.177 C 
BRANCH  21  26
ATOM     26  O   UNL     1     -13.942 -43.618  -0.752  1.00  0.00    -0.387 OA
ATOM     27  H   UNL     1     -14.848 -43.382  -1.127  1.00  0.00     0.211 HD
ENDBRANCH  21  26
BRANCH  23  28
ATOM     28  O   UNL     1     -11.905 -45.854  -0.492  1.00  0.00    -0.387 OA
ATOM     29  H   UNL     1     -12.101 -46.743  -0.942  1.00  0.00     0.211 HD
ENDBRANCH  23  28
BRANCH  24  30
ATOM     30  C   UNL     1     -10.750 -44.710  -5.261  1.00  0.00     0.191 C 
BRANCH  30  31
ATOM     31  O   UNL     1     -11.509 -45.604  -6.039  1.00  0.00    -0.394 OA
ATOM     32  H   UNL     1     -12.202 -46.006  -5.433  1.00  0.00     0.210 HD
ENDBRANCH  30  31
ENDBRANCH  24  30
BRANCH  25  33
ATOM     33  O   UNL     1     -11.849 -46.637  -3.254  1.00  0.00    -0.388 OA
ATOM     34  H   UNL     1     -12.770 -46.424  -3.571  1.00  0.00     0.211 HD
ENDBRANCH  25  33
ENDBRANCH  11  20
BRANCH  10  35
ATOM     35  O   UNL     1     -14.176 -46.333  -5.598  1.00  0.00    -0.507 OA
ATOM     36  H   UNL     1     -14.023 -45.920  -6.546  1.00  0.00     0.293 HD
ENDBRANCH  10  35
TORSDOF 9
ENDMDL
MODEL 9
REMARK VINA RESULT:    -7.571      2.300      6.806
REMARK INTER + INTRA:         -12.152
REMARK INTER:                  -9.886
REMARK INTRA:                  -2.266
REMARK UNBOUND:                -1.925
REMARK SMILES O=c1c(-c2ccc(O)cc2)coc2c([C@@H]3O[C@H](CO)[C@H](O)[C@H](O)[C@@H]3O)c(O)ccc12
REMARK SMILES IDX 3 1 11 2 12 3 13 4 30 5 2 6 1 7 29 8 28 9 26 10 14 11 4 12
REMARK SMILES IDX 5 13 6 14 7 15 10 16 9 17 8 18 15 20 24 21 16 22 22 23 17 24
REMARK SMILES IDX 20 25 25 26 23 28 18 30 19 31 21 33 27 35
REMARK H PARENT 8 19 25 27 23 29 19 32 21 34 27 36
REMARK Flexibility Score: inf
ROOT
ATOM      1  C   UNL     1     -12.500 -43.738  -7.664  1.00  0.00     0.065 A 
ATOM      2  C   UNL     1     -12.981 -44.849  -6.941  1.00  0.00     0.208 A 
ATOM      3  O   UNL     1     -12.502 -45.133  -5.703  1.00  0.00    -0.463 OA
ATOM      4  C   UNL     1     -11.542 -44.379  -5.161  1.00  0.00     0.147 A 
ATOM      5  C   UNL     1     -10.752 -43.523  -5.954  1.00  0.00     0.066 A 
ATOM      6  C   UNL     1     -11.265 -43.185  -7.228  1.00  0.00     0.200 A 
ATOM      7  O   UNL     1     -10.600 -42.346  -7.926  1.00  0.00    -0.288 OA
ATOM      8  C   UNL     1      -9.535 -43.003  -5.359  1.00  0.00     0.020 A 
ATOM      9  C   UNL     1      -9.111 -43.475  -4.110  1.00  0.00     0.047 A 
ATOM     10  C   UNL     1     -10.010 -44.309  -3.396  1.00  0.00     0.125 A 
ATOM     11  C   UNL     1     -11.395 -44.268  -3.781  1.00  0.00     0.069 A 
ENDROOT
BRANCH   1  12
ATOM     12  C   UNL     1     -13.529 -42.854  -8.316  1.00  0.00    -0.011 A 
ATOM     13  C   UNL     1     -13.809 -41.549  -7.795  1.00  0.00     0.013 A 
ATOM     14  C   UNL     1     -13.473 -40.425  -8.592  1.00  0.00     0.047 A 
ATOM     15  C   UNL     1     -13.027 -40.633  -9.907  1.00  0.00     0.115 A 
ATOM     16  C   UNL     1     -13.740 -42.980  -9.713  1.00  0.00     0.013 A 
ATOM     17  C   UNL     1     -13.345 -41.898 -10.505  1.00  0.00     0.047 A 
BRANCH  15  18
ATOM     18  O   UNL     1     -12.374 -39.639 -10.642  1.00  0.00    -0.508 OA
ATOM     19  H   UNL     1     -11.433 -39.815 -10.973  1.00  0.00     0.293 HD
ENDBRANCH  15  18
ENDBRANCH   1  12
BRANCH  11  20
ATOM     20  C   UNL     1     -12.131 -43.062  -3.111  1.00  0.00     0.188 C 
ATOM     21  C   UNL     1     -13.703 -43.060  -3.195  1.00  0.00     0.179 C 
ATOM     22  O   UNL     1     -11.660 -42.978  -1.750  1.00  0.00    -0.362 OA
ATOM     23  C   UNL     1     -14.321 -44.296  -2.416  1.00  0.00     0.177 C 
ATOM     24  C   UNL     1     -12.526 -43.534  -0.779  1.00  0.00     0.176 C 
ATOM     25  C   UNL     1     -13.315 -44.771  -1.330  1.00  0.00     0.177 C 
BRANCH  21  26
ATOM     26  O   UNL     1     -14.154 -42.779  -4.503  1.00  0.00    -0.387 OA
ATOM     27  H   UNL     1     -14.400 -41.805  -4.602  1.00  0.00     0.211 HD
ENDBRANCH  21  26
BRANCH  23  28
ATOM     28  O   UNL     1     -14.930 -45.386  -3.156  1.00  0.00    -0.387 OA
ATOM     29  H   UNL     1     -15.348 -46.028  -2.489  1.00  0.00     0.211 HD
ENDBRANCH  23  28
BRANCH  24  30
ATOM     30  C   UNL     1     -11.713 -43.932   0.439  1.00  0.00     0.191 C 
BRANCH  30  31
ATOM     31  O   UNL     1     -10.331 -43.719   0.274  1.00  0.00    -0.394 OA
ATOM     32  H   UNL     1      -9.861 -44.486   0.721  1.00  0.00     0.210 HD
ENDBRANCH  30  31
ENDBRANCH  24  30
BRANCH  25  33
ATOM     33  O   UNL     1     -12.468 -45.831  -1.746  1.00  0.00    -0.388 OA
ATOM     34  H   UNL     1     -11.861 -45.429  -2.427  1.00  0.00     0.211 HD
ENDBRANCH  25  33
ENDBRANCH  11  20
BRANCH  10  35
ATOM     35  O   UNL     1      -9.623 -45.042  -2.266  1.00  0.00    -0.507 OA
ATOM     36  H   UNL     1      -8.661 -45.029  -1.857  1.00  0.00     0.293 HD
ENDBRANCH  10  35
TORSDOF 9
ENDMDL
