MODEL 1
REMARK VINA RESULT:    -2.972      0.000      0.000
REMARK INTER + INTRA:          -3.374
REMARK INTER:                  -3.319
REMARK INTRA:                  -0.054
REMARK UNBOUND:                -0.054
REMARK SMILES CCCC(=O)[O-]
REMARK SMILES IDX 3 1 4 2 5 3 6 4 2 5 1 6
REMARK H PARENT
REMARK Flexibility Score: inf
ROOT
ATOM      1  C   UNL     1      14.126  41.609  28.747  1.00  0.00     0.052 C 
ENDROOT
BRANCH   1   2
ATOM      2  C   UNL     1      13.652  40.501  27.857  1.00  0.00     0.041 C 
ATOM      3  O   UNL     1      12.438  40.166  27.856  1.00  0.00    -0.550 OA
ATOM      4  O   UNL     1      14.543  39.861  27.005  1.00  0.00    -0.550 OA
ENDBRANCH   1   2
BRANCH   1   5
ATOM      5  C   UNL     1      15.527  41.330  29.305  1.00  0.00     0.003 C 
ATOM      6  C   UNL     1      15.516  40.264  30.401  1.00  0.00     0.004 C 
ENDBRANCH   1   5
TORSDOF 2
ENDMDL
MODEL 2
REMARK VINA RESULT:    -2.882      1.524      2.025
REMARK INTER + INTRA:          -3.273
REMARK INTER:                  -3.246
REMARK INTRA:                  -0.027
REMARK UNBOUND:                -0.054
REMARK SMILES CCCC(=O)[O-]
REMARK SMILES IDX 3 1 4 2 5 3 6 4 2 5 1 6
REMARK H PARENT
REMARK Flexibility Score: inf
ROOT
ATOM      1  C   UNL     1      15.522  41.214  29.224  1.00  0.00     0.052 C 
ENDROOT
BRANCH   1   2
ATOM      2  C   UNL     1      14.158  41.643  28.777  1.00  0.00     0.041 C 
ATOM      3  O   UNL     1      13.900  42.864  28.613  1.00  0.00    -0.550 OA
ATOM      4  O   UNL     1      13.181  40.692  28.508  1.00  0.00    -0.550 OA
ENDBRANCH   1   2
BRANCH   1   5
ATOM      5  C   UNL     1      15.451  40.168  30.343  1.00  0.00     0.003 C 
ATOM      6  C   UNL     1      15.763  38.757  29.844  1.00  0.00     0.004 C 
ENDBRANCH   1   5
TORSDOF 2
ENDMDL
MODEL 3
REMARK VINA RESULT:    -2.864     11.161     11.826
REMARK INTER + INTRA:          -3.253
REMARK INTER:                  -3.236
REMARK INTRA:                  -0.017
REMARK UNBOUND:                -0.054
REMARK SMILES CCCC(=O)[O-]
REMARK SMILES IDX 3 1 4 2 5 3 6 4 2 5 1 6
REMARK H PARENT
REMARK Flexibility Score: inf
ROOT
ATOM      1  C   UNL     1      20.318  48.832  32.991  1.00  0.00     0.052 C 
ENDROOT
BRANCH   1   2
ATOM      2  C   UNL     1      20.891  50.147  32.558  1.00  0.00     0.041 C 
ATOM      3  O   UNL     1      22.128  50.360  32.652  1.00  0.00    -0.550 OA
ATOM      4  O   UNL     1      20.063  51.125  32.020  1.00  0.00    -0.550 OA
ENDBRANCH   1   2
BRANCH   1   5
ATOM      5  C   UNL     1      21.129  47.651  32.443  1.00  0.00     0.003 C 
ATOM      6  C   UNL     1      21.119  46.449  33.387  1.00  0.00     0.004 C 
ENDBRANCH   1   5
TORSDOF 2
ENDMDL
MODEL 4
REMARK VINA RESULT:    -2.816      2.179      3.126
REMARK INTER + INTRA:          -3.199
REMARK INTER:                  -3.128
REMARK INTRA:                  -0.071
REMARK UNBOUND:                -0.054
REMARK SMILES CCCC(=O)[O-]
REMARK SMILES IDX 3 1 4 2 5 3 6 4 2 5 1 6
REMARK H PARENT
REMARK Flexibility Score: inf
ROOT
ATOM      1  C   UNL     1      14.332  41.619  28.821  1.00  0.00     0.052 C 
ENDROOT
BRANCH   1   2
ATOM      2  C   UNL     1      15.537  40.987  29.450  1.00  0.00     0.041 C 
ATOM      3  O   UNL     1      16.673  41.129  28.925  1.00  0.00    -0.550 OA
ATOM      4  O   UNL     1      15.411  40.270  30.633  1.00  0.00    -0.550 OA
ENDBRANCH   1   2
BRANCH   1   5
ATOM      5  C   UNL     1      13.278  40.575  28.436  1.00  0.00     0.003 C 
ATOM      6  C   UNL     1      13.836  39.499  27.503  1.00  0.00     0.004 C 
ENDBRANCH   1   5
TORSDOF 2
ENDMDL
MODEL 5
REMARK VINA RESULT:    -2.794     11.895     12.731
REMARK INTER + INTRA:          -3.174
REMARK INTER:                  -3.166
REMARK INTRA:                  -0.009
REMARK UNBOUND:                -0.054
REMARK SMILES CCCC(=O)[O-]
REMARK SMILES IDX 3 1 4 2 5 3 6 4 2 5 1 6
REMARK H PARENT
REMARK Flexibility Score: inf
ROOT
ATOM      1  C   UNL     1      10.727  47.652  18.425  1.00  0.00     0.052 C 
ENDROOT
BRANCH   1   2
ATOM      2  C   UNL     1      10.632  46.458  19.325  1.00  0.00     0.041 C 
ATOM      3  O   UNL     1       9.533  45.861  19.469  1.00  0.00    -0.550 OA
ATOM      4  O   UNL     1      11.762  45.985  19.978  1.00  0.00    -0.550 OA
ENDBRANCH   1   2
BRANCH   1   5
ATOM      5  C   UNL     1       9.420  48.454  18.403  1.00  0.00     0.003 C 
ATOM      6  C   UNL     1       9.572  49.799  17.692  1.00  0.00     0.004 C 
ENDBRANCH   1   5
TORSDOF 2
ENDMDL
MODEL 6
REMARK VINA RESULT:    -2.754      2.104      2.981
REMARK INTER + INTRA:          -3.131
REMARK INTER:                  -3.123
REMARK INTRA:                  -0.008
REMARK UNBOUND:                -0.054
REMARK SMILES CCCC(=O)[O-]
REMARK SMILES IDX 3 1 4 2 5 3 6 4 2 5 1 6
REMARK H PARENT
REMARK Flexibility Score: inf
ROOT
ATOM      1  C   UNL     1      13.210  40.461  28.047  1.00  0.00     0.052 C 
ENDROOT
BRANCH   1   2
ATOM      2  C   UNL     1      14.064  41.467  28.757  1.00  0.00     0.041 C 
ATOM      3  O   UNL     1      13.870  42.698  28.581  1.00  0.00    -0.550 OA
ATOM      4  O   UNL     1      15.051  41.045  29.638  1.00  0.00    -0.550 OA
ENDBRANCH   1   2
BRANCH   1   5
ATOM      5  C   UNL     1      14.054  39.363  27.387  1.00  0.00     0.003 C 
ATOM      6  C   UNL     1      13.217  38.150  26.979  1.00  0.00     0.004 C 
ENDBRANCH   1   5
TORSDOF 2
ENDMDL
MODEL 7
REMARK VINA RESULT:    -2.744     10.322     11.259
REMARK INTER + INTRA:          -3.119
REMARK INTER:                  -3.110
REMARK INTRA:                  -0.010
REMARK UNBOUND:                -0.054
REMARK SMILES CCCC(=O)[O-]
REMARK SMILES IDX 3 1 4 2 5 3 6 4 2 5 1 6
REMARK H PARENT
REMARK Flexibility Score: inf
ROOT
ATOM      1  C   UNL     1       9.899  45.755  19.525  1.00  0.00     0.052 C 
ENDROOT
BRANCH   1   2
ATOM      2  C   UNL     1      10.822  44.648  19.938  1.00  0.00     0.041 C 
ATOM      3  O   UNL     1      11.995  44.909  20.312  1.00  0.00    -0.550 OA
ATOM      4  O   UNL     1      10.374  43.333  19.943  1.00  0.00    -0.550 OA
ENDBRANCH   1   2
BRANCH   1   5
ATOM      5  C   UNL     1      10.672  47.009  19.098  1.00  0.00     0.003 C 
ATOM      6  C   UNL     1       9.746  48.136  18.638  1.00  0.00     0.004 C 
ENDBRANCH   1   5
TORSDOF 2
ENDMDL
MODEL 8
REMARK VINA RESULT:    -2.690     10.379     11.097
REMARK INTER + INTRA:          -3.058
REMARK INTER:                  -3.048
REMARK INTRA:                  -0.011
REMARK UNBOUND:                -0.054
REMARK SMILES CCCC(=O)[O-]
REMARK SMILES IDX 3 1 4 2 5 3 6 4 2 5 1 6
REMARK H PARENT
REMARK Flexibility Score: inf
ROOT
ATOM      1  C   UNL     1       9.783  45.457  19.528  1.00  0.00     0.052 C 
ENDROOT
BRANCH   1   2
ATOM      2  C   UNL     1      10.629  46.693  19.538  1.00  0.00     0.041 C 
ATOM      3  O   UNL     1      10.091  47.829  19.464  1.00  0.00    -0.550 OA
ATOM      4  O   UNL     1      12.009  46.593  19.664  1.00  0.00    -0.550 OA
ENDBRANCH   1   2
BRANCH   1   5
ATOM      5  C   UNL     1      10.418  44.326  20.346  1.00  0.00     0.003 C 
ATOM      6  C   UNL     1       9.862  42.952  19.972  1.00  0.00     0.004 C 
ENDBRANCH   1   5
TORSDOF 2
ENDMDL
MODEL 9
REMARK VINA RESULT:    -2.670     11.293     12.071
REMARK INTER + INTRA:          -3.037
REMARK INTER:                  -2.996
REMARK INTRA:                  -0.041
REMARK UNBOUND:                -0.054
REMARK SMILES CCCC(=O)[O-]
REMARK SMILES IDX 3 1 4 2 5 3 6 4 2 5 1 6
REMARK H PARENT
REMARK Flexibility Score: inf
ROOT
ATOM      1  C   UNL     1      11.810  46.544  19.499  1.00  0.00     0.052 C 
ENDROOT
BRANCH   1   2
ATOM      2  C   UNL     1      10.344  46.833  19.386  1.00  0.00     0.041 C 
ATOM      3  O   UNL     1       9.943  48.017  19.236  1.00  0.00    -0.550 OA
ATOM      4  O   UNL     1       9.424  45.793  19.413  1.00  0.00    -0.550 OA
ENDBRANCH   1   2
BRANCH   1   5
ATOM      5  C   UNL     1      12.338  45.793  18.271  1.00  0.00     0.003 C 
ATOM      6  C   UNL     1      12.877  46.738  17.197  1.00  0.00     0.004 C 
ENDBRANCH   1   5
TORSDOF 2
ENDMDL
