MODEL 1
REMARK VINA RESULT:    -3.578      0.000      0.000
REMARK INTER + INTRA:          -4.897
REMARK INTER:                  -4.623
REMARK INTRA:                  -0.273
REMARK UNBOUND:                -0.273
REMARK SMILES CCCCCCC(=O)[O-]
REMARK SMILES IDX 5 1 6 2 7 3 8 4 9 5 4 6 3 7 2 8 1 9
REMARK H PARENT
REMARK Flexibility Score: inf
ROOT
ATOM      1  C   UNL     1      -2.194   6.795  -2.704  1.00  0.00     0.006 C 
ENDROOT
BRANCH   1   2
ATOM      2  C   UNL     1      -1.416   5.708  -1.951  1.00  0.00     0.053 C 
BRANCH   2   3
ATOM      3  C   UNL     1      -0.892   6.243  -0.656  1.00  0.00     0.041 C 
ATOM      4  O   UNL     1      -1.616   6.228   0.375  1.00  0.00    -0.550 OA
ATOM      5  O   UNL     1       0.378   6.802  -0.598  1.00  0.00    -0.550 OA
ENDBRANCH   2   3
ENDBRANCH   1   2
BRANCH   1   6
ATOM      6  C   UNL     1      -3.607   6.332  -3.100  1.00  0.00     0.000 C 
BRANCH   6   7
ATOM      7  C   UNL     1      -4.327   5.543  -1.982  1.00  0.00    -0.000 C 
BRANCH   7   8
ATOM      8  C   UNL     1      -4.952   6.444  -0.903  1.00  0.00    -0.003 C 
ATOM      9  C   UNL     1      -6.121   5.780  -0.178  1.00  0.00     0.004 C 
ENDBRANCH   7   8
ENDBRANCH   6   7
ENDBRANCH   1   6
TORSDOF 5
ENDMDL
MODEL 2
REMARK VINA RESULT:    -3.551     14.951     16.136
REMARK INTER + INTRA:          -4.862
REMARK INTER:                  -4.670
REMARK INTRA:                  -0.192
REMARK UNBOUND:                -0.273
REMARK SMILES CCCCCCC(=O)[O-]
REMARK SMILES IDX 5 1 6 2 7 3 8 4 9 5 4 6 3 7 2 8 1 9
REMARK H PARENT
REMARK Flexibility Score: inf
ROOT
ATOM      1  C   UNL     1       2.627  -6.683  -8.486  1.00  0.00     0.006 C 
ENDROOT
BRANCH   1   2
ATOM      2  C   UNL     1       2.281  -5.415  -9.278  1.00  0.00     0.053 C 
BRANCH   2   3
ATOM      3  C   UNL     1       1.794  -4.342  -8.357  1.00  0.00     0.041 C 
ATOM      4  O   UNL     1       1.360  -3.256  -8.822  1.00  0.00    -0.550 OA
ATOM      5  O   UNL     1       1.862  -4.523  -6.981  1.00  0.00    -0.550 OA
ENDBRANCH   2   3
ENDBRANCH   1   2
BRANCH   1   6
ATOM      6  C   UNL     1       2.593  -7.946  -9.366  1.00  0.00     0.000 C 
BRANCH   6   7
ATOM      7  C   UNL     1       3.625  -9.015  -8.940  1.00  0.00    -0.000 C 
BRANCH   7   8
ATOM      8  C   UNL     1       4.564  -8.544  -7.816  1.00  0.00    -0.003 C 
ATOM      9  C   UNL     1       6.006  -8.358  -8.285  1.00  0.00     0.004 C 
ENDBRANCH   7   8
ENDBRANCH   6   7
ENDBRANCH   1   6
TORSDOF 5
ENDMDL
MODEL 3
REMARK VINA RESULT:    -3.479      1.482      2.315
REMARK INTER + INTRA:          -4.770
REMARK INTER:                  -4.523
REMARK INTRA:                  -0.247
REMARK UNBOUND:                -0.273
REMARK SMILES CCCCCCC(=O)[O-]
REMARK SMILES IDX 5 1 6 2 7 3 8 4 9 5 4 6 3 7 2 8 1 9
REMARK H PARENT
REMARK Flexibility Score: inf
ROOT
ATOM      1  C   UNL     1      -2.574   5.629   0.055  1.00  0.00     0.006 C 
ENDROOT
BRANCH   1   2
ATOM      2  C   UNL     1      -1.613   5.256  -1.081  1.00  0.00     0.053 C 
BRANCH   2   3
ATOM      3  C   UNL     1      -0.741   6.421  -1.431  1.00  0.00     0.041 C 
ATOM      4  O   UNL     1      -1.000   7.125  -2.443  1.00  0.00    -0.550 OA
ATOM      5  O   UNL     1       0.384   6.701  -0.668  1.00  0.00    -0.550 OA
ENDBRANCH   2   3
ENDBRANCH   1   2
BRANCH   1   6
ATOM      6  C   UNL     1      -3.957   6.056  -0.469  1.00  0.00     0.000 C 
BRANCH   6   7
ATOM      7  C   UNL     1      -4.372   5.321  -1.764  1.00  0.00    -0.000 C 
BRANCH   7   8
ATOM      8  C   UNL     1      -5.236   6.180  -2.704  1.00  0.00    -0.003 C 
ATOM      9  C   UNL     1      -4.810   6.073  -4.167  1.00  0.00     0.004 C 
ENDBRANCH   7   8
ENDBRANCH   6   7
ENDBRANCH   1   6
TORSDOF 5
ENDMDL
MODEL 4
REMARK VINA RESULT:    -3.477      3.204      5.066
REMARK INTER + INTRA:          -4.767
REMARK INTER:                  -4.585
REMARK INTRA:                  -0.183
REMARK UNBOUND:                -0.273
REMARK SMILES CCCCCCC(=O)[O-]
REMARK SMILES IDX 5 1 6 2 7 3 8 4 9 5 4 6 3 7 2 8 1 9
REMARK H PARENT
REMARK Flexibility Score: inf
ROOT
ATOM      1  C   UNL     1      -4.867   5.550  -1.137  1.00  0.00     0.006 C 
ENDROOT
BRANCH   1   2
ATOM      2  C   UNL     1      -5.995   6.581  -1.008  1.00  0.00     0.053 C 
BRANCH   2   3
ATOM      3  C   UNL     1      -7.032   6.102  -0.041  1.00  0.00     0.041 C 
ATOM      4  O   UNL     1      -6.762   5.177   0.770  1.00  0.00    -0.550 OA
ATOM      5  O   UNL     1      -8.310   6.643  -0.068  1.00  0.00    -0.550 OA
ENDBRANCH   2   3
ENDBRANCH   1   2
BRANCH   1   6
ATOM      6  C   UNL     1      -3.540   6.062  -0.547  1.00  0.00     0.000 C 
BRANCH   6   7
ATOM      7  C   UNL     1      -2.364   5.079  -0.747  1.00  0.00    -0.000 C 
BRANCH   7   8
ATOM      8  C   UNL     1      -1.153   5.710  -1.456  1.00  0.00    -0.003 C 
ATOM      9  C   UNL     1      -1.528   6.420  -2.755  1.00  0.00     0.004 C 
ENDBRANCH   7   8
ENDBRANCH   6   7
ENDBRANCH   1   6
TORSDOF 5
ENDMDL
MODEL 5
REMARK VINA RESULT:    -3.346      2.618      4.202
REMARK INTER + INTRA:          -4.597
REMARK INTER:                  -4.280
REMARK INTRA:                  -0.317
REMARK UNBOUND:                -0.273
REMARK SMILES CCCCCCC(=O)[O-]
REMARK SMILES IDX 5 1 6 2 7 3 8 4 9 5 4 6 3 7 2 8 1 9
REMARK H PARENT
REMARK Flexibility Score: inf
ROOT
ATOM      1  C   UNL     1      -4.565   5.717  -2.406  1.00  0.00     0.006 C 
ENDROOT
BRANCH   1   2
ATOM      2  C   UNL     1      -5.700   6.688  -2.058  1.00  0.00     0.053 C 
BRANCH   2   3
ATOM      3  C   UNL     1      -6.300   6.335  -0.734  1.00  0.00     0.041 C 
ATOM      4  O   UNL     1      -7.403   6.833  -0.384  1.00  0.00    -0.550 OA
ATOM      5  O   UNL     1      -5.618   5.495   0.137  1.00  0.00    -0.550 OA
ENDBRANCH   2   3
ENDBRANCH   1   2
BRANCH   1   6
ATOM      6  C   UNL     1      -3.309   6.448  -2.917  1.00  0.00     0.000 C 
BRANCH   6   7
ATOM      7  C   UNL     1      -2.011   5.996  -2.211  1.00  0.00    -0.000 C 
BRANCH   7   8
ATOM      8  C   UNL     1      -2.262   5.189  -0.926  1.00  0.00    -0.003 C 
ATOM      9  C   UNL     1      -2.131   6.034   0.341  1.00  0.00     0.004 C 
ENDBRANCH   7   8
ENDBRANCH   6   7
ENDBRANCH   1   6
TORSDOF 5
ENDMDL
MODEL 6
REMARK VINA RESULT:    -3.297     13.361     14.293
REMARK INTER + INTRA:          -4.534
REMARK INTER:                  -4.426
REMARK INTRA:                  -0.107
REMARK UNBOUND:                -0.273
REMARK SMILES CCCCCCC(=O)[O-]
REMARK SMILES IDX 5 1 6 2 7 3 8 4 9 5 4 6 3 7 2 8 1 9
REMARK H PARENT
REMARK Flexibility Score: inf
ROOT
ATOM      1  C   UNL     1      -8.288  -5.783  -4.215  1.00  0.00     0.006 C 
ENDROOT
BRANCH   1   2
ATOM      2  C   UNL     1      -8.389  -4.485  -5.025  1.00  0.00     0.053 C 
BRANCH   2   3
ATOM      3  C   UNL     1      -8.283  -3.297  -4.122  1.00  0.00     0.041 C 
ATOM      4  O   UNL     1      -9.063  -3.175  -3.140  1.00  0.00    -0.550 OA
ATOM      5  O   UNL     1      -7.354  -2.300  -4.390  1.00  0.00    -0.550 OA
ENDBRANCH   2   3
ENDBRANCH   1   2
BRANCH   1   6
ATOM      6  C   UNL     1      -9.549  -6.656  -4.354  1.00  0.00     0.000 C 
BRANCH   6   7
ATOM      7  C   UNL     1      -9.270  -8.165  -4.177  1.00  0.00    -0.000 C 
BRANCH   7   8
ATOM      8  C   UNL     1     -10.038  -9.051  -5.173  1.00  0.00    -0.003 C 
ATOM      9  C   UNL     1      -9.475 -10.468  -5.265  1.00  0.00     0.004 C 
ENDBRANCH   7   8
ENDBRANCH   6   7
ENDBRANCH   1   6
TORSDOF 5
ENDMDL
MODEL 7
REMARK VINA RESULT:    -3.202     11.809     12.766
REMARK INTER + INTRA:          -4.412
REMARK INTER:                  -4.106
REMARK INTRA:                  -0.306
REMARK UNBOUND:                -0.273
REMARK SMILES CCCCCCC(=O)[O-]
REMARK SMILES IDX 5 1 6 2 7 3 8 4 9 5 4 6 3 7 2 8 1 9
REMARK H PARENT
REMARK Flexibility Score: inf
ROOT
ATOM      1  C   UNL     1      -7.973  -3.143  -4.354  1.00  0.00     0.006 C 
ENDROOT
BRANCH   1   2
ATOM      2  C   UNL     1      -7.894  -1.999  -5.372  1.00  0.00     0.053 C 
BRANCH   2   3
ATOM      3  C   UNL     1      -8.280  -2.485  -6.733  1.00  0.00     0.041 C 
ATOM      4  O   UNL     1      -8.921  -1.735  -7.516  1.00  0.00    -0.550 OA
ATOM      5  O   UNL     1      -7.974  -3.783  -7.120  1.00  0.00    -0.550 OA
ENDBRANCH   2   3
ENDBRANCH   1   2
BRANCH   1   6
ATOM      6  C   UNL     1      -9.416  -3.408  -3.886  1.00  0.00     0.000 C 
BRANCH   6   7
ATOM      7  C   UNL     1      -9.902  -4.844  -4.190  1.00  0.00    -0.000 C 
BRANCH   7   8
ATOM      8  C   UNL     1      -8.754  -5.849  -4.384  1.00  0.00    -0.003 C 
ATOM      9  C   UNL     1      -9.200  -7.301  -4.217  1.00  0.00     0.004 C 
ENDBRANCH   7   8
ENDBRANCH   6   7
ENDBRANCH   1   6
TORSDOF 5
ENDMDL
MODEL 8
REMARK VINA RESULT:    -3.174     15.738     16.836
REMARK INTER + INTRA:          -4.375
REMARK INTER:                  -4.241
REMARK INTRA:                  -0.135
REMARK UNBOUND:                -0.273
REMARK SMILES CCCCCCC(=O)[O-]
REMARK SMILES IDX 5 1 6 2 7 3 8 4 9 5 4 6 3 7 2 8 1 9
REMARK H PARENT
REMARK Flexibility Score: inf
ROOT
ATOM      1  C   UNL     1      -5.459  -6.580   8.622  1.00  0.00     0.006 C 
ENDROOT
BRANCH   1   2
ATOM      2  C   UNL     1      -5.856  -5.611   9.743  1.00  0.00     0.053 C 
BRANCH   2   3
ATOM      3  C   UNL     1      -6.996  -4.747   9.307  1.00  0.00     0.041 C 
ATOM      4  O   UNL     1      -6.783  -3.717   8.614  1.00  0.00    -0.550 OA
ATOM      5  O   UNL     1      -8.291  -5.052   9.705  1.00  0.00    -0.550 OA
ENDBRANCH   2   3
ENDBRANCH   1   2
BRANCH   1   6
ATOM      6  C   UNL     1      -4.317  -7.522   9.043  1.00  0.00     0.000 C 
BRANCH   6   7
ATOM      7  C   UNL     1      -3.684  -8.282   7.856  1.00  0.00    -0.000 C 
BRANCH   7   8
ATOM      8  C   UNL     1      -4.537  -8.238   6.576  1.00  0.00    -0.003 C 
ATOM      9  C   UNL     1      -5.452  -9.452   6.429  1.00  0.00     0.004 C 
ENDBRANCH   7   8
ENDBRANCH   6   7
ENDBRANCH   1   6
TORSDOF 5
ENDMDL
MODEL 9
REMARK VINA RESULT:    -3.157     17.130     18.196
REMARK INTER + INTRA:          -4.354
REMARK INTER:                  -4.210
REMARK INTRA:                  -0.144
REMARK UNBOUND:                -0.273
REMARK SMILES CCCCCCC(=O)[O-]
REMARK SMILES IDX 5 1 6 2 7 3 8 4 9 5 4 6 3 7 2 8 1 9
REMARK H PARENT
REMARK Flexibility Score: inf
ROOT
ATOM      1  C   UNL     1      -4.581  -7.493   8.006  1.00  0.00     0.006 C 
ENDROOT
BRANCH   1   2
ATOM      2  C   UNL     1      -4.475  -8.254   6.678  1.00  0.00     0.053 C 
BRANCH   2   3
ATOM      3  C   UNL     1      -5.508  -9.334   6.613  1.00  0.00     0.041 C 
ATOM      4  O   UNL     1      -5.522 -10.141   5.646  1.00  0.00    -0.550 OA
ATOM      5  O   UNL     1      -6.485  -9.422   7.596  1.00  0.00    -0.550 OA
ENDBRANCH   2   3
ENDBRANCH   1   2
BRANCH   1   6
ATOM      6  C   UNL     1      -3.659  -8.080   9.090  1.00  0.00     0.000 C 
BRANCH   6   7
ATOM      7  C   UNL     1      -2.456  -8.860   8.511  1.00  0.00    -0.000 C 
BRANCH   7   8
ATOM      8  C   UNL     1      -1.219  -8.842   9.425  1.00  0.00    -0.003 C 
ATOM      9  C   UNL     1       0.077  -9.147   8.676  1.00  0.00     0.004 C 
ENDBRANCH   7   8
ENDBRANCH   6   7
ENDBRANCH   1   6
TORSDOF 5
ENDMDL
