MODEL 1
REMARK VINA RESULT:    -3.412      0.000      0.000
REMARK INTER + INTRA:          -6.638
REMARK INTER:                  -5.806
REMARK INTRA:                  -0.832
REMARK UNBOUND:                -0.832
REMARK SMILES CCCCCCCCCCCCCC(=O)[O-]
REMARK SMILES IDX 8 1 9 2 10 3 11 4 12 5 13 6 14 7 15 8 16 9 7 10 6 11 5 12
REMARK SMILES IDX 4 13 3 14 2 15 1 16
REMARK H PARENT
REMARK Flexibility Score: inf
ROOT
ATOM      1  C   UNL     1      -8.300   1.239  -4.472  1.00  0.00     0.000 C 
ENDROOT
BRANCH   1   2
ATOM      2  C   UNL     1      -9.601   1.971  -4.836  1.00  0.00     0.000 C 
BRANCH   2   3
ATOM      3  C   UNL     1      -9.702   3.311  -4.094  1.00  0.00     0.000 C 
BRANCH   3   4
ATOM      4  C   UNL     1      -9.881   4.505  -5.046  1.00  0.00     0.000 C 
BRANCH   4   5
ATOM      5  C   UNL     1      -8.841   4.519  -6.180  1.00  0.00     0.006 C 
BRANCH   5   6
ATOM      6  C   UNL     1      -9.495   4.644  -7.563  1.00  0.00     0.053 C 
BRANCH   6   7
ATOM      7  C   UNL     1      -8.889   3.698  -8.554  1.00  0.00     0.041 C 
ATOM      8  O   UNL     1      -9.155   3.810  -9.780  1.00  0.00    -0.550 OA
ATOM      9  O   UNL     1      -8.009   2.712  -8.127  1.00  0.00    -0.550 OA
ENDBRANCH   6   7
ENDBRANCH   5   6
ENDBRANCH   4   5
ENDBRANCH   3   4
ENDBRANCH   2   3
ENDBRANCH   1   2
BRANCH   1  10
ATOM     10  C   UNL     1      -7.488   1.978  -3.397  1.00  0.00     0.000 C 
BRANCH  10  11
ATOM     11  C   UNL     1      -6.018   1.522  -3.348  1.00  0.00    -0.000 C 
BRANCH  11  12
ATOM     12  C   UNL     1      -5.306   1.935  -2.047  1.00  0.00    -0.000 C 
BRANCH  12  13
ATOM     13  C   UNL     1      -6.121   2.861  -1.124  1.00  0.00    -0.000 C 
BRANCH  13  14
ATOM     14  C   UNL     1      -5.348   3.276   0.140  1.00  0.00    -0.000 C 
BRANCH  14  15
ATOM     15  C   UNL     1      -5.352   2.181   1.217  1.00  0.00    -0.003 C 
ATOM     16  C   UNL     1      -5.101   2.728   2.622  1.00  0.00     0.004 C 
ENDBRANCH  14  15
ENDBRANCH  13  14
ENDBRANCH  12  13
ENDBRANCH  11  12
ENDBRANCH  10  11
ENDBRANCH   1  10
TORSDOF 12
ENDMDL
MODEL 2
REMARK VINA RESULT:    -3.405      2.159      2.590
REMARK INTER + INTRA:          -6.625
REMARK INTER:                  -5.936
REMARK INTRA:                  -0.689
REMARK UNBOUND:                -0.832
REMARK SMILES CCCCCCCCCCCCCC(=O)[O-]
REMARK SMILES IDX 8 1 9 2 10 3 11 4 12 5 13 6 14 7 15 8 16 9 7 10 6 11 5 12
REMARK SMILES IDX 4 13 3 14 2 15 1 16
REMARK H PARENT
REMARK Flexibility Score: inf
ROOT
ATOM      1  C   UNL     1      -9.088   2.076  -4.936  1.00  0.00     0.000 C 
ENDROOT
BRANCH   1   2
ATOM      2  C   UNL     1      -9.410   3.427  -4.279  1.00  0.00     0.000 C 
BRANCH   2   3
ATOM      3  C   UNL     1      -9.286   4.573  -5.294  1.00  0.00     0.000 C 
BRANCH   3   4
ATOM      4  C   UNL     1      -8.680   4.117  -6.632  1.00  0.00     0.000 C 
BRANCH   4   5
ATOM      5  C   UNL     1      -8.334   5.296  -7.558  1.00  0.00     0.006 C 
BRANCH   5   6
ATOM      6  C   UNL     1      -8.055   6.585  -6.773  1.00  0.00     0.053 C 
BRANCH   6   7
ATOM      7  C   UNL     1      -7.733   7.733  -7.681  1.00  0.00     0.041 C 
ATOM      8  O   UNL     1      -7.833   8.917  -7.265  1.00  0.00    -0.550 OA
ATOM      9  O   UNL     1      -7.294   7.493  -8.977  1.00  0.00    -0.550 OA
ENDBRANCH   6   7
ENDBRANCH   5   6
ENDBRANCH   4   5
ENDBRANCH   3   4
ENDBRANCH   2   3
ENDBRANCH   1   2
BRANCH   1  10
ATOM     10  C   UNL     1      -8.018   1.285  -4.166  1.00  0.00     0.000 C 
BRANCH  10  11
ATOM     11  C   UNL     1      -7.255   2.155  -3.151  1.00  0.00    -0.000 C 
BRANCH  11  12
ATOM     12  C   UNL     1      -5.811   1.675  -2.918  1.00  0.00    -0.000 C 
BRANCH  12  13
ATOM     13  C   UNL     1      -5.347   1.694  -1.449  1.00  0.00    -0.000 C 
BRANCH  13  14
ATOM     14  C   UNL     1      -5.887   2.904  -0.667  1.00  0.00    -0.000 C 
BRANCH  14  15
ATOM     15  C   UNL     1      -5.036   3.231   0.569  1.00  0.00    -0.003 C 
ATOM     16  C   UNL     1      -5.326   2.306   1.751  1.00  0.00     0.004 C 
ENDBRANCH  14  15
ENDBRANCH  13  14
ENDBRANCH  12  13
ENDBRANCH  11  12
ENDBRANCH  10  11
ENDBRANCH   1  10
TORSDOF 12
ENDMDL
MODEL 3
REMARK VINA RESULT:    -3.401      1.557      2.559
REMARK INTER + INTRA:          -6.618
REMARK INTER:                  -5.737
REMARK INTRA:                  -0.881
REMARK UNBOUND:                -0.832
REMARK SMILES CCCCCCCCCCCCCC(=O)[O-]
REMARK SMILES IDX 8 1 9 2 10 3 11 4 12 5 13 6 14 7 15 8 16 9 7 10 6 11 5 12
REMARK SMILES IDX 4 13 3 14 2 15 1 16
REMARK H PARENT
REMARK Flexibility Score: inf
ROOT
ATOM      1  C   UNL     1      -8.626   0.428  -4.926  1.00  0.00     0.000 C 
ENDROOT
BRANCH   1   2
ATOM      2  C   UNL     1      -9.603  -0.083  -5.996  1.00  0.00     0.000 C 
BRANCH   2   3
ATOM      3  C   UNL     1      -9.719   0.918  -7.155  1.00  0.00     0.000 C 
BRANCH   3   4
ATOM      4  C   UNL     1      -8.603   0.749  -8.199  1.00  0.00     0.000 C 
BRANCH   4   5
ATOM      5  C   UNL     1      -8.481   1.962  -9.137  1.00  0.00     0.006 C 
BRANCH   5   6
ATOM      6  C   UNL     1      -9.195   3.200  -8.579  1.00  0.00     0.053 C 
BRANCH   6   7
ATOM      7  C   UNL     1      -8.229   4.194  -8.012  1.00  0.00     0.041 C 
ATOM      8  O   UNL     1      -8.252   4.471  -6.783  1.00  0.00    -0.550 OA
ATOM      9  O   UNL     1      -7.284   4.794  -8.835  1.00  0.00    -0.550 OA
ENDBRANCH   6   7
ENDBRANCH   5   6
ENDBRANCH   4   5
ENDBRANCH   3   4
ENDBRANCH   2   3
ENDBRANCH   1   2
BRANCH   1  10
ATOM     10  C   UNL     1      -8.916   1.877  -4.505  1.00  0.00     0.000 C 
BRANCH  10  11
ATOM     11  C   UNL     1      -7.868   2.430  -3.523  1.00  0.00    -0.000 C 
BRANCH  11  12
ATOM     12  C   UNL     1      -6.605   1.554  -3.440  1.00  0.00    -0.000 C 
BRANCH  12  13
ATOM     13  C   UNL     1      -5.615   1.941  -2.325  1.00  0.00    -0.000 C 
BRANCH  13  14
ATOM     14  C   UNL     1      -6.270   2.767  -1.204  1.00  0.00    -0.000 C 
BRANCH  14  15
ATOM     15  C   UNL     1      -5.251   3.259  -0.166  1.00  0.00    -0.003 C 
ATOM     16  C   UNL     1      -5.260   2.426   1.116  1.00  0.00     0.004 C 
ENDBRANCH  14  15
ENDBRANCH  13  14
ENDBRANCH  12  13
ENDBRANCH  11  12
ENDBRANCH  10  11
ENDBRANCH   1  10
TORSDOF 12
ENDMDL
MODEL 4
REMARK VINA RESULT:    -3.320      0.802      1.614
REMARK INTER + INTRA:          -6.482
REMARK INTER:                  -5.599
REMARK INTRA:                  -0.883
REMARK UNBOUND:                -0.832
REMARK SMILES CCCCCCCCCCCCCC(=O)[O-]
REMARK SMILES IDX 8 1 9 2 10 3 11 4 12 5 13 6 14 7 15 8 16 9 7 10 6 11 5 12
REMARK SMILES IDX 4 13 3 14 2 15 1 16
REMARK H PARENT
REMARK Flexibility Score: inf
ROOT
ATOM      1  C   UNL     1      -9.621   2.139  -4.800  1.00  0.00     0.000 C 
ENDROOT
BRANCH   1   2
ATOM      2  C   UNL     1      -9.545   3.604  -4.344  1.00  0.00     0.000 C 
BRANCH   2   3
ATOM      3  C   UNL     1      -9.067   4.510  -5.489  1.00  0.00     0.000 C 
BRANCH   3   4
ATOM      4  C   UNL     1     -10.125   4.679  -6.592  1.00  0.00     0.000 C 
BRANCH   4   5
ATOM      5  C   UNL     1      -9.579   4.345  -7.991  1.00  0.00     0.006 C 
BRANCH   5   6
ATOM      6  C   UNL     1      -8.232   3.613  -7.928  1.00  0.00     0.053 C 
BRANCH   6   7
ATOM      7  C   UNL     1      -8.201   2.420  -8.834  1.00  0.00     0.041 C 
ATOM      8  O   UNL     1      -8.393   2.558 -10.070  1.00  0.00    -0.550 OA
ATOM      9  O   UNL     1      -7.932   1.160  -8.315  1.00  0.00    -0.550 OA
ENDBRANCH   6   7
ENDBRANCH   5   6
ENDBRANCH   4   5
ENDBRANCH   3   4
ENDBRANCH   2   3
ENDBRANCH   1   2
BRANCH   1  10
ATOM     10  C   UNL     1      -8.349   1.347  -4.459  1.00  0.00     0.000 C 
BRANCH  10  11
ATOM     11  C   UNL     1      -7.481   2.049  -3.399  1.00  0.00    -0.000 C 
BRANCH  11  12
ATOM     12  C   UNL     1      -6.046   1.496  -3.338  1.00  0.00    -0.000 C 
BRANCH  12  13
ATOM     13  C   UNL     1      -5.242   1.904  -2.089  1.00  0.00    -0.000 C 
BRANCH  13  14
ATOM     14  C   UNL     1      -6.092   2.656  -1.050  1.00  0.00    -0.000 C 
BRANCH  14  15
ATOM     15  C   UNL     1      -5.238   3.300   0.053  1.00  0.00    -0.003 C 
ATOM     16  C   UNL     1      -5.279   2.520   1.367  1.00  0.00     0.004 C 
ENDBRANCH  14  15
ENDBRANCH  13  14
ENDBRANCH  12  13
ENDBRANCH  11  12
ENDBRANCH  10  11
ENDBRANCH   1  10
TORSDOF 12
ENDMDL
MODEL 5
REMARK VINA RESULT:    -3.163      2.936      3.344
REMARK INTER + INTRA:          -6.214
REMARK INTER:                  -5.654
REMARK INTRA:                  -0.560
REMARK UNBOUND:                -0.832
REMARK SMILES CCCCCCCCCCCCCC(=O)[O-]
REMARK SMILES IDX 8 1 9 2 10 3 11 4 12 5 13 6 14 7 15 8 16 9 7 10 6 11 5 12
REMARK SMILES IDX 4 13 3 14 2 15 1 16
REMARK H PARENT
REMARK Flexibility Score: inf
ROOT
ATOM      1  C   UNL     1      -9.544   2.613  -4.921  1.00  0.00     0.000 C 
ENDROOT
BRANCH   1   2
ATOM      2  C   UNL     1      -9.024   3.337  -6.173  1.00  0.00     0.000 C 
BRANCH   2   3
ATOM      3  C   UNL     1      -9.250   4.851  -6.065  1.00  0.00     0.000 C 
BRANCH   3   4
ATOM      4  C   UNL     1      -8.120   5.668  -6.713  1.00  0.00     0.000 C 
BRANCH   4   5
ATOM      5  C   UNL     1      -8.602   7.028  -7.247  1.00  0.00     0.006 C 
BRANCH   5   6
ATOM      6  C   UNL     1      -9.797   7.571  -6.451  1.00  0.00     0.053 C 
BRANCH   6   7
ATOM      7  C   UNL     1      -9.360   8.374  -5.265  1.00  0.00     0.041 C 
ATOM      8  O   UNL     1      -9.019   9.578  -5.405  1.00  0.00    -0.550 OA
ATOM      9  O   UNL     1      -9.356   7.800  -3.999  1.00  0.00    -0.550 OA
ENDBRANCH   6   7
ENDBRANCH   5   6
ENDBRANCH   4   5
ENDBRANCH   3   4
ENDBRANCH   2   3
ENDBRANCH   1   2
BRANCH   1  10
ATOM     10  C   UNL     1      -8.551   2.675  -3.749  1.00  0.00     0.000 C 
BRANCH  10  11
ATOM     11  C   UNL     1      -7.551   1.505  -3.758  1.00  0.00    -0.000 C 
BRANCH  11  12
ATOM     12  C   UNL     1      -6.242   1.831  -3.017  1.00  0.00    -0.000 C 
BRANCH  12  13
ATOM     13  C   UNL     1      -6.410   2.666  -1.734  1.00  0.00    -0.000 C 
BRANCH  13  14
ATOM     14  C   UNL     1      -5.394   2.293  -0.640  1.00  0.00    -0.000 C 
BRANCH  14  15
ATOM     15  C   UNL     1      -5.526   3.178   0.609  1.00  0.00    -0.003 C 
ATOM     16  C   UNL     1      -5.237   2.421   1.906  1.00  0.00     0.004 C 
ENDBRANCH  14  15
ENDBRANCH  13  14
ENDBRANCH  12  13
ENDBRANCH  11  12
ENDBRANCH  10  11
ENDBRANCH   1  10
TORSDOF 12
ENDMDL
MODEL 6
REMARK VINA RESULT:    -3.157     13.936     15.621
REMARK INTER + INTRA:          -6.204
REMARK INTER:                  -5.282
REMARK INTRA:                  -0.922
REMARK UNBOUND:                -0.832
REMARK SMILES CCCCCCCCCCCCCC(=O)[O-]
REMARK SMILES IDX 8 1 9 2 10 3 11 4 12 5 13 6 14 7 15 8 16 9 7 10 6 11 5 12
REMARK SMILES IDX 4 13 3 14 2 15 1 16
REMARK H PARENT
REMARK Flexibility Score: inf
ROOT
ATOM      1  C   UNL     1       7.116   7.451  -2.633  1.00  0.00     0.000 C 
ENDROOT
BRANCH   1   2
ATOM      2  C   UNL     1       5.587   7.309  -2.603  1.00  0.00     0.000 C 
BRANCH   2   3
ATOM      3  C   UNL     1       4.907   8.608  -3.056  1.00  0.00     0.000 C 
BRANCH   3   4
ATOM      4  C   UNL     1       3.974   8.401  -4.261  1.00  0.00     0.000 C 
BRANCH   4   5
ATOM      5  C   UNL     1       4.447   9.159  -5.513  1.00  0.00     0.006 C 
BRANCH   5   6
ATOM      6  C   UNL     1       5.909   9.609  -5.399  1.00  0.00     0.053 C 
BRANCH   6   7
ATOM      7  C   UNL     1       6.815   8.790  -6.266  1.00  0.00     0.041 C 
ATOM      8  O   UNL     1       6.386   8.293  -7.341  1.00  0.00    -0.550 OA
ATOM      9  O   UNL     1       8.142   8.599  -5.902  1.00  0.00    -0.550 OA
ENDBRANCH   6   7
ENDBRANCH   5   6
ENDBRANCH   4   5
ENDBRANCH   3   4
ENDBRANCH   2   3
ENDBRANCH   1   2
BRANCH   1  10
ATOM     10  C   UNL     1       7.594   8.810  -2.097  1.00  0.00     0.000 C 
BRANCH  10  11
ATOM     11  C   UNL     1       8.168   8.717  -0.672  1.00  0.00    -0.000 C 
BRANCH  11  12
ATOM     12  C   UNL     1       7.719   9.880   0.231  1.00  0.00    -0.000 C 
BRANCH  12  13
ATOM     13  C   UNL     1       7.708   9.566   1.739  1.00  0.00    -0.000 C 
BRANCH  13  14
ATOM     14  C   UNL     1       6.373   9.925   2.415  1.00  0.00    -0.000 C 
BRANCH  14  15
ATOM     15  C   UNL     1       6.312   9.460   3.878  1.00  0.00    -0.003 C 
ATOM     16  C   UNL     1       7.544   8.658   4.297  1.00  0.00     0.004 C 
ENDBRANCH  14  15
ENDBRANCH  13  14
ENDBRANCH  12  13
ENDBRANCH  11  12
ENDBRANCH  10  11
ENDBRANCH   1  10
TORSDOF 12
ENDMDL
MODEL 7
REMARK VINA RESULT:    -3.127      1.493      2.058
REMARK INTER + INTRA:          -6.152
REMARK INTER:                  -5.509
REMARK INTRA:                  -0.643
REMARK UNBOUND:                -0.832
REMARK SMILES CCCCCCCCCCCCCC(=O)[O-]
REMARK SMILES IDX 8 1 9 2 10 3 11 4 12 5 13 6 14 7 15 8 16 9 7 10 6 11 5 12
REMARK SMILES IDX 4 13 3 14 2 15 1 16
REMARK H PARENT
REMARK Flexibility Score: inf
ROOT
ATOM      1  C   UNL     1      -9.393   2.014  -5.344  1.00  0.00     0.000 C 
ENDROOT
BRANCH   1   2
ATOM      2  C   UNL     1      -9.831   3.119  -6.317  1.00  0.00     0.000 C 
BRANCH   2   3
ATOM      3  C   UNL     1      -8.990   4.389  -6.120  1.00  0.00     0.000 C 
BRANCH   3   4
ATOM      4  C   UNL     1      -9.276   5.462  -7.184  1.00  0.00     0.000 C 
BRANCH   4   5
ATOM      5  C   UNL     1      -9.076   4.942  -8.618  1.00  0.00     0.006 C 
BRANCH   5   6
ATOM      6  C   UNL     1      -7.744   5.408  -9.221  1.00  0.00     0.053 C 
BRANCH   6   7
ATOM      7  C   UNL     1      -6.824   4.258  -9.500  1.00  0.00     0.041 C 
ATOM      8  O   UNL     1      -5.632   4.469  -9.844  1.00  0.00    -0.550 OA
ATOM      9  O   UNL     1      -7.278   2.953  -9.351  1.00  0.00    -0.550 OA
ENDBRANCH   6   7
ENDBRANCH   5   6
ENDBRANCH   4   5
ENDBRANCH   3   4
ENDBRANCH   2   3
ENDBRANCH   1   2
BRANCH   1  10
ATOM     10  C   UNL     1      -8.656   2.569  -4.114  1.00  0.00     0.000 C 
BRANCH  10  11
ATOM     11  C   UNL     1      -7.451   1.703  -3.705  1.00  0.00    -0.000 C 
BRANCH  11  12
ATOM     12  C   UNL     1      -6.628   2.323  -2.561  1.00  0.00    -0.000 C 
BRANCH  12  13
ATOM     13  C   UNL     1      -5.308   1.597  -2.240  1.00  0.00    -0.000 C 
BRANCH  13  14
ATOM     14  C   UNL     1      -5.034   1.493  -0.730  1.00  0.00    -0.000 C 
BRANCH  14  15
ATOM     15  C   UNL     1      -5.565   2.706   0.048  1.00  0.00    -0.003 C 
ATOM     16  C   UNL     1      -5.382   2.569   1.560  1.00  0.00     0.004 C 
ENDBRANCH  14  15
ENDBRANCH  13  14
ENDBRANCH  12  13
ENDBRANCH  11  12
ENDBRANCH  10  11
ENDBRANCH   1  10
TORSDOF 12
ENDMDL
MODEL 8
REMARK VINA RESULT:    -2.967     14.041     15.405
REMARK INTER + INTRA:          -5.881
REMARK INTER:                  -4.391
REMARK INTRA:                  -1.490
REMARK UNBOUND:                -0.832
REMARK SMILES CCCCCCCCCCCCCC(=O)[O-]
REMARK SMILES IDX 8 1 9 2 10 3 11 4 12 5 13 6 14 7 15 8 16 9 7 10 6 11 5 12
REMARK SMILES IDX 4 13 3 14 2 15 1 16
REMARK H PARENT
REMARK Flexibility Score: inf
ROOT
ATOM      1  C   UNL     1       5.528   7.320  -2.883  1.00  0.00     0.000 C 
ENDROOT
BRANCH   1   2
ATOM      2  C   UNL     1       4.340   8.042  -3.538  1.00  0.00     0.000 C 
BRANCH   2   3
ATOM      3  C   UNL     1       4.598   9.553  -3.624  1.00  0.00     0.000 C 
BRANCH   3   4
ATOM      4  C   UNL     1       4.625  10.069  -5.072  1.00  0.00     0.000 C 
BRANCH   4   5
ATOM      5  C   UNL     1       4.519   8.935  -6.107  1.00  0.00     0.006 C 
BRANCH   5   6
ATOM      6  C   UNL     1       3.775   9.376  -7.374  1.00  0.00     0.053 C 
BRANCH   6   7
ATOM      7  C   UNL     1       4.680   9.418  -8.568  1.00  0.00     0.041 C 
ATOM      8  O   UNL     1       4.217   9.695  -9.705  1.00  0.00    -0.550 OA
ATOM      9  O   UNL     1       6.041   9.179  -8.418  1.00  0.00    -0.550 OA
ENDBRANCH   6   7
ENDBRANCH   5   6
ENDBRANCH   4   5
ENDBRANCH   3   4
ENDBRANCH   2   3
ENDBRANCH   1   2
BRANCH   1  10
ATOM     10  C   UNL     1       6.335   8.237  -1.949  1.00  0.00     0.000 C 
BRANCH  10  11
ATOM     11  C   UNL     1       7.828   7.868  -1.904  1.00  0.00    -0.000 C 
BRANCH  11  12
ATOM     12  C   UNL     1       8.220   6.822  -2.964  1.00  0.00    -0.000 C 
BRANCH  12  13
ATOM     13  C   UNL     1       9.625   7.002  -3.569  1.00  0.00    -0.000 C 
BRANCH  13  14
ATOM     14  C   UNL     1       9.694   8.150  -4.591  1.00  0.00    -0.000 C 
BRANCH  14  15
ATOM     15  C   UNL     1       8.336   8.431  -5.251  1.00  0.00    -0.003 C 
ATOM     16  C   UNL     1       8.174   9.890  -5.679  1.00  0.00     0.004 C 
ENDBRANCH  14  15
ENDBRANCH  13  14
ENDBRANCH  12  13
ENDBRANCH  11  12
ENDBRANCH  10  11
ENDBRANCH   1  10
TORSDOF 12
ENDMDL
MODEL 9
REMARK VINA RESULT:    -2.943     14.470     15.892
REMARK INTER + INTRA:          -5.839
REMARK INTER:                  -4.439
REMARK INTRA:                  -1.400
REMARK UNBOUND:                -0.832
REMARK SMILES CCCCCCCCCCCCCC(=O)[O-]
REMARK SMILES IDX 8 1 9 2 10 3 11 4 12 5 13 6 14 7 15 8 16 9 7 10 6 11 5 12
REMARK SMILES IDX 4 13 3 14 2 15 1 16
REMARK H PARENT
REMARK Flexibility Score: inf
ROOT
ATOM      1  C   UNL     1       5.493   8.173  -2.625  1.00  0.00     0.000 C 
ENDROOT
BRANCH   1   2
ATOM      2  C   UNL     1       4.655   8.043  -3.906  1.00  0.00     0.000 C 
BRANCH   2   3
ATOM      3  C   UNL     1       4.963   9.188  -4.881  1.00  0.00     0.000 C 
BRANCH   3   4
ATOM      4  C   UNL     1       4.132   9.108  -6.172  1.00  0.00     0.000 C 
BRANCH   4   5
ATOM      5  C   UNL     1       4.999   8.875  -7.421  1.00  0.00     0.006 C 
BRANCH   5   6
ATOM      6  C   UNL     1       6.490   9.102  -7.141  1.00  0.00     0.053 C 
BRANCH   6   7
ATOM      7  C   UNL     1       7.339   8.770  -8.330  1.00  0.00     0.041 C 
ATOM      8  O   UNL     1       7.037   9.215  -9.468  1.00  0.00    -0.550 OA
ATOM      9  O   UNL     1       8.480   7.992  -8.175  1.00  0.00    -0.550 OA
ENDBRANCH   6   7
ENDBRANCH   5   6
ENDBRANCH   4   5
ENDBRANCH   3   4
ENDBRANCH   2   3
ENDBRANCH   1   2
BRANCH   1  10
ATOM     10  C   UNL     1       5.624   9.629  -2.150  1.00  0.00     0.000 C 
BRANCH  10  11
ATOM     11  C   UNL     1       7.041   9.964  -1.650  1.00  0.00    -0.000 C 
BRANCH  11  12
ATOM     12  C   UNL     1       7.702   8.794  -0.899  1.00  0.00    -0.000 C 
BRANCH  12  13
ATOM     13  C   UNL     1       9.056   8.334  -1.472  1.00  0.00    -0.000 C 
BRANCH  13  14
ATOM     14  C   UNL     1       8.959   7.006  -2.245  1.00  0.00    -0.000 C 
BRANCH  14  15
ATOM     15  C   UNL     1       9.471   7.129  -3.688  1.00  0.00    -0.003 C 
ATOM     16  C   UNL     1       8.802   8.265  -4.461  1.00  0.00     0.004 C 
ENDBRANCH  14  15
ENDBRANCH  13  14
ENDBRANCH  12  13
ENDBRANCH  11  12
ENDBRANCH  10  11
ENDBRANCH   1  10
TORSDOF 12
ENDMDL
