MODEL 1
REMARK VINA RESULT:    -3.402      0.000      0.000
REMARK INTER + INTRA:          -5.987
REMARK INTER:                  -4.794
REMARK INTRA:                  -1.193
REMARK UNBOUND:                -1.193
REMARK SMILES O=c1cc(-c2ccc(O)c(O)c2)oc2cc(O)c([C@@H]3O[C@@H](CO)[C@H](O)[C@H](O)[C@H]3O)c(O)c12
REMARK SMILES IDX 4 1 3 2 2 3 1 4 32 5 14 6 13 7 15 8 16 9 18 10 30 11 5 12
REMARK SMILES IDX 6 13 7 14 8 15 12 16 10 17 9 18 11 20 31 22 17 24 19 26
REMARK SMILES IDX 28 27 20 28 26 29 21 30 24 31 29 32 27 34 22 36 23 37 25 39
REMARK H PARENT 9 19 11 21 31 23 17 25 29 33 27 35 23 38 25 40
REMARK Flexibility Score: inf
ROOT
ATOM      1  C   UNL     1     -44.656 -24.702  40.321  1.00  0.00     0.138 A 
ATOM      2  C   UNL     1     -45.722 -25.536  40.676  1.00  0.00     0.100 A 
ATOM      3  C   UNL     1     -45.979 -25.785  42.025  1.00  0.00     0.197 A 
ATOM      4  O   UNL     1     -46.982 -26.488  42.312  1.00  0.00    -0.289 OA
ATOM      5  C   UNL     1     -45.141 -25.225  43.023  1.00  0.00     0.107 A 
ATOM      6  C   UNL     1     -44.127 -24.348  42.572  1.00  0.00     0.146 A 
ATOM      7  O   UNL     1     -43.924 -24.141  41.275  1.00  0.00    -0.456 OA
ATOM      8  C   UNL     1     -43.315 -23.679  43.479  1.00  0.00     0.094 A 
ATOM      9  C   UNL     1     -43.461 -23.861  44.850  1.00  0.00     0.128 A 
ATOM     10  C   UNL     1     -44.432 -24.769  45.347  1.00  0.00     0.068 A 
ATOM     11  C   UNL     1     -45.261 -25.470  44.427  1.00  0.00     0.140 A 
ENDROOT
BRANCH   1  12
ATOM     12  C   UNL     1     -44.304 -24.440  38.903  1.00  0.00     0.021 A 
ATOM     13  C   UNL     1     -43.533 -23.309  38.581  1.00  0.00     0.016 A 
ATOM     14  C   UNL     1     -43.194 -23.036  37.254  1.00  0.00     0.051 A 
ATOM     15  C   UNL     1     -43.635 -23.877  36.226  1.00  0.00     0.157 A 
ATOM     16  C   UNL     1     -44.753 -25.278  37.862  1.00  0.00     0.062 A 
ATOM     17  C   UNL     1     -44.419 -24.999  36.529  1.00  0.00     0.158 A 
BRANCH  15  18
ATOM     18  O   UNL     1     -43.299 -23.606  34.902  1.00  0.00    -0.504 OA
ATOM     19  H   UNL     1     -42.416 -23.176  34.655  1.00  0.00     0.293 HD
ENDBRANCH  15  18
BRANCH  17  20
ATOM     20  O   UNL     1     -44.865 -25.827  35.499  1.00  0.00    -0.504 OA
ATOM     21  H   UNL     1     -44.226 -26.402  34.967  1.00  0.00     0.293 HD
ENDBRANCH  17  20
ENDBRANCH   1  12
BRANCH  11  22
ATOM     22  O   UNL     1     -46.157 -26.411  44.955  1.00  0.00    -0.506 OA
ATOM     23  H   UNL     1     -46.429 -27.285  44.531  1.00  0.00     0.293 HD
ENDBRANCH  11  22
BRANCH   9  24
ATOM     24  O   UNL     1     -42.602 -23.126  45.671  1.00  0.00    -0.507 OA
ATOM     25  H   UNL     1     -41.643 -22.908  45.453  1.00  0.00     0.293 HD
ENDBRANCH   9  24
BRANCH  10  26
ATOM     26  C   UNL     1     -44.541 -25.077  46.844  1.00  0.00     0.188 C 
ATOM     27  C   UNL     1     -43.446 -26.079  47.277  1.00  0.00     0.179 C 
ATOM     28  O   UNL     1     -44.533 -23.863  47.588  1.00  0.00    -0.362 OA
ATOM     29  C   UNL     1     -43.627 -26.474  48.761  1.00  0.00     0.177 C 
ATOM     30  C   UNL     1     -44.110 -23.986  48.946  1.00  0.00     0.176 C 
ATOM     31  C   UNL     1     -44.389 -25.385  49.556  1.00  0.00     0.177 C 
BRANCH  27  32
ATOM     32  O   UNL     1     -43.498 -27.231  46.471  1.00  0.00    -0.387 OA
ATOM     33  H   UNL     1     -44.449 -27.525  46.460  1.00  0.00     0.211 HD
ENDBRANCH  27  32
BRANCH  29  34
ATOM     34  O   UNL     1     -42.357 -26.701  49.323  1.00  0.00    -0.387 OA
ATOM     35  H   UNL     1     -41.923 -27.422  48.796  1.00  0.00     0.211 HD
ENDBRANCH  29  34
BRANCH  30  36
ATOM     36  C   UNL     1     -44.803 -22.876  49.755  1.00  0.00     0.191 C 
BRANCH  36  37
ATOM     37  O   UNL     1     -45.714 -23.419  50.673  1.00  0.00    -0.394 OA
ATOM     38  H   UNL     1     -46.551 -22.887  50.594  1.00  0.00     0.210 HD
ENDBRANCH  36  37
ENDBRANCH  30  36
BRANCH  31  39
ATOM     39  O   UNL     1     -44.022 -25.420  50.911  1.00  0.00    -0.388 OA
ATOM     40  H   UNL     1     -43.374 -26.165  51.011  1.00  0.00     0.211 HD
ENDBRANCH  31  39
ENDBRANCH  10  26
TORSDOF 11
ENDMDL
MODEL 2
REMARK VINA RESULT:    -3.258     20.721     22.246
REMARK INTER + INTRA:          -5.784
REMARK INTER:                  -4.461
REMARK INTRA:                  -1.324
REMARK UNBOUND:                -1.193
REMARK SMILES O=c1cc(-c2ccc(O)c(O)c2)oc2cc(O)c([C@@H]3O[C@@H](CO)[C@H](O)[C@H](O)[C@H]3O)c(O)c12
REMARK SMILES IDX 4 1 3 2 2 3 1 4 32 5 14 6 13 7 15 8 16 9 18 10 30 11 5 12
REMARK SMILES IDX 6 13 7 14 8 15 12 16 10 17 9 18 11 20 31 22 17 24 19 26
REMARK SMILES IDX 28 27 20 28 26 29 21 30 24 31 29 32 27 34 22 36 23 37 25 39
REMARK H PARENT 9 19 11 21 31 23 17 25 29 33 27 35 23 38 25 40
REMARK Flexibility Score: inf
ROOT
ATOM      1  C   UNL     1     -27.755 -39.890  42.000  1.00  0.00     0.138 A 
ATOM      2  C   UNL     1     -27.353 -38.751  42.706  1.00  0.00     0.100 A 
ATOM      3  C   UNL     1     -27.625 -38.656  44.072  1.00  0.00     0.197 A 
ATOM      4  O   UNL     1     -27.196 -37.648  44.688  1.00  0.00    -0.289 OA
ATOM      5  C   UNL     1     -28.337 -39.694  44.727  1.00  0.00     0.107 A 
ATOM      6  C   UNL     1     -28.649 -40.832  43.946  1.00  0.00     0.146 A 
ATOM      7  O   UNL     1     -28.365 -40.874  42.648  1.00  0.00    -0.456 OA
ATOM      8  C   UNL     1     -29.262 -41.938  44.521  1.00  0.00     0.094 A 
ATOM      9  C   UNL     1     -29.603 -41.955  45.869  1.00  0.00     0.128 A 
ATOM     10  C   UNL     1     -29.354 -40.817  46.680  1.00  0.00     0.068 A 
ATOM     11  C   UNL     1     -28.738 -39.674  46.099  1.00  0.00     0.140 A 
ENDROOT
BRANCH   1  12
ATOM     12  C   UNL     1     -27.536 -40.025  40.539  1.00  0.00     0.021 A 
ATOM     13  C   UNL     1     -27.420 -41.307  39.974  1.00  0.00     0.016 A 
ATOM     14  C   UNL     1     -27.208 -41.462  38.602  1.00  0.00     0.051 A 
ATOM     15  C   UNL     1     -27.089 -40.338  37.775  1.00  0.00     0.157 A 
ATOM     16  C   UNL     1     -27.405 -38.897  39.703  1.00  0.00     0.062 A 
ATOM     17  C   UNL     1     -27.184 -39.052  38.326  1.00  0.00     0.158 A 
BRANCH  15  18
ATOM     18  O   UNL     1     -26.875 -40.489  36.408  1.00  0.00    -0.504 OA
ATOM     19  H   UNL     1     -27.646 -40.582  35.757  1.00  0.00     0.293 HD
ENDBRANCH  15  18
BRANCH  17  20
ATOM     20  O   UNL     1     -27.053 -37.937  37.500  1.00  0.00    -0.504 OA
ATOM     21  H   UNL     1     -27.142 -38.008  36.495  1.00  0.00     0.293 HD
ENDBRANCH  17  20
ENDBRANCH   1  12
BRANCH  11  22
ATOM     22  O   UNL     1     -28.577 -38.545  46.916  1.00  0.00    -0.506 OA
ATOM     23  H   UNL     1     -28.799 -38.477  47.897  1.00  0.00     0.293 HD
ENDBRANCH  11  22
BRANCH   9  24
ATOM     24  O   UNL     1     -30.200 -43.125  46.345  1.00  0.00    -0.507 OA
ATOM     25  H   UNL     1     -30.982 -43.156  46.980  1.00  0.00     0.293 HD
ENDBRANCH   9  24
BRANCH  10  26
ATOM     26  C   UNL     1     -29.820 -40.762  48.139  1.00  0.00     0.188 C 
ATOM     27  C   UNL     1     -31.326 -40.421  48.219  1.00  0.00     0.179 C 
ATOM     28  O   UNL     1     -29.470 -41.973  48.801  1.00  0.00    -0.362 OA
ATOM     29  C   UNL     1     -31.767 -40.257  49.692  1.00  0.00     0.177 C 
ATOM     30  C   UNL     1     -30.260 -42.285  49.949  1.00  0.00     0.176 C 
ATOM     31  C   UNL     1     -30.841 -41.034  50.659  1.00  0.00     0.177 C 
BRANCH  27  32
ATOM     32  O   UNL     1     -31.593 -39.236  47.510  1.00  0.00    -0.387 OA
ATOM     33  H   UNL     1     -32.398 -38.831  47.932  1.00  0.00     0.211 HD
ENDBRANCH  27  32
BRANCH  29  34
ATOM     34  O   UNL     1     -33.097 -40.700  49.814  1.00  0.00    -0.387 OA
ATOM     35  H   UNL     1     -33.144 -41.280  50.619  1.00  0.00     0.211 HD
ENDBRANCH  29  34
BRANCH  30  36
ATOM     36  C   UNL     1     -29.386 -43.114  50.907  1.00  0.00     0.191 C 
BRANCH  36  37
ATOM     37  O   UNL     1     -28.663 -42.282  51.774  1.00  0.00    -0.394 OA
ATOM     38  H   UNL     1     -27.903 -41.914  51.250  1.00  0.00     0.210 HD
ENDBRANCH  36  37
ENDBRANCH  30  36
BRANCH  31  39
ATOM     39  O   UNL     1     -31.541 -41.401  51.821  1.00  0.00    -0.388 OA
ATOM     40  H   UNL     1     -32.072 -40.608  52.095  1.00  0.00     0.211 HD
ENDBRANCH  31  39
ENDBRANCH  10  26
TORSDOF 11
ENDMDL
MODEL 3
REMARK VINA RESULT:    -3.154      2.061     10.036
REMARK INTER + INTRA:          -5.638
REMARK INTER:                  -4.363
REMARK INTRA:                  -1.275
REMARK UNBOUND:                -1.193
REMARK SMILES O=c1cc(-c2ccc(O)c(O)c2)oc2cc(O)c([C@@H]3O[C@@H](CO)[C@H](O)[C@H](O)[C@H]3O)c(O)c12
REMARK SMILES IDX 4 1 3 2 2 3 1 4 32 5 14 6 13 7 15 8 16 9 18 10 30 11 5 12
REMARK SMILES IDX 6 13 7 14 8 15 12 16 10 17 9 18 11 20 31 22 17 24 19 26
REMARK SMILES IDX 28 27 20 28 26 29 21 30 24 31 29 32 27 34 22 36 23 37 25 39
REMARK H PARENT 9 19 11 21 31 23 17 25 29 33 27 35 23 38 25 40
REMARK Flexibility Score: inf
ROOT
ATOM      1  C   UNL     1     -44.204 -24.111  43.994  1.00  0.00     0.138 A 
ATOM      2  C   UNL     1     -45.306 -23.379  43.538  1.00  0.00     0.100 A 
ATOM      3  C   UNL     1     -45.708 -23.499  42.207  1.00  0.00     0.197 A 
ATOM      4  O   UNL     1     -46.739 -22.875  41.846  1.00  0.00    -0.289 OA
ATOM      5  C   UNL     1     -44.979 -24.329  41.317  1.00  0.00     0.107 A 
ATOM      6  C   UNL     1     -43.918 -25.075  41.881  1.00  0.00     0.146 A 
ATOM      7  O   UNL     1     -43.576 -24.928  43.157  1.00  0.00    -0.456 OA
ATOM      8  C   UNL     1     -43.205 -25.985  41.110  1.00  0.00     0.094 A 
ATOM      9  C   UNL     1     -43.498 -26.177  39.764  1.00  0.00     0.128 A 
ATOM     10  C   UNL     1     -44.522 -25.415  39.144  1.00  0.00     0.068 A 
ATOM     11  C   UNL     1     -45.250 -24.471  39.920  1.00  0.00     0.140 A 
ENDROOT
BRANCH   1  12
ATOM     12  C   UNL     1     -43.701 -23.988  45.384  1.00  0.00     0.021 A 
ATOM     13  C   UNL     1     -42.335 -23.743  45.605  1.00  0.00     0.016 A 
ATOM     14  C   UNL     1     -41.835 -23.629  46.905  1.00  0.00     0.051 A 
ATOM     15  C   UNL     1     -42.689 -23.777  48.004  1.00  0.00     0.157 A 
ATOM     16  C   UNL     1     -44.554 -24.146  46.496  1.00  0.00     0.062 A 
ATOM     17  C   UNL     1     -44.051 -24.040  47.801  1.00  0.00     0.158 A 
BRANCH  15  18
ATOM     18  O   UNL     1     -42.193 -23.666  49.301  1.00  0.00    -0.504 OA
ATOM     19  H   UNL     1     -42.807 -23.519  50.093  1.00  0.00     0.293 HD
ENDBRANCH  15  18
BRANCH  17  20
ATOM     20  O   UNL     1     -44.894 -24.198  48.900  1.00  0.00    -0.504 OA
ATOM     21  H   UNL     1     -45.516 -24.992  48.981  1.00  0.00     0.293 HD
ENDBRANCH  17  20
ENDBRANCH   1  12
BRANCH  11  22
ATOM     22  O   UNL     1     -46.202 -23.686  39.253  1.00  0.00    -0.506 OA
ATOM     23  H   UNL     1     -46.128 -23.320  38.316  1.00  0.00     0.293 HD
ENDBRANCH  11  22
BRANCH   9  24
ATOM     24  O   UNL     1     -42.729 -27.129  39.090  1.00  0.00    -0.507 OA
ATOM     25  H   UNL     1     -42.093 -27.773  39.531  1.00  0.00     0.293 HD
ENDBRANCH   9  24
BRANCH  10  26
ATOM     26  C   UNL     1     -44.792 -25.521  37.640  1.00  0.00     0.188 C 
ATOM     27  C   UNL     1     -43.736 -24.727  36.837  1.00  0.00     0.179 C 
ATOM     28  O   UNL     1     -44.886 -26.891  37.263  1.00  0.00    -0.362 OA
ATOM     29  C   UNL     1     -44.074 -24.743  35.329  1.00  0.00     0.177 C 
ATOM     30  C   UNL     1     -44.616 -27.162  35.888  1.00  0.00     0.176 C 
ATOM     31  C   UNL     1     -44.939 -25.970  34.948  1.00  0.00     0.177 C 
BRANCH  27  32
ATOM     32  O   UNL     1     -43.678 -23.398  37.295  1.00  0.00    -0.387 OA
ATOM     33  H   UNL     1     -44.523 -22.962  37.001  1.00  0.00     0.211 HD
ENDBRANCH  27  32
BRANCH  29  34
ATOM     34  O   UNL     1     -42.872 -24.737  34.598  1.00  0.00    -0.387 OA
ATOM     35  H   UNL     1     -42.181 -24.306  35.166  1.00  0.00     0.211 HD
ENDBRANCH  29  34
BRANCH  30  36
ATOM     36  C   UNL     1     -45.413 -28.417  35.491  1.00  0.00     0.191 C 
BRANCH  36  37
ATOM     37  O   UNL     1     -44.833 -29.052  34.384  1.00  0.00    -0.394 OA
ATOM     38  H   UNL     1     -45.414 -28.852  33.602  1.00  0.00     0.210 HD
ENDBRANCH  36  37
ENDBRANCH  30  36
BRANCH  31  39
ATOM     39  O   UNL     1     -44.725 -26.324  33.605  1.00  0.00    -0.388 OA
ATOM     40  H   UNL     1     -44.066 -27.066  33.608  1.00  0.00     0.211 HD
ENDBRANCH  31  39
ENDBRANCH  10  26
TORSDOF 11
ENDMDL
MODEL 4
REMARK VINA RESULT:    -3.148     14.888     18.612
REMARK INTER + INTRA:          -5.629
REMARK INTER:                  -4.326
REMARK INTRA:                  -1.303
REMARK UNBOUND:                -1.193
REMARK SMILES O=c1cc(-c2ccc(O)c(O)c2)oc2cc(O)c([C@@H]3O[C@@H](CO)[C@H](O)[C@H](O)[C@H]3O)c(O)c12
REMARK SMILES IDX 4 1 3 2 2 3 1 4 32 5 14 6 13 7 15 8 16 9 18 10 30 11 5 12
REMARK SMILES IDX 6 13 7 14 8 15 12 16 10 17 9 18 11 20 31 22 17 24 19 26
REMARK SMILES IDX 28 27 20 28 26 29 21 30 24 31 29 32 27 34 22 36 23 37 25 39
REMARK H PARENT 9 19 11 21 31 23 17 25 29 33 27 35 23 38 25 40
REMARK Flexibility Score: inf
ROOT
ATOM      1  C   UNL     1     -45.965 -40.488  44.291  1.00  0.00     0.138 A 
ATOM      2  C   UNL     1     -46.661 -41.624  43.864  1.00  0.00     0.100 A 
ATOM      3  C   UNL     1     -46.535 -42.050  42.540  1.00  0.00     0.197 A 
ATOM      4  O   UNL     1     -47.125 -43.109  42.206  1.00  0.00    -0.289 OA
ATOM      5  C   UNL     1     -45.737 -41.311  41.630  1.00  0.00     0.107 A 
ATOM      6  C   UNL     1     -45.024 -40.213  42.167  1.00  0.00     0.146 A 
ATOM      7  O   UNL     1     -45.176 -39.849  43.436  1.00  0.00    -0.456 OA
ATOM      8  C   UNL     1     -44.145 -39.486  41.375  1.00  0.00     0.094 A 
ATOM      9  C   UNL     1     -43.951 -39.800  40.034  1.00  0.00     0.128 A 
ATOM     10  C   UNL     1     -44.681 -40.862  39.440  1.00  0.00     0.068 A 
ATOM     11  C   UNL     1     -45.594 -41.606  40.238  1.00  0.00     0.140 A 
ENDROOT
BRANCH   1  12
ATOM     12  C   UNL     1     -46.097 -39.960  45.672  1.00  0.00     0.021 A 
ATOM     13  C   UNL     1     -46.274 -38.580  45.869  1.00  0.00     0.016 A 
ATOM     14  C   UNL     1     -46.395 -38.057  47.159  1.00  0.00     0.051 A 
ATOM     15  C   UNL     1     -46.322 -38.902  48.272  1.00  0.00     0.157 A 
ATOM     16  C   UNL     1     -46.014 -40.805  46.797  1.00  0.00     0.062 A 
ATOM     17  C   UNL     1     -46.127 -40.279  48.093  1.00  0.00     0.158 A 
BRANCH  15  18
ATOM     18  O   UNL     1     -46.439 -38.384  49.559  1.00  0.00    -0.504 OA
ATOM     19  H   UNL     1     -45.625 -38.133  50.107  1.00  0.00     0.293 HD
ENDBRANCH  15  18
BRANCH  17  20
ATOM     20  O   UNL     1     -46.043 -41.115  49.206  1.00  0.00    -0.504 OA
ATOM     21  H   UNL     1     -46.848 -41.623  49.549  1.00  0.00     0.293 HD
ENDBRANCH  17  20
ENDBRANCH   1  12
BRANCH  11  22
ATOM     22  O   UNL     1     -46.349 -42.599  39.596  1.00  0.00    -0.506 OA
ATOM     23  H   UNL     1     -46.919 -43.302  40.042  1.00  0.00     0.293 HD
ENDBRANCH  11  22
BRANCH   9  24
ATOM     24  O   UNL     1     -43.031 -39.012  39.337  1.00  0.00    -0.507 OA
ATOM     25  H   UNL     1     -42.516 -39.311  38.524  1.00  0.00     0.293 HD
ENDBRANCH   9  24
BRANCH  10  26
ATOM     26  C   UNL     1     -44.575 -41.161  37.941  1.00  0.00     0.188 C 
ATOM     27  C   UNL     1     -45.404 -40.145  37.121  1.00  0.00     0.179 C 
ATOM     28  O   UNL     1     -43.204 -41.222  37.559  1.00  0.00    -0.362 OA
ATOM     29  C   UNL     1     -45.385 -40.514  35.620  1.00  0.00     0.177 C 
ATOM     30  C   UNL     1     -42.949 -40.973  36.176  1.00  0.00     0.176 C 
ATOM     31  C   UNL     1     -44.135 -41.350  35.250  1.00  0.00     0.177 C 
BRANCH  27  32
ATOM     32  O   UNL     1     -46.731 -40.116  37.585  1.00  0.00    -0.387 OA
ATOM     33  H   UNL     1     -47.312 -40.228  36.785  1.00  0.00     0.211 HD
ENDBRANCH  27  32
BRANCH  29  34
ATOM     34  O   UNL     1     -45.430 -39.328  34.865  1.00  0.00    -0.387 OA
ATOM     35  H   UNL     1     -44.897 -38.645  35.351  1.00  0.00     0.211 HD
ENDBRANCH  29  34
BRANCH  30  36
ATOM     36  C   UNL     1     -41.673 -41.741  35.789  1.00  0.00     0.191 C 
BRANCH  36  37
ATOM     37  O   UNL     1     -41.985 -43.018  35.300  1.00  0.00    -0.394 OA
ATOM     38  H   UNL     1     -41.161 -43.367  34.866  1.00  0.00     0.210 HD
ENDBRANCH  36  37
ENDBRANCH  30  36
BRANCH  31  39
ATOM     39  O   UNL     1     -43.795 -41.154  33.901  1.00  0.00    -0.388 OA
ATOM     40  H   UNL     1     -44.204 -41.903  33.393  1.00  0.00     0.211 HD
ENDBRANCH  31  39
ENDBRANCH  10  26
TORSDOF 11
ENDMDL
MODEL 5
REMARK VINA RESULT:    -3.143      2.677      9.585
REMARK INTER + INTRA:          -5.623
REMARK INTER:                  -4.651
REMARK INTRA:                  -0.972
REMARK UNBOUND:                -1.193
REMARK SMILES O=c1cc(-c2ccc(O)c(O)c2)oc2cc(O)c([C@@H]3O[C@@H](CO)[C@H](O)[C@H](O)[C@H]3O)c(O)c12
REMARK SMILES IDX 4 1 3 2 2 3 1 4 32 5 14 6 13 7 15 8 16 9 18 10 30 11 5 12
REMARK SMILES IDX 6 13 7 14 8 15 12 16 10 17 9 18 11 20 31 22 17 24 19 26
REMARK SMILES IDX 28 27 20 28 26 29 21 30 24 31 29 32 27 34 22 36 23 37 25 39
REMARK H PARENT 9 19 11 21 31 23 17 25 29 33 27 35 23 38 25 40
REMARK Flexibility Score: inf
ROOT
ATOM      1  C   UNL     1     -42.339 -23.941  46.814  1.00  0.00     0.138 A 
ATOM      2  C   UNL     1     -41.767 -23.299  45.710  1.00  0.00     0.100 A 
ATOM      3  C   UNL     1     -42.291 -23.524  44.436  1.00  0.00     0.197 A 
ATOM      4  O   UNL     1     -41.793 -22.885  43.475  1.00  0.00    -0.289 OA
ATOM      5  C   UNL     1     -43.371 -24.427  44.262  1.00  0.00     0.107 A 
ATOM      6  C   UNL     1     -43.923 -24.981  45.441  1.00  0.00     0.146 A 
ATOM      7  O   UNL     1     -43.389 -24.733  46.633  1.00  0.00    -0.456 OA
ATOM      8  C   UNL     1     -45.041 -25.803  45.380  1.00  0.00     0.094 A 
ATOM      9  C   UNL     1     -45.641 -26.118  44.165  1.00  0.00     0.128 A 
ATOM     10  C   UNL     1     -45.093 -25.625  42.953  1.00  0.00     0.068 A 
ATOM     11  C   UNL     1     -43.939 -24.793  43.002  1.00  0.00     0.140 A 
ENDROOT
BRANCH   1  12
ATOM     12  C   UNL     1     -41.796 -23.778  48.185  1.00  0.00     0.021 A 
ATOM     13  C   UNL     1     -42.533 -23.054  49.138  1.00  0.00     0.016 A 
ATOM     14  C   UNL     1     -42.041 -22.881  50.434  1.00  0.00     0.051 A 
ATOM     15  C   UNL     1     -40.797 -23.413  50.793  1.00  0.00     0.157 A 
ATOM     16  C   UNL     1     -40.539 -24.304  48.550  1.00  0.00     0.062 A 
ATOM     17  C   UNL     1     -40.042 -24.123  49.849  1.00  0.00     0.158 A 
BRANCH  15  18
ATOM     18  O   UNL     1     -40.303 -23.240  52.084  1.00  0.00    -0.504 OA
ATOM     19  H   UNL     1     -39.332 -23.006  52.253  1.00  0.00     0.293 HD
ENDBRANCH  15  18
BRANCH  17  20
ATOM     20  O   UNL     1     -38.798 -24.641  50.209  1.00  0.00    -0.504 OA
ATOM     21  H   UNL     1     -38.187 -25.074  49.529  1.00  0.00     0.293 HD
ENDBRANCH  17  20
ENDBRANCH   1  12
BRANCH  11  22
ATOM     22  O   UNL     1     -43.386 -24.386  41.779  1.00  0.00    -0.506 OA
ATOM     23  H   UNL     1     -42.433 -24.096  41.618  1.00  0.00     0.293 HD
ENDBRANCH  11  22
BRANCH   9  24
ATOM     24  O   UNL     1     -46.770 -26.939  44.223  1.00  0.00    -0.507 OA
ATOM     25  H   UNL     1     -46.759 -27.918  44.462  1.00  0.00     0.293 HD
ENDBRANCH   9  24
BRANCH  10  26
ATOM     26  C   UNL     1     -45.660 -26.045  41.594  1.00  0.00     0.188 C 
ATOM     27  C   UNL     1     -46.194 -24.817  40.820  1.00  0.00     0.179 C 
ATOM     28  O   UNL     1     -44.686 -26.795  40.876  1.00  0.00    -0.362 OA
ATOM     29  C   UNL     1     -46.866 -25.256  39.500  1.00  0.00     0.177 C 
ATOM     30  C   UNL     1     -44.851 -26.803  39.458  1.00  0.00     0.176 C 
ATOM     31  C   UNL     1     -46.324 -26.620  39.005  1.00  0.00     0.177 C 
BRANCH  27  32
ATOM     32  O   UNL     1     -47.119 -24.111  41.611  1.00  0.00    -0.387 OA
ATOM     33  H   UNL     1     -47.009 -23.149  41.382  1.00  0.00     0.211 HD
ENDBRANCH  27  32
BRANCH  29  34
ATOM     34  O   UNL     1     -46.653 -24.257  38.532  1.00  0.00    -0.387 OA
ATOM     35  H   UNL     1     -46.569 -23.392  39.013  1.00  0.00     0.211 HD
ENDBRANCH  29  34
BRANCH  30  36
ATOM     36  C   UNL     1     -44.264 -28.121  38.925  1.00  0.00     0.191 C 
BRANCH  36  37
ATOM     37  O   UNL     1     -43.742 -27.953  37.634  1.00  0.00    -0.394 OA
ATOM     38  H   UNL     1     -42.925 -27.394  37.726  1.00  0.00     0.210 HD
ENDBRANCH  36  37
ENDBRANCH  30  36
BRANCH  31  39
ATOM     39  O   UNL     1     -46.430 -26.713  37.607  1.00  0.00    -0.388 OA
ATOM     40  H   UNL     1     -45.504 -26.780  37.255  1.00  0.00     0.211 HD
ENDBRANCH  31  39
ENDBRANCH  10  26
TORSDOF 11
ENDMDL
MODEL 6
REMARK VINA RESULT:    -3.120     15.161     18.600
REMARK INTER + INTRA:          -5.590
REMARK INTER:                  -4.479
REMARK INTRA:                  -1.111
REMARK UNBOUND:                -1.193
REMARK SMILES O=c1cc(-c2ccc(O)c(O)c2)oc2cc(O)c([C@@H]3O[C@@H](CO)[C@H](O)[C@H](O)[C@H]3O)c(O)c12
REMARK SMILES IDX 4 1 3 2 2 3 1 4 32 5 14 6 13 7 15 8 16 9 18 10 30 11 5 12
REMARK SMILES IDX 6 13 7 14 8 15 12 16 10 17 9 18 11 20 31 22 17 24 19 26
REMARK SMILES IDX 28 27 20 28 26 29 21 30 24 31 29 32 27 34 22 36 23 37 25 39
REMARK H PARENT 9 19 11 21 31 23 17 25 29 33 27 35 23 38 25 40
REMARK Flexibility Score: inf
ROOT
ATOM      1  C   UNL     1     -27.596 -26.771  45.994  1.00  0.00     0.138 A 
ATOM      2  C   UNL     1     -27.436 -27.954  45.263  1.00  0.00     0.100 A 
ATOM      3  C   UNL     1     -27.681 -27.951  43.889  1.00  0.00     0.197 A 
ATOM      4  O   UNL     1     -27.469 -29.015  43.253  1.00  0.00    -0.289 OA
ATOM      5  C   UNL     1     -28.125 -26.766  43.250  1.00  0.00     0.107 A 
ATOM      6  C   UNL     1     -28.199 -25.606  44.057  1.00  0.00     0.146 A 
ATOM      7  O   UNL     1     -27.953 -25.660  45.362  1.00  0.00    -0.456 OA
ATOM      8  C   UNL     1     -28.534 -24.378  43.502  1.00  0.00     0.094 A 
ATOM      9  C   UNL     1     -28.822 -24.252  42.147  1.00  0.00     0.128 A 
ATOM     10  C   UNL     1     -28.808 -25.396  41.308  1.00  0.00     0.068 A 
ATOM     11  C   UNL     1     -28.479 -26.662  41.868  1.00  0.00     0.140 A 
ENDROOT
BRANCH   1  12
ATOM     12  C   UNL     1     -27.396 -26.724  47.464  1.00  0.00     0.021 A 
ATOM     13  C   UNL     1     -27.416 -27.921  48.202  1.00  0.00     0.016 A 
ATOM     14  C   UNL     1     -27.236 -27.903  49.587  1.00  0.00     0.051 A 
ATOM     15  C   UNL     1     -27.052 -26.689  50.259  1.00  0.00     0.157 A 
ATOM     16  C   UNL     1     -27.220 -25.504  48.148  1.00  0.00     0.062 A 
ATOM     17  C   UNL     1     -27.047 -25.486  49.539  1.00  0.00     0.158 A 
BRANCH  15  18
ATOM     18  O   UNL     1     -26.875 -26.668  51.640  1.00  0.00    -0.504 OA
ATOM     19  H   UNL     1     -27.624 -26.920  52.275  1.00  0.00     0.293 HD
ENDBRANCH  15  18
BRANCH  17  20
ATOM     20  O   UNL     1     -26.875 -24.279  50.216  1.00  0.00    -0.504 OA
ATOM     21  H   UNL     1     -25.964 -23.847  50.306  1.00  0.00     0.293 HD
ENDBRANCH  17  20
ENDBRANCH   1  12
BRANCH  11  22
ATOM     22  O   UNL     1     -28.548 -27.778  41.021  1.00  0.00    -0.506 OA
ATOM     23  H   UNL     1     -28.145 -27.859  40.100  1.00  0.00     0.293 HD
ENDBRANCH  11  22
BRANCH   9  24
ATOM     24  O   UNL     1     -29.130 -22.967  41.693  1.00  0.00    -0.507 OA
ATOM     25  H   UNL     1     -29.738 -22.319  42.168  1.00  0.00     0.293 HD
ENDBRANCH   9  24
BRANCH  10  26
ATOM     26  C   UNL     1     -29.230 -25.310  39.838  1.00  0.00     0.188 C 
ATOM     27  C   UNL     1     -28.028 -25.590  38.907  1.00  0.00     0.179 C 
ATOM     28  O   UNL     1     -30.345 -26.164  39.606  1.00  0.00    -0.362 OA
ATOM     29  C   UNL     1     -28.430 -25.394  37.427  1.00  0.00     0.177 C 
ATOM     30  C   UNL     1     -30.515 -26.587  38.253  1.00  0.00     0.176 C 
ATOM     31  C   UNL     1     -29.952 -25.579  37.215  1.00  0.00     0.177 C 
BRANCH  27  32
ATOM     32  O   UNL     1     -26.959 -24.734  39.225  1.00  0.00    -0.387 OA
ATOM     33  H   UNL     1     -26.192 -25.319  39.470  1.00  0.00     0.211 HD
ENDBRANCH  27  32
BRANCH  29  34
ATOM     34  O   UNL     1     -27.704 -26.307  36.639  1.00  0.00    -0.387 OA
ATOM     35  H   UNL     1     -27.930 -27.219  36.958  1.00  0.00     0.211 HD
ENDBRANCH  29  34
BRANCH  30  36
ATOM     36  C   UNL     1     -32.015 -26.842  38.026  1.00  0.00     0.191 C 
BRANCH  36  37
ATOM     37  O   UNL     1     -32.662 -25.676  37.592  1.00  0.00    -0.394 OA
ATOM     38  H   UNL     1     -33.337 -25.448  38.286  1.00  0.00     0.210 HD
ENDBRANCH  36  37
ENDBRANCH  30  36
BRANCH  31  39
ATOM     39  O   UNL     1     -30.217 -26.014  35.906  1.00  0.00    -0.388 OA
ATOM     40  H   UNL     1     -29.363 -25.941  35.404  1.00  0.00     0.211 HD
ENDBRANCH  31  39
ENDBRANCH  10  26
TORSDOF 11
ENDMDL
MODEL 7
REMARK VINA RESULT:    -3.056     14.753     18.564
REMARK INTER + INTRA:          -5.499
REMARK INTER:                  -4.223
REMARK INTRA:                  -1.277
REMARK UNBOUND:                -1.193
REMARK SMILES O=c1cc(-c2ccc(O)c(O)c2)oc2cc(O)c([C@@H]3O[C@@H](CO)[C@H](O)[C@H](O)[C@H]3O)c(O)c12
REMARK SMILES IDX 4 1 3 2 2 3 1 4 32 5 14 6 13 7 15 8 16 9 18 10 30 11 5 12
REMARK SMILES IDX 6 13 7 14 8 15 12 16 10 17 9 18 11 20 31 22 17 24 19 26
REMARK SMILES IDX 28 27 20 28 26 29 21 30 24 31 29 32 27 34 22 36 23 37 25 39
REMARK H PARENT 9 19 11 21 31 23 17 25 29 33 27 35 23 38 25 40
REMARK Flexibility Score: inf
ROOT
ATOM      1  C   UNL     1     -28.089 -25.911  44.090  1.00  0.00     0.138 A 
ATOM      2  C   UNL     1     -27.386 -24.783  43.654  1.00  0.00     0.100 A 
ATOM      3  C   UNL     1     -27.469 -24.397  42.315  1.00  0.00     0.197 A 
ATOM      4  O   UNL     1     -26.875 -23.343  41.969  1.00  0.00    -0.289 OA
ATOM      5  C   UNL     1     -28.231 -25.167  41.399  1.00  0.00     0.107 A 
ATOM      6  C   UNL     1     -28.954 -26.254  41.944  1.00  0.00     0.146 A 
ATOM      7  O   UNL     1     -28.844 -26.580  43.227  1.00  0.00    -0.456 OA
ATOM      8  C   UNL     1     -29.801 -27.011  41.144  1.00  0.00     0.094 A 
ATOM      9  C   UNL     1     -29.951 -26.737  39.789  1.00  0.00     0.128 A 
ATOM     10  C   UNL     1     -29.208 -25.687  39.189  1.00  0.00     0.068 A 
ATOM     11  C   UNL     1     -28.328 -24.914  39.995  1.00  0.00     0.140 A 
ENDROOT
BRANCH   1  12
ATOM     12  C   UNL     1     -28.001 -26.397  45.489  1.00  0.00     0.021 A 
ATOM     13  C   UNL     1     -27.903 -27.778  45.735  1.00  0.00     0.016 A 
ATOM     14  C   UNL     1     -27.825 -28.262  47.043  1.00  0.00     0.051 A 
ATOM     15  C   UNL     1     -27.862 -27.376  48.126  1.00  0.00     0.157 A 
ATOM     16  C   UNL     1     -28.047 -25.511  46.584  1.00  0.00     0.062 A 
ATOM     17  C   UNL     1     -27.977 -25.997  47.898  1.00  0.00     0.158 A 
BRANCH  15  18
ATOM     18  O   UNL     1     -27.787 -27.855  49.432  1.00  0.00    -0.504 OA
ATOM     19  H   UNL     1     -28.571 -28.323  49.871  1.00  0.00     0.293 HD
ENDBRANCH  15  18
BRANCH  17  20
ATOM     20  O   UNL     1     -28.025 -25.120  48.981  1.00  0.00    -0.504 OA
ATOM     21  H   UNL     1     -27.944 -24.119  48.857  1.00  0.00     0.293 HD
ENDBRANCH  17  20
ENDBRANCH   1  12
BRANCH  11  22
ATOM     22  O   UNL     1     -27.558 -23.934  39.351  1.00  0.00    -0.506 OA
ATOM     23  H   UNL     1     -27.793 -23.451  38.497  1.00  0.00     0.293 HD
ENDBRANCH  11  22
BRANCH   9  24
ATOM     24  O   UNL     1     -30.842 -27.552  39.084  1.00  0.00    -0.507 OA
ATOM     25  H   UNL     1     -31.479 -27.229  38.374  1.00  0.00     0.293 HD
ENDBRANCH   9  24
BRANCH  10  26
ATOM     26  C   UNL     1     -29.266 -25.434  37.679  1.00  0.00     0.188 C 
ATOM     27  C   UNL     1     -28.422 -26.482  36.917  1.00  0.00     0.179 C 
ATOM     28  O   UNL     1     -30.622 -25.370  37.253  1.00  0.00    -0.362 OA
ATOM     29  C   UNL     1     -28.391 -26.159  35.405  1.00  0.00     0.177 C 
ATOM     30  C   UNL     1     -30.838 -25.658  35.871  1.00  0.00     0.176 C 
ATOM     31  C   UNL     1     -29.620 -25.322  34.971  1.00  0.00     0.177 C 
BRANCH  27  32
ATOM     32  O   UNL     1     -27.110 -26.510  37.422  1.00  0.00    -0.387 OA
ATOM     33  H   UNL     1     -26.746 -25.591  37.309  1.00  0.00     0.211 HD
ENDBRANCH  27  32
BRANCH  29  34
ATOM     34  O   UNL     1     -28.336 -27.368  34.688  1.00  0.00    -0.387 OA
ATOM     35  H   UNL     1     -29.269 -27.625  34.467  1.00  0.00     0.211 HD
ENDBRANCH  29  34
BRANCH  30  36
ATOM     36  C   UNL     1     -32.093 -24.889  35.422  1.00  0.00     0.191 C 
BRANCH  36  37
ATOM     37  O   UNL     1     -32.741 -25.555  34.372  1.00  0.00    -0.394 OA
ATOM     38  H   UNL     1     -32.164 -25.451  33.568  1.00  0.00     0.210 HD
ENDBRANCH  36  37
ENDBRANCH  30  36
BRANCH  31  39
ATOM     39  O   UNL     1     -29.920 -25.555  33.619  1.00  0.00    -0.388 OA
ATOM     40  H   UNL     1     -29.060 -25.509  33.125  1.00  0.00     0.211 HD
ENDBRANCH  31  39
ENDBRANCH  10  26
TORSDOF 11
ENDMDL
MODEL 8
REMARK VINA RESULT:    -3.036      1.424      3.276
REMARK INTER + INTRA:          -5.471
REMARK INTER:                  -4.209
REMARK INTRA:                  -1.262
REMARK UNBOUND:                -1.193
REMARK SMILES O=c1cc(-c2ccc(O)c(O)c2)oc2cc(O)c([C@@H]3O[C@@H](CO)[C@H](O)[C@H](O)[C@H]3O)c(O)c12
REMARK SMILES IDX 4 1 3 2 2 3 1 4 32 5 14 6 13 7 15 8 16 9 18 10 30 11 5 12
REMARK SMILES IDX 6 13 7 14 8 15 12 16 10 17 9 18 11 20 31 22 17 24 19 26
REMARK SMILES IDX 28 27 20 28 26 29 21 30 24 31 29 32 27 34 22 36 23 37 25 39
REMARK H PARENT 9 19 11 21 31 23 17 25 29 33 27 35 23 38 25 40
REMARK Flexibility Score: inf
ROOT
ATOM      1  C   UNL     1     -44.690 -25.517  39.754  1.00  0.00     0.138 A 
ATOM      2  C   UNL     1     -43.493 -24.827  39.972  1.00  0.00     0.100 A 
ATOM      3  C   UNL     1     -43.045 -24.623  41.279  1.00  0.00     0.197 A 
ATOM      4  O   UNL     1     -41.935 -24.053  41.437  1.00  0.00    -0.289 OA
ATOM      5  C   UNL     1     -43.820 -25.082  42.375  1.00  0.00     0.107 A 
ATOM      6  C   UNL     1     -44.983 -25.822  42.055  1.00  0.00     0.146 A 
ATOM      7  O   UNL     1     -45.366 -25.991  40.794  1.00  0.00    -0.456 OA
ATOM      8  C   UNL     1     -45.757 -26.391  43.059  1.00  0.00     0.094 A 
ATOM      9  C   UNL     1     -45.425 -26.239  44.401  1.00  0.00     0.128 A 
ATOM     10  C   UNL     1     -44.295 -25.465  44.771  1.00  0.00     0.068 A 
ATOM     11  C   UNL     1     -43.502 -24.865  43.752  1.00  0.00     0.140 A 
ENDROOT
BRANCH   1  12
ATOM     12  C   UNL     1     -45.240 -25.723  38.392  1.00  0.00     0.021 A 
ATOM     13  C   UNL     1     -46.464 -26.396  38.235  1.00  0.00     0.016 A 
ATOM     14  C   UNL     1     -47.001 -26.607  36.963  1.00  0.00     0.051 A 
ATOM     15  C   UNL     1     -46.314 -26.166  35.826  1.00  0.00     0.157 A 
ATOM     16  C   UNL     1     -44.548 -25.289  37.242  1.00  0.00     0.062 A 
ATOM     17  C   UNL     1     -45.083 -25.508  35.964  1.00  0.00     0.158 A 
BRANCH  15  18
ATOM     18  O   UNL     1     -46.845 -26.377  34.556  1.00  0.00    -0.504 OA
ATOM     19  H   UNL     1     -47.440 -25.689  34.109  1.00  0.00     0.293 HD
ENDBRANCH  15  18
BRANCH  17  20
ATOM     20  O   UNL     1     -44.398 -25.081  34.827  1.00  0.00    -0.504 OA
ATOM     21  H   UNL     1     -43.535 -25.519  34.532  1.00  0.00     0.293 HD
ENDBRANCH  17  20
ENDBRANCH   1  12
BRANCH  11  22
ATOM     22  O   UNL     1     -42.438 -24.048  44.161  1.00  0.00    -0.506 OA
ATOM     23  H   UNL     1     -42.453 -23.375  44.912  1.00  0.00     0.293 HD
ENDBRANCH  11  22
BRANCH   9  24
ATOM     24  O   UNL     1     -46.263 -26.869  45.324  1.00  0.00    -0.507 OA
ATOM     25  H   UNL     1     -46.463 -26.524  46.250  1.00  0.00     0.293 HD
ENDBRANCH   9  24
BRANCH  10  26
ATOM     26  C   UNL     1     -43.968 -25.185  46.241  1.00  0.00     0.188 C 
ATOM     27  C   UNL     1     -44.808 -23.999  46.771  1.00  0.00     0.179 C 
ATOM     28  O   UNL     1     -44.117 -26.378  47.003  1.00  0.00    -0.362 OA
ATOM     29  C   UNL     1     -44.397 -23.648  48.220  1.00  0.00     0.177 C 
ATOM     30  C   UNL     1     -44.359 -26.182  48.396  1.00  0.00     0.176 C 
ATOM     31  C   UNL     1     -43.764 -24.859  48.947  1.00  0.00     0.177 C 
BRANCH  27  32
ATOM     32  O   UNL     1     -44.635 -22.875  45.944  1.00  0.00    -0.387 OA
ATOM     33  H   UNL     1     -45.144 -22.132  46.368  1.00  0.00     0.211 HD
ENDBRANCH  27  32
BRANCH  29  34
ATOM     34  O   UNL     1     -45.535 -23.193  48.911  1.00  0.00    -0.387 OA
ATOM     35  H   UNL     1     -45.915 -23.969  49.402  1.00  0.00     0.211 HD
ENDBRANCH  29  34
BRANCH  30  36
ATOM     36  C   UNL     1     -43.796 -27.402  49.146  1.00  0.00     0.191 C 
BRANCH  36  37
ATOM     37  O   UNL     1     -42.398 -27.338  49.230  1.00  0.00    -0.394 OA
ATOM     38  H   UNL     1     -42.089 -26.797  48.455  1.00  0.00     0.210 HD
ENDBRANCH  36  37
ENDBRANCH  30  36
BRANCH  31  39
ATOM     39  O   UNL     1     -43.968 -24.761  50.334  1.00  0.00    -0.388 OA
ATOM     40  H   UNL     1     -44.923 -24.977  50.496  1.00  0.00     0.211 HD
ENDBRANCH  31  39
ENDBRANCH  10  26
TORSDOF 11
ENDMDL
MODEL 9
REMARK VINA RESULT:    -2.963      3.992      5.463
REMARK INTER + INTRA:          -5.368
REMARK INTER:                  -4.057
REMARK INTRA:                  -1.312
REMARK UNBOUND:                -1.193
REMARK SMILES O=c1cc(-c2ccc(O)c(O)c2)oc2cc(O)c([C@@H]3O[C@@H](CO)[C@H](O)[C@H](O)[C@H]3O)c(O)c12
REMARK SMILES IDX 4 1 3 2 2 3 1 4 32 5 14 6 13 7 15 8 16 9 18 10 30 11 5 12
REMARK SMILES IDX 6 13 7 14 8 15 12 16 10 17 9 18 11 20 31 22 17 24 19 26
REMARK SMILES IDX 28 27 20 28 26 29 21 30 24 31 29 32 27 34 22 36 23 37 25 39
REMARK H PARENT 9 19 11 21 31 23 17 25 29 33 27 35 23 38 25 40
REMARK Flexibility Score: inf
ROOT
ATOM      1  C   UNL     1     -43.928 -23.890  43.793  1.00  0.00     0.138 A 
ATOM      2  C   UNL     1     -44.552 -23.502  44.984  1.00  0.00     0.100 A 
ATOM      3  C   UNL     1     -43.811 -23.464  46.167  1.00  0.00     0.197 A 
ATOM      4  O   UNL     1     -44.386 -23.053  47.207  1.00  0.00    -0.289 OA
ATOM      5  C   UNL     1     -42.447 -23.853  46.163  1.00  0.00     0.107 A 
ATOM      6  C   UNL     1     -41.888 -24.170  44.903  1.00  0.00     0.146 A 
ATOM      7  O   UNL     1     -42.635 -24.189  43.804  1.00  0.00    -0.456 OA
ATOM      8  C   UNL     1     -40.537 -24.472  44.784  1.00  0.00     0.094 A 
ATOM      9  C   UNL     1     -39.700 -24.489  45.895  1.00  0.00     0.128 A 
ATOM     10  C   UNL     1     -40.227 -24.224  47.186  1.00  0.00     0.068 A 
ATOM     11  C   UNL     1     -41.612 -23.927  47.322  1.00  0.00     0.140 A 
ENDROOT
BRANCH   1  12
ATOM     12  C   UNL     1     -44.675 -23.995  42.515  1.00  0.00     0.021 A 
ATOM     13  C   UNL     1     -45.975 -24.530  42.517  1.00  0.00     0.016 A 
ATOM     14  C   UNL     1     -46.697 -24.645  41.327  1.00  0.00     0.051 A 
ATOM     15  C   UNL     1     -46.125 -24.245  40.114  1.00  0.00     0.157 A 
ATOM     16  C   UNL     1     -44.101 -23.603  41.288  1.00  0.00     0.062 A 
ATOM     17  C   UNL     1     -44.823 -23.726  40.092  1.00  0.00     0.158 A 
BRANCH  15  18
ATOM     18  O   UNL     1     -46.842 -24.361  38.925  1.00  0.00    -0.504 OA
ATOM     19  H   UNL     1     -47.387 -25.188  38.713  1.00  0.00     0.293 HD
ENDBRANCH  15  18
BRANCH  17  20
ATOM     20  O   UNL     1     -44.254 -23.340  38.879  1.00  0.00    -0.504 OA
ATOM     21  H   UNL     1     -43.511 -22.655  38.836  1.00  0.00     0.293 HD
ENDBRANCH  17  20
ENDBRANCH   1  12
BRANCH  11  22
ATOM     22  O   UNL     1     -42.107 -23.744  48.621  1.00  0.00    -0.506 OA
ATOM     23  H   UNL     1     -42.943 -24.155  49.008  1.00  0.00     0.293 HD
ENDBRANCH  11  22
BRANCH   9  24
ATOM     24  O   UNL     1     -38.357 -24.789  45.657  1.00  0.00    -0.507 OA
ATOM     25  H   UNL     1     -37.719 -24.207  45.137  1.00  0.00     0.293 HD
ENDBRANCH   9  24
BRANCH  10  26
ATOM     26  C   UNL     1     -39.356 -24.346  48.440  1.00  0.00     0.188 C 
ATOM     27  C   UNL     1     -39.215 -25.826  48.867  1.00  0.00     0.179 C 
ATOM     28  O   UNL     1     -38.111 -23.690  48.228  1.00  0.00    -0.362 OA
ATOM     29  C   UNL     1     -38.430 -25.936  50.194  1.00  0.00     0.177 C 
ATOM     30  C   UNL     1     -37.038 -24.143  49.053  1.00  0.00     0.176 C 
ATOM     31  C   UNL     1     -37.506 -24.714  50.418  1.00  0.00     0.177 C 
BRANCH  27  32
ATOM     32  O   UNL     1     -40.486 -26.410  49.018  1.00  0.00    -0.387 OA
ATOM     33  H   UNL     1     -40.406 -27.347  48.691  1.00  0.00     0.211 HD
ENDBRANCH  27  32
BRANCH  29  34
ATOM     34  O   UNL     1     -37.682 -27.128  50.176  1.00  0.00    -0.387 OA
ATOM     35  H   UNL     1     -36.856 -26.952  49.653  1.00  0.00     0.211 HD
ENDBRANCH  29  34
BRANCH  30  36
ATOM     36  C   UNL     1     -36.064 -22.967  49.244  1.00  0.00     0.191 C 
BRANCH  36  37
ATOM     37  O   UNL     1     -34.752 -23.426  49.426  1.00  0.00    -0.394 OA
ATOM     38  H   UNL     1     -34.818 -24.319  49.859  1.00  0.00     0.210 HD
ENDBRANCH  36  37
ENDBRANCH  30  36
BRANCH  31  39
ATOM     39  O   UNL     1     -36.403 -25.071  51.212  1.00  0.00    -0.388 OA
ATOM     40  H   UNL     1     -36.235 -24.307  51.824  1.00  0.00     0.211 HD
ENDBRANCH  31  39
ENDBRANCH  10  26
TORSDOF 11
ENDMDL
