MODEL 1
REMARK VINA RESULT:    -3.162      0.000      0.000
REMARK INTER + INTRA:          -4.609
REMARK INTER:                  -4.271
REMARK INTRA:                  -0.338
REMARK UNBOUND:                -0.338
REMARK SMILES [NH3+]CCCC[C@@H]([NH3+])C(=O)[O-]
REMARK SMILES IDX 4 1 3 2 2 3 1 4 5 8 6 9 7 10 8 14 9 15 10 16
REMARK H PARENT 1 5 1 6 1 7 7 11 7 12 7 13
REMARK Flexibility Score: inf
ROOT
ATOM      1  C   UNL     1      22.453  18.375  44.511  1.00  0.00     0.012 C 
ENDROOT
BRANCH   1   2
ATOM      2  C   UNL     1      22.145  18.722  43.049  1.00  0.00     0.061 C 
BRANCH   2   3
ATOM      3  C   UNL     1      22.989  17.873  42.090  1.00  0.00     0.258 C 
BRANCH   3   4
ATOM      4  N   UNL     1      23.014  16.474  42.515  1.00  0.00    -0.358 N 
ATOM      5  H   UNL     1      22.597  15.865  41.774  1.00  0.00     0.344 HD
ATOM      6  H   UNL     1      22.481  16.359  43.409  1.00  0.00     0.344 HD
ATOM      7  H   UNL     1      24.006  16.182  42.674  1.00  0.00     0.344 HD
ENDBRANCH   3   4
ENDBRANCH   2   3
ENDBRANCH   1   2
BRANCH   1   8
ATOM      8  C   UNL     1      23.417  19.399  45.130  1.00  0.00     0.072 C 
BRANCH   8   9
ATOM      9  C   UNL     1      24.732  18.755  45.624  1.00  0.00     0.227 C 
BRANCH   9  10
ATOM     10  N   UNL     1      24.677  17.289  45.563  1.00  0.00    -0.350 N 
ATOM     11  H   UNL     1      23.704  16.973  45.346  1.00  0.00     0.345 HD
ATOM     12  H   UNL     1      24.939  16.884  46.491  1.00  0.00     0.345 HD
ATOM     13  H   UNL     1      25.332  16.922  44.834  1.00  0.00     0.345 HD
ENDBRANCH   9  10
BRANCH   9  14
ATOM     14  C   UNL     1      25.880  19.263  44.792  1.00  0.00     0.099 C 
ATOM     15  O   UNL     1      27.046  19.281  45.267  1.00  0.00    -0.544 OA
ATOM     16  O   UNL     1      25.657  19.732  43.503  1.00  0.00    -0.544 OA
ENDBRANCH   9  14
ENDBRANCH   8   9
ENDBRANCH   1   8
TORSDOF 7
ENDMDL
MODEL 2
REMARK VINA RESULT:    -3.142      2.542      4.244
REMARK INTER + INTRA:          -4.582
REMARK INTER:                  -4.083
REMARK INTRA:                  -0.499
REMARK UNBOUND:                -0.338
REMARK SMILES [NH3+]CCCC[C@@H]([NH3+])C(=O)[O-]
REMARK SMILES IDX 4 1 3 2 2 3 1 4 5 8 6 9 7 10 8 14 9 15 10 16
REMARK H PARENT 1 5 1 6 1 7 7 11 7 12 7 13
REMARK Flexibility Score: inf
ROOT
ATOM      1  C   UNL     1      24.546  20.073  43.278  1.00  0.00     0.012 C 
ENDROOT
BRANCH   1   2
ATOM      2  C   UNL     1      25.577  19.378  44.177  1.00  0.00     0.061 C 
BRANCH   2   3
ATOM      3  C   UNL     1      24.954  18.964  45.515  1.00  0.00     0.258 C 
BRANCH   3   4
ATOM      4  N   UNL     1      24.785  17.513  45.587  1.00  0.00    -0.358 N 
ATOM      5  H   UNL     1      23.954  17.220  45.023  1.00  0.00     0.344 HD
ATOM      6  H   UNL     1      24.660  17.214  46.583  1.00  0.00     0.344 HD
ATOM      7  H   UNL     1      25.638  17.049  45.200  1.00  0.00     0.344 HD
ENDBRANCH   3   4
ENDBRANCH   2   3
ENDBRANCH   1   2
BRANCH   1   8
ATOM      8  C   UNL     1      24.196  19.200  42.063  1.00  0.00     0.072 C 
BRANCH   8   9
ATOM      9  C   UNL     1      22.715  18.762  42.051  1.00  0.00     0.227 C 
BRANCH   9  10
ATOM     10  N   UNL     1      22.192  18.646  40.683  1.00  0.00    -0.350 N 
ATOM     11  H   UNL     1      21.618  19.485  40.445  1.00  0.00     0.345 HD
ATOM     12  H   UNL     1      21.570  17.808  40.610  1.00  0.00     0.345 HD
ATOM     13  H   UNL     1      22.974  18.551  39.994  1.00  0.00     0.345 HD
ENDBRANCH   9  10
BRANCH   9  14
ATOM     14  C   UNL     1      22.576  17.446  42.769  1.00  0.00     0.099 C 
ATOM     15  O   UNL     1      22.184  17.415  43.966  1.00  0.00    -0.544 OA
ATOM     16  O   UNL     1      22.901  16.258  42.123  1.00  0.00    -0.544 OA
ENDBRANCH   9  14
ENDBRANCH   8   9
ENDBRANCH   1   8
TORSDOF 7
ENDMDL
MODEL 3
REMARK VINA RESULT:    -3.100     16.519     17.411
REMARK INTER + INTRA:          -4.525
REMARK INTER:                  -4.027
REMARK INTRA:                  -0.498
REMARK UNBOUND:                -0.338
REMARK SMILES [NH3+]CCCC[C@@H]([NH3+])C(=O)[O-]
REMARK SMILES IDX 4 1 3 2 2 3 1 4 5 8 6 9 7 10 8 14 9 15 10 16
REMARK H PARENT 1 5 1 6 1 7 7 11 7 12 7 13
REMARK Flexibility Score: inf
ROOT
ATOM      1  C   UNL     1      27.567  32.377  51.189  1.00  0.00     0.012 C 
ENDROOT
BRANCH   1   2
ATOM      2  C   UNL     1      26.919  33.234  50.095  1.00  0.00     0.061 C 
BRANCH   2   3
ATOM      3  C   UNL     1      25.389  33.140  50.153  1.00  0.00     0.258 C 
BRANCH   3   4
ATOM      4  N   UNL     1      24.829  34.224  50.959  1.00  0.00    -0.358 N 
ATOM      5  H   UNL     1      25.582  34.898  51.229  1.00  0.00     0.344 HD
ATOM      6  H   UNL     1      24.377  33.836  51.820  1.00  0.00     0.344 HD
ATOM      7  H   UNL     1      24.107  34.731  50.397  1.00  0.00     0.344 HD
ENDBRANCH   3   4
ENDBRANCH   2   3
ENDBRANCH   1   2
BRANCH   1   8
ATOM      8  C   UNL     1      28.257  33.256  52.243  1.00  0.00     0.072 C 
BRANCH   8   9
ATOM      9  C   UNL     1      27.709  33.018  53.668  1.00  0.00     0.227 C 
BRANCH   9  10
ATOM     10  N   UNL     1      28.586  33.600  54.693  1.00  0.00    -0.350 N 
ATOM     11  H   UNL     1      28.122  33.560  55.629  1.00  0.00     0.345 HD
ATOM     12  H   UNL     1      28.769  34.606  54.475  1.00  0.00     0.345 HD
ATOM     13  H   UNL     1      29.498  33.089  54.735  1.00  0.00     0.345 HD
ENDBRANCH   9  10
BRANCH   9  14
ATOM     14  C   UNL     1      26.328  33.607  53.777  1.00  0.00     0.099 C 
ATOM     15  O   UNL     1      26.178  34.853  53.893  1.00  0.00    -0.544 OA
ATOM     16  O   UNL     1      25.210  32.780  53.772  1.00  0.00    -0.544 OA
ENDBRANCH   9  14
ENDBRANCH   8   9
ENDBRANCH   1   8
TORSDOF 7
ENDMDL
MODEL 4
REMARK VINA RESULT:    -3.098     17.959     18.616
REMARK INTER + INTRA:          -4.522
REMARK INTER:                  -4.304
REMARK INTRA:                  -0.219
REMARK UNBOUND:                -0.338
REMARK SMILES [NH3+]CCCC[C@@H]([NH3+])C(=O)[O-]
REMARK SMILES IDX 4 1 3 2 2 3 1 4 5 8 6 9 7 10 8 14 9 15 10 16
REMARK H PARENT 1 5 1 6 1 7 7 11 7 12 7 13
REMARK Flexibility Score: inf
ROOT
ATOM      1  C   UNL     1      29.531  33.336  52.259  1.00  0.00     0.012 C 
ENDROOT
BRANCH   1   2
ATOM      2  C   UNL     1      30.114  32.074  52.908  1.00  0.00     0.061 C 
BRANCH   2   3
ATOM      3  C   UNL     1      31.266  32.423  53.857  1.00  0.00     0.258 C 
BRANCH   3   4
ATOM      4  N   UNL     1      31.474  33.869  53.918  1.00  0.00    -0.358 N 
ATOM      5  H   UNL     1      32.489  34.081  54.056  1.00  0.00     0.344 HD
ATOM      6  H   UNL     1      30.917  34.280  54.704  1.00  0.00     0.344 HD
ATOM      7  H   UNL     1      31.158  34.299  53.019  1.00  0.00     0.344 HD
ENDBRANCH   3   4
ENDBRANCH   2   3
ENDBRANCH   1   2
BRANCH   1   8
ATOM      8  C   UNL     1      28.000  33.364  52.384  1.00  0.00     0.072 C 
BRANCH   8   9
ATOM      9  C   UNL     1      27.525  33.744  53.805  1.00  0.00     0.227 C 
BRANCH   9  10
ATOM     10  N   UNL     1      28.203  34.950  54.301  1.00  0.00    -0.350 N 
ATOM     11  H   UNL     1      28.515  34.807  55.288  1.00  0.00     0.345 HD
ATOM     12  H   UNL     1      27.540  35.758  54.295  1.00  0.00     0.345 HD
ATOM     13  H   UNL     1      29.030  35.183  53.704  1.00  0.00     0.345 HD
ENDBRANCH   9  10
BRANCH   9  14
ATOM     14  C   UNL     1      26.035  33.958  53.794  1.00  0.00     0.099 C 
ATOM     15  O   UNL     1      25.561  35.117  53.929  1.00  0.00    -0.544 OA
ATOM     16  O   UNL     1      25.172  32.877  53.655  1.00  0.00    -0.544 OA
ENDBRANCH   9  14
ENDBRANCH   8   9
ENDBRANCH   1   8
TORSDOF 7
ENDMDL
MODEL 5
REMARK VINA RESULT:    -3.009      2.442      2.994
REMARK INTER + INTRA:          -4.403
REMARK INTER:                  -4.251
REMARK INTRA:                  -0.152
REMARK UNBOUND:                -0.338
REMARK SMILES [NH3+]CCCC[C@@H]([NH3+])C(=O)[O-]
REMARK SMILES IDX 4 1 3 2 2 3 1 4 5 8 6 9 7 10 8 14 9 15 10 16
REMARK H PARENT 1 5 1 6 1 7 7 11 7 12 7 13
REMARK Flexibility Score: inf
ROOT
ATOM      1  C   UNL     1      24.091  19.336  42.051  1.00  0.00     0.012 C 
ENDROOT
BRANCH   1   2
ATOM      2  C   UNL     1      23.069  18.304  41.561  1.00  0.00     0.061 C 
BRANCH   2   3
ATOM      3  C   UNL     1      23.314  17.937  40.093  1.00  0.00     0.258 C 
BRANCH   3   4
ATOM      4  N   UNL     1      23.141  16.501  39.877  1.00  0.00    -0.358 N 
ATOM      5  H   UNL     1      22.478  16.333  39.086  1.00  0.00     0.344 HD
ATOM      6  H   UNL     1      22.776  16.047  40.747  1.00  0.00     0.344 HD
ATOM      7  H   UNL     1      24.067  16.077  39.637  1.00  0.00     0.344 HD
ENDBRANCH   3   4
ENDBRANCH   2   3
ENDBRANCH   1   2
BRANCH   1   8
ATOM      8  C   UNL     1      24.309  19.221  43.567  1.00  0.00     0.072 C 
BRANCH   8   9
ATOM      9  C   UNL     1      23.280  18.291  44.248  1.00  0.00     0.227 C 
BRANCH   9  10
ATOM     10  N   UNL     1      23.932  17.302  45.117  1.00  0.00    -0.350 N 
ATOM     11  H   UNL     1      23.652  16.335  44.836  1.00  0.00     0.345 HD
ATOM     12  H   UNL     1      23.626  17.442  46.107  1.00  0.00     0.345 HD
ATOM     13  H   UNL     1      24.973  17.391  45.066  1.00  0.00     0.345 HD
ENDBRANCH   9  10
BRANCH   9  14
ATOM     14  C   UNL     1      22.308  19.118  45.047  1.00  0.00     0.099 C 
ATOM     15  O   UNL     1      22.729  20.022  45.816  1.00  0.00    -0.544 OA
ATOM     16  O   UNL     1      20.942  18.876  44.956  1.00  0.00    -0.544 OA
ENDBRANCH   9  14
ENDBRANCH   8   9
ENDBRANCH   1   8
TORSDOF 7
ENDMDL
MODEL 6
REMARK VINA RESULT:    -2.994      2.509      4.062
REMARK INTER + INTRA:          -4.383
REMARK INTER:                  -4.193
REMARK INTRA:                  -0.190
REMARK UNBOUND:                -0.338
REMARK SMILES [NH3+]CCCC[C@@H]([NH3+])C(=O)[O-]
REMARK SMILES IDX 4 1 3 2 2 3 1 4 5 8 6 9 7 10 8 14 9 15 10 16
REMARK H PARENT 1 5 1 6 1 7 7 11 7 12 7 13
REMARK Flexibility Score: inf
ROOT
ATOM      1  C   UNL     1      22.701  18.941  44.560  1.00  0.00     0.012 C 
ENDROOT
BRANCH   1   2
ATOM      2  C   UNL     1      24.222  19.054  44.404  1.00  0.00     0.061 C 
BRANCH   2   3
ATOM      3  C   UNL     1      24.949  18.427  45.600  1.00  0.00     0.258 C 
BRANCH   3   4
ATOM      4  N   UNL     1      24.617  17.008  45.728  1.00  0.00    -0.358 N 
ATOM      5  H   UNL     1      24.842  16.672  46.693  1.00  0.00     0.344 HD
ATOM      6  H   UNL     1      25.153  16.448  45.025  1.00  0.00     0.344 HD
ATOM      7  H   UNL     1      23.594  16.878  45.555  1.00  0.00     0.344 HD
ENDBRANCH   3   4
ENDBRANCH   2   3
ENDBRANCH   1   2
BRANCH   1   8
ATOM      8  C   UNL     1      22.106  17.999  43.502  1.00  0.00     0.072 C 
BRANCH   8   9
ATOM      9  C   UNL     1      23.000  17.871  42.249  1.00  0.00     0.227 C 
BRANCH   9  10
ATOM     10  N   UNL     1      23.016  16.497  41.729  1.00  0.00    -0.350 N 
ATOM     11  H   UNL     1      22.183  16.333  41.118  1.00  0.00     0.345 HD
ATOM     12  H   UNL     1      22.962  15.816  42.521  1.00  0.00     0.345 HD
ATOM     13  H   UNL     1      23.889  16.315  41.183  1.00  0.00     0.345 HD
ENDBRANCH   9  10
BRANCH   9  14
ATOM     14  C   UNL     1      22.512  18.818  41.186  1.00  0.00     0.099 C 
ATOM     15  O   UNL     1      23.235  19.077  40.187  1.00  0.00    -0.544 OA
ATOM     16  O   UNL     1      21.268  19.428  41.308  1.00  0.00    -0.544 OA
ENDBRANCH   9  14
ENDBRANCH   8   9
ENDBRANCH   1   8
TORSDOF 7
ENDMDL
MODEL 7
REMARK VINA RESULT:    -2.982     18.213     19.235
REMARK INTER + INTRA:          -4.366
REMARK INTER:                  -4.289
REMARK INTRA:                  -0.077
REMARK UNBOUND:                -0.338
REMARK SMILES [NH3+]CCCC[C@@H]([NH3+])C(=O)[O-]
REMARK SMILES IDX 4 1 3 2 2 3 1 4 5 8 6 9 7 10 8 14 9 15 10 16
REMARK H PARENT 1 5 1 6 1 7 7 11 7 12 7 13
REMARK Flexibility Score: inf
ROOT
ATOM      1  C   UNL     1      27.967  33.416  54.092  1.00  0.00     0.012 C 
ENDROOT
BRANCH   1   2
ATOM      2  C   UNL     1      26.763  34.329  53.830  1.00  0.00     0.061 C 
BRANCH   2   3
ATOM      3  C   UNL     1      25.557  33.522  53.332  1.00  0.00     0.258 C 
BRANCH   3   4
ATOM      4  N   UNL     1      25.095  34.020  52.037  1.00  0.00    -0.358 N 
ATOM      5  H   UNL     1      25.100  35.066  52.031  1.00  0.00     0.344 HD
ATOM      6  H   UNL     1      24.128  33.669  51.841  1.00  0.00     0.344 HD
ATOM      7  H   UNL     1      25.738  33.674  51.288  1.00  0.00     0.344 HD
ENDBRANCH   3   4
ENDBRANCH   2   3
ENDBRANCH   1   2
BRANCH   1   8
ATOM      8  C   UNL     1      29.262  34.234  54.220  1.00  0.00     0.072 C 
BRANCH   8   9
ATOM      9  C   UNL     1      30.450  33.392  54.736  1.00  0.00     0.227 C 
BRANCH   9  10
ATOM     10  N   UNL     1      31.598  33.453  53.822  1.00  0.00    -0.350 N 
ATOM     11  H   UNL     1      32.443  33.805  54.328  1.00  0.00     0.345 HD
ATOM     12  H   UNL     1      31.398  34.120  53.043  1.00  0.00     0.345 HD
ATOM     13  H   UNL     1      31.803  32.509  53.419  1.00  0.00     0.345 HD
ENDBRANCH   9  10
BRANCH   9  14
ATOM     14  C   UNL     1      30.853  33.880  56.102  1.00  0.00     0.099 C 
ATOM     15  O   UNL     1      30.964  35.114  56.327  1.00  0.00    -0.544 OA
ATOM     16  O   UNL     1      31.124  32.971  57.119  1.00  0.00    -0.544 OA
ENDBRANCH   9  14
ENDBRANCH   8   9
ENDBRANCH   1   8
TORSDOF 7
ENDMDL
MODEL 8
REMARK VINA RESULT:    -2.977      9.139     10.436
REMARK INTER + INTRA:          -4.359
REMARK INTER:                  -4.217
REMARK INTRA:                  -0.142
REMARK UNBOUND:                -0.338
REMARK SMILES [NH3+]CCCC[C@@H]([NH3+])C(=O)[O-]
REMARK SMILES IDX 4 1 3 2 2 3 1 4 5 8 6 9 7 10 8 14 9 15 10 16
REMARK H PARENT 1 5 1 6 1 7 7 11 7 12 7 13
REMARK Flexibility Score: inf
ROOT
ATOM      1  C   UNL     1      29.540  17.301  51.599  1.00  0.00     0.012 C 
ENDROOT
BRANCH   1   2
ATOM      2  C   UNL     1      28.532  18.456  51.575  1.00  0.00     0.061 C 
BRANCH   2   3
ATOM      3  C   UNL     1      27.300  18.132  52.429  1.00  0.00     0.258 C 
BRANCH   3   4
ATOM      4  N   UNL     1      26.641  16.915  51.956  1.00  0.00    -0.358 N 
ATOM      5  H   UNL     1      27.355  16.185  51.728  1.00  0.00     0.344 HD
ATOM      6  H   UNL     1      26.066  17.124  51.107  1.00  0.00     0.344 HD
ATOM      7  H   UNL     1      26.012  16.551  52.709  1.00  0.00     0.344 HD
ENDBRANCH   3   4
ENDBRANCH   2   3
ENDBRANCH   1   2
BRANCH   1   8
ATOM      8  C   UNL     1      30.979  17.822  51.457  1.00  0.00     0.072 C 
BRANCH   8   9
ATOM      9  C   UNL     1      31.932  17.235  52.522  1.00  0.00     0.227 C 
BRANCH   9  10
ATOM     10  N   UNL     1      31.244  16.999  53.798  1.00  0.00    -0.350 N 
ATOM     11  H   UNL     1      31.914  16.617  54.503  1.00  0.00     0.345 HD
ATOM     12  H   UNL     1      30.486  16.290  53.668  1.00  0.00     0.345 HD
ATOM     13  H   UNL     1      30.823  17.885  54.163  1.00  0.00     0.345 HD
ENDBRANCH   9  10
BRANCH   9  14
ATOM     14  C   UNL     1      32.524  15.949  52.010  1.00  0.00     0.099 C 
ATOM     15  O   UNL     1      32.687  14.972  52.789  1.00  0.00    -0.544 OA
ATOM     16  O   UNL     1      32.912  15.836  50.680  1.00  0.00    -0.544 OA
ENDBRANCH   9  14
ENDBRANCH   8   9
ENDBRANCH   1   8
TORSDOF 7
ENDMDL
MODEL 9
REMARK VINA RESULT:    -2.930     16.797     17.732
REMARK INTER + INTRA:          -4.296
REMARK INTER:                  -4.124
REMARK INTRA:                  -0.172
REMARK UNBOUND:                -0.338
REMARK SMILES [NH3+]CCCC[C@@H]([NH3+])C(=O)[O-]
REMARK SMILES IDX 4 1 3 2 2 3 1 4 5 8 6 9 7 10 8 14 9 15 10 16
REMARK H PARENT 1 5 1 6 1 7 7 11 7 12 7 13
REMARK Flexibility Score: inf
ROOT
ATOM      1  C   UNL     1      26.959  31.928  53.160  1.00  0.00     0.012 C 
ENDROOT
BRANCH   1   2
ATOM      2  C   UNL     1      25.668  32.658  52.771  1.00  0.00     0.061 C 
BRANCH   2   3
ATOM      3  C   UNL     1      25.653  32.996  51.275  1.00  0.00     0.258 C 
BRANCH   3   4
ATOM      4  N   UNL     1      24.922  34.237  51.027  1.00  0.00    -0.358 N 
ATOM      5  H   UNL     1      24.109  34.313  51.681  1.00  0.00     0.344 HD
ATOM      6  H   UNL     1      24.583  34.263  50.036  1.00  0.00     0.344 HD
ATOM      7  H   UNL     1      25.561  35.050  51.186  1.00  0.00     0.344 HD
ENDBRANCH   3   4
ENDBRANCH   2   3
ENDBRANCH   1   2
BRANCH   1   8
ATOM      8  C   UNL     1      27.777  32.752  54.167  1.00  0.00     0.072 C 
BRANCH   8   9
ATOM      9  C   UNL     1      28.416  34.006  53.529  1.00  0.00     0.227 C 
BRANCH   9  10
ATOM     10  N   UNL     1      28.643  35.065  54.521  1.00  0.00    -0.350 N 
ATOM     11  H   UNL     1      28.741  35.990  54.044  1.00  0.00     0.345 HD
ATOM     12  H   UNL     1      29.532  34.883  55.040  1.00  0.00     0.345 HD
ATOM     13  H   UNL     1      27.852  35.109  55.205  1.00  0.00     0.345 HD
ENDBRANCH   9  10
BRANCH   9  14
ATOM     14  C   UNL     1      29.718  33.626  52.875  1.00  0.00     0.099 C 
ATOM     15  O   UNL     1      29.786  33.505  51.623  1.00  0.00    -0.544 OA
ATOM     16  O   UNL     1      30.847  33.386  53.649  1.00  0.00    -0.544 OA
ENDBRANCH   9  14
ENDBRANCH   8   9
ENDBRANCH   1   8
TORSDOF 7
ENDMDL
