MODEL 1
REMARK VINA RESULT:    -2.024      0.000      0.000
REMARK INTER + INTRA:          -2.024
REMARK INTER:                  -2.024
REMARK INTRA:                   0.000
REMARK UNBOUND:                 0.000
REMARK SMILES CC(=O)[O-]
REMARK SMILES IDX 1 1 2 2 3 3 4 4
REMARK H PARENT
REMARK Flexibility Score: inf
ROOT
ATOM      1  C   UNL     1      19.220  15.770  27.749  1.00  0.00     0.063 C 
ATOM      2  C   UNL     1      20.212  16.867  27.942  1.00  0.00     0.038 C 
ATOM      3  O   UNL     1      21.095  16.770  28.834  1.00  0.00    -0.550 OA
ATOM      4  O   UNL     1      20.197  17.974  27.105  1.00  0.00    -0.550 OA
ENDROOT
TORSDOF 0
ENDMDL
MODEL 2
REMARK VINA RESULT:    -2.020      3.279      3.647
REMARK INTER + INTRA:          -2.020
REMARK INTER:                  -2.020
REMARK INTRA:                   0.000
REMARK UNBOUND:                 0.000
REMARK SMILES CC(=O)[O-]
REMARK SMILES IDX 1 1 2 2 3 3 4 4
REMARK H PARENT
REMARK Flexibility Score: inf
ROOT
ATOM      1  C   UNL     1      19.226  17.085  25.070  1.00  0.00     0.063 C 
ATOM      2  C   UNL     1      20.206  15.969  24.938  1.00  0.00     0.038 C 
ATOM      3  O   UNL     1      21.117  16.027  24.071  1.00  0.00    -0.550 OA
ATOM      4  O   UNL     1      20.149  14.886  25.805  1.00  0.00    -0.550 OA
ENDROOT
TORSDOF 0
ENDMDL
MODEL 3
REMARK VINA RESULT:    -1.905      2.456      2.757
REMARK INTER + INTRA:          -1.905
REMARK INTER:                  -1.905
REMARK INTRA:                   0.000
REMARK UNBOUND:                 0.000
REMARK SMILES CC(=O)[O-]
REMARK SMILES IDX 1 1 2 2 3 3 4 4
REMARK H PARENT
REMARK Flexibility Score: inf
ROOT
ATOM      1  C   UNL     1      19.895  14.229  28.371  1.00  0.00     0.063 C 
ATOM      2  C   UNL     1      19.438  14.943  27.145  1.00  0.00     0.038 C 
ATOM      3  O   UNL     1      18.497  15.776  27.214  1.00  0.00    -0.550 OA
ATOM      4  O   UNL     1      20.083  14.732  25.934  1.00  0.00    -0.550 OA
ENDROOT
TORSDOF 0
ENDMDL
MODEL 4
REMARK VINA RESULT:    -1.894      1.403      2.025
REMARK INTER + INTRA:          -1.894
REMARK INTER:                  -1.894
REMARK INTRA:                   0.000
REMARK UNBOUND:                 0.000
REMARK SMILES CC(=O)[O-]
REMARK SMILES IDX 1 1 2 2 3 3 4 4
REMARK H PARENT
REMARK Flexibility Score: inf
ROOT
ATOM      1  C   UNL     1      21.123  16.574  28.641  1.00  0.00     0.063 C 
ATOM      2  C   UNL     1      20.037  16.901  27.674  1.00  0.00     0.038 C 
ATOM      3  O   UNL     1      20.081  17.971  27.012  1.00  0.00    -0.550 OA
ATOM      4  O   UNL     1      18.999  16.003  27.461  1.00  0.00    -0.550 OA
ENDROOT
TORSDOF 0
ENDMDL
MODEL 5
REMARK VINA RESULT:    -1.873      4.128      4.617
REMARK INTER + INTRA:          -1.873
REMARK INTER:                  -1.873
REMARK INTRA:                   0.000
REMARK UNBOUND:                 0.000
REMARK SMILES CC(=O)[O-]
REMARK SMILES IDX 1 1 2 2 3 3 4 4
REMARK H PARENT
REMARK Flexibility Score: inf
ROOT
ATOM      1  C   UNL     1      19.430  18.267  25.281  1.00  0.00     0.063 C 
ATOM      2  C   UNL     1      20.022  18.968  24.105  1.00  0.00     0.038 C 
ATOM      3  O   UNL     1      19.560  20.079  23.734  1.00  0.00    -0.550 OA
ATOM      4  O   UNL     1      21.118  18.424  23.450  1.00  0.00    -0.550 OA
ENDROOT
TORSDOF 0
ENDMDL
MODEL 6
REMARK VINA RESULT:    -1.869      2.358      2.439
REMARK INTER + INTRA:          -1.869
REMARK INTER:                  -1.869
REMARK INTRA:                   0.000
REMARK UNBOUND:                 0.000
REMARK SMILES CC(=O)[O-]
REMARK SMILES IDX 1 1 2 2 3 3 4 4
REMARK H PARENT
REMARK Flexibility Score: inf
ROOT
ATOM      1  C   UNL     1      18.842  17.134  25.616  1.00  0.00     0.063 C 
ATOM      2  C   UNL     1      19.504  16.135  26.504  1.00  0.00     0.038 C 
ATOM      3  O   UNL     1      19.578  16.344  27.744  1.00  0.00    -0.550 OA
ATOM      4  O   UNL     1      19.993  14.948  25.975  1.00  0.00    -0.550 OA
ENDROOT
TORSDOF 0
ENDMDL
MODEL 7
REMARK VINA RESULT:    -1.867      2.642      2.739
REMARK INTER + INTRA:          -1.867
REMARK INTER:                  -1.867
REMARK INTRA:                   0.000
REMARK UNBOUND:                 0.000
REMARK SMILES CC(=O)[O-]
REMARK SMILES IDX 1 1 2 2 3 3 4 4
REMARK H PARENT
REMARK Flexibility Score: inf
ROOT
ATOM      1  C   UNL     1      19.161  15.469  26.998  1.00  0.00     0.063 C 
ATOM      2  C   UNL     1      20.081  15.411  25.826  1.00  0.00     0.038 C 
ATOM      3  O   UNL     1      21.059  14.618  25.829  1.00  0.00    -0.550 OA
ATOM      4  O   UNL     1      19.831  16.192  24.705  1.00  0.00    -0.550 OA
ENDROOT
TORSDOF 0
ENDMDL
MODEL 8
REMARK VINA RESULT:    -1.860      2.978      3.619
REMARK INTER + INTRA:          -1.860
REMARK INTER:                  -1.860
REMARK INTRA:                   0.000
REMARK UNBOUND:                 0.000
REMARK SMILES CC(=O)[O-]
REMARK SMILES IDX 1 1 2 2 3 3 4 4
REMARK H PARENT
REMARK Flexibility Score: inf
ROOT
ATOM      1  C   UNL     1      21.070  15.044  28.739  1.00  0.00     0.063 C 
ATOM      2  C   UNL     1      19.928  14.166  28.357  1.00  0.00     0.038 C 
ATOM      3  O   UNL     1      19.245  14.428  27.332  1.00  0.00    -0.550 OA
ATOM      4  O   UNL     1      19.645  13.027  29.099  1.00  0.00    -0.550 OA
ENDROOT
TORSDOF 0
ENDMDL
MODEL 9
REMARK VINA RESULT:    -1.833      3.338      3.653
REMARK INTER + INTRA:          -1.833
REMARK INTER:                  -1.833
REMARK INTRA:                   0.000
REMARK UNBOUND:                 0.000
REMARK SMILES CC(=O)[O-]
REMARK SMILES IDX 1 1 2 2 3 3 4 4
REMARK H PARENT
REMARK Flexibility Score: inf
ROOT
ATOM      1  C   UNL     1      20.508  16.304  24.535  1.00  0.00     0.063 C 
ATOM      2  C   UNL     1      19.553  17.403  24.857  1.00  0.00     0.038 C 
ATOM      3  O   UNL     1      19.724  18.551  24.370  1.00  0.00    -0.550 OA
ATOM      4  O   UNL     1      18.442  17.150  25.651  1.00  0.00    -0.550 OA
ENDROOT
TORSDOF 0
ENDMDL
