MODEL 1
REMARK VINA RESULT:    -3.203      0.000      0.000
REMARK INTER + INTRA:          -5.035
REMARK INTER:                  -4.701
REMARK INTRA:                  -0.334
REMARK UNBOUND:                -0.334
REMARK SMILES O=C([O-])CCCCCCCC(=O)[O-]
REMARK SMILES IDX 7 1 6 2 5 3 4 4 2 5 1 6 3 7 8 8 9 9 10 10 11 11 12 12 13 13
REMARK H PARENT
REMARK Flexibility Score: inf
ROOT
ATOM      1  C   UNL     1      65.353  31.376  60.285  1.00  0.00     0.000 C 
ENDROOT
BRANCH   1   2
ATOM      2  C   UNL     1      64.760  30.504  61.407  1.00  0.00     0.000 C 
BRANCH   2   3
ATOM      3  C   UNL     1      64.056  29.245  60.879  1.00  0.00     0.006 C 
BRANCH   3   4
ATOM      4  C   UNL     1      62.708  29.038  61.576  1.00  0.00     0.053 C 
BRANCH   4   5
ATOM      5  C   UNL     1      61.595  29.049  60.577  1.00  0.00     0.041 C 
ATOM      6  O   UNL     1      60.795  28.078  60.508  1.00  0.00    -0.550 OA
ATOM      7  O   UNL     1      61.469  30.108  59.687  1.00  0.00    -0.550 OA
ENDBRANCH   4   5
ENDBRANCH   3   4
ENDBRANCH   2   3
ENDBRANCH   1   2
BRANCH   1   8
ATOM      8  C   UNL     1      64.466  32.552  59.838  1.00  0.00     0.000 C 
BRANCH   8   9
ATOM      9  C   UNL     1      65.130  33.920  60.052  1.00  0.00     0.006 C 
BRANCH   9  10
ATOM     10  C   UNL     1      64.378  34.735  61.108  1.00  0.00     0.053 C 
BRANCH  10  11
ATOM     11  C   UNL     1      65.337  35.519  61.946  1.00  0.00     0.041 C 
ATOM     12  O   UNL     1      66.466  35.837  61.489  1.00  0.00    -0.550 OA
ATOM     13  O   UNL     1      64.965  35.943  63.216  1.00  0.00    -0.550 OA
ENDBRANCH  10  11
ENDBRANCH   9  10
ENDBRANCH   8   9
ENDBRANCH   1   8
TORSDOF 8
ENDMDL
MODEL 2
REMARK VINA RESULT:    -3.179     11.925     13.419
REMARK INTER + INTRA:          -5.000
REMARK INTER:                  -4.515
REMARK INTRA:                  -0.485
REMARK UNBOUND:                -0.334
REMARK SMILES O=C([O-])CCCCCCCC(=O)[O-]
REMARK SMILES IDX 7 1 6 2 5 3 4 4 2 5 1 6 3 7 8 8 9 9 10 10 11 11 12 12 13 13
REMARK H PARENT
REMARK Flexibility Score: inf
ROOT
ATOM      1  C   UNL     1      58.446  25.261  50.130  1.00  0.00     0.000 C 
ENDROOT
BRANCH   1   2
ATOM      2  C   UNL     1      58.164  26.106  51.386  1.00  0.00     0.000 C 
BRANCH   2   3
ATOM      3  C   UNL     1      56.797  26.805  51.343  1.00  0.00     0.006 C 
BRANCH   3   4
ATOM      4  C   UNL     1      55.753  25.925  50.649  1.00  0.00     0.053 C 
BRANCH   4   5
ATOM      5  C   UNL     1      54.786  26.768  49.879  1.00  0.00     0.041 C 
ATOM      6  O   UNL     1      54.261  26.327  48.823  1.00  0.00    -0.550 OA
ATOM      7  O   UNL     1      54.502  28.061  50.300  1.00  0.00    -0.550 OA
ENDBRANCH   4   5
ENDBRANCH   3   4
ENDBRANCH   2   3
ENDBRANCH   1   2
BRANCH   1   8
ATOM      8  C   UNL     1      59.916  25.248  49.672  1.00  0.00     0.000 C 
BRANCH   8   9
ATOM      9  C   UNL     1      60.763  26.340  50.342  1.00  0.00     0.006 C 
BRANCH   9  10
ATOM     10  C   UNL     1      60.993  27.516  49.389  1.00  0.00     0.053 C 
BRANCH  10  11
ATOM     11  C   UNL     1      60.987  28.809  50.141  1.00  0.00     0.041 C 
ATOM     12  O   UNL     1      60.103  29.033  51.008  1.00  0.00    -0.550 OA
ATOM     13  O   UNL     1      61.987  29.747  49.920  1.00  0.00    -0.550 OA
ENDBRANCH  10  11
ENDBRANCH   9  10
ENDBRANCH   8   9
ENDBRANCH   1   8
TORSDOF 8
ENDMDL
MODEL 3
REMARK VINA RESULT:    -3.150      5.206      6.247
REMARK INTER + INTRA:          -4.957
REMARK INTER:                  -4.616
REMARK INTRA:                  -0.340
REMARK UNBOUND:                -0.334
REMARK SMILES O=C([O-])CCCCCCCC(=O)[O-]
REMARK SMILES IDX 7 1 6 2 5 3 4 4 2 5 1 6 3 7 8 8 9 9 10 10 11 11 12 12 13 13
REMARK H PARENT
REMARK Flexibility Score: inf
ROOT
ATOM      1  C   UNL     1      69.431  28.903  60.522  1.00  0.00     0.000 C 
ENDROOT
BRANCH   1   2
ATOM      2  C   UNL     1      68.443  28.404  61.591  1.00  0.00     0.000 C 
BRANCH   2   3
ATOM      3  C   UNL     1      66.984  28.413  61.111  1.00  0.00     0.006 C 
BRANCH   3   4
ATOM      4  C   UNL     1      66.678  29.684  60.311  1.00  0.00     0.053 C 
BRANCH   4   5
ATOM      5  C   UNL     1      65.448  30.352  60.840  1.00  0.00     0.041 C 
ATOM      6  O   UNL     1      65.274  31.587  60.667  1.00  0.00    -0.550 OA
ATOM      7  O   UNL     1      64.517  29.621  61.567  1.00  0.00    -0.550 OA
ENDBRANCH   4   5
ENDBRANCH   3   4
ENDBRANCH   2   3
ENDBRANCH   1   2
BRANCH   1   8
ATOM      8  C   UNL     1      70.919  28.737  60.883  1.00  0.00     0.000 C 
BRANCH   8   9
ATOM      9  C   UNL     1      71.547  30.021  61.444  1.00  0.00     0.006 C 
BRANCH   9  10
ATOM     10  C   UNL     1      72.555  30.615  60.456  1.00  0.00     0.053 C 
BRANCH  10  11
ATOM     11  C   UNL     1      72.048  31.909  59.904  1.00  0.00     0.041 C 
ATOM     12  O   UNL     1      71.329  31.920  58.871  1.00  0.00    -0.550 OA
ATOM     13  O   UNL     1      72.329  33.102  60.560  1.00  0.00    -0.550 OA
ENDBRANCH  10  11
ENDBRANCH   9  10
ENDBRANCH   8   9
ENDBRANCH   1   8
TORSDOF 8
ENDMDL
MODEL 4
REMARK VINA RESULT:    -3.144      3.257      6.483
REMARK INTER + INTRA:          -4.948
REMARK INTER:                  -4.613
REMARK INTRA:                  -0.334
REMARK UNBOUND:                -0.334
REMARK SMILES O=C([O-])CCCCCCCC(=O)[O-]
REMARK SMILES IDX 7 1 6 2 5 3 4 4 2 5 1 6 3 7 8 8 9 9 10 10 11 11 12 12 13 13
REMARK H PARENT
REMARK Flexibility Score: inf
ROOT
ATOM      1  C   UNL     1      65.272  31.371  60.528  1.00  0.00     0.000 C 
ENDROOT
BRANCH   1   2
ATOM      2  C   UNL     1      64.291  32.279  59.766  1.00  0.00     0.000 C 
BRANCH   2   3
ATOM      3  C   UNL     1      64.465  33.767  60.104  1.00  0.00     0.006 C 
BRANCH   3   4
ATOM      4  C   UNL     1      65.158  33.944  61.459  1.00  0.00     0.053 C 
BRANCH   4   5
ATOM      5  C   UNL     1      65.250  35.394  61.815  1.00  0.00     0.041 C 
ATOM      6  O   UNL     1      66.343  36.008  61.695  1.00  0.00    -0.550 OA
ATOM      7  O   UNL     1      64.141  36.057  62.326  1.00  0.00    -0.550 OA
ENDBRANCH   4   5
ENDBRANCH   3   4
ENDBRANCH   2   3
ENDBRANCH   1   2
BRANCH   1   8
ATOM      8  C   UNL     1      64.623  30.181  61.260  1.00  0.00     0.000 C 
BRANCH   8   9
ATOM      9  C   UNL     1      65.426  28.880  61.118  1.00  0.00     0.006 C 
BRANCH   9  10
ATOM     10  C   UNL     1      66.793  29.146  60.481  1.00  0.00     0.053 C 
BRANCH  10  11
ATOM     11  C   UNL     1      67.813  28.189  61.010  1.00  0.00     0.041 C 
ATOM     12  O   UNL     1      68.434  28.448  62.074  1.00  0.00    -0.550 OA
ATOM     13  O   UNL     1      68.043  26.985  60.355  1.00  0.00    -0.550 OA
ENDBRANCH  10  11
ENDBRANCH   9  10
ENDBRANCH   8   9
ENDBRANCH   1   8
TORSDOF 8
ENDMDL
MODEL 5
REMARK VINA RESULT:    -3.125      5.466      8.072
REMARK INTER + INTRA:          -4.920
REMARK INTER:                  -4.649
REMARK INTRA:                  -0.270
REMARK UNBOUND:                -0.334
REMARK SMILES O=C([O-])CCCCCCCC(=O)[O-]
REMARK SMILES IDX 7 1 6 2 5 3 4 4 2 5 1 6 3 7 8 8 9 9 10 10 11 11 12 12 13 13
REMARK H PARENT
REMARK Flexibility Score: inf
ROOT
ATOM      1  C   UNL     1      69.455  28.863  61.508  1.00  0.00     0.000 C 
ENDROOT
BRANCH   1   2
ATOM      2  C   UNL     1      70.391  28.357  60.396  1.00  0.00     0.000 C 
BRANCH   2   3
ATOM      3  C   UNL     1      71.855  28.770  60.610  1.00  0.00     0.006 C 
BRANCH   3   4
ATOM      4  C   UNL     1      71.951  29.994  61.527  1.00  0.00     0.053 C 
BRANCH   4   5
ATOM      5  C   UNL     1      72.754  31.075  60.875  1.00  0.00     0.041 C 
ATOM      6  O   UNL     1      73.989  30.918  60.680  1.00  0.00    -0.550 OA
ATOM      7  O   UNL     1      72.150  32.276  60.527  1.00  0.00    -0.550 OA
ENDBRANCH   4   5
ENDBRANCH   3   4
ENDBRANCH   2   3
ENDBRANCH   1   2
BRANCH   1   8
ATOM      8  C   UNL     1      68.024  28.296  61.462  1.00  0.00     0.000 C 
BRANCH   8   9
ATOM      9  C   UNL     1      67.050  29.190  60.682  1.00  0.00     0.006 C 
BRANCH   9  10
ATOM     10  C   UNL     1      65.620  28.650  60.770  1.00  0.00     0.053 C 
BRANCH  10  11
ATOM     11  C   UNL     1      64.685  29.715  61.248  1.00  0.00     0.041 C 
ATOM     12  O   UNL     1      65.033  30.924  61.216  1.00  0.00    -0.550 OA
ATOM     13  O   UNL     1      63.410  29.377  61.683  1.00  0.00    -0.550 OA
ENDBRANCH  10  11
ENDBRANCH   9  10
ENDBRANCH   8   9
ENDBRANCH   1   8
TORSDOF 8
ENDMDL
MODEL 6
REMARK VINA RESULT:    -3.118     14.114     15.350
REMARK INTER + INTRA:          -4.910
REMARK INTER:                  -4.518
REMARK INTRA:                  -0.393
REMARK UNBOUND:                -0.334
REMARK SMILES O=C([O-])CCCCCCCC(=O)[O-]
REMARK SMILES IDX 7 1 6 2 5 3 4 4 2 5 1 6 3 7 8 8 9 9 10 10 11 11 12 12 13 13
REMARK H PARENT
REMARK Flexibility Score: inf
ROOT
ATOM      1  C   UNL     1      58.679  25.255  50.030  1.00  0.00     0.000 C 
ENDROOT
BRANCH   1   2
ATOM      2  C   UNL     1      58.054  26.202  51.070  1.00  0.00     0.000 C 
BRANCH   2   3
ATOM      3  C   UNL     1      56.521  26.252  50.992  1.00  0.00     0.006 C 
BRANCH   3   4
ATOM      4  C   UNL     1      56.004  25.418  49.815  1.00  0.00     0.053 C 
BRANCH   4   5
ATOM      5  C   UNL     1      54.767  26.032  49.242  1.00  0.00     0.041 C 
ATOM      6  O   UNL     1      54.041  25.375  48.450  1.00  0.00    -0.550 OA
ATOM      7  O   UNL     1      54.439  27.349  49.543  1.00  0.00    -0.550 OA
ENDBRANCH   4   5
ENDBRANCH   3   4
ENDBRANCH   2   3
ENDBRANCH   1   2
BRANCH   1   8
ATOM      8  C   UNL     1      60.184  25.461  49.783  1.00  0.00     0.000 C 
BRANCH   8   9
ATOM      9  C   UNL     1      61.030  24.243  50.180  1.00  0.00     0.006 C 
BRANCH   9  10
ATOM     10  C   UNL     1      60.138  23.052  50.544  1.00  0.00     0.053 C 
BRANCH  10  11
ATOM     11  C   UNL     1      60.694  21.787  49.973  1.00  0.00     0.041 C 
ATOM     12  O   UNL     1      60.744  20.743  50.674  1.00  0.00    -0.550 OA
ATOM     13  O   UNL     1      61.111  21.747  48.648  1.00  0.00    -0.550 OA
ENDBRANCH  10  11
ENDBRANCH   9  10
ENDBRANCH   8   9
ENDBRANCH   1   8
TORSDOF 8
ENDMDL
MODEL 7
REMARK VINA RESULT:    -3.064      6.096      8.814
REMARK INTER + INTRA:          -4.830
REMARK INTER:                  -4.411
REMARK INTRA:                  -0.419
REMARK UNBOUND:                -0.334
REMARK SMILES O=C([O-])CCCCCCCC(=O)[O-]
REMARK SMILES IDX 7 1 6 2 5 3 4 4 2 5 1 6 3 7 8 8 9 9 10 10 11 11 12 12 13 13
REMARK H PARENT
REMARK Flexibility Score: inf
ROOT
ATOM      1  C   UNL     1      71.142  28.277  60.467  1.00  0.00     0.000 C 
ENDROOT
BRANCH   1   2
ATOM      2  C   UNL     1      72.521  28.754  60.958  1.00  0.00     0.000 C 
BRANCH   2   3
ATOM      3  C   UNL     1      73.123  29.857  60.076  1.00  0.00     0.006 C 
BRANCH   3   4
ATOM      4  C   UNL     1      73.214  31.182  60.841  1.00  0.00     0.053 C 
BRANCH   4   5
ATOM      5  C   UNL     1      72.332  32.212  60.210  1.00  0.00     0.041 C 
ATOM      6  O   UNL     1      72.225  33.357  60.725  1.00  0.00    -0.550 OA
ATOM      7  O   UNL     1      71.588  31.895  59.080  1.00  0.00    -0.550 OA
ENDBRANCH   4   5
ENDBRANCH   3   4
ENDBRANCH   2   3
ENDBRANCH   1   2
BRANCH   1   8
ATOM      8  C   UNL     1      69.954  29.146  60.919  1.00  0.00     0.000 C 
BRANCH   8   9
ATOM      9  C   UNL     1      68.880  28.349  61.672  1.00  0.00     0.006 C 
BRANCH   9  10
ATOM     10  C   UNL     1      67.856  27.754  60.701  1.00  0.00     0.053 C 
BRANCH  10  11
ATOM     11  C   UNL     1      66.546  28.464  60.820  1.00  0.00     0.041 C 
ATOM     12  O   UNL     1      66.495  29.719  60.737  1.00  0.00    -0.550 OA
ATOM     13  O   UNL     1      65.372  27.737  60.972  1.00  0.00    -0.550 OA
ENDBRANCH  10  11
ENDBRANCH   9  10
ENDBRANCH   8   9
ENDBRANCH   1   8
TORSDOF 8
ENDMDL
MODEL 8
REMARK VINA RESULT:    -3.015     14.154     16.199
REMARK INTER + INTRA:          -4.759
REMARK INTER:                  -4.404
REMARK INTRA:                  -0.354
REMARK UNBOUND:                -0.334
REMARK SMILES O=C([O-])CCCCCCCC(=O)[O-]
REMARK SMILES IDX 7 1 6 2 5 3 4 4 2 5 1 6 3 7 8 8 9 9 10 10 11 11 12 12 13 13
REMARK H PARENT
REMARK Flexibility Score: inf
ROOT
ATOM      1  C   UNL     1      61.943  20.918  50.083  1.00  0.00     0.000 C 
ENDROOT
BRANCH   1   2
ATOM      2  C   UNL     1      61.216  19.754  50.780  1.00  0.00     0.000 C 
BRANCH   2   3
ATOM      3  C   UNL     1      59.936  19.323  50.049  1.00  0.00     0.006 C 
BRANCH   3   4
ATOM      4  C   UNL     1      59.465  17.947  50.531  1.00  0.00     0.053 C 
BRANCH   4   5
ATOM      5  C   UNL     1      58.356  17.440  49.665  1.00  0.00     0.041 C 
ATOM      6  O   UNL     1      57.156  17.655  49.980  1.00  0.00    -0.550 OA
ATOM      7  O   UNL     1      58.646  16.686  48.535  1.00  0.00    -0.550 OA
ENDBRANCH   4   5
ENDBRANCH   3   4
ENDBRANCH   2   3
ENDBRANCH   1   2
BRANCH   1   8
ATOM      8  C   UNL     1      61.037  21.849  49.256  1.00  0.00     0.000 C 
BRANCH   8   9
ATOM      9  C   UNL     1      61.052  23.300  49.758  1.00  0.00     0.006 C 
BRANCH   9  10
ATOM     10  C   UNL     1      59.791  23.613  50.569  1.00  0.00     0.053 C 
BRANCH  10  11
ATOM     11  C   UNL     1      59.181  24.900  50.113  1.00  0.00     0.041 C 
ATOM     12  O   UNL     1      58.023  25.220  50.488  1.00  0.00    -0.550 OA
ATOM     13  O   UNL     1      59.911  25.771  49.313  1.00  0.00    -0.550 OA
ENDBRANCH  10  11
ENDBRANCH   9  10
ENDBRANCH   8   9
ENDBRANCH   1   8
TORSDOF 8
ENDMDL
MODEL 9
REMARK VINA RESULT:    -2.987     12.551     14.865
REMARK INTER + INTRA:          -4.718
REMARK INTER:                  -4.357
REMARK INTRA:                  -0.361
REMARK UNBOUND:                -0.334
REMARK SMILES O=C([O-])CCCCCCCC(=O)[O-]
REMARK SMILES IDX 7 1 6 2 5 3 4 4 2 5 1 6 3 7 8 8 9 9 10 10 11 11 12 12 13 13
REMARK H PARENT
REMARK Flexibility Score: inf
ROOT
ATOM      1  C   UNL     1      58.369  25.375  51.155  1.00  0.00     0.000 C 
ENDROOT
BRANCH   1   2
ATOM      2  C   UNL     1      59.657  25.625  50.350  1.00  0.00     0.000 C 
BRANCH   2   3
ATOM      3  C   UNL     1      60.272  27.006  50.617  1.00  0.00     0.006 C 
BRANCH   3   4
ATOM      4  C   UNL     1      60.984  27.540  49.369  1.00  0.00     0.053 C 
BRANCH   4   5
ATOM      5  C   UNL     1      62.467  27.420  49.520  1.00  0.00     0.041 C 
ATOM      6  O   UNL     1      63.194  28.447  49.480  1.00  0.00    -0.550 OA
ATOM      7  O   UNL     1      63.053  26.167  49.654  1.00  0.00    -0.550 OA
ENDBRANCH   4   5
ENDBRANCH   3   4
ENDBRANCH   2   3
ENDBRANCH   1   2
BRANCH   1   8
ATOM      8  C   UNL     1      57.530  26.633  51.447  1.00  0.00     0.000 C 
BRANCH   8   9
ATOM      9  C   UNL     1      56.069  26.499  50.995  1.00  0.00     0.006 C 
BRANCH   9  10
ATOM     10  C   UNL     1      55.960  25.607  49.754  1.00  0.00     0.053 C 
BRANCH  10  11
ATOM     11  C   UNL     1      54.552  25.581  49.250  1.00  0.00     0.041 C 
ATOM     12  O   UNL     1      53.877  24.521  49.310  1.00  0.00    -0.550 OA
ATOM     13  O   UNL     1      53.967  26.742  48.759  1.00  0.00    -0.550 OA
ENDBRANCH  10  11
ENDBRANCH   9  10
ENDBRANCH   8   9
ENDBRANCH   1   8
TORSDOF 8
ENDMDL
