MODEL 1
REMARK VINA RESULT:    -3.846      0.000      0.000
REMARK INTER + INTRA:          -5.510
REMARK INTER:                  -5.196
REMARK INTRA:                  -0.314
REMARK UNBOUND:                -0.314
REMARK SMILES CCCCCCC=CC(=O)[O-]
REMARK SMILES IDX 5 1 6 2 7 3 8 4 9 5 10 6 11 7 4 8 3 9 2 10 1 11
REMARK H PARENT
REMARK Flexibility Score: inf
ROOT
ATOM      1  C   UNL     1    -104.351  16.049  17.149  1.00  0.00     0.004 C 
ENDROOT
BRANCH   1   2
ATOM      2  C   UNL     1    -104.004  17.537  16.987  1.00  0.00     0.027 C 
BRANCH   2   3
ATOM      3  C   UNL     1    -104.032  17.977  15.550  1.00  0.00    -0.025 C 
ATOM      4  C   UNL     1    -105.167  18.365  14.958  1.00  0.00     0.020 C 
BRANCH   4   5
ATOM      5  C   UNL     1    -105.216  18.793  13.551  1.00  0.00     0.064 C 
ATOM      6  O   UNL     1    -105.881  19.803  13.200  1.00  0.00    -0.545 OA
ATOM      7  O   UNL     1    -104.519  18.067  12.592  1.00  0.00    -0.545 OA
ENDBRANCH   4   5
ENDBRANCH   2   3
ENDBRANCH   1   2
BRANCH   1   8
ATOM      8  C   UNL     1    -105.327  15.806  18.309  1.00  0.00     0.000 C 
BRANCH   8   9
ATOM      9  C   UNL     1    -105.360  17.006  19.262  1.00  0.00    -0.000 C 
BRANCH   9  10
ATOM     10  C   UNL     1    -106.742  17.162  19.905  1.00  0.00    -0.003 C 
ATOM     11  C   UNL     1    -106.636  17.273  21.422  1.00  0.00     0.004 C 
ENDBRANCH   9  10
ENDBRANCH   8   9
ENDBRANCH   1   8
TORSDOF 6
ENDMDL
MODEL 2
REMARK VINA RESULT:    -3.721      1.898      3.019
REMARK INTER + INTRA:          -5.340
REMARK INTER:                  -4.958
REMARK INTRA:                  -0.382
REMARK UNBOUND:                -0.314
REMARK SMILES CCCCCCC=CC(=O)[O-]
REMARK SMILES IDX 5 1 6 2 7 3 8 4 9 5 10 6 11 7 4 8 3 9 2 10 1 11
REMARK H PARENT
REMARK Flexibility Score: inf
ROOT
ATOM      1  C   UNL     1    -105.401  17.021  19.444  1.00  0.00     0.004 C 
ENDROOT
BRANCH   1   2
ATOM      2  C   UNL     1    -105.285  15.765  18.566  1.00  0.00     0.027 C 
BRANCH   2   3
ATOM      3  C   UNL     1    -104.468  16.005  17.328  1.00  0.00    -0.025 C 
ATOM      4  C   UNL     1    -104.153  17.241  16.925  1.00  0.00     0.020 C 
BRANCH   4   5
ATOM      5  C   UNL     1    -103.361  17.497  15.712  1.00  0.00     0.064 C 
ATOM      6  O   UNL     1    -102.174  17.087  15.610  1.00  0.00    -0.545 OA
ATOM      7  O   UNL     1    -103.930  18.206  14.662  1.00  0.00    -0.545 OA
ENDBRANCH   4   5
ENDBRANCH   2   3
ENDBRANCH   1   2
BRANCH   1   8
ATOM      8  C   UNL     1    -106.794  17.161  20.073  1.00  0.00     0.000 C 
BRANCH   8   9
ATOM      9  C   UNL     1    -107.874  17.309  18.994  1.00  0.00    -0.000 C 
BRANCH   9  10
ATOM     10  C   UNL     1    -109.079  16.411  19.293  1.00  0.00    -0.003 C 
ATOM     11  C   UNL     1    -109.797  16.856  20.563  1.00  0.00     0.004 C 
ENDBRANCH   9  10
ENDBRANCH   8   9
ENDBRANCH   1   8
TORSDOF 6
ENDMDL
MODEL 3
REMARK VINA RESULT:    -3.682      3.559      5.958
REMARK INTER + INTRA:          -5.288
REMARK INTER:                  -5.020
REMARK INTRA:                  -0.268
REMARK UNBOUND:                -0.314
REMARK SMILES CCCCCCC=CC(=O)[O-]
REMARK SMILES IDX 5 1 6 2 7 3 8 4 9 5 10 6 11 7 4 8 3 9 2 10 1 11
REMARK H PARENT
REMARK Flexibility Score: inf
ROOT
ATOM      1  C   UNL     1    -104.459  16.066  16.484  1.00  0.00     0.004 C 
ENDROOT
BRANCH   1   2
ATOM      2  C   UNL     1    -104.575  15.434  17.879  1.00  0.00     0.027 C 
BRANCH   2   3
ATOM      3  C   UNL     1    -105.764  15.944  18.642  1.00  0.00    -0.025 C 
ATOM      4  C   UNL     1    -105.623  16.661  19.762  1.00  0.00     0.020 C 
BRANCH   4   5
ATOM      5  C   UNL     1    -106.775  17.163  20.527  1.00  0.00     0.064 C 
ATOM      6  O   UNL     1    -106.662  17.483  21.741  1.00  0.00    -0.545 OA
ATOM      7  O   UNL     1    -108.010  17.285  19.902  1.00  0.00    -0.545 OA
ENDBRANCH   4   5
ENDBRANCH   2   3
ENDBRANCH   1   2
BRANCH   1   8
ATOM      8  C   UNL     1    -103.888  17.490  16.539  1.00  0.00     0.000 C 
BRANCH   8   9
ATOM      9  C   UNL     1    -103.501  17.984  15.140  1.00  0.00    -0.000 C 
BRANCH   9  10
ATOM     10  C   UNL     1    -104.693  18.643  14.439  1.00  0.00    -0.003 C 
ATOM     11  C   UNL     1    -104.682  18.353  12.941  1.00  0.00     0.004 C 
ENDBRANCH   9  10
ENDBRANCH   8   9
ENDBRANCH   1   8
TORSDOF 6
ENDMDL
MODEL 4
REMARK VINA RESULT:    -3.678     16.753     18.550
REMARK INTER + INTRA:          -5.283
REMARK INTER:                  -4.904
REMARK INTRA:                  -0.379
REMARK UNBOUND:                -0.314
REMARK SMILES CCCCCCC=CC(=O)[O-]
REMARK SMILES IDX 5 1 6 2 7 3 8 4 9 5 10 6 11 7 4 8 3 9 2 10 1 11
REMARK H PARENT
REMARK Flexibility Score: inf
ROOT
ATOM      1  C   UNL     1    -110.251  31.740  25.676  1.00  0.00     0.004 C 
ENDROOT
BRANCH   1   2
ATOM      2  C   UNL     1    -110.117  32.125  27.157  1.00  0.00     0.027 C 
BRANCH   2   3
ATOM      3  C   UNL     1    -111.073  31.367  28.034  1.00  0.00    -0.025 C 
ATOM      4  C   UNL     1    -110.641  30.493  28.950  1.00  0.00     0.020 C 
BRANCH   4   5
ATOM      5  C   UNL     1    -111.561  29.736  29.813  1.00  0.00     0.064 C 
ATOM      6  O   UNL     1    -112.123  30.279  30.801  1.00  0.00    -0.545 OA
ATOM      7  O   UNL     1    -111.812  28.398  29.535  1.00  0.00    -0.545 OA
ENDBRANCH   4   5
ENDBRANCH   2   3
ENDBRANCH   1   2
BRANCH   1   8
ATOM      8  C   UNL     1    -108.894  31.415  25.037  1.00  0.00     0.000 C 
BRANCH   8   9
ATOM      9  C   UNL     1    -107.945  30.773  26.057  1.00  0.00    -0.000 C 
BRANCH   9  10
ATOM     10  C   UNL     1    -106.596  31.498  26.087  1.00  0.00    -0.003 C 
ATOM     11  C   UNL     1    -105.693  31.032  24.949  1.00  0.00     0.004 C 
ENDBRANCH   9  10
ENDBRANCH   8   9
ENDBRANCH   1   8
TORSDOF 6
ENDMDL
MODEL 5
REMARK VINA RESULT:    -3.652      3.649      6.469
REMARK INTER + INTRA:          -5.247
REMARK INTER:                  -4.682
REMARK INTRA:                  -0.564
REMARK UNBOUND:                -0.314
REMARK SMILES CCCCCCC=CC(=O)[O-]
REMARK SMILES IDX 5 1 6 2 7 3 8 4 9 5 10 6 11 7 4 8 3 9 2 10 1 11
REMARK H PARENT
REMARK Flexibility Score: inf
ROOT
ATOM      1  C   UNL     1    -104.560  20.490  11.910  1.00  0.00     0.004 C 
ENDROOT
BRANCH   1   2
ATOM      2  C   UNL     1    -105.393  19.935  13.075  1.00  0.00     0.027 C 
BRANCH   2   3
ATOM      3  C   UNL     1    -104.687  18.830  13.809  1.00  0.00    -0.025 C 
ATOM      4  C   UNL     1    -104.169  19.017  15.027  1.00  0.00     0.020 C 
BRANCH   4   5
ATOM      5  C   UNL     1    -103.467  17.950  15.759  1.00  0.00     0.064 C 
ATOM      6  O   UNL     1    -102.473  17.362  15.257  1.00  0.00    -0.545 OA
ATOM      7  O   UNL     1    -103.911  17.584  17.024  1.00  0.00    -0.545 OA
ENDBRANCH   4   5
ENDBRANCH   2   3
ENDBRANCH   1   2
BRANCH   1   8
ATOM      8  C   UNL     1    -104.563  22.024  11.876  1.00  0.00     0.000 C 
BRANCH   8   9
ATOM      9  C   UNL     1    -103.257  22.591  12.444  1.00  0.00    -0.000 C 
BRANCH   9  10
ATOM     10  C   UNL     1    -103.523  23.464  13.674  1.00  0.00    -0.003 C 
ATOM     11  C   UNL     1    -103.289  22.685  14.965  1.00  0.00     0.004 C 
ENDBRANCH   9  10
ENDBRANCH   8   9
ENDBRANCH   1   8
TORSDOF 6
ENDMDL
MODEL 6
REMARK VINA RESULT:    -3.646      1.101      1.747
REMARK INTER + INTRA:          -5.238
REMARK INTER:                  -4.916
REMARK INTRA:                  -0.322
REMARK UNBOUND:                -0.314
REMARK SMILES CCCCCCC=CC(=O)[O-]
REMARK SMILES IDX 5 1 6 2 7 3 8 4 9 5 10 6 11 7 4 8 3 9 2 10 1 11
REMARK H PARENT
REMARK Flexibility Score: inf
ROOT
ATOM      1  C   UNL     1    -104.988  15.632  18.444  1.00  0.00     0.004 C 
ENDROOT
BRANCH   1   2
ATOM      2  C   UNL     1    -104.026  15.832  17.263  1.00  0.00     0.027 C 
BRANCH   2   3
ATOM      3  C   UNL     1    -104.538  16.839  16.272  1.00  0.00    -0.025 C 
ATOM      4  C   UNL     1    -103.761  17.825  15.811  1.00  0.00     0.020 C 
BRANCH   4   5
ATOM      5  C   UNL     1    -104.246  18.825  14.846  1.00  0.00     0.064 C 
ATOM      6  O   UNL     1    -104.655  18.485  13.704  1.00  0.00    -0.545 OA
ATOM      7  O   UNL     1    -104.250  20.169  15.200  1.00  0.00    -0.545 OA
ENDBRANCH   4   5
ENDBRANCH   2   3
ENDBRANCH   1   2
BRANCH   1   8
ATOM      8  C   UNL     1    -105.522  16.964  18.987  1.00  0.00     0.000 C 
BRANCH   8   9
ATOM      9  C   UNL     1    -107.053  17.018  18.906  1.00  0.00    -0.000 C 
BRANCH   9  10
ATOM     10  C   UNL     1    -107.674  17.141  20.301  1.00  0.00    -0.003 C 
ATOM     11  C   UNL     1    -106.600  17.302  21.372  1.00  0.00     0.004 C 
ENDBRANCH   9  10
ENDBRANCH   8   9
ENDBRANCH   1   8
TORSDOF 6
ENDMDL
MODEL 7
REMARK VINA RESULT:    -3.598      4.532      6.715
REMARK INTER + INTRA:          -5.174
REMARK INTER:                  -4.691
REMARK INTRA:                  -0.483
REMARK UNBOUND:                -0.314
REMARK SMILES CCCCCCC=CC(=O)[O-]
REMARK SMILES IDX 5 1 6 2 7 3 8 4 9 5 10 6 11 7 4 8 3 9 2 10 1 11
REMARK H PARENT
REMARK Flexibility Score: inf
ROOT
ATOM      1  C   UNL     1    -104.542  21.678  12.442  1.00  0.00     0.004 C 
ENDROOT
BRANCH   1   2
ATOM      2  C   UNL     1    -103.338  22.523  12.000  1.00  0.00     0.027 C 
BRANCH   2   3
ATOM      3  C   UNL     1    -102.802  23.382  13.111  1.00  0.00    -0.025 C 
ATOM      4  C   UNL     1    -103.138  23.166  14.388  1.00  0.00     0.020 C 
BRANCH   4   5
ATOM      5  C   UNL     1    -102.631  24.000  15.489  1.00  0.00     0.064 C 
ATOM      6  O   UNL     1    -102.730  25.255  15.455  1.00  0.00    -0.545 OA
ATOM      7  O   UNL     1    -102.029  23.392  16.584  1.00  0.00    -0.545 OA
ENDBRANCH   4   5
ENDBRANCH   2   3
ENDBRANCH   1   2
BRANCH   1   8
ATOM      8  C   UNL     1    -104.473  20.244  11.898  1.00  0.00     0.000 C 
BRANCH   8   9
ATOM      9  C   UNL     1    -104.888  19.228  12.969  1.00  0.00    -0.000 C 
BRANCH   9  10
ATOM     10  C   UNL     1    -104.619  19.770  14.377  1.00  0.00    -0.003 C 
ATOM     11  C   UNL     1    -103.993  18.703  15.269  1.00  0.00     0.004 C 
ENDBRANCH   9  10
ENDBRANCH   8   9
ENDBRANCH   1   8
TORSDOF 6
ENDMDL
MODEL 8
REMARK VINA RESULT:    -3.550      3.231      6.148
REMARK INTER + INTRA:          -5.109
REMARK INTER:                  -4.850
REMARK INTRA:                  -0.259
REMARK UNBOUND:                -0.314
REMARK SMILES CCCCCCC=CC(=O)[O-]
REMARK SMILES IDX 5 1 6 2 7 3 8 4 9 5 10 6 11 7 4 8 3 9 2 10 1 11
REMARK H PARENT
REMARK Flexibility Score: inf
ROOT
ATOM      1  C   UNL     1    -104.220  18.957  15.101  1.00  0.00     0.004 C 
ENDROOT
BRANCH   1   2
ATOM      2  C   UNL     1    -103.172  17.934  15.566  1.00  0.00     0.027 C 
BRANCH   2   3
ATOM      3  C   UNL     1    -103.730  16.953  16.558  1.00  0.00    -0.025 C 
ATOM      4  C   UNL     1    -104.671  17.308  17.441  1.00  0.00     0.020 C 
BRANCH   4   5
ATOM      5  C   UNL     1    -105.224  16.365  18.425  1.00  0.00     0.064 C 
ATOM      6  O   UNL     1    -105.399  16.704  19.626  1.00  0.00    -0.545 OA
ATOM      7  O   UNL     1    -105.557  15.076  18.025  1.00  0.00    -0.545 OA
ENDBRANCH   4   5
ENDBRANCH   2   3
ENDBRANCH   1   2
BRANCH   1   8
ATOM      8  C   UNL     1    -104.677  18.702  13.658  1.00  0.00     0.000 C 
BRANCH   8   9
ATOM      9  C   UNL     1    -105.363  19.942  13.071  1.00  0.00    -0.000 C 
BRANCH   9  10
ATOM     10  C   UNL     1    -104.576  20.493  11.877  1.00  0.00    -0.003 C 
ATOM     11  C   UNL     1    -103.884  21.805  12.231  1.00  0.00     0.004 C 
ENDBRANCH   9  10
ENDBRANCH   8   9
ENDBRANCH   1   8
TORSDOF 6
ENDMDL
MODEL 9
REMARK VINA RESULT:    -3.502      4.239      5.625
REMARK INTER + INTRA:          -5.045
REMARK INTER:                  -4.573
REMARK INTRA:                  -0.471
REMARK UNBOUND:                -0.314
REMARK SMILES CCCCCCC=CC(=O)[O-]
REMARK SMILES IDX 5 1 6 2 7 3 8 4 9 5 10 6 11 7 4 8 3 9 2 10 1 11
REMARK H PARENT
REMARK Flexibility Score: inf
ROOT
ATOM      1  C   UNL     1    -105.361  20.018  13.005  1.00  0.00     0.004 C 
ENDROOT
BRANCH   1   2
ATOM      2  C   UNL     1    -104.551  20.859  12.007  1.00  0.00     0.027 C 
BRANCH   2   3
ATOM      3  C   UNL     1    -103.849  22.012  12.667  1.00  0.00    -0.025 C 
ATOM      4  C   UNL     1    -103.818  22.145  13.997  1.00  0.00     0.020 C 
BRANCH   4   5
ATOM      5  C   UNL     1    -103.142  23.270  14.662  1.00  0.00     0.064 C 
ATOM      6  O   UNL     1    -103.054  24.398  14.107  1.00  0.00    -0.545 OA
ATOM      7  O   UNL     1    -102.589  23.086  15.924  1.00  0.00    -0.545 OA
ENDBRANCH   4   5
ENDBRANCH   2   3
ENDBRANCH   1   2
BRANCH   1   8
ATOM      8  C   UNL     1    -104.924  18.546  13.009  1.00  0.00     0.000 C 
BRANCH   8   9
ATOM      9  C   UNL     1    -104.927  17.974  14.431  1.00  0.00    -0.000 C 
BRANCH   9  10
ATOM     10  C   UNL     1    -103.829  18.616  15.286  1.00  0.00    -0.003 C 
ATOM     11  C   UNL     1    -102.747  17.603  15.646  1.00  0.00     0.004 C 
ENDBRANCH   9  10
ENDBRANCH   8   9
ENDBRANCH   1   8
TORSDOF 6
ENDMDL
