MODEL 1
REMARK VINA RESULT:    -3.808      0.000      0.000
REMARK INTER + INTRA:          -3.920
REMARK INTER:                  -3.920
REMARK INTRA:                   0.000
REMARK UNBOUND:                 0.000
REMARK SMILES CC1(C)[C@H]2CC[C@](C)(C2)[C@H]1O
REMARK SMILES IDX 1 1 2 2 4 3 5 4 6 5 7 6 9 7 10 8 8 9 3 10 11 11
REMARK H PARENT 11 12
REMARK Flexibility Score: inf
ROOT
ATOM      1  C   UNL     1     145.947 139.791 139.706  1.00  0.00     0.014 C 
ATOM      2  C   UNL     1     147.143 139.433 138.784  1.00  0.00    -0.006 C 
ATOM      3  C   UNL     1     148.125 140.631 138.549  1.00  0.00    -0.002 C 
ATOM      4  C   UNL     1     148.524 141.298 139.882  1.00  0.00     0.005 C 
ATOM      5  C   UNL     1     149.378 140.217 140.563  1.00  0.00     0.010 C 
ATOM      6  C   UNL     1     149.451 139.111 139.484  1.00  0.00    -0.006 C 
ATOM      7  C   UNL     1     149.429 139.929 138.210  1.00  0.00     0.013 C 
ATOM      8  C   UNL     1     148.100 138.353 139.393  1.00  0.00     0.126 C 
ATOM      9  C   UNL     1     150.676 138.199 139.613  1.00  0.00     0.014 C 
ATOM     10  C   UNL     1     146.554 138.954 137.434  1.00  0.00     0.014 C 
ENDROOT
BRANCH   8  11
ATOM     11  O   UNL     1     147.670 137.887 140.649  1.00  0.00    -0.392 OA
ATOM     12  H   UNL     1     147.265 136.994 140.497  1.00  0.00     0.211 HD
ENDBRANCH   8  11
TORSDOF 1
ENDMDL
MODEL 2
REMARK VINA RESULT:    -3.800     13.150     15.496
REMARK INTER + INTRA:          -3.911
REMARK INTER:                  -3.911
REMARK INTRA:                   0.000
REMARK UNBOUND:                 0.000
REMARK SMILES CC1(C)[C@H]2CC[C@](C)(C2)[C@H]1O
REMARK SMILES IDX 1 1 2 2 4 3 5 4 6 5 7 6 9 7 10 8 8 9 3 10 11 11
REMARK H PARENT 11 12
REMARK Flexibility Score: inf
ROOT
ATOM      1  C   UNL     1     135.730 141.880 139.783  1.00  0.00     0.014 C 
ATOM      2  C   UNL     1     134.534 142.246 138.865  1.00  0.00    -0.006 C 
ATOM      3  C   UNL     1     133.580 141.036 138.575  1.00  0.00    -0.002 C 
ATOM      4  C   UNL     1     133.186 140.310 139.879  1.00  0.00     0.005 C 
ATOM      5  C   UNL     1     132.302 141.345 140.592  1.00  0.00     0.010 C 
ATOM      6  C   UNL     1     132.213 142.489 139.555  1.00  0.00    -0.006 C 
ATOM      7  C   UNL     1     132.264 141.722 138.252  1.00  0.00     0.013 C 
ATOM      8  C   UNL     1     133.548 143.280 139.505  1.00  0.00     0.126 C 
ATOM      9  C   UNL     1     130.967 143.369 139.707  1.00  0.00     0.014 C 
ATOM     10  C   UNL     1     135.122 142.788 137.540  1.00  0.00     0.014 C 
ENDROOT
BRANCH   8  11
ATOM     11  O   UNL     1     133.956 143.708 140.781  1.00  0.00    -0.392 OA
ATOM     12  H   UNL     1     134.673 144.380 140.640  1.00  0.00     0.211 HD
ENDBRANCH   8  11
TORSDOF 1
ENDMDL
MODEL 3
REMARK VINA RESULT:    -3.714      9.601     10.973
REMARK INTER + INTRA:          -3.822
REMARK INTER:                  -3.822
REMARK INTRA:                   0.000
REMARK UNBOUND:                 0.000
REMARK SMILES CC1(C)[C@H]2CC[C@](C)(C2)[C@H]1O
REMARK SMILES IDX 1 1 2 2 4 3 5 4 6 5 7 6 9 7 10 8 8 9 3 10 11 11
REMARK H PARENT 11 12
REMARK Flexibility Score: inf
ROOT
ATOM      1  C   UNL     1     139.786 135.663 139.752  1.00  0.00     0.014 C 
ATOM      2  C   UNL     1     139.404 134.456 138.854  1.00  0.00    -0.006 C 
ATOM      3  C   UNL     1     140.609 133.501 138.551  1.00  0.00    -0.002 C 
ATOM      4  C   UNL     1     141.361 133.122 139.845  1.00  0.00     0.005 C 
ATOM      5  C   UNL     1     140.341 132.245 140.588  1.00  0.00     0.010 C 
ATOM      6  C   UNL     1     139.177 132.143 139.573  1.00  0.00    -0.006 C 
ATOM      7  C   UNL     1     139.920 132.180 138.255  1.00  0.00     0.013 C 
ATOM      8  C   UNL     1     138.384 133.476 139.524  1.00  0.00     0.126 C 
ATOM      9  C   UNL     1     138.303 130.897 139.755  1.00  0.00     0.014 C 
ATOM     10  C   UNL     1     138.836 135.030 137.533  1.00  0.00     0.014 C 
ENDROOT
BRANCH   8  11
ATOM     11  O   UNL     1     137.979 133.898 140.804  1.00  0.00    -0.392 OA
ATOM     12  H   UNL     1     137.448 134.726 140.676  1.00  0.00     0.211 HD
ENDBRANCH   8  11
TORSDOF 1
ENDMDL
MODEL 4
REMARK VINA RESULT:    -3.706      9.577     10.959
REMARK INTER + INTRA:          -3.814
REMARK INTER:                  -3.814
REMARK INTRA:                   0.000
REMARK UNBOUND:                 0.000
REMARK SMILES CC1(C)[C@H]2CC[C@](C)(C2)[C@H]1O
REMARK SMILES IDX 1 1 2 2 4 3 5 4 6 5 7 6 9 7 10 8 8 9 3 10 11 11
REMARK H PARENT 11 12
REMARK Flexibility Score: inf
ROOT
ATOM      1  C   UNL     1     141.799 145.879 139.733  1.00  0.00     0.014 C 
ATOM      2  C   UNL     1     142.176 147.060 138.800  1.00  0.00    -0.006 C 
ATOM      3  C   UNL     1     140.977 148.026 138.506  1.00  0.00    -0.002 C 
ATOM      4  C   UNL     1     140.262 148.443 139.808  1.00  0.00     0.005 C 
ATOM      5  C   UNL     1     141.312 149.322 140.507  1.00  0.00     0.010 C 
ATOM      6  C   UNL     1     142.451 149.385 139.463  1.00  0.00    -0.006 C 
ATOM      7  C   UNL     1     141.677 149.330 138.165  1.00  0.00     0.013 C 
ATOM      8  C   UNL     1     143.225 148.040 139.425  1.00  0.00     0.126 C 
ATOM      9  C   UNL     1     143.347 150.622 139.598  1.00  0.00     0.014 C 
ATOM     10  C   UNL     1     142.704 146.450 137.479  1.00  0.00     0.014 C 
ENDROOT
BRANCH   8  11
ATOM     11  O   UNL     1     143.654 147.640 140.703  1.00  0.00    -0.392 OA
ATOM     12  H   UNL     1     144.643 147.724 140.711  1.00  0.00     0.211 HD
ENDBRANCH   8  11
TORSDOF 1
ENDMDL
MODEL 5
REMARK VINA RESULT:    -3.678      1.366      3.243
REMARK INTER + INTRA:          -3.785
REMARK INTER:                  -3.785
REMARK INTRA:                   0.000
REMARK UNBOUND:                 0.000
REMARK SMILES CC1(C)[C@H]2CC[C@](C)(C2)[C@H]1O
REMARK SMILES IDX 1 1 2 2 4 3 5 4 6 5 7 6 9 7 10 8 8 9 3 10 11 11
REMARK H PARENT 11 12
REMARK Flexibility Score: inf
ROOT
ATOM      1  C   UNL     1     150.202 138.773 141.944  1.00  0.00     0.014 C 
ATOM      2  C   UNL     1     149.742 139.619 140.728  1.00  0.00    -0.006 C 
ATOM      3  C   UNL     1     150.740 139.566 139.520  1.00  0.00    -0.002 C 
ATOM      4  C   UNL     1     151.125 138.111 139.178  1.00  0.00     0.005 C 
ATOM      5  C   UNL     1     149.812 137.531 138.629  1.00  0.00     0.010 C 
ATOM      6  C   UNL     1     148.872 138.760 138.624  1.00  0.00    -0.006 C 
ATOM      7  C   UNL     1     149.844 139.883 138.335  1.00  0.00     0.013 C 
ATOM      8  C   UNL     1     148.420 139.100 140.069  1.00  0.00     0.126 C 
ATOM      9  C   UNL     1     147.725 138.659 137.613  1.00  0.00     0.014 C 
ATOM     10  C   UNL     1     149.580 141.079 141.220  1.00  0.00     0.014 C 
ENDROOT
BRANCH   8  11
ATOM     11  O   UNL     1     147.881 137.982 140.732  1.00  0.00    -0.392 OA
ATOM     12  H   UNL     1     146.894 138.062 140.669  1.00  0.00     0.211 HD
ENDBRANCH   8  11
TORSDOF 1
ENDMDL
MODEL 6
REMARK VINA RESULT:    -3.568     10.058     11.825
REMARK INTER + INTRA:          -3.672
REMARK INTER:                  -3.672
REMARK INTRA:                   0.000
REMARK UNBOUND:                 0.000
REMARK SMILES CC1(C)[C@H]2CC[C@](C)(C2)[C@H]1O
REMARK SMILES IDX 1 1 2 2 4 3 5 4 6 5 7 6 9 7 10 8 8 9 3 10 11 11
REMARK H PARENT 11 12
REMARK Flexibility Score: inf
ROOT
ATOM      1  C   UNL     1     139.288 131.651 141.310  1.00  0.00     0.014 C 
ATOM      2  C   UNL     1     139.887 132.429 140.108  1.00  0.00    -0.006 C 
ATOM      3  C   UNL     1     139.873 131.613 138.771  1.00  0.00    -0.002 C 
ATOM      4  C   UNL     1     138.482 130.999 138.505  1.00  0.00     0.005 C 
ATOM      5  C   UNL     1     137.612 132.234 138.221  1.00  0.00     0.010 C 
ATOM      6  C   UNL     1     138.641 133.389 138.251  1.00  0.00    -0.006 C 
ATOM      7  C   UNL     1     139.880 132.705 137.715  1.00  0.00     0.013 C 
ATOM      8  C   UNL     1     139.062 133.700 139.712  1.00  0.00     0.126 C 
ATOM      9  C   UNL     1     138.215 134.620 137.444  1.00  0.00     0.014 C 
ATOM     10  C   UNL     1     141.340 132.807 140.485  1.00  0.00     0.014 C 
ENDROOT
BRANCH   8  11
ATOM     11  O   UNL     1     137.951 133.913 140.548  1.00  0.00    -0.392 OA
ATOM     12  H   UNL     1     138.008 133.240 141.275  1.00  0.00     0.211 HD
ENDBRANCH   8  11
TORSDOF 1
ENDMDL
MODEL 7
REMARK VINA RESULT:    -3.568     14.542     16.051
REMARK INTER + INTRA:          -3.672
REMARK INTER:                  -3.672
REMARK INTRA:                   0.000
REMARK UNBOUND:                 0.000
REMARK SMILES CC1(C)[C@H]2CC[C@](C)(C2)[C@H]1O
REMARK SMILES IDX 1 1 2 2 4 3 5 4 6 5 7 6 9 7 10 8 8 9 3 10 11 11
REMARK H PARENT 11 12
REMARK Flexibility Score: inf
ROOT
ATOM      1  C   UNL     1     131.648 142.322 141.332  1.00  0.00     0.014 C 
ATOM      2  C   UNL     1     132.452 141.781 140.120  1.00  0.00    -0.006 C 
ATOM      3  C   UNL     1     131.647 141.816 138.775  1.00  0.00    -0.002 C 
ATOM      4  C   UNL     1     131.001 143.199 138.547  1.00  0.00     0.005 C 
ATOM      5  C   UNL     1     132.215 144.108 138.302  1.00  0.00     0.010 C 
ATOM      6  C   UNL     1     133.396 143.108 138.311  1.00  0.00    -0.006 C 
ATOM      7  C   UNL     1     132.749 141.870 137.730  1.00  0.00     0.013 C 
ATOM      8  C   UNL     1     133.704 142.650 139.762  1.00  0.00     0.126 C 
ATOM      9  C   UNL     1     134.623 143.590 137.530  1.00  0.00     0.014 C 
ATOM     10  C   UNL     1     132.863 140.327 140.455  1.00  0.00     0.014 C 
ENDROOT
BRANCH   8  11
ATOM     11  O   UNL     1     133.882 143.739 140.634  1.00  0.00    -0.392 OA
ATOM     12  H   UNL     1     134.691 144.223 140.324  1.00  0.00     0.211 HD
ENDBRANCH   8  11
TORSDOF 1
ENDMDL
MODEL 8
REMARK VINA RESULT:    -3.544     10.054     11.283
REMARK INTER + INTRA:          -3.647
REMARK INTER:                  -3.647
REMARK INTRA:                   0.000
REMARK UNBOUND:                 0.000
REMARK SMILES CC1(C)[C@H]2CC[C@](C)(C2)[C@H]1O
REMARK SMILES IDX 1 1 2 2 4 3 5 4 6 5 7 6 9 7 10 8 8 9 3 10 11 11
REMARK H PARENT 11 12
REMARK Flexibility Score: inf
ROOT
ATOM      1  C   UNL     1     142.349 149.968 141.366  1.00  0.00     0.014 C 
ATOM      2  C   UNL     1     141.749 149.224 140.144  1.00  0.00    -0.006 C 
ATOM      3  C   UNL     1     141.777 150.072 138.826  1.00  0.00    -0.002 C 
ATOM      4  C   UNL     1     143.175 150.678 138.581  1.00  0.00     0.005 C 
ATOM      5  C   UNL     1     144.034 149.442 138.272  1.00  0.00     0.010 C 
ATOM      6  C   UNL     1     142.994 148.297 138.270  1.00  0.00    -0.006 C 
ATOM      7  C   UNL     1     141.764 149.005 137.745  1.00  0.00     0.013 C 
ATOM      8  C   UNL     1     142.563 147.956 139.722  1.00  0.00     0.126 C 
ATOM      9  C   UNL     1     143.412 147.081 137.436  1.00  0.00     0.014 C 
ATOM     10  C   UNL     1     140.290 148.852 140.505  1.00  0.00     0.014 C 
ENDROOT
BRANCH   8  11
ATOM     11  O   UNL     1     143.668 147.711 140.558  1.00  0.00    -0.392 OA
ATOM     12  H   UNL     1     143.448 148.104 141.442  1.00  0.00     0.211 HD
ENDBRANCH   8  11
TORSDOF 1
ENDMDL
MODEL 9
REMARK VINA RESULT:    -3.467      9.208     10.816
REMARK INTER + INTRA:          -3.568
REMARK INTER:                  -3.568
REMARK INTRA:                   0.000
REMARK UNBOUND:                 0.000
REMARK SMILES CC1(C)[C@H]2CC[C@](C)(C2)[C@H]1O
REMARK SMILES IDX 1 1 2 2 4 3 5 4 6 5 7 6 9 7 10 8 8 9 3 10 11 11
REMARK H PARENT 11 12
REMARK Flexibility Score: inf
ROOT
ATOM      1  C   UNL     1     140.908 134.395 137.579  1.00  0.00     0.014 C 
ATOM      2  C   UNL     1     140.077 134.254 138.882  1.00  0.00    -0.006 C 
ATOM      3  C   UNL     1     138.788 133.380 138.706  1.00  0.00    -0.002 C 
ATOM      4  C   UNL     1     139.111 132.042 138.008  1.00  0.00     0.005 C 
ATOM      5  C   UNL     1     139.949 131.301 139.061  1.00  0.00     0.010 C 
ATOM      6  C   UNL     1     139.904 132.264 140.271  1.00  0.00    -0.006 C 
ATOM      7  C   UNL     1     138.531 132.880 140.117  1.00  0.00     0.013 C 
ATOM      8  C   UNL     1     140.827 133.487 140.022  1.00  0.00     0.126 C 
ATOM      9  C   UNL     1     140.125 131.574 141.622  1.00  0.00     0.014 C 
ATOM     10  C   UNL     1     139.691 135.684 139.335  1.00  0.00     0.014 C 
ENDROOT
BRANCH   8  11
ATOM     11  O   UNL     1     142.129 133.102 139.657  1.00  0.00    -0.392 OA
ATOM     12  H   UNL     1     142.558 132.739 140.475  1.00  0.00     0.211 HD
ENDBRANCH   8  11
TORSDOF 1
ENDMDL
