MODEL 1
REMARK VINA RESULT:    -4.302      0.000      0.000
REMARK INTER + INTRA:          -4.794
REMARK INTER:                  -4.554
REMARK INTRA:                  -0.240
REMARK UNBOUND:                -0.240
REMARK SMILES CC1=CC[C@@H]2[C@H]3[C@@H](C(C)C)CC[C@]2(C)[C@@H]13
REMARK SMILES IDX 1 1 2 2 3 3 4 4 5 5 6 6 15 7 13 8 12 9 11 10 7 11 14 12 8 13
REMARK SMILES IDX 9 14 10 15
REMARK H PARENT
REMARK Flexibility Score: inf
ROOT
ATOM      1  C   UNL     1       4.351   9.500  11.244  1.00  0.00     0.039 C 
ATOM      2  C   UNL     1       3.408  10.653  11.424  1.00  0.00    -0.073 C 
ATOM      3  C   UNL     1       2.163  10.642  10.878  1.00  0.00    -0.027 C 
ATOM      4  C   UNL     1       1.233  11.831  11.134  1.00  0.00     0.031 C 
ATOM      5  C   UNL     1       1.972  12.933  11.963  1.00  0.00     0.003 C 
ATOM      6  C   UNL     1       3.384  13.117  11.345  1.00  0.00     0.004 C 
ATOM      7  C   UNL     1       3.813  11.907  12.205  1.00  0.00     0.024 C 
ATOM      8  C   UNL     1       2.697  12.324  13.189  1.00  0.00    -0.022 C 
ATOM      9  C   UNL     1       3.238  13.455  14.120  1.00  0.00     0.008 C 
ATOM     10  C   UNL     1       3.674  14.722  13.333  1.00  0.00     0.005 C 
ATOM     11  C   UNL     1       4.101  14.397  11.868  1.00  0.00    -0.005 C 
ATOM     12  C   UNL     1       1.986  11.220  14.009  1.00  0.00     0.012 C 
ENDROOT
BRANCH  11  13
ATOM     13  C   UNL     1       3.974  15.590  10.875  1.00  0.00    -0.014 C 
ATOM     14  C   UNL     1       2.601  16.282  10.887  1.00  0.00     0.007 C 
ATOM     15  C   UNL     1       5.093  16.621  11.086  1.00  0.00     0.007 C 
ENDBRANCH  11  13
TORSDOF 1
ENDMDL
MODEL 2
REMARK VINA RESULT:    -3.994      1.071      4.846
REMARK INTER + INTRA:          -4.468
REMARK INTER:                  -4.224
REMARK INTRA:                  -0.244
REMARK UNBOUND:                -0.240
REMARK SMILES CC1=CC[C@@H]2[C@H]3[C@@H](C(C)C)CC[C@]2(C)[C@@H]13
REMARK SMILES IDX 1 1 2 2 3 3 4 4 5 5 6 6 15 7 13 8 12 9 11 10 7 11 14 12 8 13
REMARK SMILES IDX 9 14 10 15
REMARK H PARENT
REMARK Flexibility Score: inf
ROOT
ATOM      1  C   UNL     1       4.386  15.034  10.898  1.00  0.00     0.039 C 
ATOM      2  C   UNL     1       3.860  13.918  11.751  1.00  0.00    -0.073 C 
ATOM      3  C   UNL     1       3.697  14.066  13.092  1.00  0.00    -0.027 C 
ATOM      4  C   UNL     1       3.115  12.902  13.899  1.00  0.00     0.031 C 
ATOM      5  C   UNL     1       2.880  11.661  12.976  1.00  0.00     0.003 C 
ATOM      6  C   UNL     1       4.142  11.491  12.088  1.00  0.00     0.004 C 
ATOM      7  C   UNL     1       3.511  12.550  11.156  1.00  0.00     0.024 C 
ATOM      8  C   UNL     1       2.140  12.059  11.675  1.00  0.00    -0.022 C 
ATOM      9  C   UNL     1       1.720  10.787  10.875  1.00  0.00     0.008 C 
ATOM     10  C   UNL     1       2.732   9.618  11.033  1.00  0.00     0.005 C 
ATOM     11  C   UNL     1       4.175  10.117  11.356  1.00  0.00    -0.005 C 
ATOM     12  C   UNL     1       0.976  13.076  11.756  1.00  0.00     0.012 C 
ENDROOT
BRANCH  11  13
ATOM     13  C   UNL     1       5.071   9.078  12.092  1.00  0.00    -0.014 C 
ATOM     14  C   UNL     1       4.309   7.864  12.649  1.00  0.00     0.007 C 
ATOM     15  C   UNL     1       6.240   8.616  11.210  1.00  0.00     0.007 C 
ENDBRANCH  11  13
TORSDOF 1
ENDMDL
MODEL 3
REMARK VINA RESULT:    -3.210      2.246      4.875
REMARK INTER + INTRA:          -3.638
REMARK INTER:                  -3.404
REMARK INTRA:                  -0.234
REMARK UNBOUND:                -0.240
REMARK SMILES CC1=CC[C@@H]2[C@H]3[C@@H](C(C)C)CC[C@]2(C)[C@@H]13
REMARK SMILES IDX 1 1 2 2 3 3 4 4 5 5 6 6 15 7 13 8 12 9 11 10 7 11 14 12 8 13
REMARK SMILES IDX 9 14 10 15
REMARK H PARENT
REMARK Flexibility Score: inf
ROOT
ATOM      1  C   UNL     1       0.634  12.000  14.678  1.00  0.00     0.039 C 
ATOM      2  C   UNL     1       0.961  11.484  13.308  1.00  0.00    -0.073 C 
ATOM      3  C   UNL     1       0.004  10.943  12.508  1.00  0.00    -0.027 C 
ATOM      4  C   UNL     1       0.394  10.474  11.103  1.00  0.00     0.031 C 
ATOM      5  C   UNL     1       1.932  10.647  10.877  1.00  0.00     0.003 C 
ATOM      6  C   UNL     1       2.655  10.121  12.146  1.00  0.00     0.004 C 
ATOM      7  C   UNL     1       2.390  11.514  12.758  1.00  0.00     0.024 C 
ATOM      8  C   UNL     1       2.410  12.055  11.311  1.00  0.00    -0.022 C 
ATOM      9  C   UNL     1       3.891  12.287  10.876  1.00  0.00     0.008 C 
ATOM     10  C   UNL     1       4.736  10.983  10.906  1.00  0.00     0.005 C 
ATOM     11  C   UNL     1       4.186   9.939  11.928  1.00  0.00    -0.005 C 
ATOM     12  C   UNL     1       1.531  13.283  10.971  1.00  0.00     0.012 C 
ENDROOT
BRANCH  11  13
ATOM     13  C   UNL     1       4.566   8.462  11.614  1.00  0.00    -0.014 C 
ATOM     14  C   UNL     1       6.046   8.249  11.257  1.00  0.00     0.007 C 
ATOM     15  C   UNL     1       4.149   7.519  12.751  1.00  0.00     0.007 C 
ENDBRANCH  11  13
TORSDOF 1
ENDMDL
MODEL 4
REMARK VINA RESULT:    -2.824      3.824      6.936
REMARK INTER + INTRA:          -3.229
REMARK INTER:                  -2.967
REMARK INTRA:                  -0.262
REMARK UNBOUND:                -0.240
REMARK SMILES CC1=CC[C@@H]2[C@H]3[C@@H](C(C)C)CC[C@]2(C)[C@@H]13
REMARK SMILES IDX 1 1 2 2 3 3 4 4 5 5 6 6 15 7 13 8 12 9 11 10 7 11 14 12 8 13
REMARK SMILES IDX 9 14 10 15
REMARK H PARENT
REMARK Flexibility Score: inf
ROOT
ATOM      1  C   UNL     1       8.807   8.254  14.959  1.00  0.00     0.039 C 
ATOM      2  C   UNL     1       8.102   7.839  13.702  1.00  0.00    -0.073 C 
ATOM      3  C   UNL     1       8.747   7.805  12.506  1.00  0.00    -0.027 C 
ATOM      4  C   UNL     1       7.982   7.330  11.267  1.00  0.00     0.031 C 
ATOM      5  C   UNL     1       6.489   7.032  11.628  1.00  0.00     0.003 C 
ATOM      6  C   UNL     1       5.976   8.204  12.507  1.00  0.00     0.004 C 
ATOM      7  C   UNL     1       6.617   7.462  13.701  1.00  0.00     0.024 C 
ATOM      8  C   UNL     1       6.382   6.160  12.903  1.00  0.00    -0.022 C 
ATOM      9  C   UNL     1       4.909   5.691  13.120  1.00  0.00     0.008 C 
ATOM     10  C   UNL     1       3.868   6.738  12.636  1.00  0.00     0.005 C 
ATOM     11  C   UNL     1       4.427   8.195  12.668  1.00  0.00    -0.005 C 
ATOM     12  C   UNL     1       7.374   4.988  13.096  1.00  0.00     0.012 C 
ENDROOT
BRANCH  11  13
ATOM     13  C   UNL     1       3.726   9.181  11.688  1.00  0.00    -0.014 C 
ATOM     14  C   UNL     1       2.707  10.120  12.353  1.00  0.00     0.007 C 
ATOM     15  C   UNL     1       4.748   9.990  10.876  1.00  0.00     0.007 C 
ENDBRANCH  11  13
TORSDOF 1
ENDMDL
MODEL 5
REMARK VINA RESULT:    -2.270      1.142      2.605
REMARK INTER + INTRA:          -2.643
REMARK INTER:                  -2.427
REMARK INTRA:                  -0.216
REMARK UNBOUND:                -0.240
REMARK SMILES CC1=CC[C@@H]2[C@H]3[C@@H](C(C)C)CC[C@]2(C)[C@@H]13
REMARK SMILES IDX 1 1 2 2 3 3 4 4 5 5 6 6 15 7 13 8 12 9 11 10 7 11 14 12 8 13
REMARK SMILES IDX 9 14 10 15
REMARK H PARENT
REMARK Flexibility Score: inf
ROOT
ATOM      1  C   UNL     1      -0.125  11.144  10.927  1.00  0.00     0.039 C 
ATOM      2  C   UNL     1       0.993  11.708  11.753  1.00  0.00    -0.073 C 
ATOM      3  C   UNL     1       0.975  11.640  13.111  1.00  0.00    -0.027 C 
ATOM      4  C   UNL     1       2.167  12.196  13.895  1.00  0.00     0.031 C 
ATOM      5  C   UNL     1       3.205  12.847  12.921  1.00  0.00     0.003 C 
ATOM      6  C   UNL     1       2.414  13.717  11.907  1.00  0.00     0.004 C 
ATOM      7  C   UNL     1       2.191  12.413  11.109  1.00  0.00     0.024 C 
ATOM      8  C   UNL     1       3.517  11.913  11.726  1.00  0.00    -0.022 C 
ATOM      9  C   UNL     1       4.709  12.478  10.890  1.00  0.00     0.008 C 
ATOM     10  C   UNL     1       4.749  14.032  10.875  1.00  0.00     0.005 C 
ATOM     11  C   UNL     1       3.339  14.666  11.089  1.00  0.00    -0.005 C 
ATOM     12  C   UNL     1       3.686  10.396  11.982  1.00  0.00     0.012 C 
ENDROOT
BRANCH  11  13
ATOM     13  C   UNL     1       3.360  16.111  11.668  1.00  0.00    -0.014 C 
ATOM     14  C   UNL     1       4.738  16.792  11.627  1.00  0.00     0.007 C 
ATOM     15  C   UNL     1       2.303  17.002  10.998  1.00  0.00     0.007 C 
ENDBRANCH  11  13
TORSDOF 1
ENDMDL
MODEL 6
REMARK VINA RESULT:    -1.859      4.566      7.297
REMARK INTER + INTRA:          -2.208
REMARK INTER:                  -1.908
REMARK INTRA:                  -0.299
REMARK UNBOUND:                -0.240
REMARK SMILES CC1=CC[C@@H]2[C@H]3[C@@H](C(C)C)CC[C@]2(C)[C@@H]13
REMARK SMILES IDX 1 1 2 2 3 3 4 4 5 5 6 6 15 7 13 8 12 9 11 10 7 11 14 12 8 13
REMARK SMILES IDX 9 14 10 15
REMARK H PARENT
REMARK Flexibility Score: inf
ROOT
ATOM      1  C   UNL     1       3.818   9.383  10.876  1.00  0.00     0.039 C 
ATOM      2  C   UNL     1       4.277   8.532  12.023  1.00  0.00    -0.073 C 
ATOM      3  C   UNL     1       3.617   8.528  13.211  1.00  0.00    -0.027 C 
ATOM      4  C   UNL     1       4.111   7.604  14.328  1.00  0.00     0.031 C 
ATOM      5  C   UNL     1       5.409   6.854  13.882  1.00  0.00     0.003 C 
ATOM      6  C   UNL     1       6.343   7.895  13.208  1.00  0.00     0.004 C 
ATOM      7  C   UNL     1       5.526   7.651  11.920  1.00  0.00     0.024 C 
ATOM      8  C   UNL     1       5.246   6.235  12.472  1.00  0.00    -0.022 C 
ATOM      9  C   UNL     1       6.459   5.311  12.138  1.00  0.00     0.008 C 
ATOM     10  C   UNL     1       7.787   5.812  12.771  1.00  0.00     0.005 C 
ATOM     11  C   UNL     1       7.790   7.355  13.008  1.00  0.00    -0.005 C 
ATOM     12  C   UNL     1       3.907   5.551  12.103  1.00  0.00     0.012 C 
ENDROOT
BRANCH  11  13
ATOM     13  C   UNL     1       8.760   7.837  14.127  1.00  0.00    -0.014 C 
ATOM     14  C   UNL     1      10.165   8.215  13.630  1.00  0.00     0.007 C 
ATOM     15  C   UNL     1       8.153   8.990  14.941  1.00  0.00     0.007 C 
ENDBRANCH  11  13
TORSDOF 1
ENDMDL
