MODEL 1
REMARK VINA RESULT:    -6.195      0.000      0.000
REMARK INTER + INTRA:          -8.760
REMARK INTER:                  -7.825
REMARK INTRA:                  -0.934
REMARK UNBOUND:                -0.934
REMARK SMILES O[C@@H]1OC[C@@H](Cc2ccc3c(c2)OCO3)[C@H]1Cc1ccc2c(c1)OCO2
REMARK SMILES IDX 4 1 5 2 16 3 2 4 3 5 6 6 7 7 12 8 8 9 11 10 9 11 10 12 13 13
REMARK SMILES IDX 15 14 14 15 17 16 18 17 23 18 19 19 22 20 20 21 21 22 24 23
REMARK SMILES IDX 26 24 25 25 1 26
REMARK H PARENT 1 27
REMARK Flexibility Score: inf
ROOT
ATOM      1  C   UNL     1      17.201   4.006  38.024  1.00  0.00     0.168 C 
ATOM      2  C   UNL     1      16.657   5.237  37.304  1.00  0.00     0.028 C 
ATOM      3  C   UNL     1      15.191   5.155  37.701  1.00  0.00     0.055 C 
ATOM      4  C   UNL     1      14.961   3.650  37.818  1.00  0.00     0.250 C 
ATOM      5  O   UNL     1      16.196   3.020  38.084  1.00  0.00    -0.352 OA
ENDROOT
BRANCH   2   6
ATOM      6  C   UNL     1      16.958   5.146  35.778  1.00  0.00     0.042 C 
BRANCH   6   7
ATOM      7  C   UNL     1      18.237   5.842  35.375  1.00  0.00    -0.044 A 
ATOM      8  C   UNL     1      18.272   7.249  35.236  1.00  0.00     0.054 A 
ATOM      9  C   UNL     1      19.433   5.095  35.196  1.00  0.00     0.008 A 
ATOM     10  C   UNL     1      19.479   7.844  34.882  1.00  0.00     0.166 A 
ATOM     11  C   UNL     1      20.631   5.737  34.838  1.00  0.00     0.051 A 
ATOM     12  C   UNL     1      20.609   7.119  34.688  1.00  0.00     0.165 A 
ATOM     13  O   UNL     1      19.751   9.183  34.678  1.00  0.00    -0.454 OA
ATOM     14  O   UNL     1      21.647   7.965  34.350  1.00  0.00    -0.454 OA
ATOM     15  C   UNL     1      21.137   9.307  34.331  1.00  0.00     0.468 C 
ENDBRANCH   6   7
ENDBRANCH   2   6
BRANCH   3  16
ATOM     16  C   UNL     1      14.186   5.873  36.774  1.00  0.00     0.044 C 
BRANCH  16  17
ATOM     17  C   UNL     1      13.467   6.981  37.500  1.00  0.00    -0.044 A 
ATOM     18  C   UNL     1      13.629   7.132  38.895  1.00  0.00     0.054 A 
ATOM     19  C   UNL     1      12.590   7.848  36.797  1.00  0.00     0.008 A 
ATOM     20  C   UNL     1      12.920   8.148  39.529  1.00  0.00     0.166 A 
ATOM     21  C   UNL     1      11.893   8.862  37.477  1.00  0.00     0.051 A 
ATOM     22  C   UNL     1      12.088   8.977  38.850  1.00  0.00     0.165 A 
ATOM     23  O   UNL     1      12.916   8.489  40.868  1.00  0.00    -0.454 OA
ATOM     24  O   UNL     1      11.521   9.881  39.727  1.00  0.00    -0.454 OA
ATOM     25  C   UNL     1      12.028   9.602  41.040  1.00  0.00     0.468 C 
ENDBRANCH  16  17
ENDBRANCH   3  16
BRANCH   4  26
ATOM     26  O   UNL     1      14.057   3.379  38.855  1.00  0.00    -0.368 OA
ATOM     27  H   UNL     1      13.816   2.420  38.772  1.00  0.00     0.213 HD
ENDBRANCH   4  26
TORSDOF 5
ENDMDL
MODEL 2
REMARK VINA RESULT:    -6.128      2.786      5.703
REMARK INTER + INTRA:          -8.674
REMARK INTER:                  -6.802
REMARK INTRA:                  -1.873
REMARK UNBOUND:                -0.934
REMARK SMILES O[C@@H]1OC[C@@H](Cc2ccc3c(c2)OCO3)[C@H]1Cc1ccc2c(c1)OCO2
REMARK SMILES IDX 4 1 5 2 16 3 2 4 3 5 6 6 7 7 12 8 8 9 11 10 9 11 10 12 13 13
REMARK SMILES IDX 15 14 14 15 17 16 18 17 23 18 19 19 22 20 20 21 21 22 24 23
REMARK SMILES IDX 26 24 25 25 1 26
REMARK H PARENT 1 27
REMARK Flexibility Score: inf
ROOT
ATOM      1  C   UNL     1      17.141   5.708  36.296  1.00  0.00     0.168 C 
ATOM      2  C   UNL     1      15.635   5.719  36.549  1.00  0.00     0.028 C 
ATOM      3  C   UNL     1      15.594   5.145  37.957  1.00  0.00     0.055 C 
ATOM      4  C   UNL     1      16.792   4.198  37.965  1.00  0.00     0.250 C 
ATOM      5  O   UNL     1      17.722   4.630  36.995  1.00  0.00    -0.352 OA
ENDROOT
BRANCH   2   6
ATOM      6  C   UNL     1      14.899   4.894  35.452  1.00  0.00     0.042 C 
BRANCH   6   7
ATOM      7  C   UNL     1      13.517   5.416  35.133  1.00  0.00    -0.044 A 
ATOM      8  C   UNL     1      12.559   4.575  34.518  1.00  0.00     0.054 A 
ATOM      9  C   UNL     1      13.147   6.736  35.506  1.00  0.00     0.008 A 
ATOM     10  C   UNL     1      11.295   5.098  34.263  1.00  0.00     0.166 A 
ATOM     11  C   UNL     1      11.858   7.224  35.229  1.00  0.00     0.051 A 
ATOM     12  C   UNL     1      10.960   6.368  34.601  1.00  0.00     0.165 A 
ATOM     13  O   UNL     1      10.213   4.479  33.669  1.00  0.00    -0.454 OA
ATOM     14  O   UNL     1       9.651   6.613  34.233  1.00  0.00    -0.454 OA
ATOM     15  C   UNL     1       9.131   5.421  33.627  1.00  0.00     0.468 C 
ENDBRANCH   6   7
ENDBRANCH   2   6
BRANCH   3  16
ATOM     16  C   UNL     1      14.268   4.483  38.391  1.00  0.00     0.044 C 
BRANCH  16  17
ATOM     17  C   UNL     1      13.288   5.506  38.904  1.00  0.00    -0.044 A 
ATOM     18  C   UNL     1      13.751   6.618  39.642  1.00  0.00     0.054 A 
ATOM     19  C   UNL     1      11.896   5.336  38.689  1.00  0.00     0.008 A 
ATOM     20  C   UNL     1      12.807   7.521  40.124  1.00  0.00     0.166 A 
ATOM     21  C   UNL     1      10.976   6.273  39.194  1.00  0.00     0.051 A 
ATOM     22  C   UNL     1      11.477   7.355  39.910  1.00  0.00     0.165 A 
ATOM     23  O   UNL     1      13.014   8.670  40.862  1.00  0.00    -0.454 OA
ATOM     24  O   UNL     1      10.783   8.393  40.499  1.00  0.00    -0.454 OA
ATOM     25  C   UNL     1      11.735   9.265  41.125  1.00  0.00     0.468 C 
ENDBRANCH  16  17
ENDBRANCH   3  16
BRANCH   4  26
ATOM     26  O   UNL     1      17.396   4.194  39.231  1.00  0.00    -0.368 OA
ATOM     27  H   UNL     1      16.911   4.870  39.773  1.00  0.00     0.213 HD
ENDBRANCH   4  26
TORSDOF 5
ENDMDL
MODEL 3
REMARK VINA RESULT:    -6.099     13.285     15.967
REMARK INTER + INTRA:          -8.638
REMARK INTER:                  -7.750
REMARK INTRA:                  -0.887
REMARK UNBOUND:                -0.934
REMARK SMILES O[C@@H]1OC[C@@H](Cc2ccc3c(c2)OCO3)[C@H]1Cc1ccc2c(c1)OCO2
REMARK SMILES IDX 4 1 5 2 16 3 2 4 3 5 6 6 7 7 12 8 8 9 11 10 9 11 10 12 13 13
REMARK SMILES IDX 15 14 14 15 17 16 18 17 23 18 19 19 22 20 20 21 21 22 24 23
REMARK SMILES IDX 26 24 25 25 1 26
REMARK H PARENT 1 27
REMARK Flexibility Score: inf
ROOT
ATOM      1  C   UNL     1       8.671   4.513  24.239  1.00  0.00     0.168 C 
ATOM      2  C   UNL     1       9.249   5.874  24.623  1.00  0.00     0.028 C 
ATOM      3  C   UNL     1      10.636   5.761  24.008  1.00  0.00     0.055 C 
ATOM      4  C   UNL     1      10.934   4.269  24.130  1.00  0.00     0.250 C 
ATOM      5  O   UNL     1       9.712   3.563  24.193  1.00  0.00    -0.352 OA
ENDROOT
BRANCH   2   6
ATOM      6  C   UNL     1       9.200   6.064  26.168  1.00  0.00     0.042 C 
BRANCH   6   7
ATOM      7  C   UNL     1       7.800   6.254  26.706  1.00  0.00    -0.044 A 
ATOM      8  C   UNL     1       7.032   7.377  26.318  1.00  0.00     0.054 A 
ATOM      9  C   UNL     1       7.220   5.274  27.556  1.00  0.00     0.008 A 
ATOM     10  C   UNL     1       5.741   7.496  26.825  1.00  0.00     0.166 A 
ATOM     11  C   UNL     1       5.913   5.436  28.047  1.00  0.00     0.051 A 
ATOM     12  C   UNL     1       5.207   6.567  27.656  1.00  0.00     0.165 A 
ATOM     13  O   UNL     1       4.818   8.499  26.600  1.00  0.00    -0.454 OA
ATOM     14  O   UNL     1       3.921   6.940  27.998  1.00  0.00    -0.454 OA
ATOM     15  C   UNL     1       3.630   8.182  27.339  1.00  0.00     0.468 C 
ENDBRANCH   6   7
ENDBRANCH   2   6
BRANCH   3  16
ATOM     16  C   UNL     1      11.730   6.670  24.608  1.00  0.00     0.044 C 
BRANCH  16  17
ATOM     17  C   UNL     1      12.296   7.605  23.570  1.00  0.00    -0.044 A 
ATOM     18  C   UNL     1      13.235   8.591  23.946  1.00  0.00     0.054 A 
ATOM     19  C   UNL     1      11.858   7.530  22.222  1.00  0.00     0.008 A 
ATOM     20  C   UNL     1      13.706   9.453  22.960  1.00  0.00     0.166 A 
ATOM     21  C   UNL     1      12.361   8.421  21.257  1.00  0.00     0.051 A 
ATOM     22  C   UNL     1      13.287   9.372  21.672  1.00  0.00     0.165 A 
ATOM     23  O   UNL     1      14.617  10.484  23.083  1.00  0.00    -0.454 OA
ATOM     24  O   UNL     1      13.916  10.346  20.921  1.00  0.00    -0.454 OA
ATOM     25  C   UNL     1      14.782  11.087  21.791  1.00  0.00     0.468 C 
ENDBRANCH  16  17
ENDBRANCH   3  16
BRANCH   4  26
ATOM     26  O   UNL     1      11.676   3.833  23.023  1.00  0.00    -0.368 OA
ATOM     27  H   UNL     1      11.928   2.890  23.209  1.00  0.00     0.213 HD
ENDBRANCH   4  26
TORSDOF 5
ENDMDL
MODEL 4
REMARK VINA RESULT:    -6.026      3.186      8.006
REMARK INTER + INTRA:          -8.545
REMARK INTER:                  -7.038
REMARK INTRA:                  -1.507
REMARK UNBOUND:                -0.934
REMARK SMILES O[C@@H]1OC[C@@H](Cc2ccc3c(c2)OCO3)[C@H]1Cc1ccc2c(c1)OCO2
REMARK SMILES IDX 4 1 5 2 16 3 2 4 3 5 6 6 7 7 12 8 8 9 11 10 9 11 10 12 13 13
REMARK SMILES IDX 15 14 14 15 17 16 18 17 23 18 19 19 22 20 20 21 21 22 24 23
REMARK SMILES IDX 26 24 25 25 1 26
REMARK H PARENT 1 27
REMARK Flexibility Score: inf
ROOT
ATOM      1  C   UNL     1      13.513   7.116  41.125  1.00  0.00     0.168 C 
ATOM      2  C   UNL     1      13.200   6.495  39.766  1.00  0.00     0.028 C 
ATOM      3  C   UNL     1      13.387   7.708  38.866  1.00  0.00     0.055 C 
ATOM      4  C   UNL     1      12.960   8.862  39.770  1.00  0.00     0.250 C 
ATOM      5  O   UNL     1      13.127   8.472  41.117  1.00  0.00    -0.352 OA
ENDROOT
BRANCH   2   6
ATOM      6  C   UNL     1      11.775   5.865  39.776  1.00  0.00     0.042 C 
BRANCH   6   7
ATOM      7  C   UNL     1      11.784   4.361  39.915  1.00  0.00    -0.044 A 
ATOM      8  C   UNL     1      12.682   3.578  39.152  1.00  0.00     0.054 A 
ATOM      9  C   UNL     1      10.936   3.724  40.860  1.00  0.00     0.008 A 
ATOM     10  C   UNL     1      12.665   2.198  39.331  1.00  0.00     0.166 A 
ATOM     11  C   UNL     1      10.951   2.325  41.008  1.00  0.00     0.051 A 
ATOM     12  C   UNL     1      11.833   1.598  40.218  1.00  0.00     0.165 A 
ATOM     13  O   UNL     1      13.432   1.239  38.698  1.00  0.00    -0.454 OA
ATOM     14  O   UNL     1      12.033   0.231  40.185  1.00  0.00    -0.454 OA
ATOM     15  C   UNL     1      13.056  -0.044  39.217  1.00  0.00     0.468 C 
ENDBRANCH   6   7
ENDBRANCH   2   6
BRANCH   3  16
ATOM     16  C   UNL     1      12.658   7.674  37.505  1.00  0.00     0.044 C 
BRANCH  16  17
ATOM     17  C   UNL     1      13.259   6.642  36.587  1.00  0.00    -0.044 A 
ATOM     18  C   UNL     1      14.657   6.602  36.391  1.00  0.00     0.054 A 
ATOM     19  C   UNL     1      12.425   5.736  35.882  1.00  0.00     0.008 A 
ATOM     20  C   UNL     1      15.166   5.653  35.509  1.00  0.00     0.166 A 
ATOM     21  C   UNL     1      12.981   4.792  35.000  1.00  0.00     0.051 A 
ATOM     22  C   UNL     1      14.363   4.785  34.842  1.00  0.00     0.165 A 
ATOM     23  O   UNL     1      16.482   5.423  35.158  1.00  0.00    -0.454 OA
ATOM     24  O   UNL     1      15.134   3.966  34.042  1.00  0.00    -0.454 OA
ATOM     25  C   UNL     1      16.507   4.342  34.214  1.00  0.00     0.468 C 
ENDBRANCH  16  17
ENDBRANCH   3  16
BRANCH   4  26
ATOM     26  O   UNL     1      13.741   9.996  39.506  1.00  0.00    -0.368 OA
ATOM     27  H   UNL     1      14.660   9.667  39.325  1.00  0.00     0.213 HD
ENDBRANCH   4  26
TORSDOF 5
ENDMDL
MODEL 5
REMARK VINA RESULT:    -6.006      0.979      1.353
REMARK INTER + INTRA:          -8.520
REMARK INTER:                  -7.485
REMARK INTRA:                  -1.035
REMARK UNBOUND:                -0.934
REMARK SMILES O[C@@H]1OC[C@@H](Cc2ccc3c(c2)OCO3)[C@H]1Cc1ccc2c(c1)OCO2
REMARK SMILES IDX 4 1 5 2 16 3 2 4 3 5 6 6 7 7 12 8 8 9 11 10 9 11 10 12 13 13
REMARK SMILES IDX 15 14 14 15 17 16 18 17 23 18 19 19 22 20 20 21 21 22 24 23
REMARK SMILES IDX 26 24 25 25 1 26
REMARK H PARENT 1 27
REMARK Flexibility Score: inf
ROOT
ATOM      1  C   UNL     1      17.231   4.081  37.888  1.00  0.00     0.168 C 
ATOM      2  C   UNL     1      16.608   5.261  37.144  1.00  0.00     0.028 C 
ATOM      3  C   UNL     1      15.162   5.134  37.602  1.00  0.00     0.055 C 
ATOM      4  C   UNL     1      15.001   3.626  37.784  1.00  0.00     0.250 C 
ATOM      5  O   UNL     1      16.271   3.058  38.024  1.00  0.00    -0.352 OA
ENDROOT
BRANCH   2   6
ATOM      6  C   UNL     1      16.853   5.123  35.612  1.00  0.00     0.042 C 
BRANCH   6   7
ATOM      7  C   UNL     1      17.847   6.125  35.071  1.00  0.00    -0.044 A 
ATOM      8  C   UNL     1      18.511   5.882  33.846  1.00  0.00     0.054 A 
ATOM      9  C   UNL     1      18.073   7.350  35.754  1.00  0.00     0.008 A 
ATOM     10  C   UNL     1      19.402   6.844  33.380  1.00  0.00     0.166 A 
ATOM     11  C   UNL     1      18.982   8.295  35.247  1.00  0.00     0.051 A 
ATOM     12  C   UNL     1      19.629   7.999  34.053  1.00  0.00     0.165 A 
ATOM     13  O   UNL     1      20.166   6.823  32.230  1.00  0.00    -0.454 OA
ATOM     14  O   UNL     1      20.551   8.762  33.362  1.00  0.00    -0.454 OA
ATOM     15  C   UNL     1      20.925   8.040  32.179  1.00  0.00     0.468 C 
ENDBRANCH   6   7
ENDBRANCH   2   6
BRANCH   3  16
ATOM     16  C   UNL     1      14.093   5.774  36.691  1.00  0.00     0.044 C 
BRANCH  16  17
ATOM     17  C   UNL     1      13.410   6.929  37.374  1.00  0.00    -0.044 A 
ATOM     18  C   UNL     1      13.564   7.116  38.766  1.00  0.00     0.054 A 
ATOM     19  C   UNL     1      12.576   7.808  36.636  1.00  0.00     0.008 A 
ATOM     20  C   UNL     1      12.889   8.178  39.362  1.00  0.00     0.166 A 
ATOM     21  C   UNL     1      11.912   8.870  37.278  1.00  0.00     0.051 A 
ATOM     22  C   UNL     1      12.097   9.018  38.649  1.00  0.00     0.165 A 
ATOM     23  O   UNL     1      12.885   8.558  40.690  1.00  0.00    -0.454 OA
ATOM     24  O   UNL     1      11.558   9.969  39.492  1.00  0.00    -0.454 OA
ATOM     25  C   UNL     1      12.039   9.710  40.818  1.00  0.00     0.468 C 
ENDBRANCH  16  17
ENDBRANCH   3  16
BRANCH   4  26
ATOM     26  O   UNL     1      14.150   3.358  38.865  1.00  0.00    -0.368 OA
ATOM     27  H   UNL     1      14.131   4.184  39.417  1.00  0.00     0.213 HD
ENDBRANCH   4  26
TORSDOF 5
ENDMDL
MODEL 6
REMARK VINA RESULT:    -5.892     12.202     13.884
REMARK INTER + INTRA:          -8.376
REMARK INTER:                  -6.578
REMARK INTRA:                  -1.798
REMARK UNBOUND:                -0.934
REMARK SMILES O[C@@H]1OC[C@@H](Cc2ccc3c(c2)OCO3)[C@H]1Cc1ccc2c(c1)OCO2
REMARK SMILES IDX 4 1 5 2 16 3 2 4 3 5 6 6 7 7 12 8 8 9 11 10 9 11 10 12 13 13
REMARK SMILES IDX 15 14 14 15 17 16 18 17 23 18 19 19 22 20 20 21 21 22 24 23
REMARK SMILES IDX 26 24 25 25 1 26
REMARK H PARENT 1 27
REMARK Flexibility Score: inf
ROOT
ATOM      1  C   UNL     1       8.108   5.157  26.264  1.00  0.00     0.168 C 
ATOM      2  C   UNL     1       9.602   5.251  25.962  1.00  0.00     0.028 C 
ATOM      3  C   UNL     1       9.601   4.909  24.480  1.00  0.00     0.055 C 
ATOM      4  C   UNL     1       8.425   3.941  24.363  1.00  0.00     0.250 C 
ATOM      5  O   UNL     1       7.525   4.187  25.423  1.00  0.00    -0.352 OA
ENDROOT
BRANCH   2   6
ATOM      6  C   UNL     1      10.400   4.284  26.886  1.00  0.00     0.042 C 
BRANCH   6   7
ATOM      7  C   UNL     1      11.756   4.817  27.287  1.00  0.00    -0.044 A 
ATOM      8  C   UNL     1      12.734   3.950  27.830  1.00  0.00     0.054 A 
ATOM      9  C   UNL     1      12.084   6.181  27.062  1.00  0.00     0.008 A 
ATOM     10  C   UNL     1      13.973   4.486  28.165  1.00  0.00     0.166 A 
ATOM     11  C   UNL     1      13.350   6.681  27.416  1.00  0.00     0.051 A 
ATOM     12  C   UNL     1      14.267   5.796  27.969  1.00  0.00     0.165 A 
ATOM     13  O   UNL     1      15.067   3.846  28.714  1.00  0.00    -0.454 OA
ATOM     14  O   UNL     1      15.560   6.046  28.388  1.00  0.00    -0.454 OA
ATOM     15  C   UNL     1      16.112   4.815  28.877  1.00  0.00     0.468 C 
ENDBRANCH   6   7
ENDBRANCH   2   6
BRANCH   3  16
ATOM     16  C   UNL     1      10.922   4.364  23.898  1.00  0.00     0.044 C 
BRANCH  16  17
ATOM     17  C   UNL     1      11.822   5.482  23.439  1.00  0.00    -0.044 A 
ATOM     18  C   UNL     1      11.274   6.595  22.764  1.00  0.00     0.054 A 
ATOM     19  C   UNL     1      13.224   5.404  23.642  1.00  0.00     0.008 A 
ATOM     20  C   UNL     1      12.146   7.589  22.329  1.00  0.00     0.166 A 
ATOM     21  C   UNL     1      14.069   6.432  23.186  1.00  0.00     0.051 A 
ATOM     22  C   UNL     1      13.485   7.511  22.531  1.00  0.00     0.165 A 
ATOM     23  O   UNL     1      11.850   8.759  21.656  1.00  0.00    -0.454 OA
ATOM     24  O   UNL     1      14.098   8.628  21.997  1.00  0.00    -0.454 OA
ATOM     25  C   UNL     1      13.081   9.459  21.422  1.00  0.00     0.468 C 
ENDBRANCH  16  17
ENDBRANCH   3  16
BRANCH   4  26
ATOM     26  O   UNL     1       7.772   4.122  23.136  1.00  0.00    -0.368 OA
ATOM     27  H   UNL     1       8.450   3.953  22.430  1.00  0.00     0.213 HD
ENDBRANCH   4  26
TORSDOF 5
ENDMDL
MODEL 7
REMARK VINA RESULT:    -5.890      3.807      8.441
REMARK INTER + INTRA:          -8.374
REMARK INTER:                  -6.418
REMARK INTRA:                  -1.956
REMARK UNBOUND:                -0.934
REMARK SMILES O[C@@H]1OC[C@@H](Cc2ccc3c(c2)OCO3)[C@H]1Cc1ccc2c(c1)OCO2
REMARK SMILES IDX 4 1 5 2 16 3 2 4 3 5 6 6 7 7 12 8 8 9 11 10 9 11 10 12 13 13
REMARK SMILES IDX 15 14 14 15 17 16 18 17 23 18 19 19 22 20 20 21 21 22 24 23
REMARK SMILES IDX 26 24 25 25 1 26
REMARK H PARENT 1 27
REMARK Flexibility Score: inf
ROOT
ATOM      1  C   UNL     1      11.966   7.989  41.071  1.00  0.00     0.168 C 
ATOM      2  C   UNL     1      11.647   7.526  39.651  1.00  0.00     0.028 C 
ATOM      3  C   UNL     1      12.616   8.392  38.860  1.00  0.00     0.055 C 
ATOM      4  C   UNL     1      12.693   9.662  39.706  1.00  0.00     0.250 C 
ATOM      5  O   UNL     1      12.362   9.342  41.040  1.00  0.00    -0.352 OA
ENDROOT
BRANCH   2   6
ATOM      6  C   UNL     1      10.134   7.736  39.343  1.00  0.00     0.042 C 
BRANCH   6   7
ATOM      7  C   UNL     1       9.609   6.823  38.259  1.00  0.00    -0.044 A 
ATOM      8  C   UNL     1       8.702   7.313  37.290  1.00  0.00     0.054 A 
ATOM      9  C   UNL     1      10.072   5.483  38.165  1.00  0.00     0.008 A 
ATOM     10  C   UNL     1       8.263   6.438  36.301  1.00  0.00     0.166 A 
ATOM     11  C   UNL     1       9.601   4.633  37.150  1.00  0.00     0.051 A 
ATOM     12  C   UNL     1       8.692   5.153  36.236  1.00  0.00     0.165 A 
ATOM     13  O   UNL     1       7.379   6.682  35.268  1.00  0.00    -0.454 OA
ATOM     14  O   UNL     1       8.097   4.523  35.160  1.00  0.00    -0.454 OA
ATOM     15  C   UNL     1       7.241   5.473  34.508  1.00  0.00     0.468 C 
ENDBRANCH   6   7
ENDBRANCH   2   6
BRANCH   3  16
ATOM     16  C   UNL     1      12.261   8.645  37.379  1.00  0.00     0.044 C 
BRANCH  16  17
ATOM     17  C   UNL     1      12.677   7.486  36.511  1.00  0.00    -0.044 A 
ATOM     18  C   UNL     1      13.875   6.791  36.789  1.00  0.00     0.054 A 
ATOM     19  C   UNL     1      11.895   7.115  35.386  1.00  0.00     0.008 A 
ATOM     20  C   UNL     1      14.237   5.748  35.942  1.00  0.00     0.166 A 
ATOM     21  C   UNL     1      12.298   6.054  34.556  1.00  0.00     0.051 A 
ATOM     22  C   UNL     1      13.481   5.395  34.871  1.00  0.00     0.165 A 
ATOM     23  O   UNL     1      15.348   4.930  36.010  1.00  0.00    -0.454 OA
ATOM     24  O   UNL     1      14.079   4.337  34.215  1.00  0.00    -0.454 OA
ATOM     25  C   UNL     1      15.286   4.005  34.915  1.00  0.00     0.468 C 
ENDBRANCH  16  17
ENDBRANCH   3  16
BRANCH   4  26
ATOM     26  O   UNL     1      13.988  10.198  39.655  1.00  0.00    -0.368 OA
ATOM     27  H   UNL     1      14.499   9.762  40.385  1.00  0.00     0.213 HD
ENDBRANCH   4  26
TORSDOF 5
ENDMDL
MODEL 8
REMARK VINA RESULT:    -5.847     12.898     15.726
REMARK INTER + INTRA:          -8.319
REMARK INTER:                  -7.292
REMARK INTRA:                  -1.027
REMARK UNBOUND:                -0.934
REMARK SMILES O[C@@H]1OC[C@@H](Cc2ccc3c(c2)OCO3)[C@H]1Cc1ccc2c(c1)OCO2
REMARK SMILES IDX 4 1 5 2 16 3 2 4 3 5 6 6 7 7 12 8 8 9 11 10 9 11 10 12 13 13
REMARK SMILES IDX 15 14 14 15 17 16 18 17 23 18 19 19 22 20 20 21 21 22 24 23
REMARK SMILES IDX 26 24 25 25 1 26
REMARK H PARENT 1 27
REMARK Flexibility Score: inf
ROOT
ATOM      1  C   UNL     1       6.763   3.804  24.783  1.00  0.00     0.168 C 
ATOM      2  C   UNL     1       7.543   4.973  25.381  1.00  0.00     0.028 C 
ATOM      3  C   UNL     1       8.944   4.643  24.888  1.00  0.00     0.055 C 
ATOM      4  C   UNL     1       8.934   3.116  24.854  1.00  0.00     0.250 C 
ATOM      5  O   UNL     1       7.600   2.672  24.717  1.00  0.00    -0.352 OA
ENDROOT
BRANCH   2   6
ATOM      6  C   UNL     1       7.355   5.012  26.927  1.00  0.00     0.042 C 
BRANCH   6   7
ATOM      7  C   UNL     1       6.522   6.180  27.401  1.00  0.00    -0.044 A 
ATOM      8  C   UNL     1       5.974   6.184  28.706  1.00  0.00     0.054 A 
ATOM      9  C   UNL     1       6.337   7.314  26.566  1.00  0.00     0.008 A 
ATOM     10  C   UNL     1       5.231   7.292  29.102  1.00  0.00     0.166 A 
ATOM     11  C   UNL     1       5.578   8.413  27.007  1.00  0.00     0.051 A 
ATOM     12  C   UNL     1       5.039   8.358  28.287  1.00  0.00     0.165 A 
ATOM     13  O   UNL     1       4.596   7.515  30.309  1.00  0.00    -0.454 OA
ATOM     14  O   UNL     1       4.271   9.304  28.938  1.00  0.00    -0.454 OA
ATOM     15  C   UNL     1       3.962   8.800  30.246  1.00  0.00     0.468 C 
ENDBRANCH   6   7
ENDBRANCH   2   6
BRANCH   3  16
ATOM     16  C   UNL     1      10.116   5.245  25.692  1.00  0.00     0.044 C 
BRANCH  16  17
ATOM     17  C   UNL     1      10.950   6.164  24.839  1.00  0.00    -0.044 A 
ATOM     18  C   UNL     1      10.750   6.206  23.441  1.00  0.00     0.054 A 
ATOM     19  C   UNL     1      11.969   6.959  25.425  1.00  0.00     0.008 A 
ATOM     20  C   UNL     1      11.565   7.046  22.688  1.00  0.00     0.166 A 
ATOM     21  C   UNL     1      12.771   7.796  24.627  1.00  0.00     0.051 A 
ATOM     22  C   UNL     1      12.534   7.808  23.257  1.00  0.00     0.165 A 
ATOM     23  O   UNL     1      11.558   7.254  21.323  1.00  0.00    -0.454 OA
ATOM     24  O   UNL     1      13.182   8.535  22.278  1.00  0.00    -0.454 OA
ATOM     25  C   UNL     1      12.585   8.208  21.015  1.00  0.00     0.468 C 
ENDBRANCH  16  17
ENDBRANCH   3  16
BRANCH   4  26
ATOM     26  O   UNL     1       9.700   2.652  23.775  1.00  0.00    -0.368 OA
ATOM     27  H   UNL     1      10.479   2.178  24.169  1.00  0.00     0.213 HD
ENDBRANCH   4  26
TORSDOF 5
ENDMDL
MODEL 9
REMARK VINA RESULT:    -5.776      2.832      4.916
REMARK INTER + INTRA:          -8.230
REMARK INTER:                  -6.719
REMARK INTRA:                  -1.510
REMARK UNBOUND:                -0.934
REMARK SMILES O[C@@H]1OC[C@@H](Cc2ccc3c(c2)OCO3)[C@H]1Cc1ccc2c(c1)OCO2
REMARK SMILES IDX 4 1 5 2 16 3 2 4 3 5 6 6 7 7 12 8 8 9 11 10 9 11 10 12 13 13
REMARK SMILES IDX 15 14 14 15 17 16 18 17 23 18 19 19 22 20 20 21 21 22 24 23
REMARK SMILES IDX 26 24 25 25 1 26
REMARK H PARENT 1 27
REMARK Flexibility Score: inf
ROOT
ATOM      1  C   UNL     1      10.969   4.119  34.485  1.00  0.00     0.168 C 
ATOM      2  C   UNL     1      12.026   4.878  35.285  1.00  0.00     0.028 C 
ATOM      3  C   UNL     1      11.362   6.243  35.381  1.00  0.00     0.055 C 
ATOM      4  C   UNL     1      10.577   6.325  34.074  1.00  0.00     0.250 C 
ATOM      5  O   UNL     1      10.308   5.015  33.621  1.00  0.00    -0.352 OA
ENDROOT
BRANCH   2   6
ATOM      6  C   UNL     1      13.396   4.835  34.544  1.00  0.00     0.042 C 
BRANCH   6   7
ATOM      7  C   UNL     1      14.582   4.757  35.477  1.00  0.00    -0.044 A 
ATOM      8  C   UNL     1      14.777   3.615  36.290  1.00  0.00     0.054 A 
ATOM      9  C   UNL     1      15.547   5.800  35.499  1.00  0.00     0.008 A 
ATOM     10  C   UNL     1      15.895   3.583  37.118  1.00  0.00     0.166 A 
ATOM     11  C   UNL     1      16.662   5.726  36.352  1.00  0.00     0.051 A 
ATOM     12  C   UNL     1      16.796   4.596  37.150  1.00  0.00     0.165 A 
ATOM     13  O   UNL     1      16.285   2.592  37.998  1.00  0.00    -0.454 OA
ATOM     14  O   UNL     1      17.797   4.294  38.054  1.00  0.00    -0.454 OA
ATOM     15  C   UNL     1      17.505   3.011  38.625  1.00  0.00     0.468 C 
ENDBRANCH   6   7
ENDBRANCH   2   6
BRANCH   3  16
ATOM     16  C   UNL     1      12.297   7.447  35.629  1.00  0.00     0.044 C 
BRANCH  16  17
ATOM     17  C   UNL     1      12.395   7.772  37.097  1.00  0.00    -0.044 A 
ATOM     18  C   UNL     1      11.681   8.869  37.626  1.00  0.00     0.054 A 
ATOM     19  C   UNL     1      13.237   7.007  37.946  1.00  0.00     0.008 A 
ATOM     20  C   UNL     1      11.827   9.152  38.981  1.00  0.00     0.166 A 
ATOM     21  C   UNL     1      13.356   7.327  39.310  1.00  0.00     0.051 A 
ATOM     22  C   UNL     1      12.630   8.414  39.788  1.00  0.00     0.165 A 
ATOM     23  O   UNL     1      11.238  10.161  39.717  1.00  0.00    -0.454 OA
ATOM     24  O   UNL     1      12.583   8.920  41.072  1.00  0.00    -0.454 OA
ATOM     25  C   UNL     1      11.697  10.048  41.072  1.00  0.00     0.468 C 
ENDBRANCH  16  17
ENDBRANCH   3  16
BRANCH   4  26
ATOM     26  O   UNL     1       9.372   7.013  34.277  1.00  0.00    -0.368 OA
ATOM     27  H   UNL     1       9.518   7.937  33.943  1.00  0.00     0.213 HD
ENDBRANCH   4  26
TORSDOF 5
ENDMDL
