MODEL 1
REMARK VINA RESULT:    -6.363      0.000      0.000
REMARK INTER + INTRA:          -8.717
REMARK INTER:                  -8.037
REMARK INTRA:                  -0.680
REMARK UNBOUND:                -0.680
REMARK SMILES Oc1ccc(CCc2cc(O)cc(O)c2)cc1
REMARK SMILES IDX 6 1 5 2 4 3 3 4 2 5 16 6 17 7 1 8 7 10 8 11 15 12 9 13 13 14
REMARK SMILES IDX 10 15 12 16 14 17 11 19
REMARK H PARENT 1 9 14 18 11 20
REMARK Flexibility Score: inf
ROOT
ATOM      1  C   UNL     1     -37.976 -11.756  23.302  1.00  0.00     0.040 C 
ENDROOT
BRANCH   1   2
ATOM      2  C   UNL     1     -39.048 -12.399  24.145  1.00  0.00    -0.047 A 
ATOM      3  C   UNL     1     -38.768 -13.559  24.887  1.00  0.00     0.007 A 
ATOM      4  C   UNL     1     -39.749 -14.124  25.707  1.00  0.00     0.046 A 
ATOM      5  C   UNL     1     -41.014 -13.536  25.799  1.00  0.00     0.115 A 
ATOM      6  C   UNL     1     -40.316 -11.807  24.247  1.00  0.00     0.007 A 
ATOM      7  C   UNL     1     -41.297 -12.375  25.068  1.00  0.00     0.046 A 
BRANCH   5   8
ATOM      8  O   UNL     1     -41.982 -14.109  26.621  1.00  0.00    -0.508 OA
ATOM      9  H   UNL     1     -41.820 -14.251  27.610  1.00  0.00     0.293 HD
ENDBRANCH   5   8
ENDBRANCH   1   2
BRANCH   1  10
ATOM     10  C   UNL     1     -36.901 -11.082  24.165  1.00  0.00     0.040 C 
BRANCH  10  11
ATOM     11  C   UNL     1     -37.495 -10.060  25.103  1.00  0.00    -0.040 A 
ATOM     12  C   UNL     1     -37.659 -10.363  26.464  1.00  0.00     0.050 A 
ATOM     13  C   UNL     1     -37.949  -8.826  24.610  1.00  0.00     0.050 A 
ATOM     14  C   UNL     1     -38.256  -9.433  27.327  1.00  0.00     0.119 A 
ATOM     15  C   UNL     1     -38.548  -7.898  25.472  1.00  0.00     0.119 A 
ATOM     16  C   UNL     1     -38.696  -8.203  26.828  1.00  0.00     0.092 A 
BRANCH  14  17
ATOM     17  O   UNL     1     -38.419  -9.724  28.680  1.00  0.00    -0.508 OA
ATOM     18  H   UNL     1     -38.257  -9.025  29.395  1.00  0.00     0.293 HD
ENDBRANCH  14  17
BRANCH  15  19
ATOM     19  O   UNL     1     -39.002  -6.672  24.990  1.00  0.00    -0.508 OA
ATOM     20  H   UNL     1     -39.902  -6.296  25.264  1.00  0.00     0.293 HD
ENDBRANCH  15  19
ENDBRANCH  10  11
ENDBRANCH   1  10
TORSDOF 6
ENDMDL
MODEL 2
REMARK VINA RESULT:    -6.356      2.413      5.392
REMARK INTER + INTRA:          -8.707
REMARK INTER:                  -8.067
REMARK INTRA:                  -0.640
REMARK UNBOUND:                -0.680
REMARK SMILES Oc1ccc(CCc2cc(O)cc(O)c2)cc1
REMARK SMILES IDX 6 1 5 2 4 3 3 4 2 5 16 6 17 7 1 8 7 10 8 11 15 12 9 13 13 14
REMARK SMILES IDX 10 15 12 16 14 17 11 19
REMARK H PARENT 1 9 14 18 11 20
REMARK Flexibility Score: inf
ROOT
ATOM      1  C   UNL     1     -37.806  -8.450  25.419  1.00  0.00     0.040 C 
ENDROOT
BRANCH   1   2
ATOM      2  C   UNL     1     -36.963  -8.987  26.548  1.00  0.00    -0.047 A 
ATOM      3  C   UNL     1     -37.567  -9.454  27.727  1.00  0.00     0.007 A 
ATOM      4  C   UNL     1     -36.786  -9.997  28.751  1.00  0.00     0.046 A 
ATOM      5  C   UNL     1     -35.398 -10.084  28.607  1.00  0.00     0.115 A 
ATOM      6  C   UNL     1     -35.570  -9.083  26.404  1.00  0.00     0.007 A 
ATOM      7  C   UNL     1     -34.790  -9.626  27.431  1.00  0.00     0.046 A 
BRANCH   5   8
ATOM      8  O   UNL     1     -34.632 -10.628  29.636  1.00  0.00    -0.508 OA
ATOM      9  H   UNL     1     -34.698 -10.282  30.585  1.00  0.00     0.293 HD
ENDBRANCH   5   8
ENDBRANCH   1   2
BRANCH   1  10
ATOM     10  C   UNL     1     -37.640  -9.281  24.139  1.00  0.00     0.040 C 
BRANCH  10  11
ATOM     11  C   UNL     1     -38.028 -10.723  24.354  1.00  0.00    -0.040 A 
ATOM     12  C   UNL     1     -39.212 -11.040  25.038  1.00  0.00     0.050 A 
ATOM     13  C   UNL     1     -37.177 -11.756  23.930  1.00  0.00     0.050 A 
ATOM     14  C   UNL     1     -39.551 -12.379  25.280  1.00  0.00     0.119 A 
ATOM     15  C   UNL     1     -37.513 -13.094  24.174  1.00  0.00     0.119 A 
ATOM     16  C   UNL     1     -38.701 -13.402  24.846  1.00  0.00     0.092 A 
BRANCH  14  17
ATOM     17  O   UNL     1     -40.726 -12.703  25.955  1.00  0.00    -0.508 OA
ATOM     18  H   UNL     1     -40.854 -13.608  26.392  1.00  0.00     0.293 HD
ENDBRANCH  14  17
BRANCH  15  19
ATOM     19  O   UNL     1     -36.674 -14.125  23.758  1.00  0.00    -0.508 OA
ATOM     20  H   UNL     1     -36.881 -15.095  23.968  1.00  0.00     0.293 HD
ENDBRANCH  15  19
ENDBRANCH  10  11
ENDBRANCH   1  10
TORSDOF 6
ENDMDL
MODEL 3
REMARK VINA RESULT:    -6.284      0.095      2.032
REMARK INTER + INTRA:          -8.617
REMARK INTER:                  -7.951
REMARK INTRA:                  -0.666
REMARK UNBOUND:                -0.680
REMARK SMILES Oc1ccc(CCc2cc(O)cc(O)c2)cc1
REMARK SMILES IDX 6 1 5 2 4 3 3 4 2 5 16 6 17 7 1 8 7 10 8 11 15 12 9 13 13 14
REMARK SMILES IDX 10 15 12 16 14 17 11 19
REMARK H PARENT 1 9 14 18 11 20
REMARK Flexibility Score: inf
ROOT
ATOM      1  C   UNL     1     -37.891 -11.799  23.256  1.00  0.00     0.040 C 
ENDROOT
BRANCH   1   2
ATOM      2  C   UNL     1     -38.987 -12.436  24.072  1.00  0.00    -0.047 A 
ATOM      3  C   UNL     1     -38.719 -13.566  24.862  1.00  0.00     0.007 A 
ATOM      4  C   UNL     1     -39.725 -14.125  25.657  1.00  0.00     0.046 A 
ATOM      5  C   UNL     1     -41.003 -13.558  25.675  1.00  0.00     0.115 A 
ATOM      6  C   UNL     1     -40.269 -11.865  24.100  1.00  0.00     0.007 A 
ATOM      7  C   UNL     1     -41.274 -12.426  24.896  1.00  0.00     0.046 A 
BRANCH   5   8
ATOM      8  O   UNL     1     -41.995 -14.124  26.473  1.00  0.00    -0.508 OA
ATOM      9  H   UNL     1     -41.767 -14.683  27.286  1.00  0.00     0.293 HD
ENDBRANCH   5   8
ENDBRANCH   1   2
BRANCH   1  10
ATOM     10  C   UNL     1     -36.868 -11.075  24.143  1.00  0.00     0.040 C 
BRANCH  10  11
ATOM     11  C   UNL     1     -37.533 -10.088  25.071  1.00  0.00    -0.040 A 
ATOM     12  C   UNL     1     -37.992  -8.856  24.579  1.00  0.00     0.050 A 
ATOM     13  C   UNL     1     -37.639 -10.367  26.443  1.00  0.00     0.050 A 
ATOM     14  C   UNL     1     -38.566  -7.917  25.449  1.00  0.00     0.119 A 
ATOM     15  C   UNL     1     -38.210  -9.429  27.313  1.00  0.00     0.119 A 
ATOM     16  C   UNL     1     -38.675  -8.208  26.813  1.00  0.00     0.092 A 
BRANCH  14  17
ATOM     17  O   UNL     1     -39.027  -6.694  24.969  1.00  0.00    -0.508 OA
ATOM     18  H   UNL     1     -39.429  -5.999  25.587  1.00  0.00     0.293 HD
ENDBRANCH  14  17
BRANCH  15  19
ATOM     19  O   UNL     1     -38.317  -9.698  28.676  1.00  0.00    -0.508 OA
ATOM     20  H   UNL     1     -39.052  -9.287  29.241  1.00  0.00     0.293 HD
ENDBRANCH  15  19
ENDBRANCH  10  11
ENDBRANCH   1  10
TORSDOF 6
ENDMDL
MODEL 4
REMARK VINA RESULT:    -6.273      1.584      2.137
REMARK INTER + INTRA:          -8.603
REMARK INTER:                  -7.812
REMARK INTRA:                  -0.792
REMARK UNBOUND:                -0.680
REMARK SMILES Oc1ccc(CCc2cc(O)cc(O)c2)cc1
REMARK SMILES IDX 6 1 5 2 4 3 3 4 2 5 16 6 17 7 1 8 7 10 8 11 15 12 9 13 13 14
REMARK SMILES IDX 10 15 12 16 14 17 11 19
REMARK H PARENT 1 9 14 18 11 20
REMARK Flexibility Score: inf
ROOT
ATOM      1  C   UNL     1     -36.741 -10.725  23.118  1.00  0.00     0.040 C 
ENDROOT
BRANCH   1   2
ATOM      2  C   UNL     1     -37.890 -11.646  23.440  1.00  0.00    -0.047 A 
ATOM      3  C   UNL     1     -37.717 -12.707  24.345  1.00  0.00     0.007 A 
ATOM      4  C   UNL     1     -38.797 -13.529  24.681  1.00  0.00     0.046 A 
ATOM      5  C   UNL     1     -40.058 -13.298  24.122  1.00  0.00     0.115 A 
ATOM      6  C   UNL     1     -39.159 -11.413  22.888  1.00  0.00     0.007 A 
ATOM      7  C   UNL     1     -40.238 -12.237  23.225  1.00  0.00     0.046 A 
BRANCH   5   8
ATOM      8  O   UNL     1     -41.126 -14.125  24.467  1.00  0.00    -0.508 OA
ATOM      9  H   UNL     1     -41.384 -14.920  23.897  1.00  0.00     0.293 HD
ENDBRANCH   5   8
ENDBRANCH   1   2
BRANCH   1  10
ATOM     10  C   UNL     1     -36.948  -9.326  23.713  1.00  0.00     0.040 C 
BRANCH  10  11
ATOM     11  C   UNL     1     -37.037  -9.367  25.219  1.00  0.00    -0.040 A 
ATOM     12  C   UNL     1     -35.926  -9.765  25.980  1.00  0.00     0.050 A 
ATOM     13  C   UNL     1     -38.247  -9.070  25.866  1.00  0.00     0.050 A 
ATOM     14  C   UNL     1     -36.021  -9.850  27.377  1.00  0.00     0.119 A 
ATOM     15  C   UNL     1     -38.343  -9.158  27.262  1.00  0.00     0.119 A 
ATOM     16  C   UNL     1     -37.228  -9.544  28.013  1.00  0.00     0.092 A 
BRANCH  14  17
ATOM     17  O   UNL     1     -34.923 -10.241  28.140  1.00  0.00    -0.508 OA
ATOM     18  H   UNL     1     -33.984 -10.234  27.759  1.00  0.00     0.293 HD
ENDBRANCH  14  17
BRANCH  15  19
ATOM     19  O   UNL     1     -39.541  -8.866  27.910  1.00  0.00    -0.508 OA
ATOM     20  H   UNL     1     -39.873  -7.914  28.006  1.00  0.00     0.293 HD
ENDBRANCH  15  19
ENDBRANCH  10  11
ENDBRANCH   1  10
TORSDOF 6
ENDMDL
MODEL 5
REMARK VINA RESULT:    -6.262      2.416      5.448
REMARK INTER + INTRA:          -8.589
REMARK INTER:                  -7.832
REMARK INTRA:                  -0.757
REMARK UNBOUND:                -0.680
REMARK SMILES Oc1ccc(CCc2cc(O)cc(O)c2)cc1
REMARK SMILES IDX 6 1 5 2 4 3 3 4 2 5 16 6 17 7 1 8 7 10 8 11 15 12 9 13 13 14
REMARK SMILES IDX 10 15 12 16 14 17 11 19
REMARK H PARENT 1 9 14 18 11 20
REMARK Flexibility Score: inf
ROOT
ATOM      1  C   UNL     1     -37.891  -8.559  25.340  1.00  0.00     0.040 C 
ENDROOT
BRANCH   1   2
ATOM      2  C   UNL     1     -37.053  -9.060  26.489  1.00  0.00    -0.047 A 
ATOM      3  C   UNL     1     -37.664  -9.515  27.669  1.00  0.00     0.007 A 
ATOM      4  C   UNL     1     -36.887 -10.026  28.713  1.00  0.00     0.046 A 
ATOM      5  C   UNL     1     -35.496 -10.092  28.588  1.00  0.00     0.115 A 
ATOM      6  C   UNL     1     -35.656  -9.136  26.364  1.00  0.00     0.007 A 
ATOM      7  C   UNL     1     -34.881  -9.646  27.410  1.00  0.00     0.046 A 
BRANCH   5   8
ATOM      8  O   UNL     1     -34.734 -10.605  29.636  1.00  0.00    -0.508 OA
ATOM      9  H   UNL     1     -34.297 -11.516  29.576  1.00  0.00     0.293 HD
ENDBRANCH   5   8
ENDBRANCH   1   2
BRANCH   1  10
ATOM     10  C   UNL     1     -37.605  -9.333  24.047  1.00  0.00     0.040 C 
BRANCH  10  11
ATOM     11  C   UNL     1     -37.960 -10.794  24.179  1.00  0.00    -0.040 A 
ATOM     12  C   UNL     1     -37.049 -11.781  23.773  1.00  0.00     0.050 A 
ATOM     13  C   UNL     1     -39.228 -11.175  24.649  1.00  0.00     0.050 A 
ATOM     14  C   UNL     1     -37.396 -13.138  23.850  1.00  0.00     0.119 A 
ATOM     15  C   UNL     1     -39.576 -12.530  24.724  1.00  0.00     0.119 A 
ATOM     16  C   UNL     1     -38.657 -13.507  24.328  1.00  0.00     0.092 A 
BRANCH  14  17
ATOM     17  O   UNL     1     -36.495 -14.124  23.452  1.00  0.00    -0.508 OA
ATOM     18  H   UNL     1     -35.827 -14.524  24.100  1.00  0.00     0.293 HD
ENDBRANCH  14  17
BRANCH  15  19
ATOM     19  O   UNL     1     -40.832 -12.916  25.187  1.00  0.00    -0.508 OA
ATOM     20  H   UNL     1     -41.163 -13.869  25.089  1.00  0.00     0.293 HD
ENDBRANCH  15  19
ENDBRANCH  10  11
ENDBRANCH   1  10
TORSDOF 6
ENDMDL
MODEL 6
REMARK VINA RESULT:    -6.142     12.718     14.408
REMARK INTER + INTRA:          -8.438
REMARK INTER:                  -7.894
REMARK INTRA:                  -0.544
REMARK UNBOUND:                -0.680
REMARK SMILES Oc1ccc(CCc2cc(O)cc(O)c2)cc1
REMARK SMILES IDX 6 1 5 2 4 3 3 4 2 5 16 6 17 7 1 8 7 10 8 11 15 12 9 13 13 14
REMARK SMILES IDX 10 15 12 16 14 17 11 19
REMARK H PARENT 1 9 14 18 11 20
REMARK Flexibility Score: inf
ROOT
ATOM      1  C   UNL     1     -24.372 -11.210  27.412  1.00  0.00     0.040 C 
ENDROOT
BRANCH   1   2
ATOM      2  C   UNL     1     -23.851 -11.977  28.600  1.00  0.00    -0.047 A 
ATOM      3  C   UNL     1     -23.535 -11.308  29.795  1.00  0.00     0.007 A 
ATOM      4  C   UNL     1     -23.100 -12.028  30.911  1.00  0.00     0.046 A 
ATOM      5  C   UNL     1     -22.981 -13.420  30.849  1.00  0.00     0.115 A 
ATOM      6  C   UNL     1     -23.738 -13.375  28.545  1.00  0.00     0.007 A 
ATOM      7  C   UNL     1     -23.302 -14.093  29.663  1.00  0.00     0.046 A 
BRANCH   5   8
ATOM      8  O   UNL     1     -22.547 -14.125  31.970  1.00  0.00    -0.508 OA
ATOM      9  H   UNL     1     -21.805 -13.773  32.562  1.00  0.00     0.293 HD
ENDBRANCH   5   8
ENDBRANCH   1   2
BRANCH   1  10
ATOM     10  C   UNL     1     -24.803  -9.788  27.796  1.00  0.00     0.040 C 
BRANCH  10  11
ATOM     11  C   UNL     1     -26.238  -9.744  28.258  1.00  0.00    -0.040 A 
ATOM     12  C   UNL     1     -27.119 -10.784  27.922  1.00  0.00     0.050 A 
ATOM     13  C   UNL     1     -26.720  -8.634  28.971  1.00  0.00     0.050 A 
ATOM     14  C   UNL     1     -28.466 -10.723  28.309  1.00  0.00     0.119 A 
ATOM     15  C   UNL     1     -28.066  -8.570  29.355  1.00  0.00     0.119 A 
ATOM     16  C   UNL     1     -28.934  -9.617  29.026  1.00  0.00     0.092 A 
BRANCH  14  17
ATOM     17  O   UNL     1     -29.346 -11.752  27.983  1.00  0.00    -0.508 OA
ATOM     18  H   UNL     1     -29.590 -12.473  28.652  1.00  0.00     0.293 HD
ENDBRANCH  14  17
BRANCH  15  19
ATOM     19  O   UNL     1     -28.552  -7.472  30.060  1.00  0.00    -0.508 OA
ATOM     20  H   UNL     1     -29.282  -7.570  30.757  1.00  0.00     0.293 HD
ENDBRANCH  15  19
ENDBRANCH  10  11
ENDBRANCH   1  10
TORSDOF 6
ENDMDL
MODEL 7
REMARK VINA RESULT:    -6.092     12.711     14.408
REMARK INTER + INTRA:          -8.375
REMARK INTER:                  -7.863
REMARK INTRA:                  -0.512
REMARK UNBOUND:                -0.680
REMARK SMILES Oc1ccc(CCc2cc(O)cc(O)c2)cc1
REMARK SMILES IDX 6 1 5 2 4 3 3 4 2 5 16 6 17 7 1 8 7 10 8 11 15 12 9 13 13 14
REMARK SMILES IDX 10 15 12 16 14 17 11 19
REMARK H PARENT 1 9 14 18 11 20
REMARK Flexibility Score: inf
ROOT
ATOM      1  C   UNL     1     -24.400 -11.166  27.499  1.00  0.00     0.040 C 
ENDROOT
BRANCH   1   2
ATOM      2  C   UNL     1     -23.934 -11.955  28.696  1.00  0.00    -0.047 A 
ATOM      3  C   UNL     1     -23.610 -13.316  28.568  1.00  0.00     0.007 A 
ATOM      4  C   UNL     1     -23.130 -14.032  29.668  1.00  0.00     0.046 A 
ATOM      5  C   UNL     1     -22.964 -13.398  30.903  1.00  0.00     0.115 A 
ATOM      6  C   UNL     1     -23.758 -11.320  29.936  1.00  0.00     0.007 A 
ATOM      7  C   UNL     1     -23.279 -12.040  31.036  1.00  0.00     0.046 A 
BRANCH   5   8
ATOM      8  O   UNL     1     -22.484 -14.125  31.991  1.00  0.00    -0.508 OA
ATOM      9  H   UNL     1     -21.856 -14.910  31.868  1.00  0.00     0.293 HD
ENDBRANCH   5   8
ENDBRANCH   1   2
BRANCH   1  10
ATOM     10  C   UNL     1     -24.819  -9.741  27.884  1.00  0.00     0.040 C 
BRANCH  10  11
ATOM     11  C   UNL     1     -26.278  -9.668  28.259  1.00  0.00    -0.040 A 
ATOM     12  C   UNL     1     -26.760  -8.589  29.017  1.00  0.00     0.050 A 
ATOM     13  C   UNL     1     -27.152 -10.710  27.909  1.00  0.00     0.050 A 
ATOM     14  C   UNL     1     -28.106  -8.544  29.407  1.00  0.00     0.119 A 
ATOM     15  C   UNL     1     -28.497 -10.668  28.301  1.00  0.00     0.119 A 
ATOM     16  C   UNL     1     -28.970  -9.583  29.046  1.00  0.00     0.092 A 
BRANCH  14  17
ATOM     17  O   UNL     1     -28.592  -7.475  30.156  1.00  0.00    -0.508 OA
ATOM     18  H   UNL     1     -27.990  -6.712  30.442  1.00  0.00     0.293 HD
ENDBRANCH  14  17
BRANCH  15  19
ATOM     19  O   UNL     1     -29.369 -11.699  27.959  1.00  0.00    -0.508 OA
ATOM     20  H   UNL     1     -29.169 -12.329  27.191  1.00  0.00     0.293 HD
ENDBRANCH  15  19
ENDBRANCH  10  11
ENDBRANCH   1  10
TORSDOF 6
ENDMDL
MODEL 8
REMARK VINA RESULT:    -5.607      1.476      2.930
REMARK INTER + INTRA:          -7.762
REMARK INTER:                  -7.115
REMARK INTRA:                  -0.646
REMARK UNBOUND:                -0.680
REMARK SMILES Oc1ccc(CCc2cc(O)cc(O)c2)cc1
REMARK SMILES IDX 6 1 5 2 4 3 3 4 2 5 16 6 17 7 1 8 7 10 8 11 15 12 9 13 13 14
REMARK SMILES IDX 10 15 12 16 14 17 11 19
REMARK H PARENT 1 9 14 18 11 20
REMARK Flexibility Score: inf
ROOT
ATOM      1  C   UNL     1     -36.347 -10.308  23.128  1.00  0.00     0.040 C 
ENDROOT
BRANCH   1   2
ATOM      2  C   UNL     1     -37.469 -11.296  23.324  1.00  0.00    -0.047 A 
ATOM      3  C   UNL     1     -38.706 -11.102  22.688  1.00  0.00     0.007 A 
ATOM      4  C   UNL     1     -39.728 -12.046  22.831  1.00  0.00     0.046 A 
ATOM      5  C   UNL     1     -39.523 -13.192  23.605  1.00  0.00     0.115 A 
ATOM      6  C   UNL     1     -37.265 -12.453  24.093  1.00  0.00     0.007 A 
ATOM      7  C   UNL     1     -38.289 -13.395  24.236  1.00  0.00     0.046 A 
BRANCH   5   8
ATOM      8  O   UNL     1     -40.550 -14.125  23.738  1.00  0.00    -0.508 OA
ATOM      9  H   UNL     1     -41.522 -13.843  23.757  1.00  0.00     0.293 HD
ENDBRANCH   5   8
ENDBRANCH   1   2
BRANCH   1  10
ATOM     10  C   UNL     1     -35.852  -9.736  24.463  1.00  0.00     0.040 C 
BRANCH  10  11
ATOM     11  C   UNL     1     -36.992  -9.225  25.309  1.00  0.00    -0.040 A 
ATOM     12  C   UNL     1     -37.822  -8.198  24.830  1.00  0.00     0.050 A 
ATOM     13  C   UNL     1     -37.192  -9.726  26.605  1.00  0.00     0.050 A 
ATOM     14  C   UNL     1     -38.852  -7.689  25.634  1.00  0.00     0.119 A 
ATOM     15  C   UNL     1     -38.219  -9.215  27.410  1.00  0.00     0.119 A 
ATOM     16  C   UNL     1     -39.048  -8.201  26.921  1.00  0.00     0.092 A 
BRANCH  14  17
ATOM     17  O   UNL     1     -39.681  -6.673  25.165  1.00  0.00    -0.508 OA
ATOM     18  H   UNL     1     -40.617  -6.541  25.530  1.00  0.00     0.293 HD
ENDBRANCH  14  17
BRANCH  15  19
ATOM     19  O   UNL     1     -38.423  -9.706  28.698  1.00  0.00    -0.508 OA
ATOM     20  H   UNL     1     -37.989 -10.567  29.011  1.00  0.00     0.293 HD
ENDBRANCH  15  19
ENDBRANCH  10  11
ENDBRANCH   1  10
TORSDOF 6
ENDMDL
