MODEL 1
REMARK VINA RESULT:    24.449      0.000      0.000
REMARK INTER + INTRA:          30.802
REMARK INTER:                  30.167
REMARK INTRA:                   0.635
REMARK UNBOUND:                 0.635
REMARK SMILES C=C1[C@H]2CC[C@@H]3[C@H]2C(C)(C)CCC[C@]13C
REMARK SMILES IDX 14 1 6 2 7 3 3 4 2 5 1 6 4 7 5 8 15 9 8 10 9 11 10 12 11 13
REMARK SMILES IDX 13 15 12 16
REMARK H PARENT
REMARK Flexibility Score: 80.00
ROOT
ATOM      1  C   UNL     1       0.764   4.903  -9.538  1.00  0.00    -0.008 C 
ATOM      2  C   UNL     1      -0.812   4.993  -9.499  1.00  0.00     0.003 C 
ATOM      3  C   UNL     1      -1.114   6.502  -9.392  1.00  0.00     0.006 C 
ATOM      4  C   UNL     1      -0.238   6.862 -10.594  1.00  0.00     0.019 C 
ATOM      5  C   UNL     1       1.064   6.200 -10.244  1.00  0.00    -0.068 C 
ATOM      6  C   UNL     1       2.275   6.654 -10.591  1.00  0.00     0.009 C 
ATOM      7  C   UNL     1      -0.890   5.997 -11.700  1.00  0.00     0.008 C 
ATOM      8  C   UNL     1      -1.381   4.750 -10.924  1.00  0.00     0.005 C 
ATOM      9  C   UNL     1       1.296   3.695 -10.359  1.00  0.00     0.016 C 
ENDROOT
BRANCH   3  10
ATOM     10  C   UNL     1      -0.905   7.257  -8.009  1.00  0.00    -0.032 C 
ATOM     11  C   UNL     1      -0.252   8.648  -8.212  1.00  0.00     0.011 C 
ATOM     12  C   UNL     1      -2.308   7.524  -7.397  1.00  0.00     0.011 C 
BRANCH  10  13
ATOM     13  C   UNL     1      -0.135   6.444  -6.929  1.00  0.00     0.007 CG0
ATOM     14  G   UNL     1       1.306   6.077  -7.273  1.00  0.00     0.000 G0
ENDBRANCH  10  13
ENDBRANCH   3  10
BRANCH   1  15
ATOM     15  C   UNL     1       1.395   4.813  -8.123  1.00  0.00     0.011 C 
BRANCH  15  16
ATOM     16  C   UNL     1       1.305   6.076  -7.270  1.00  0.00     0.001 CG0
ATOM     17  G   UNL     1      -0.135   6.440  -6.921  1.00  0.00     0.000 G0
ENDBRANCH  15  16
ENDBRANCH   1  15
TORSDOF 0
ENDMDL
MODEL 2
REMARK VINA RESULT:    25.301      2.275      4.095
REMARK INTER + INTRA:          31.853
REMARK INTER:                  31.216
REMARK INTRA:                   0.637
REMARK UNBOUND:                 0.635
REMARK SMILES C=C1[C@H]2CC[C@@H]3[C@H]2C(C)(C)CCC[C@]13C
REMARK SMILES IDX 14 1 6 2 7 3 3 4 2 5 1 6 4 7 5 8 15 9 8 10 9 11 10 12 11 13
REMARK SMILES IDX 13 15 12 16
REMARK H PARENT
REMARK Flexibility Score: 80.00
ROOT
ATOM      1  C   UNL     1       0.961   6.075 -10.094  1.00  0.00    -0.008 C 
ATOM      2  C   UNL     1      -0.374   6.869  -9.808  1.00  0.00     0.003 C 
ATOM      3  C   UNL     1      -1.495   5.955 -10.346  1.00  0.00     0.006 C 
ATOM      4  C   UNL     1      -1.008   4.733  -9.565  1.00  0.00     0.019 C 
ATOM      5  C   UNL     1       0.442   4.667  -9.954  1.00  0.00    -0.068 C 
ATOM      6  C   UNL     1       1.159   3.542 -10.061  1.00  0.00     0.009 C 
ATOM      7  C   UNL     1      -1.053   5.275  -8.116  1.00  0.00     0.008 C 
ATOM      8  C   UNL     1      -0.717   6.777  -8.294  1.00  0.00     0.005 C 
ATOM      9  C   UNL     1       2.083   6.353  -9.056  1.00  0.00     0.016 C 
ENDROOT
BRANCH   3  10
ATOM     10  C   UNL     1      -1.743   5.844 -11.912  1.00  0.00    -0.032 C 
ATOM     11  C   UNL     1      -2.022   4.381 -12.342  1.00  0.00     0.011 C 
ATOM     12  C   UNL     1      -3.030   6.646 -12.247  1.00  0.00     0.011 C 
BRANCH  10  13
ATOM     13  C   UNL     1      -0.628   6.470 -12.798  1.00  0.00     0.007 CG0
ATOM     14  G   UNL     1       0.752   5.829 -12.683  1.00  0.00     0.000 G0
ENDBRANCH  10  13
ENDBRANCH   3  10
BRANCH   1  15
ATOM     15  C   UNL     1       1.547   6.376 -11.500  1.00  0.00     0.011 C 
BRANCH  15  16
ATOM     16  C   UNL     1       0.749   5.840 -12.685  1.00  0.00     0.001 CG0
ATOM     17  G   UNL     1      -0.637   6.471 -12.787  1.00  0.00     0.000 G0
ENDBRANCH  15  16
ENDBRANCH   1  15
TORSDOF 0
ENDMDL
MODEL 3
REMARK VINA RESULT:    25.742      1.375      2.915
REMARK INTER + INTRA:          32.396
REMARK INTER:                  31.759
REMARK INTRA:                   0.638
REMARK UNBOUND:                 0.635
REMARK SMILES C=C1[C@H]2CC[C@@H]3[C@H]2C(C)(C)CCC[C@]13C
REMARK SMILES IDX 14 1 6 2 7 3 3 4 2 5 1 6 4 7 5 8 15 9 8 10 9 11 10 12 11 13
REMARK SMILES IDX 13 15 12 16
REMARK H PARENT
REMARK Flexibility Score: 80.00
ROOT
ATOM      1  C   UNL     1      -0.382   5.629 -10.772  1.00  0.00    -0.008 C 
ATOM      2  C   UNL     1       0.320   7.019 -10.508  1.00  0.00     0.003 C 
ATOM      3  C   UNL     1       0.844   6.923  -9.060  1.00  0.00     0.006 C 
ATOM      4  C   UNL     1       1.570   5.600  -9.307  1.00  0.00     0.019 C 
ATOM      5  C   UNL     1       0.485   4.751  -9.906  1.00  0.00    -0.068 C 
ATOM      6  C   UNL     1       0.377   3.424  -9.760  1.00  0.00     0.009 C 
ATOM      7  C   UNL     1       2.513   5.996 -10.469  1.00  0.00     0.008 C 
ATOM      8  C   UNL     1       1.689   7.056 -11.242  1.00  0.00     0.005 C 
ATOM      9  C   UNL     1      -0.316   5.173 -12.256  1.00  0.00     0.016 C 
ENDROOT
BRANCH   3  10
ATOM     10  C   UNL     1      -0.168   7.053  -7.841  1.00  0.00    -0.032 C 
ATOM     11  C   UNL     1       0.151   6.026  -6.725  1.00  0.00     0.011 C 
ATOM     12  C   UNL     1       0.032   8.457  -7.206  1.00  0.00     0.011 C 
BRANCH  10  13
ATOM     13  C   UNL     1      -1.673   6.989  -8.228  1.00  0.00     0.007 CG0
ATOM     14  G   UNL     1      -2.148   5.674  -8.839  1.00  0.00     0.000 G0
ENDBRANCH  10  13
ENDBRANCH   3  10
BRANCH   1  15
ATOM     15  C   UNL     1      -1.876   5.622 -10.352  1.00  0.00     0.011 C 
BRANCH  15  16
ATOM     16  C   UNL     1      -2.149   5.687  -8.852  1.00  0.00     0.001 CG0
ATOM     17  G   UNL     1      -1.668   6.994  -8.230  1.00  0.00     0.000 G0
ENDBRANCH  15  16
ENDBRANCH   1  15
TORSDOF 0
ENDMDL
MODEL 4
REMARK VINA RESULT:    26.047      1.767      3.988
REMARK INTER + INTRA:          32.772
REMARK INTER:                  32.143
REMARK INTRA:                   0.630
REMARK UNBOUND:                 0.635
REMARK SMILES C=C1[C@H]2CC[C@@H]3[C@H]2C(C)(C)CCC[C@]13C
REMARK SMILES IDX 14 1 6 2 7 3 3 4 2 5 1 6 4 7 5 8 15 9 8 10 9 11 10 12 11 13
REMARK SMILES IDX 13 15 12 16
REMARK H PARENT
REMARK Flexibility Score: 80.00
ROOT
ATOM      1  C   UNL     1      -2.077   6.195 -11.826  1.00  0.00    -0.008 C 
ATOM      2  C   UNL     1      -0.626   6.654 -12.249  1.00  0.00     0.003 C 
ATOM      3  C   UNL     1       0.302   5.534 -11.737  1.00  0.00     0.006 C 
ATOM      4  C   UNL     1      -0.504   4.422 -12.411  1.00  0.00     0.019 C 
ATOM      5  C   UNL     1      -1.896   4.701 -11.921  1.00  0.00    -0.068 C 
ATOM      6  C   UNL     1      -2.835   3.772 -11.700  1.00  0.00     0.009 C 
ATOM      7  C   UNL     1      -0.456   4.881 -13.888  1.00  0.00     0.008 C 
ATOM      8  C   UNL     1      -0.435   6.426 -13.775  1.00  0.00     0.005 C 
ATOM      9  C   UNL     1      -3.189   6.676 -12.800  1.00  0.00     0.016 C 
ENDROOT
BRANCH   3  10
ATOM     10  C   UNL     1       0.644   5.434 -10.188  1.00  0.00    -0.032 C 
ATOM     11  C   UNL     1       0.628   3.964  -9.695  1.00  0.00     0.011 C 
ATOM     12  C   UNL     1       2.099   5.940  -9.989  1.00  0.00     0.011 C 
BRANCH  10  13
ATOM     13  C   UNL     1      -0.232   6.329  -9.265  1.00  0.00     0.007 CG0
ATOM     14  G   UNL     1      -1.725   6.017  -9.258  1.00  0.00     0.000 G0
ENDBRANCH  10  13
ENDBRANCH   3  10
BRANCH   1  15
ATOM     15  C   UNL     1      -2.467   6.677 -10.404  1.00  0.00     0.011 C 
BRANCH  15  16
ATOM     16  C   UNL     1      -1.715   6.025  -9.247  1.00  0.00     0.001 CG0
ATOM     17  G   UNL     1      -0.220   6.329  -9.281  1.00  0.00     0.000 G0
ENDBRANCH  15  16
ENDBRANCH   1  15
TORSDOF 0
ENDMDL
MODEL 5
REMARK VINA RESULT:    27.439      1.669      3.757
REMARK INTER + INTRA:          34.491
REMARK INTER:                  33.863
REMARK INTRA:                   0.628
REMARK UNBOUND:                 0.635
REMARK SMILES C=C1[C@H]2CC[C@@H]3[C@H]2C(C)(C)CCC[C@]13C
REMARK SMILES IDX 14 1 6 2 7 3 3 4 2 5 1 6 4 7 5 8 15 9 8 10 9 11 10 12 11 13
REMARK SMILES IDX 13 15 12 16
REMARK H PARENT
REMARK Flexibility Score: 80.00
ROOT
ATOM      1  C   UNL     1       0.763   6.037  -8.207  1.00  0.00    -0.008 C 
ATOM      2  C   UNL     1       0.100   7.276  -8.928  1.00  0.00     0.003 C 
ATOM      3  C   UNL     1      -1.097   6.683  -9.700  1.00  0.00     0.006 C 
ATOM      4  C   UNL     1      -1.662   5.969  -8.471  1.00  0.00     0.019 C 
ATOM      5  C   UNL     1      -0.469   5.201  -7.976  1.00  0.00    -0.068 C 
ATOM      6  C   UNL     1      -0.521   4.017  -7.353  1.00  0.00     0.009 C 
ATOM      7  C   UNL     1      -1.853   7.161  -7.502  1.00  0.00     0.008 C 
ATOM      8  C   UNL     1      -0.696   8.115  -7.888  1.00  0.00     0.005 C 
ATOM      9  C   UNL     1       1.445   6.396  -6.858  1.00  0.00     0.016 C 
ENDROOT
BRANCH   3  10
ATOM     10  C   UNL     1      -0.850   5.869 -11.042  1.00  0.00    -0.032 C 
ATOM     11  C   UNL     1      -1.751   4.610 -11.119  1.00  0.00     0.011 C 
ATOM     12  C   UNL     1      -1.271   6.775 -12.232  1.00  0.00     0.011 C 
BRANCH  10  13
ATOM     13  C   UNL     1       0.635   5.495 -11.318  1.00  0.00     0.007 CG0
ATOM     14  G   UNL     1       1.293   4.580 -10.289  1.00  0.00     0.000 G0
ENDBRANCH  10  13
ENDBRANCH   3  10
BRANCH   1  15
ATOM     15  C   UNL     1       1.828   5.331  -9.089  1.00  0.00     0.011 C 
BRANCH  15  16
ATOM     16  C   UNL     1       1.294   4.565 -10.296  1.00  0.00     0.001 CG0
ATOM     17  G   UNL     1       0.626   5.481 -11.317  1.00  0.00     0.000 G0
ENDBRANCH  15  16
ENDBRANCH   1  15
TORSDOF 0
ENDMDL
