MODEL 1
REMARK VINA RESULT:    -3.639      0.000      0.000
REMARK INTER + INTRA:          -4.719
REMARK INTER:                  -4.384
REMARK INTRA:                  -0.335
REMARK UNBOUND:                -0.335
REMARK SMILES O=c1c(O)c(-c2ccc(O)c(O)c2)oc2cc(O)cc(O)c12
REMARK SMILES IDX 5 1 3 2 2 3 1 4 22 5 20 6 19 7 17 8 16 9 15 10 14 11 6 12
REMARK SMILES IDX 7 13 8 14 9 15 13 16 11 17 10 18 12 20 4 22 21 24 18 26
REMARK H PARENT 10 19 12 21 4 23 21 25 18 27
REMARK Flexibility Score: inf
ROOT
ATOM      1  C   UNL     1     134.434 130.919  98.487  1.00  0.00     0.180 A 
ATOM      2  C   UNL     1     133.461 129.974  98.857  1.00  0.00     0.208 A 
ATOM      3  C   UNL     1     133.224 128.875  98.017  1.00  0.00     0.238 A 
ATOM      4  O   UNL     1     132.314 128.062  98.325  1.00  0.00    -0.285 OA
ATOM      5  C   UNL     1     133.975 128.725  96.826  1.00  0.00     0.111 A 
ATOM      6  C   UNL     1     133.847 127.629  95.920  1.00  0.00     0.134 A 
ATOM      7  C   UNL     1     134.546 127.650  94.707  1.00  0.00     0.093 A 
ATOM      8  C   UNL     1     135.420 128.695  94.398  1.00  0.00     0.123 A 
ATOM      9  C   UNL     1     135.597 129.740  95.302  1.00  0.00     0.094 A 
ATOM     10  C   UNL     1     134.884 129.765  96.503  1.00  0.00     0.146 A 
ATOM     11  O   UNL     1     135.075 130.784  97.332  1.00  0.00    -0.452 OA
ENDROOT
BRANCH   1  12
ATOM     12  C   UNL     1     134.758 132.090  99.333  1.00  0.00     0.025 A 
ATOM     13  C   UNL     1     135.736 132.017 100.340  1.00  0.00     0.016 A 
ATOM     14  C   UNL     1     136.042 133.142 101.111  1.00  0.00     0.051 A 
ATOM     15  C   UNL     1     135.386 134.358 100.879  1.00  0.00     0.157 A 
ATOM     16  C   UNL     1     134.118 133.316  99.091  1.00  0.00     0.062 A 
ATOM     17  C   UNL     1     134.422 134.444  99.861  1.00  0.00     0.158 A 
BRANCH  15  18
ATOM     18  O   UNL     1     135.691 135.477 101.651  1.00  0.00    -0.504 OA
ATOM     19  H   UNL     1     135.018 136.221 101.798  1.00  0.00     0.293 HD
ENDBRANCH  15  18
BRANCH  17  20
ATOM     20  O   UNL     1     133.755 135.642  99.600  1.00  0.00    -0.504 OA
ATOM     21  H   UNL     1     133.903 136.473 100.160  1.00  0.00     0.293 HD
ENDBRANCH  17  20
ENDBRANCH   1  12
BRANCH   2  22
ATOM     22  O   UNL     1     132.717 130.153 100.026  1.00  0.00    -0.502 OA
ATOM     23  H   UNL     1     131.728 130.375 100.013  1.00  0.00     0.293 HD
ENDBRANCH   2  22
BRANCH   6  24
ATOM     24  O   UNL     1     133.073 126.492  96.174  1.00  0.00    -0.507 OA
ATOM     25  H   UNL     1     133.413 125.543  96.129  1.00  0.00     0.293 HD
ENDBRANCH   6  24
BRANCH   8  26
ATOM     26  O   UNL     1     136.125 128.700  93.195  1.00  0.00    -0.508 OA
ATOM     27  H   UNL     1     135.944 129.392  92.477  1.00  0.00     0.293 HD
ENDBRANCH   8  26
TORSDOF 6
ENDMDL
MODEL 2
REMARK VINA RESULT:    -3.520      2.554      4.552
REMARK INTER + INTRA:          -4.575
REMARK INTER:                  -4.272
REMARK INTRA:                  -0.303
REMARK UNBOUND:                -0.335
REMARK SMILES O=c1c(O)c(-c2ccc(O)c(O)c2)oc2cc(O)cc(O)c12
REMARK SMILES IDX 5 1 3 2 2 3 1 4 22 5 20 6 19 7 17 8 16 9 15 10 14 11 6 12
REMARK SMILES IDX 7 13 8 14 9 15 13 16 11 17 10 18 12 20 4 22 21 24 18 26
REMARK H PARENT 10 19 12 21 4 23 21 25 18 27
REMARK Flexibility Score: inf
ROOT
ATOM      1  C   UNL     1     133.680 129.617  98.439  1.00  0.00     0.180 A 
ATOM      2  C   UNL     1     133.898 130.958  98.078  1.00  0.00     0.208 A 
ATOM      3  C   UNL     1     134.431 131.244  96.812  1.00  0.00     0.238 A 
ATOM      4  O   UNL     1     134.676 132.442  96.515  1.00  0.00    -0.285 OA
ATOM      5  C   UNL     1     134.725 130.187  95.916  1.00  0.00     0.111 A 
ATOM      6  C   UNL     1     135.231 130.363  94.593  1.00  0.00     0.134 A 
ATOM      7  C   UNL     1     135.609 129.242  93.843  1.00  0.00     0.093 A 
ATOM      8  C   UNL     1     135.436 127.949  94.344  1.00  0.00     0.123 A 
ATOM      9  C   UNL     1     134.888 127.766  95.611  1.00  0.00     0.094 A 
ATOM     10  C   UNL     1     134.536 128.866  96.397  1.00  0.00     0.146 A 
ATOM     11  O   UNL     1     134.026 128.646  97.603  1.00  0.00    -0.452 OA
ENDROOT
BRANCH   1  12
ATOM     12  C   UNL     1     133.097 129.238  99.747  1.00  0.00     0.025 A 
ATOM     13  C   UNL     1     131.715 129.335  99.988  1.00  0.00     0.016 A 
ATOM     14  C   UNL     1     131.184 128.949 101.221  1.00  0.00     0.051 A 
ATOM     15  C   UNL     1     132.022 128.448 102.226  1.00  0.00     0.157 A 
ATOM     16  C   UNL     1     133.930 128.716 100.750  1.00  0.00     0.062 A 
ATOM     17  C   UNL     1     133.401 128.328 101.986  1.00  0.00     0.158 A 
BRANCH  15  18
ATOM     18  O   UNL     1     131.490 128.066 103.457  1.00  0.00    -0.504 OA
ATOM     19  H   UNL     1     130.641 128.483 103.820  1.00  0.00     0.293 HD
ENDBRANCH  15  18
BRANCH  17  20
ATOM     20  O   UNL     1     134.261 127.827 102.963  1.00  0.00    -0.504 OA
ATOM     21  H   UNL     1     135.257 127.730 102.805  1.00  0.00     0.293 HD
ENDBRANCH  17  20
ENDBRANCH   1  12
BRANCH   2  22
ATOM     22  O   UNL     1     133.621 131.984  98.986  1.00  0.00    -0.502 OA
ATOM     23  H   UNL     1     134.105 132.874  98.965  1.00  0.00     0.293 HD
ENDBRANCH   2  22
BRANCH   6  24
ATOM     24  O   UNL     1     135.356 131.606  93.964  1.00  0.00    -0.507 OA
ATOM     25  H   UNL     1     135.858 131.767  93.104  1.00  0.00     0.293 HD
ENDBRANCH   6  24
BRANCH   8  26
ATOM     26  O   UNL     1     135.800 126.839  93.585  1.00  0.00    -0.508 OA
ATOM     27  H   UNL     1     135.912 126.898  92.579  1.00  0.00     0.293 HD
ENDBRANCH   8  26
TORSDOF 6
ENDMDL
MODEL 3
REMARK VINA RESULT:    -3.476      1.981      3.973
REMARK INTER + INTRA:          -4.522
REMARK INTER:                  -4.187
REMARK INTRA:                  -0.335
REMARK UNBOUND:                -0.335
REMARK SMILES O=c1c(O)c(-c2ccc(O)c(O)c2)oc2cc(O)cc(O)c12
REMARK SMILES IDX 5 1 3 2 2 3 1 4 22 5 20 6 19 7 17 8 16 9 15 10 14 11 6 12
REMARK SMILES IDX 7 13 8 14 9 15 13 16 11 17 10 18 12 20 4 22 21 24 18 26
REMARK H PARENT 10 19 12 21 4 23 21 25 18 27
REMARK Flexibility Score: inf
ROOT
ATOM      1  C   UNL     1     134.361 129.538  96.545  1.00  0.00     0.180 A 
ATOM      2  C   UNL     1     135.026 129.831  95.341  1.00  0.00     0.208 A 
ATOM      3  C   UNL     1     135.475 128.774  94.535  1.00  0.00     0.238 A 
ATOM      4  O   UNL     1     136.117 129.042  93.487  1.00  0.00    -0.285 OA
ATOM      5  C   UNL     1     135.240 127.436  94.934  1.00  0.00     0.111 A 
ATOM      6  C   UNL     1     135.615 126.286  94.176  1.00  0.00     0.134 A 
ATOM      7  C   UNL     1     135.450 125.010  94.729  1.00  0.00     0.093 A 
ATOM      8  C   UNL     1     134.862 124.840  95.985  1.00  0.00     0.123 A 
ATOM      9  C   UNL     1     134.439 125.953  96.707  1.00  0.00     0.094 A 
ATOM     10  C   UNL     1     134.624 127.241  96.198  1.00  0.00     0.146 A 
ATOM     11  O   UNL     1     134.215 128.274  96.923  1.00  0.00    -0.452 OA
ENDROOT
BRANCH   1  12
ATOM     12  C   UNL     1     133.837 130.599  97.435  1.00  0.00     0.025 A 
ATOM     13  C   UNL     1     132.538 131.112  97.275  1.00  0.00     0.016 A 
ATOM     14  C   UNL     1     132.056 132.096  98.141  1.00  0.00     0.051 A 
ATOM     15  C   UNL     1     132.857 132.573  99.187  1.00  0.00     0.157 A 
ATOM     16  C   UNL     1     134.629 131.065  98.497  1.00  0.00     0.062 A 
ATOM     17  C   UNL     1     134.148 132.050  99.367  1.00  0.00     0.158 A 
BRANCH  15  18
ATOM     18  O   UNL     1     132.374 133.556 100.049  1.00  0.00    -0.504 OA
ATOM     19  H   UNL     1     132.919 134.380 100.273  1.00  0.00     0.293 HD
ENDBRANCH  15  18
BRANCH  17  20
ATOM     20  O   UNL     1     134.969 132.498 100.402  1.00  0.00    -0.504 OA
ATOM     21  H   UNL     1     135.714 133.167 100.248  1.00  0.00     0.293 HD
ENDBRANCH  17  20
ENDBRANCH   1  12
BRANCH   2  22
ATOM     22  O   UNL     1     135.266 131.160  94.977  1.00  0.00    -0.502 OA
ATOM     23  H   UNL     1     136.196 131.560  94.965  1.00  0.00     0.293 HD
ENDBRANCH   2  22
BRANCH   6  24
ATOM     24  O   UNL     1     136.125 126.342  92.875  1.00  0.00    -0.507 OA
ATOM     25  H   UNL     1     136.041 127.135  92.258  1.00  0.00     0.293 HD
ENDBRANCH   6  24
BRANCH   8  26
ATOM     26  O   UNL     1     134.688 123.565  96.521  1.00  0.00    -0.508 OA
ATOM     27  H   UNL     1     134.375 122.788  95.950  1.00  0.00     0.293 HD
ENDBRANCH   8  26
TORSDOF 6
ENDMDL
MODEL 4
REMARK VINA RESULT:    -3.426     17.219     19.159
REMARK INTER + INTRA:          -4.462
REMARK INTER:                  -4.179
REMARK INTRA:                  -0.283
REMARK UNBOUND:                -0.335
REMARK SMILES O=c1c(O)c(-c2ccc(O)c(O)c2)oc2cc(O)cc(O)c12
REMARK SMILES IDX 5 1 3 2 2 3 1 4 22 5 20 6 19 7 17 8 16 9 15 10 14 11 6 12
REMARK SMILES IDX 7 13 8 14 9 15 13 16 11 17 10 18 12 20 4 22 21 24 18 26
REMARK H PARENT 10 19 12 21 4 23 21 25 18 27
REMARK Flexibility Score: inf
ROOT
ATOM      1  C   UNL     1     117.881 121.892  98.811  1.00  0.00     0.180 A 
ATOM      2  C   UNL     1     117.638 120.534  98.541  1.00  0.00     0.208 A 
ATOM      3  C   UNL     1     117.124 120.169  97.287  1.00  0.00     0.238 A 
ATOM      4  O   UNL     1     116.857 118.959  97.071  1.00  0.00    -0.285 OA
ATOM      5  C   UNL     1     116.874 121.165  96.312  1.00  0.00     0.111 A 
ATOM      6  C   UNL     1     116.392 120.906  94.994  1.00  0.00     0.134 A 
ATOM      7  C   UNL     1     116.057 121.979  94.158  1.00  0.00     0.093 A 
ATOM      8  C   UNL     1     116.250 123.300  94.569  1.00  0.00     0.123 A 
ATOM      9  C   UNL     1     116.776 123.562  95.832  1.00  0.00     0.094 A 
ATOM     10  C   UNL     1     117.085 122.513  96.702  1.00  0.00     0.146 A 
ATOM     11  O   UNL     1     117.575 122.808  97.900  1.00  0.00    -0.452 OA
ENDROOT
BRANCH   1  12
ATOM     12  C   UNL     1     118.446 122.350 100.101  1.00  0.00     0.025 A 
ATOM     13  C   UNL     1     119.809 122.185 100.403  1.00  0.00     0.016 A 
ATOM     14  C   UNL     1     120.324 122.646 101.616  1.00  0.00     0.051 A 
ATOM     15  C   UNL     1     119.491 123.292 102.539  1.00  0.00     0.157 A 
ATOM     16  C   UNL     1     117.619 123.016 101.020  1.00  0.00     0.062 A 
ATOM     17  C   UNL     1     118.132 123.480 102.236  1.00  0.00     0.158 A 
BRANCH  15  18
ATOM     18  O   UNL     1     120.008 123.750 103.750  1.00  0.00    -0.504 OA
ATOM     19  H   UNL     1     120.222 124.729 103.900  1.00  0.00     0.293 HD
ENDBRANCH  15  18
BRANCH  17  20
ATOM     20  O   UNL     1     117.277 124.125 103.130  1.00  0.00    -0.504 OA
ATOM     21  H   UNL     1     116.279 123.952 103.140  1.00  0.00     0.293 HD
ENDBRANCH  17  20
ENDBRANCH   1  12
BRANCH   2  22
ATOM     22  O   UNL     1     117.871 119.569  99.526  1.00  0.00    -0.502 OA
ATOM     23  H   UNL     1     118.608 118.878  99.446  1.00  0.00     0.293 HD
ENDBRANCH   2  22
BRANCH   6  24
ATOM     24  O   UNL     1     116.250 119.625  94.452  1.00  0.00    -0.507 OA
ATOM     25  H   UNL     1     115.927 118.817  94.964  1.00  0.00     0.293 HD
ENDBRANCH   6  24
BRANCH   8  26
ATOM     26  O   UNL     1     115.929 124.361  93.725  1.00  0.00    -0.508 OA
ATOM     27  H   UNL     1     116.603 125.084  93.502  1.00  0.00     0.293 HD
ENDBRANCH   8  26
TORSDOF 6
ENDMDL
MODEL 5
REMARK VINA RESULT:    -3.346      1.809      7.249
REMARK INTER + INTRA:          -4.366
REMARK INTER:                  -4.392
REMARK INTRA:                   0.026
REMARK UNBOUND:                -0.335
REMARK SMILES O=c1c(O)c(-c2ccc(O)c(O)c2)oc2cc(O)cc(O)c12
REMARK SMILES IDX 5 1 3 2 2 3 1 4 22 5 20 6 19 7 17 8 16 9 15 10 14 11 6 12
REMARK SMILES IDX 7 13 8 14 9 15 13 16 11 17 10 18 12 20 4 22 21 24 18 26
REMARK H PARENT 10 19 12 21 4 23 21 25 18 27
REMARK Flexibility Score: inf
ROOT
ATOM      1  C   UNL     1     135.065 131.458  96.455  1.00  0.00     0.180 A 
ATOM      2  C   UNL     1     134.543 132.692  96.031  1.00  0.00     0.208 A 
ATOM      3  C   UNL     1     134.446 133.745  96.953  1.00  0.00     0.238 A 
ATOM      4  O   UNL     1     133.928 134.830  96.581  1.00  0.00    -0.285 OA
ATOM      5  C   UNL     1     134.888 133.557  98.285  1.00  0.00     0.111 A 
ATOM      6  C   UNL     1     134.874 134.567  99.294  1.00  0.00     0.134 A 
ATOM      7  C   UNL     1     135.212 134.232 100.611  1.00  0.00     0.093 A 
ATOM      8  C   UNL     1     135.627 132.939 100.942  1.00  0.00     0.123 A 
ATOM      9  C   UNL     1     135.700 131.962  99.953  1.00  0.00     0.094 A 
ATOM     10  C   UNL     1     135.334 132.257  98.637  1.00  0.00     0.146 A 
ATOM     11  O   UNL     1     135.410 131.293  97.727  1.00  0.00    -0.452 OA
ENDROOT
BRANCH   1  12
ATOM     12  C   UNL     1     135.222 130.309  95.534  1.00  0.00     0.025 A 
ATOM     13  C   UNL     1     135.791 130.466  94.258  1.00  0.00     0.016 A 
ATOM     14  C   UNL     1     135.951 129.364  93.416  1.00  0.00     0.051 A 
ATOM     15  C   UNL     1     135.558 128.087  93.839  1.00  0.00     0.157 A 
ATOM     16  C   UNL     1     134.849 129.024  95.962  1.00  0.00     0.062 A 
ATOM     17  C   UNL     1     135.008 127.918  95.120  1.00  0.00     0.158 A 
BRANCH  15  18
ATOM     18  O   UNL     1     135.717 126.989  92.995  1.00  0.00    -0.504 OA
ATOM     19  H   UNL     1     136.634 126.619  92.771  1.00  0.00     0.293 HD
ENDBRANCH  15  18
BRANCH  17  20
ATOM     20  O   UNL     1     134.614 126.659  95.575  1.00  0.00    -0.504 OA
ATOM     21  H   UNL     1     133.645 126.363  95.565  1.00  0.00     0.293 HD
ENDBRANCH  17  20
ENDBRANCH   1  12
BRANCH   2  22
ATOM     22  O   UNL     1     134.093 132.849  94.716  1.00  0.00    -0.502 OA
ATOM     23  H   UNL     1     133.136 133.097  94.495  1.00  0.00     0.293 HD
ENDBRANCH   2  22
BRANCH   6  24
ATOM     24  O   UNL     1     134.564 135.909  99.051  1.00  0.00    -0.507 OA
ATOM     25  H   UNL     1     133.985 136.236  98.292  1.00  0.00     0.293 HD
ENDBRANCH   6  24
BRANCH   8  26
ATOM     26  O   UNL     1     135.977 132.619 102.252  1.00  0.00    -0.508 OA
ATOM     27  H   UNL     1     135.519 131.867 102.754  1.00  0.00     0.293 HD
ENDBRANCH   8  26
TORSDOF 6
ENDMDL
MODEL 6
REMARK VINA RESULT:    -3.298      3.673      4.666
REMARK INTER + INTRA:          -4.307
REMARK INTER:                  -4.120
REMARK INTRA:                  -0.187
REMARK UNBOUND:                -0.335
REMARK SMILES O=c1c(O)c(-c2ccc(O)c(O)c2)oc2cc(O)cc(O)c12
REMARK SMILES IDX 5 1 3 2 2 3 1 4 22 5 20 6 19 7 17 8 16 9 15 10 14 11 6 12
REMARK SMILES IDX 7 13 8 14 9 15 13 16 11 17 10 18 12 20 4 22 21 24 18 26
REMARK H PARENT 10 19 12 21 4 23 21 25 18 27
REMARK Flexibility Score: inf
ROOT
ATOM      1  C   UNL     1     133.693 127.836  98.043  1.00  0.00     0.180 A 
ATOM      2  C   UNL     1     133.975 126.591  97.454  1.00  0.00     0.208 A 
ATOM      3  C   UNL     1     134.546 126.556  96.172  1.00  0.00     0.238 A 
ATOM      4  O   UNL     1     134.746 125.439  95.629  1.00  0.00    -0.285 OA
ATOM      5  C   UNL     1     134.843 127.768  95.502  1.00  0.00     0.111 A 
ATOM      6  C   UNL     1     135.459 127.852  94.216  1.00  0.00     0.134 A 
ATOM      7  C   UNL     1     135.585 129.099  93.592  1.00  0.00     0.093 A 
ATOM      8  C   UNL     1     135.179 130.271  94.235  1.00  0.00     0.123 A 
ATOM      9  C   UNL     1     134.631 130.204  95.514  1.00  0.00     0.094 A 
ATOM     10  C   UNL     1     134.458 128.971  96.147  1.00  0.00     0.146 A 
ATOM     11  O   UNL     1     133.922 128.952  97.362  1.00  0.00    -0.452 OA
ENDROOT
BRANCH   1  12
ATOM     12  C   UNL     1     133.115 127.952  99.401  1.00  0.00     0.025 A 
ATOM     13  C   UNL     1     131.807 127.519  99.680  1.00  0.00     0.016 A 
ATOM     14  C   UNL     1     131.291 127.617 100.974  1.00  0.00     0.051 A 
ATOM     15  C   UNL     1     132.077 128.136 102.012  1.00  0.00     0.157 A 
ATOM     16  C   UNL     1     133.906 128.454 100.448  1.00  0.00     0.062 A 
ATOM     17  C   UNL     1     133.392 128.553 101.746  1.00  0.00     0.158 A 
BRANCH  15  18
ATOM     18  O   UNL     1     131.558 128.235 103.302  1.00  0.00    -0.504 OA
ATOM     19  H   UNL     1     132.129 128.052 104.119  1.00  0.00     0.293 HD
ENDBRANCH  15  18
BRANCH  17  20
ATOM     20  O   UNL     1     134.202 129.068 102.758  1.00  0.00    -0.504 OA
ATOM     21  H   UNL     1     133.960 128.982 103.738  1.00  0.00     0.293 HD
ENDBRANCH  17  20
ENDBRANCH   1  12
BRANCH   2  22
ATOM     22  O   UNL     1     133.655 125.407  98.126  1.00  0.00    -0.502 OA
ATOM     23  H   UNL     1     132.822 124.870  97.913  1.00  0.00     0.293 HD
ENDBRANCH   2  22
BRANCH   6  24
ATOM     24  O   UNL     1     135.983 126.753  93.528  1.00  0.00    -0.507 OA
ATOM     25  H   UNL     1     136.952 126.475  93.544  1.00  0.00     0.293 HD
ENDBRANCH   6  24
BRANCH   8  26
ATOM     26  O   UNL     1     135.323 131.510  93.613  1.00  0.00    -0.508 OA
ATOM     27  H   UNL     1     136.233 131.861  93.335  1.00  0.00     0.293 HD
ENDBRANCH   8  26
TORSDOF 6
ENDMDL
MODEL 7
REMARK VINA RESULT:    -3.258      3.627      4.970
REMARK INTER + INTRA:          -4.260
REMARK INTER:                  -3.939
REMARK INTRA:                  -0.321
REMARK UNBOUND:                -0.335
REMARK SMILES O=c1c(O)c(-c2ccc(O)c(O)c2)oc2cc(O)cc(O)c12
REMARK SMILES IDX 5 1 3 2 2 3 1 4 22 5 20 6 19 7 17 8 16 9 15 10 14 11 6 12
REMARK SMILES IDX 7 13 8 14 9 15 13 16 11 17 10 18 12 20 4 22 21 24 18 26
REMARK H PARENT 10 19 12 21 4 23 21 25 18 27
REMARK Flexibility Score: inf
ROOT
ATOM      1  C   UNL     1     133.505 127.847  97.850  1.00  0.00     0.180 A 
ATOM      2  C   UNL     1     133.774 128.897  96.955  1.00  0.00     0.208 A 
ATOM      3  C   UNL     1     134.447 128.614  95.756  1.00  0.00     0.238 A 
ATOM      4  O   UNL     1     134.734 129.567  94.984  1.00  0.00    -0.285 OA
ATOM      5  C   UNL     1     134.827 127.283  95.458  1.00  0.00     0.111 A 
ATOM      6  C   UNL     1     135.478 126.876  94.255  1.00  0.00     0.134 A 
ATOM      7  C   UNL     1     135.925 125.556  94.124  1.00  0.00     0.093 A 
ATOM      8  C   UNL     1     135.686 124.612  95.127  1.00  0.00     0.123 A 
ATOM      9  C   UNL     1     135.000 124.986  96.279  1.00  0.00     0.094 A 
ATOM     10  C   UNL     1     134.574 126.305  96.454  1.00  0.00     0.146 A 
ATOM     11  O   UNL     1     133.932 126.621  97.572  1.00  0.00    -0.452 OA
ENDROOT
BRANCH   1  12
ATOM     12  C   UNL     1     132.777 128.062  99.122  1.00  0.00     0.025 A 
ATOM     13  C   UNL     1     131.389 127.862  99.214  1.00  0.00     0.016 A 
ATOM     14  C   UNL     1     130.728 128.048 100.430  1.00  0.00     0.051 A 
ATOM     15  C   UNL     1     131.444 128.423 101.574  1.00  0.00     0.157 A 
ATOM     16  C   UNL     1     133.494 128.418 100.276  1.00  0.00     0.062 A 
ATOM     17  C   UNL     1     132.834 128.605 101.496  1.00  0.00     0.158 A 
BRANCH  15  18
ATOM     18  O   UNL     1     130.781 128.610 102.786  1.00  0.00    -0.504 OA
ATOM     19  H   UNL     1     131.145 129.230 103.501  1.00  0.00     0.293 HD
ENDBRANCH  15  18
BRANCH  17  20
ATOM     20  O   UNL     1     133.578 128.972 102.618  1.00  0.00    -0.504 OA
ATOM     21  H   UNL     1     133.159 129.447 103.409  1.00  0.00     0.293 HD
ENDBRANCH  17  20
ENDBRANCH   1  12
BRANCH   2  22
ATOM     22  O   UNL     1     133.408 130.207  97.278  1.00  0.00    -0.502 OA
ATOM     23  H   UNL     1     133.345 130.941  96.583  1.00  0.00     0.293 HD
ENDBRANCH   2  22
BRANCH   6  24
ATOM     24  O   UNL     1     135.683 127.716  93.156  1.00  0.00    -0.507 OA
ATOM     25  H   UNL     1     135.407 128.685  93.114  1.00  0.00     0.293 HD
ENDBRANCH   6  24
BRANCH   8  26
ATOM     26  O   UNL     1     136.121 123.296  94.982  1.00  0.00    -0.508 OA
ATOM     27  H   UNL     1     136.466 122.946  94.095  1.00  0.00     0.293 HD
ENDBRANCH   8  26
TORSDOF 6
ENDMDL
MODEL 8
REMARK VINA RESULT:    -3.248     14.048     15.663
REMARK INTER + INTRA:          -4.248
REMARK INTER:                  -3.924
REMARK INTRA:                  -0.324
REMARK UNBOUND:                -0.335
REMARK SMILES O=c1c(O)c(-c2ccc(O)c(O)c2)oc2cc(O)cc(O)c12
REMARK SMILES IDX 5 1 3 2 2 3 1 4 22 5 20 6 19 7 17 8 16 9 15 10 14 11 6 12
REMARK SMILES IDX 7 13 8 14 9 15 13 16 11 17 10 18 12 20 4 22 21 24 18 26
REMARK H PARENT 10 19 12 21 4 23 21 25 18 27
REMARK Flexibility Score: inf
ROOT
ATOM      1  C   UNL     1     125.342 125.545 109.328  1.00  0.00     0.180 A 
ATOM      2  C   UNL     1     124.185 125.746 110.101  1.00  0.00     0.208 A 
ATOM      3  C   UNL     1     122.930 125.700 109.474  1.00  0.00     0.238 A 
ATOM      4  O   UNL     1     121.902 125.935 110.160  1.00  0.00    -0.285 OA
ATOM      5  C   UNL     1     122.847 125.437 108.085  1.00  0.00     0.111 A 
ATOM      6  C   UNL     1     121.626 125.328 107.352  1.00  0.00     0.134 A 
ATOM      7  C   UNL     1     121.666 125.197 105.959  1.00  0.00     0.093 A 
ATOM      8  C   UNL     1     122.883 125.103 105.279  1.00  0.00     0.123 A 
ATOM      9  C   UNL     1     124.079 125.149 105.991  1.00  0.00     0.094 A 
ATOM     10  C   UNL     1     124.072 125.317 107.378  1.00  0.00     0.146 A 
ATOM     11  O   UNL     1     125.234 125.366 108.017  1.00  0.00    -0.452 OA
ENDROOT
BRANCH   1  12
ATOM     12  C   UNL     1     126.698 125.554 109.923  1.00  0.00     0.025 A 
ATOM     13  C   UNL     1     127.235 124.409 110.538  1.00  0.00     0.016 A 
ATOM     14  C   UNL     1     128.526 124.434 111.072  1.00  0.00     0.051 A 
ATOM     15  C   UNL     1     129.305 125.595 110.986  1.00  0.00     0.157 A 
ATOM     16  C   UNL     1     127.490 126.709 109.822  1.00  0.00     0.062 A 
ATOM     17  C   UNL     1     128.784 126.737 110.355  1.00  0.00     0.158 A 
BRANCH  15  18
ATOM     18  O   UNL     1     130.591 125.617 111.521  1.00  0.00    -0.504 OA
ATOM     19  H   UNL     1     131.051 124.770 111.834  1.00  0.00     0.293 HD
ENDBRANCH  15  18
BRANCH  17  20
ATOM     20  O   UNL     1     129.535 127.907 110.248  1.00  0.00    -0.504 OA
ATOM     21  H   UNL     1     129.102 128.822 110.194  1.00  0.00     0.293 HD
ENDBRANCH  17  20
ENDBRANCH   1  12
BRANCH   2  22
ATOM     22  O   UNL     1     124.291 126.025 111.467  1.00  0.00    -0.502 OA
ATOM     23  H   UNL     1     125.049 125.668 112.037  1.00  0.00     0.293 HD
ENDBRANCH   2  22
BRANCH   6  24
ATOM     24  O   UNL     1     120.359 125.316 107.944  1.00  0.00    -0.507 OA
ATOM     25  H   UNL     1     120.160 125.635 108.881  1.00  0.00     0.293 HD
ENDBRANCH   6  24
BRANCH   8  26
ATOM     26  O   UNL     1     122.914 124.956 103.893  1.00  0.00    -0.508 OA
ATOM     27  H   UNL     1     123.729 125.218 103.350  1.00  0.00     0.293 HD
ENDBRANCH   8  26
TORSDOF 6
ENDMDL
