MODEL 1
REMARK VINA RESULT:    -4.252      0.000      0.000
REMARK INTER + INTRA:          -5.963
REMARK INTER:                  -5.247
REMARK INTRA:                  -0.716
REMARK UNBOUND:                -0.716
REMARK SMILES CC(C)=CCC[C@@H](C)c1ccc(C)cc1
REMARK SMILES IDX 6 1 7 2 8 3 9 4 13 5 12 6 11 7 14 8 10 9 15 10 5 11 4 12
REMARK SMILES IDX 2 13 1 14 3 15
REMARK H PARENT
REMARK Flexibility Score: inf
ROOT
ATOM      1  C   UNL     1      97.113 110.956 106.848  1.00  0.00     0.012 C 
ENDROOT
BRANCH   1   2
ATOM      2  C   UNL     1      96.866 110.544 108.317  1.00  0.00     0.016 C 
ATOM      3  C   UNL     1      95.411 110.780 108.750  1.00  0.00     0.013 C 
BRANCH   2   4
ATOM      4  C   UNL     1      97.248 109.090 108.531  1.00  0.00    -0.045 A 
ATOM      5  C   UNL     1      98.315 104.945 109.111  1.00  0.00     0.044 C 
ATOM      6  C   UNL     1      97.935 106.386 108.939  1.00  0.00    -0.051 A 
ATOM      7  C   UNL     1      98.874 107.398 109.183  1.00  0.00     0.004 A 
ATOM      8  C   UNL     1      96.661 106.729 108.467  1.00  0.00     0.004 A 
ATOM      9  C   UNL     1      98.533 108.739 108.987  1.00  0.00     0.004 A 
ATOM     10  C   UNL     1      96.317 108.070 108.271  1.00  0.00     0.004 A 
ENDBRANCH   2   4
ENDBRANCH   1   2
BRANCH   1  11
ATOM     11  C   UNL     1      97.674 112.380 106.719  1.00  0.00     0.028 C 
BRANCH  11  12
ATOM     12  C   UNL     1      99.064 112.460 107.303  1.00  0.00    -0.028 C 
ATOM     13  C   UNL     1     100.193 112.591 106.572  1.00  0.00    -0.080 C 
ATOM     14  C   UNL     1     100.164 112.729 105.068  1.00  0.00     0.039 C 
ATOM     15  C   UNL     1     101.516 112.617 107.295  1.00  0.00     0.039 C 
ENDBRANCH  11  12
ENDBRANCH   1  11
TORSDOF 4
ENDMDL
MODEL 2
REMARK VINA RESULT:    -4.098      2.229      5.576
REMARK INTER + INTRA:          -5.773
REMARK INTER:                  -4.208
REMARK INTRA:                  -1.565
REMARK UNBOUND:                -0.716
REMARK SMILES CC(C)=CCC[C@@H](C)c1ccc(C)cc1
REMARK SMILES IDX 6 1 7 2 8 3 9 4 13 5 12 6 11 7 14 8 10 9 15 10 5 11 4 12
REMARK SMILES IDX 2 13 1 14 3 15
REMARK H PARENT
REMARK Flexibility Score: inf
ROOT
ATOM      1  C   UNL     1      97.086 111.028 106.859  1.00  0.00     0.012 C 
ENDROOT
BRANCH   1   2
ATOM      2  C   UNL     1      97.190 112.570 106.891  1.00  0.00     0.016 C 
ATOM      3  C   UNL     1      96.519 113.172 108.135  1.00  0.00     0.013 C 
BRANCH   2   4
ATOM      4  C   UNL     1      98.642 113.005 106.815  1.00  0.00    -0.045 A 
ATOM      5  C   UNL     1     102.773 114.242 106.561  1.00  0.00     0.044 C 
ATOM      6  C   UNL     1     101.347 113.790 106.668  1.00  0.00    -0.051 A 
ATOM      7  C   UNL     1     100.505 114.336 107.647  1.00  0.00     0.004 A 
ATOM      8  C   UNL     1     100.826 112.869 105.749  1.00  0.00     0.004 A 
ATOM      9  C   UNL     1      99.165 113.944 107.725  1.00  0.00     0.004 A 
ATOM     10  C   UNL     1      99.487 112.474 105.825  1.00  0.00     0.004 A 
ENDBRANCH   2   4
ENDBRANCH   1   2
BRANCH   1  11
ATOM     11  C   UNL     1      97.322 110.390 108.237  1.00  0.00     0.028 C 
BRANCH  11  12
ATOM     12  C   UNL     1      98.686 109.749 108.300  1.00  0.00    -0.028 C 
ATOM     13  C   UNL     1      99.692 110.171 109.097  1.00  0.00    -0.080 C 
ATOM     14  C   UNL     1      99.522 111.321 110.064  1.00  0.00     0.039 C 
ATOM     15  C   UNL     1     101.016 109.453 109.024  1.00  0.00     0.039 C 
ENDBRANCH  11  12
ENDBRANCH   1  11
TORSDOF 4
ENDMDL
MODEL 3
REMARK VINA RESULT:    -4.049     11.965     13.319
REMARK INTER + INTRA:          -5.713
REMARK INTER:                  -4.171
REMARK INTRA:                  -1.542
REMARK UNBOUND:                -0.716
REMARK SMILES CC(C)=CCC[C@@H](C)c1ccc(C)cc1
REMARK SMILES IDX 6 1 7 2 8 3 9 4 13 5 12 6 11 7 14 8 10 9 15 10 5 11 4 12
REMARK SMILES IDX 2 13 1 14 3 15
REMARK H PARENT
REMARK Flexibility Score: inf
ROOT
ATOM      1  C   UNL     1     107.192 106.538 103.222  1.00  0.00     0.012 C 
ENDROOT
BRANCH   1   2
ATOM      2  C   UNL     1     107.115 105.017 102.956  1.00  0.00     0.016 C 
ATOM      3  C   UNL     1     106.458 104.695 101.606  1.00  0.00     0.013 C 
BRANCH   2   4
ATOM      4  C   UNL     1     108.499 104.396 103.028  1.00  0.00    -0.045 A 
ATOM      5  C   UNL     1     112.433 102.620 103.197  1.00  0.00     0.044 C 
ATOM      6  C   UNL     1     111.058 103.220 103.162  1.00  0.00    -0.051 A 
ATOM      7  C   UNL     1     110.776 104.383 103.891  1.00  0.00     0.004 A 
ATOM      8  C   UNL     1     110.064 102.661 102.347  1.00  0.00     0.004 A 
ATOM      9  C   UNL     1     109.507 104.964 103.831  1.00  0.00     0.004 A 
ATOM     10  C   UNL     1     108.793 103.240 102.286  1.00  0.00     0.004 A 
ENDBRANCH   2   4
ENDBRANCH   1   2
BRANCH   1  11
ATOM     11  C   UNL     1     107.370 107.356 101.934  1.00  0.00     0.028 C 
BRANCH  11  12
ATOM     12  C   UNL     1     108.721 108.029 101.914  1.00  0.00    -0.028 C 
ATOM     13  C   UNL     1     109.785 107.586 101.209  1.00  0.00    -0.080 C 
ATOM     14  C   UNL     1     109.703 106.375 100.308  1.00  0.00     0.039 C 
ATOM     15  C   UNL     1     111.084 108.343 101.318  1.00  0.00     0.039 C 
ENDBRANCH  11  12
ENDBRANCH   1  11
TORSDOF 4
ENDMDL
MODEL 4
REMARK VINA RESULT:    -4.042      1.065      6.121
REMARK INTER + INTRA:          -5.704
REMARK INTER:                  -5.169
REMARK INTRA:                  -0.535
REMARK UNBOUND:                -0.716
REMARK SMILES CC(C)=CCC[C@@H](C)c1ccc(C)cc1
REMARK SMILES IDX 6 1 7 2 8 3 9 4 13 5 12 6 11 7 14 8 10 9 15 10 5 11 4 12
REMARK SMILES IDX 2 13 1 14 3 15
REMARK H PARENT
REMARK Flexibility Score: inf
ROOT
ATOM      1  C   UNL     1      97.300 109.899 108.642  1.00  0.00     0.012 C 
ENDROOT
BRANCH   1   2
ATOM      2  C   UNL     1      97.184 110.741 107.351  1.00  0.00     0.016 C 
ATOM      3  C   UNL     1      95.993 111.711 107.395  1.00  0.00     0.013 C 
BRANCH   2   4
ATOM      4  C   UNL     1      98.472 111.503 107.097  1.00  0.00    -0.045 A 
ATOM      5  C   UNL     1     102.158 113.639 106.382  1.00  0.00     0.044 C 
ATOM      6  C   UNL     1     100.870 112.919 106.650  1.00  0.00    -0.051 A 
ATOM      7  C   UNL     1      99.728 113.205 105.890  1.00  0.00     0.004 A 
ATOM      8  C   UNL     1     100.816 111.906 107.618  1.00  0.00     0.004 A 
ATOM      9  C   UNL     1      98.537 112.509 106.114  1.00  0.00     0.004 A 
ATOM     10  C   UNL     1      99.626 111.208 107.845  1.00  0.00     0.004 A 
ENDBRANCH   2   4
ENDBRANCH   1   2
BRANCH   1  11
ATOM     11  C   UNL     1      96.643 108.517 108.509  1.00  0.00     0.028 C 
BRANCH  11  12
ATOM     12  C   UNL     1      97.672 107.422 108.655  1.00  0.00    -0.028 C 
ATOM     13  C   UNL     1      97.391 106.155 109.030  1.00  0.00    -0.080 C 
ATOM     14  C   UNL     1      95.976 105.691 109.291  1.00  0.00     0.039 C 
ATOM     15  C   UNL     1      98.531 105.178 109.171  1.00  0.00     0.039 C 
ENDBRANCH  11  12
ENDBRANCH   1  11
TORSDOF 4
ENDMDL
MODEL 5
REMARK VINA RESULT:    -4.015     11.945     13.767
REMARK INTER + INTRA:          -5.670
REMARK INTER:                  -4.094
REMARK INTRA:                  -1.576
REMARK UNBOUND:                -0.716
REMARK SMILES CC(C)=CCC[C@@H](C)c1ccc(C)cc1
REMARK SMILES IDX 6 1 7 2 8 3 9 4 13 5 12 6 11 7 14 8 10 9 15 10 5 11 4 12
REMARK SMILES IDX 2 13 1 14 3 15
REMARK H PARENT
REMARK Flexibility Score: inf
ROOT
ATOM      1  C   UNL     1     110.080 107.322 100.962  1.00  0.00     0.012 C 
ENDROOT
BRANCH   1   2
ATOM      2  C   UNL     1     111.224 106.524 101.627  1.00  0.00     0.016 C 
ATOM      3  C   UNL     1     111.917 107.320 102.743  1.00  0.00     0.013 C 
BRANCH   2   4
ATOM      4  C   UNL     1     110.705 105.204 102.167  1.00  0.00    -0.045 A 
ATOM      5  C   UNL     1     109.238 101.431 103.674  1.00  0.00     0.044 C 
ATOM      6  C   UNL     1     109.720 102.754 103.157  1.00  0.00    -0.051 A 
ATOM      7  C   UNL     1     110.359 103.658 104.017  1.00  0.00     0.004 A 
ATOM      8  C   UNL     1     109.598 103.068 101.797  1.00  0.00     0.004 A 
ATOM      9  C   UNL     1     110.842 104.875 103.530  1.00  0.00     0.004 A 
ATOM     10  C   UNL     1     110.080 104.285 101.307  1.00  0.00     0.004 A 
ENDBRANCH   2   4
ENDBRANCH   1   2
BRANCH   1  11
ATOM     11  C   UNL     1     108.961 107.687 101.949  1.00  0.00     0.028 C 
BRANCH  11  12
ATOM     12  C   UNL     1     107.652 107.069 101.523  1.00  0.00    -0.028 C 
ATOM     13  C   UNL     1     106.920 106.229 102.288  1.00  0.00    -0.080 C 
ATOM     14  C   UNL     1     107.327 105.866 103.697  1.00  0.00     0.039 C 
ATOM     15  C   UNL     1     105.649 105.657 101.711  1.00  0.00     0.039 C 
ENDBRANCH  11  12
ENDBRANCH   1  11
TORSDOF 4
ENDMDL
MODEL 6
REMARK VINA RESULT:    -4.008      2.188      6.003
REMARK INTER + INTRA:          -5.662
REMARK INTER:                  -4.575
REMARK INTRA:                  -1.087
REMARK UNBOUND:                -0.716
REMARK SMILES CC(C)=CCC[C@@H](C)c1ccc(C)cc1
REMARK SMILES IDX 6 1 7 2 8 3 9 4 13 5 12 6 11 7 14 8 10 9 15 10 5 11 4 12
REMARK SMILES IDX 2 13 1 14 3 15
REMARK H PARENT
REMARK Flexibility Score: inf
ROOT
ATOM      1  C   UNL     1      98.756 113.741 106.121  1.00  0.00     0.012 C 
ENDROOT
BRANCH   1   2
ATOM      2  C   UNL     1      99.686 112.540 105.841  1.00  0.00     0.016 C 
ATOM      3  C   UNL     1     100.063 112.430 104.355  1.00  0.00     0.013 C 
BRANCH   2   4
ATOM      4  C   UNL     1     100.937 112.627 106.695  1.00  0.00    -0.045 A 
ATOM      5  C   UNL     1     104.499 112.838 109.131  1.00  0.00     0.044 C 
ATOM      6  C   UNL     1     103.249 112.785 108.303  1.00  0.00    -0.051 A 
ATOM      7  C   UNL     1     103.092 113.642 107.204  1.00  0.00     0.004 A 
ATOM      8  C   UNL     1     102.258 111.833 108.580  1.00  0.00     0.004 A 
ATOM      9  C   UNL     1     101.945 113.569 106.410  1.00  0.00     0.004 A 
ATOM     10  C   UNL     1     101.108 111.759 107.787  1.00  0.00     0.004 A 
ENDBRANCH   2   4
ENDBRANCH   1   2
BRANCH   1  11
ATOM     11  C   UNL     1      97.481 113.340 106.878  1.00  0.00     0.028 C 
BRANCH  11  12
ATOM     12  C   UNL     1      97.351 111.837 106.942  1.00  0.00    -0.028 C 
ATOM     13  C   UNL     1      97.371 111.117 108.086  1.00  0.00    -0.080 C 
ATOM     14  C   UNL     1      97.472 111.771 109.444  1.00  0.00     0.039 C 
ATOM     15  C   UNL     1      97.270 109.616 107.990  1.00  0.00     0.039 C 
ENDBRANCH  11  12
ENDBRANCH   1  11
TORSDOF 4
ENDMDL
MODEL 7
REMARK VINA RESULT:    -3.974      1.049      1.901
REMARK INTER + INTRA:          -5.620
REMARK INTER:                  -4.837
REMARK INTRA:                  -0.783
REMARK UNBOUND:                -0.716
REMARK SMILES CC(C)=CCC[C@@H](C)c1ccc(C)cc1
REMARK SMILES IDX 6 1 7 2 8 3 9 4 13 5 12 6 11 7 14 8 10 9 15 10 5 11 4 12
REMARK SMILES IDX 2 13 1 14 3 15
REMARK H PARENT
REMARK Flexibility Score: inf
ROOT
ATOM      1  C   UNL     1      96.520 110.874 107.992  1.00  0.00     0.012 C 
ENDROOT
BRANCH   1   2
ATOM      2  C   UNL     1      97.832 110.408 108.663  1.00  0.00     0.016 C 
ATOM      3  C   UNL     1      98.050 111.065 110.035  1.00  0.00     0.013 C 
BRANCH   2   4
ATOM      4  C   UNL     1      97.850 108.895 108.797  1.00  0.00    -0.045 A 
ATOM      5  C   UNL     1      97.920 104.596 109.212  1.00  0.00     0.044 C 
ATOM      6  C   UNL     1      97.909 106.086 109.040  1.00  0.00    -0.051 A 
ATOM      7  C   UNL     1      96.805 106.722 108.456  1.00  0.00     0.004 A 
ATOM      8  C   UNL     1      98.972 106.861 109.524  1.00  0.00     0.004 A 
ATOM      9  C   UNL     1      96.776 108.114 108.330  1.00  0.00     0.004 A 
ATOM     10  C   UNL     1      98.947 108.253 109.398  1.00  0.00     0.004 A 
ENDBRANCH   2   4
ENDBRANCH   1   2
BRANCH   1  11
ATOM     11  C   UNL     1      96.738 112.035 107.010  1.00  0.00     0.028 C 
BRANCH  11  12
ATOM     12  C   UNL     1      98.110 111.955 106.387  1.00  0.00    -0.028 C 
ATOM     13  C   UNL     1      98.887 113.025 106.110  1.00  0.00    -0.080 C 
ATOM     14  C   UNL     1      98.466 114.434 106.459  1.00  0.00     0.039 C 
ATOM     15  C   UNL     1     100.222 112.792 105.449  1.00  0.00     0.039 C 
ENDBRANCH  11  12
ENDBRANCH   1  11
TORSDOF 4
ENDMDL
MODEL 8
REMARK VINA RESULT:    -3.935      1.513      3.174
REMARK INTER + INTRA:          -5.572
REMARK INTER:                  -4.457
REMARK INTRA:                  -1.114
REMARK UNBOUND:                -0.716
REMARK SMILES CC(C)=CCC[C@@H](C)c1ccc(C)cc1
REMARK SMILES IDX 6 1 7 2 8 3 9 4 13 5 12 6 11 7 14 8 10 9 15 10 5 11 4 12
REMARK SMILES IDX 2 13 1 14 3 15
REMARK H PARENT
REMARK Flexibility Score: inf
ROOT
ATOM      1  C   UNL     1     100.448 112.207 109.141  1.00  0.00     0.012 C 
ENDROOT
BRANCH   1   2
ATOM      2  C   UNL     1     100.733 110.830 108.500  1.00  0.00     0.016 C 
ATOM      3  C   UNL     1     101.910 110.108 109.172  1.00  0.00     0.013 C 
BRANCH   2   4
ATOM      4  C   UNL     1      99.490 109.959 108.540  1.00  0.00    -0.045 A 
ATOM      5  C   UNL     1      95.942 107.496 108.623  1.00  0.00     0.044 C 
ATOM      6  C   UNL     1      97.167 108.362 108.622  1.00  0.00    -0.051 A 
ATOM      7  C   UNL     1      98.387 107.860 109.097  1.00  0.00     0.004 A 
ATOM      8  C   UNL     1      97.118 109.655 108.084  1.00  0.00     0.004 A 
ATOM      9  C   UNL     1      99.538 108.652 109.063  1.00  0.00     0.004 A 
ATOM     10  C   UNL     1      98.268 110.450 108.049  1.00  0.00     0.004 A 
ENDBRANCH   2   4
ENDBRANCH   1   2
BRANCH   1  11
ATOM     11  C   UNL     1     100.812 113.378 108.216  1.00  0.00     0.028 C 
BRANCH  11  12
ATOM     12  C   UNL     1     100.872 112.922 106.778  1.00  0.00    -0.028 C 
ATOM     13  C   UNL     1      99.861 113.057 105.891  1.00  0.00    -0.080 C 
ATOM     14  C   UNL     1      98.565 113.745 106.251  1.00  0.00     0.039 C 
ATOM     15  C   UNL     1     100.053 112.517 104.497  1.00  0.00     0.039 C 
ENDBRANCH  11  12
ENDBRANCH   1  11
TORSDOF 4
ENDMDL
MODEL 9
REMARK VINA RESULT:    -3.916     11.914     13.904
REMARK INTER + INTRA:          -5.548
REMARK INTER:                  -4.074
REMARK INTRA:                  -1.474
REMARK UNBOUND:                -0.716
REMARK SMILES CC(C)=CCC[C@@H](C)c1ccc(C)cc1
REMARK SMILES IDX 6 1 7 2 8 3 9 4 13 5 12 6 11 7 14 8 10 9 15 10 5 11 4 12
REMARK SMILES IDX 2 13 1 14 3 15
REMARK H PARENT
REMARK Flexibility Score: inf
ROOT
ATOM      1  C   UNL     1     107.420 102.489 101.847  1.00  0.00     0.012 C 
ENDROOT
BRANCH   1   2
ATOM      2  C   UNL     1     108.707 102.239 102.665  1.00  0.00     0.016 C 
ATOM      3  C   UNL     1     109.512 101.043 102.134  1.00  0.00     0.013 C 
BRANCH   2   4
ATOM      4  C   UNL     1     109.572 103.486 102.687  1.00  0.00    -0.045 A 
ATOM      5  C   UNL     1     112.012 107.051 102.721  1.00  0.00     0.044 C 
ATOM      6  C   UNL     1     111.190 105.797 102.704  1.00  0.00    -0.051 A 
ATOM      7  C   UNL     1     110.933 105.104 103.896  1.00  0.00     0.004 A 
ATOM      8  C   UNL     1     110.615 105.344 101.509  1.00  0.00     0.004 A 
ATOM      9  C   UNL     1     110.137 103.956 103.888  1.00  0.00     0.004 A 
ATOM     10  C   UNL     1     109.818 104.195 101.498  1.00  0.00     0.004 A 
ENDBRANCH   2   4
ENDBRANCH   1   2
BRANCH   1  11
ATOM     11  C   UNL     1     106.425 103.406 102.573  1.00  0.00     0.028 C 
BRANCH  11  12
ATOM     12  C   UNL     1     106.228 104.691 101.805  1.00  0.00    -0.028 C 
ATOM     13  C   UNL     1     106.552 105.917 102.272  1.00  0.00    -0.080 C 
ATOM     14  C   UNL     1     107.210 106.115 103.618  1.00  0.00     0.039 C 
ATOM     15  C   UNL     1     106.259 107.115 101.404  1.00  0.00     0.039 C 
ENDBRANCH  11  12
ENDBRANCH   1  11
TORSDOF 4
ENDMDL
