MODEL 1
REMARK VINA RESULT:    -3.966      0.000      0.000
REMARK INTER + INTRA:          -4.274
REMARK INTER:                  -4.198
REMARK INTRA:                  -0.076
REMARK UNBOUND:                -0.076
REMARK SMILES CC(=O)c1cccc(C)c1
REMARK SMILES IDX 9 1 8 2 10 3 4 4 5 5 6 6 7 7 2 8 3 9 1 10
REMARK H PARENT
REMARK Flexibility Score: inf
ROOT
ATOM      1  C   UNL     1      51.820 -29.185 -30.268  1.00  0.00     0.044 C 
ATOM      2  C   UNL     1      50.656 -28.787 -31.127  1.00  0.00    -0.050 A 
ATOM      3  C   UNL     1      49.344 -29.072 -30.716  1.00  0.00     0.015 A 
ATOM      4  C   UNL     1      48.244 -28.737 -31.532  1.00  0.00     0.017 A 
ATOM      5  C   UNL     1      48.488 -28.120 -32.775  1.00  0.00     0.012 A 
ATOM      6  C   UNL     1      49.793 -27.853 -33.192  1.00  0.00     0.001 A 
ATOM      7  C   UNL     1      50.875 -28.190 -32.377  1.00  0.00     0.003 A 
ENDROOT
BRANCH   4   8
ATOM      8  C   UNL     1      46.847 -29.024 -31.105  1.00  0.00     0.159 C 
ATOM      9  O   UNL     1      45.888 -28.412 -31.650  1.00  0.00    -0.295 OA
ATOM     10  C   UNL     1      46.534 -30.028 -30.037  1.00  0.00     0.093 C 
ENDBRANCH   4   8
TORSDOF 1
ENDMDL
MODEL 2
REMARK VINA RESULT:    -3.945     12.997     13.348
REMARK INTER + INTRA:          -4.251
REMARK INTER:                  -4.185
REMARK INTRA:                  -0.066
REMARK UNBOUND:                -0.076
REMARK SMILES CC(=O)c1cccc(C)c1
REMARK SMILES IDX 9 1 8 2 10 3 4 4 5 5 6 6 7 7 2 8 3 9 1 10
REMARK H PARENT
REMARK Flexibility Score: inf
ROOT
ATOM      1  C   UNL     1      54.890 -40.302 -34.278  1.00  0.00     0.044 C 
ATOM      2  C   UNL     1      54.601 -40.631 -32.843  1.00  0.00    -0.050 A 
ATOM      3  C   UNL     1      53.294 -40.947 -32.440  1.00  0.00     0.015 A 
ATOM      4  C   UNL     1      53.003 -41.221 -31.088  1.00  0.00     0.017 A 
ATOM      5  C   UNL     1      54.048 -41.159 -30.146  1.00  0.00     0.012 A 
ATOM      6  C   UNL     1      55.344 -40.826 -30.544  1.00  0.00     0.001 A 
ATOM      7  C   UNL     1      55.621 -40.556 -31.884  1.00  0.00     0.003 A 
ENDROOT
BRANCH   4   8
ATOM      8  C   UNL     1      51.624 -41.569 -30.647  1.00  0.00     0.159 C 
ATOM      9  O   UNL     1      50.833 -40.654 -30.288  1.00  0.00    -0.295 OA
ATOM     10  C   UNL     1      51.135 -42.985 -30.616  1.00  0.00     0.093 C 
ENDBRANCH   4   8
TORSDOF 1
ENDMDL
MODEL 3
REMARK VINA RESULT:    -3.934     13.946     15.428
REMARK INTER + INTRA:          -4.240
REMARK INTER:                  -4.168
REMARK INTRA:                  -0.072
REMARK UNBOUND:                -0.076
REMARK SMILES CC(=O)c1cccc(C)c1
REMARK SMILES IDX 9 1 8 2 10 3 4 4 5 5 6 6 7 7 2 8 3 9 1 10
REMARK H PARENT
REMARK Flexibility Score: inf
ROOT
ATOM      1  C   UNL     1      38.294 -36.583 -29.877  1.00  0.00     0.044 C 
ATOM      2  C   UNL     1      38.634 -37.708 -28.943  1.00  0.00    -0.050 A 
ATOM      3  C   UNL     1      38.450 -39.040 -29.345  1.00  0.00     0.015 A 
ATOM      4  C   UNL     1      38.730 -40.104 -28.463  1.00  0.00     0.017 A 
ATOM      5  C   UNL     1      39.188 -39.803 -27.166  1.00  0.00     0.012 A 
ATOM      6  C   UNL     1      39.354 -38.478 -26.760  1.00  0.00     0.001 A 
ATOM      7  C   UNL     1      39.072 -37.432 -27.640  1.00  0.00     0.003 A 
ENDROOT
BRANCH   4   8
ATOM      8  C   UNL     1      38.550 -41.522 -28.879  1.00  0.00     0.159 C 
ATOM      9  O   UNL     1      38.012 -42.343 -28.086  1.00  0.00    -0.295 OA
ATOM     10  C   UNL     1      38.990 -42.017 -30.224  1.00  0.00     0.093 C 
ENDBRANCH   4   8
TORSDOF 1
ENDMDL
MODEL 4
REMARK VINA RESULT:    -3.886     12.805     13.946
REMARK INTER + INTRA:          -4.189
REMARK INTER:                  -4.119
REMARK INTRA:                  -0.070
REMARK UNBOUND:                -0.076
REMARK SMILES CC(=O)c1cccc(C)c1
REMARK SMILES IDX 9 1 8 2 10 3 4 4 5 5 6 6 7 7 2 8 3 9 1 10
REMARK H PARENT
REMARK Flexibility Score: inf
ROOT
ATOM      1  C   UNL     1      48.391 -41.059 -28.316  1.00  0.00     0.044 C 
ATOM      2  C   UNL     1      49.385 -41.761 -29.194  1.00  0.00    -0.050 A 
ATOM      3  C   UNL     1      50.597 -41.136 -29.527  1.00  0.00     0.015 A 
ATOM      4  C   UNL     1      51.524 -41.769 -30.382  1.00  0.00     0.017 A 
ATOM      5  C   UNL     1      51.203 -43.036 -30.905  1.00  0.00     0.012 A 
ATOM      6  C   UNL     1      49.989 -43.650 -30.589  1.00  0.00     0.001 A 
ATOM      7  C   UNL     1      49.079 -43.014 -29.743  1.00  0.00     0.003 A 
ENDROOT
BRANCH   4   8
ATOM      8  C   UNL     1      52.818 -41.124 -30.735  1.00  0.00     0.159 C 
ATOM      9  O   UNL     1      53.614 -40.776 -29.820  1.00  0.00    -0.295 OA
ATOM     10  C   UNL     1      53.215 -40.870 -32.158  1.00  0.00     0.093 C 
ENDBRANCH   4   8
TORSDOF 1
ENDMDL
MODEL 5
REMARK VINA RESULT:    -3.876      2.087      3.804
REMARK INTER + INTRA:          -4.179
REMARK INTER:                  -4.111
REMARK INTRA:                  -0.068
REMARK UNBOUND:                -0.076
REMARK SMILES CC(=O)c1cccc(C)c1
REMARK SMILES IDX 9 1 8 2 10 3 4 4 5 5 6 6 7 7 2 8 3 9 1 10
REMARK H PARENT
REMARK Flexibility Score: inf
ROOT
ATOM      1  C   UNL     1      47.751 -30.161 -28.668  1.00  0.00     0.044 C 
ATOM      2  C   UNL     1      48.057 -29.552 -30.005  1.00  0.00    -0.050 A 
ATOM      3  C   UNL     1      49.372 -29.183 -30.328  1.00  0.00     0.015 A 
ATOM      4  C   UNL     1      49.666 -28.575 -31.566  1.00  0.00     0.017 A 
ATOM      5  C   UNL     1      48.612 -28.335 -32.468  1.00  0.00     0.012 A 
ATOM      6  C   UNL     1      47.301 -28.686 -32.139  1.00  0.00     0.001 A 
ATOM      7  C   UNL     1      47.021 -29.286 -30.911  1.00  0.00     0.003 A 
ENDROOT
BRANCH   4   8
ATOM      8  C   UNL     1      51.057 -28.187 -31.927  1.00  0.00     0.159 C 
ATOM      9  O   UNL     1      51.338 -26.973 -32.121  1.00  0.00    -0.295 OA
ATOM     10  C   UNL     1      52.152 -29.201 -32.070  1.00  0.00     0.093 C 
ENDBRANCH   4   8
TORSDOF 1
ENDMDL
MODEL 6
REMARK VINA RESULT:    -3.861     12.928     14.023
REMARK INTER + INTRA:          -4.163
REMARK INTER:                  -4.096
REMARK INTRA:                  -0.067
REMARK UNBOUND:                -0.076
REMARK SMILES CC(=O)c1cccc(C)c1
REMARK SMILES IDX 9 1 8 2 10 3 4 4 5 5 6 6 7 7 2 8 3 9 1 10
REMARK H PARENT
REMARK Flexibility Score: inf
ROOT
ATOM      1  C   UNL     1      50.550 -41.324 -30.219  1.00  0.00     0.044 C 
ATOM      2  C   UNL     1      52.022 -41.526 -30.424  1.00  0.00    -0.050 A 
ATOM      3  C   UNL     1      52.671 -40.930 -31.517  1.00  0.00     0.015 A 
ATOM      4  C   UNL     1      54.047 -41.144 -31.742  1.00  0.00     0.017 A 
ATOM      5  C   UNL     1      54.755 -41.977 -30.855  1.00  0.00     0.012 A 
ATOM      6  C   UNL     1      54.106 -42.586 -29.779  1.00  0.00     0.001 A 
ATOM      7  C   UNL     1      52.744 -42.368 -29.566  1.00  0.00     0.003 A 
ENDROOT
BRANCH   4   8
ATOM      8  C   UNL     1      54.752 -40.510 -32.890  1.00  0.00     0.159 C 
ATOM      9  O   UNL     1      55.615 -39.614 -32.678  1.00  0.00    -0.295 OA
ATOM     10  C   UNL     1      54.470 -40.903 -34.309  1.00  0.00     0.093 C 
ENDBRANCH   4   8
TORSDOF 1
ENDMDL
MODEL 7
REMARK VINA RESULT:    -3.825     14.540     16.678
REMARK INTER + INTRA:          -4.125
REMARK INTER:                  -4.051
REMARK INTRA:                  -0.074
REMARK UNBOUND:                -0.076
REMARK SMILES CC(=O)c1cccc(C)c1
REMARK SMILES IDX 9 1 8 2 10 3 4 4 5 5 6 6 7 7 2 8 3 9 1 10
REMARK H PARENT
REMARK Flexibility Score: inf
ROOT
ATOM      1  C   UNL     1      37.875 -43.781 -26.839  1.00  0.00     0.044 C 
ATOM      2  C   UNL     1      38.248 -42.862 -27.965  1.00  0.00    -0.050 A 
ATOM      3  C   UNL     1      38.328 -41.477 -27.748  1.00  0.00     0.015 A 
ATOM      4  C   UNL     1      38.640 -40.599 -28.807  1.00  0.00     0.017 A 
ATOM      5  C   UNL     1      38.861 -41.138 -30.089  1.00  0.00     0.012 A 
ATOM      6  C   UNL     1      38.763 -42.514 -30.308  1.00  0.00     0.001 A 
ATOM      7  C   UNL     1      38.452 -43.373 -29.254  1.00  0.00     0.003 A 
ENDROOT
BRANCH   4   8
ATOM      8  C   UNL     1      38.739 -39.130 -28.591  1.00  0.00     0.159 C 
ATOM      9  O   UNL     1      38.446 -38.338 -29.529  1.00  0.00    -0.295 OA
ATOM     10  C   UNL     1      39.178 -38.547 -27.281  1.00  0.00     0.093 C 
ENDBRANCH   4   8
TORSDOF 1
ENDMDL
MODEL 8
REMARK VINA RESULT:    -3.821     12.714     13.632
REMARK INTER + INTRA:          -4.120
REMARK INTER:                  -4.044
REMARK INTRA:                  -0.076
REMARK UNBOUND:                -0.076
REMARK SMILES CC(=O)c1cccc(C)c1
REMARK SMILES IDX 9 1 8 2 10 3 4 4 5 5 6 6 7 7 2 8 3 9 1 10
REMARK H PARENT
REMARK Flexibility Score: inf
ROOT
ATOM      1  C   UNL     1      51.954 -40.493 -30.579  1.00  0.00     0.044 C 
ATOM      2  C   UNL     1      50.909 -41.485 -30.157  1.00  0.00    -0.050 A 
ATOM      3  C   UNL     1      49.961 -41.140 -29.181  1.00  0.00     0.015 A 
ATOM      4  C   UNL     1      48.998 -42.075 -28.750  1.00  0.00     0.017 A 
ATOM      5  C   UNL     1      49.014 -43.368 -29.309  1.00  0.00     0.012 A 
ATOM      6  C   UNL     1      49.969 -43.716 -30.267  1.00  0.00     0.001 A 
ATOM      7  C   UNL     1      50.917 -42.783 -30.686  1.00  0.00     0.003 A 
ENDROOT
BRANCH   4   8
ATOM      8  C   UNL     1      47.980 -41.721 -27.723  1.00  0.00     0.159 C 
ATOM      9  O   UNL     1      47.351 -42.636 -27.124  1.00  0.00    -0.295 OA
ATOM     10  C   UNL     1      47.671 -40.298 -27.370  1.00  0.00     0.093 C 
ENDBRANCH   4   8
TORSDOF 1
ENDMDL
MODEL 9
REMARK VINA RESULT:    -3.734     14.976     15.945
REMARK INTER + INTRA:          -4.028
REMARK INTER:                  -3.953
REMARK INTRA:                  -0.076
REMARK UNBOUND:                -0.076
REMARK SMILES CC(=O)c1cccc(C)c1
REMARK SMILES IDX 9 1 8 2 10 3 4 4 5 5 6 6 7 7 2 8 3 9 1 10
REMARK H PARENT
REMARK Flexibility Score: inf
ROOT
ATOM      1  C   UNL     1      56.162 -43.895 -26.245  1.00  0.00     0.044 C 
ATOM      2  C   UNL     1      55.424 -42.718 -25.677  1.00  0.00    -0.050 A 
ATOM      3  C   UNL     1      56.110 -41.749 -24.929  1.00  0.00     0.015 A 
ATOM      4  C   UNL     1      55.421 -40.659 -24.358  1.00  0.00     0.017 A 
ATOM      5  C   UNL     1      54.028 -40.568 -24.544  1.00  0.00     0.012 A 
ATOM      6  C   UNL     1      53.343 -41.542 -25.272  1.00  0.00     0.001 A 
ATOM      7  C   UNL     1      54.034 -42.617 -25.832  1.00  0.00     0.003 A 
ENDROOT
BRANCH   4   8
ATOM      8  C   UNL     1      56.136 -39.617 -23.571  1.00  0.00     0.159 C 
ATOM      9  O   UNL     1      57.324 -39.315 -23.867  1.00  0.00    -0.295 OA
ATOM     10  C   UNL     1      55.485 -38.902 -22.425  1.00  0.00     0.093 C 
ENDBRANCH   4   8
TORSDOF 1
ENDMDL
