MODEL 1
REMARK VINA RESULT:    -2.844      0.000      0.000
REMARK INTER + INTRA:          -3.677
REMARK INTER:                  -3.592
REMARK INTRA:                  -0.085
REMARK UNBOUND:                -0.085
REMARK SMILES CCCCCCO
REMARK SMILES IDX 4 1 3 2 2 3 1 4 5 5 6 6 7 7
REMARK H PARENT 7 8
REMARK Flexibility Score: inf
ROOT
ATOM      1  C   UNL     1     145.180 142.435 118.871  1.00  0.00     0.002 C 
ENDROOT
BRANCH   1   2
ATOM      2  C   UNL     1     144.564 143.440 119.855  1.00  0.00    -0.000 C 
BRANCH   2   3
ATOM      3  C   UNL     1     145.073 144.873 119.632  1.00  0.00    -0.003 C 
ATOM      4  C   UNL     1     143.949 145.910 119.659  1.00  0.00     0.004 C 
ENDBRANCH   2   3
ENDBRANCH   1   2
BRANCH   1   5
ATOM      5  C   UNL     1     145.651 141.170 119.602  1.00  0.00     0.028 C 
BRANCH   5   6
ATOM      6  C   UNL     1     145.594 141.338 121.121  1.00  0.00     0.156 C 
BRANCH   6   7
ATOM      7  O   UNL     1     146.790 140.895 121.700  1.00  0.00    -0.396 OA
ATOM      8  H   UNL     1     147.108 141.639 122.276  1.00  0.00     0.210 HD
ENDBRANCH   6   7
ENDBRANCH   5   6
ENDBRANCH   1   5
TORSDOF 5
ENDMDL
MODEL 2
REMARK VINA RESULT:    -2.787      1.761      3.399
REMARK INTER + INTRA:          -3.606
REMARK INTER:                  -3.458
REMARK INTRA:                  -0.148
REMARK UNBOUND:                -0.085
REMARK SMILES CCCCCCO
REMARK SMILES IDX 4 1 3 2 2 3 1 4 5 5 6 6 7 7
REMARK H PARENT 7 8
REMARK Flexibility Score: inf
ROOT
ATOM      1  C   UNL     1     144.869 144.114 119.653  1.00  0.00     0.002 C 
ENDROOT
BRANCH   1   2
ATOM      2  C   UNL     1     144.483 142.630 119.743  1.00  0.00    -0.000 C 
BRANCH   2   3
ATOM      3  C   UNL     1     145.456 141.718 118.979  1.00  0.00    -0.003 C 
ATOM      4  C   UNL     1     146.209 140.756 119.898  1.00  0.00     0.004 C 
ENDBRANCH   2   3
ENDBRANCH   1   2
BRANCH   1   5
ATOM      5  C   UNL     1     144.835 144.774 121.038  1.00  0.00     0.028 C 
BRANCH   5   6
ATOM      6  C   UNL     1     145.136 143.771 122.153  1.00  0.00     0.156 C 
BRANCH   6   7
ATOM      7  O   UNL     1     146.353 144.086 122.770  1.00  0.00    -0.396 OA
ATOM      8  H   UNL     1     146.123 144.412 123.679  1.00  0.00     0.210 HD
ENDBRANCH   6   7
ENDBRANCH   5   6
ENDBRANCH   1   5
TORSDOF 5
ENDMDL
MODEL 3
REMARK VINA RESULT:    -2.780     11.582     12.319
REMARK INTER + INTRA:          -3.597
REMARK INTER:                  -3.454
REMARK INTRA:                  -0.143
REMARK UNBOUND:                -0.085
REMARK SMILES CCCCCCO
REMARK SMILES IDX 4 1 3 2 2 3 1 4 5 5 6 6 7 7
REMARK H PARENT 7 8
REMARK Flexibility Score: inf
ROOT
ATOM      1  C   UNL     1     146.136 131.621 119.632  1.00  0.00     0.002 C 
ENDROOT
BRANCH   1   2
ATOM      2  C   UNL     1     144.612 131.486 119.775  1.00  0.00    -0.000 C 
BRANCH   2   3
ATOM      3  C   UNL     1     144.052 130.279 119.007  1.00  0.00    -0.003 C 
ATOM      4  C   UNL     1     143.400 129.244 119.925  1.00  0.00     0.004 C 
ENDBRANCH   2   3
ENDBRANCH   1   2
BRANCH   1   5
ATOM      5  C   UNL     1     146.798 131.835 121.000  1.00  0.00     0.028 C 
BRANCH   5   6
ATOM      6  C   UNL     1     145.968 131.230 122.133  1.00  0.00     0.156 C 
BRANCH   6   7
ATOM      7  O   UNL     1     146.708 130.244 122.799  1.00  0.00    -0.396 OA
ATOM      8  H   UNL     1     146.294 129.377 122.552  1.00  0.00     0.210 HD
ENDBRANCH   6   7
ENDBRANCH   5   6
ENDBRANCH   1   5
TORSDOF 5
ENDMDL
MODEL 4
REMARK VINA RESULT:    -2.749     20.280     20.825
REMARK INTER + INTRA:          -3.558
REMARK INTER:                  -3.456
REMARK INTRA:                  -0.101
REMARK UNBOUND:                -0.085
REMARK SMILES CCCCCCO
REMARK SMILES IDX 4 1 3 2 2 3 1 4 5 5 6 6 7 7
REMARK H PARENT 7 8
REMARK Flexibility Score: inf
ROOT
ATOM      1  C   UNL     1     128.627 129.737 120.765  1.00  0.00     0.002 C 
ENDROOT
BRANCH   1   2
ATOM      2  C   UNL     1     127.470 129.871 119.763  1.00  0.00    -0.000 C 
BRANCH   2   3
ATOM      3  C   UNL     1     127.496 131.209 119.007  1.00  0.00    -0.003 C 
ATOM      4  C   UNL     1     128.634 132.123 119.462  1.00  0.00     0.004 C 
ENDBRANCH   2   3
ENDBRANCH   1   2
BRANCH   1   5
ATOM      5  C   UNL     1     129.458 128.480 120.476  1.00  0.00     0.028 C 
BRANCH   5   6
ATOM      6  C   UNL     1     130.955 128.734 120.661  1.00  0.00     0.156 C 
BRANCH   6   7
ATOM      7  O   UNL     1     131.447 127.968 121.726  1.00  0.00    -0.396 OA
ATOM      8  H   UNL     1     130.807 128.096 122.474  1.00  0.00     0.210 HD
ENDBRANCH   6   7
ENDBRANCH   5   6
ENDBRANCH   1   5
TORSDOF 5
ENDMDL
MODEL 5
REMARK VINA RESULT:    -2.733     17.621     17.873
REMARK INTER + INTRA:          -3.538
REMARK INTER:                  -3.466
REMARK INTRA:                  -0.072
REMARK UNBOUND:                -0.085
REMARK SMILES CCCCCCO
REMARK SMILES IDX 4 1 3 2 2 3 1 4 5 5 6 6 7 7
REMARK H PARENT 7 8
REMARK Flexibility Score: inf
ROOT
ATOM      1  C   UNL     1     127.437 143.545 120.568  1.00  0.00     0.002 C 
ENDROOT
BRANCH   1   2
ATOM      2  C   UNL     1     127.725 144.144 119.184  1.00  0.00    -0.000 C 
BRANCH   2   3
ATOM      3  C   UNL     1     127.260 145.604 119.064  1.00  0.00    -0.003 C 
ATOM      4  C   UNL     1     126.875 146.214 120.412  1.00  0.00     0.004 C 
ENDBRANCH   2   3
ENDBRANCH   1   2
BRANCH   1   5
ATOM      5  C   UNL     1     127.529 142.013 120.532  1.00  0.00     0.028 C 
BRANCH   5   6
ATOM      6  C   UNL     1     127.896 141.434 121.900  1.00  0.00     0.156 C 
BRANCH   6   7
ATOM      7  O   UNL     1     127.418 142.266 122.920  1.00  0.00    -0.396 OA
ATOM      8  H   UNL     1     127.058 141.662 123.620  1.00  0.00     0.210 HD
ENDBRANCH   6   7
ENDBRANCH   5   6
ENDBRANCH   1   5
TORSDOF 5
ENDMDL
MODEL 6
REMARK VINA RESULT:    -2.698     17.262     18.141
REMARK INTER + INTRA:          -3.493
REMARK INTER:                  -3.288
REMARK INTRA:                  -0.206
REMARK UNBOUND:                -0.085
REMARK SMILES CCCCCCO
REMARK SMILES IDX 4 1 3 2 2 3 1 4 5 5 6 6 7 7
REMARK H PARENT 7 8
REMARK Flexibility Score: inf
ROOT
ATOM      1  C   UNL     1     128.091 145.933 119.766  1.00  0.00     0.002 C 
ENDROOT
BRANCH   1   2
ATOM      2  C   UNL     1     127.835 144.641 118.975  1.00  0.00    -0.000 C 
BRANCH   2   3
ATOM      3  C   UNL     1     128.362 143.391 119.696  1.00  0.00    -0.003 C 
ATOM      4  C   UNL     1     127.253 142.589 120.377  1.00  0.00     0.004 C 
ENDBRANCH   2   3
ENDBRANCH   1   2
BRANCH   1   5
ATOM      5  C   UNL     1     126.875 146.299 120.627  1.00  0.00     0.028 C 
BRANCH   5   6
ATOM      6  C   UNL     1     127.248 146.450 122.103  1.00  0.00     0.156 C 
BRANCH   6   7
ATOM      7  O   UNL     1     127.254 145.198 122.730  1.00  0.00    -0.396 OA
ATOM      8  H   UNL     1     128.140 145.116 123.171  1.00  0.00     0.210 HD
ENDBRANCH   6   7
ENDBRANCH   5   6
ENDBRANCH   1   5
TORSDOF 5
ENDMDL
MODEL 7
REMARK VINA RESULT:    -2.689     17.026     18.015
REMARK INTER + INTRA:          -3.481
REMARK INTER:                  -3.384
REMARK INTRA:                  -0.097
REMARK UNBOUND:                -0.085
REMARK SMILES CCCCCCO
REMARK SMILES IDX 4 1 3 2 2 3 1 4 5 5 6 6 7 7
REMARK H PARENT 7 8
REMARK Flexibility Score: inf
ROOT
ATOM      1  C   UNL     1     127.377 145.511 121.251  1.00  0.00     0.002 C 
ENDROOT
BRANCH   1   2
ATOM      2  C   UNL     1     126.985 146.047 119.866  1.00  0.00    -0.000 C 
BRANCH   2   3
ATOM      3  C   UNL     1     127.575 145.210 118.720  1.00  0.00    -0.003 C 
ATOM      4  C   UNL     1     128.374 144.005 119.218  1.00  0.00     0.004 C 
ENDBRANCH   2   3
ENDBRANCH   1   2
BRANCH   1   5
ATOM      5  C   UNL     1     126.917 146.467 122.359  1.00  0.00     0.028 C 
BRANCH   5   6
ATOM      6  C   UNL     1     128.042 146.772 123.350  1.00  0.00     0.156 C 
BRANCH   6   7
ATOM      7  O   UNL     1     129.284 146.704 122.705  1.00  0.00    -0.396 OA
ATOM      8  H   UNL     1     129.640 145.796 122.891  1.00  0.00     0.210 HD
ENDBRANCH   6   7
ENDBRANCH   5   6
ENDBRANCH   1   5
TORSDOF 5
ENDMDL
MODEL 8
REMARK VINA RESULT:    -2.633     15.160     16.323
REMARK INTER + INTRA:          -3.411
REMARK INTER:                  -3.332
REMARK INTRA:                  -0.080
REMARK UNBOUND:                -0.085
REMARK SMILES CCCCCCO
REMARK SMILES IDX 4 1 3 2 2 3 1 4 5 5 6 6 7 7
REMARK H PARENT 7 8
REMARK Flexibility Score: inf
ROOT
ATOM      1  C   UNL     1     129.561 145.950 120.308  1.00  0.00     0.002 C 
ENDROOT
BRANCH   1   2
ATOM      2  C   UNL     1     128.720 145.165 119.290  1.00  0.00    -0.000 C 
BRANCH   2   3
ATOM      3  C   UNL     1     127.228 145.531 119.349  1.00  0.00    -0.003 C 
ATOM      4  C   UNL     1     126.876 146.378 120.573  1.00  0.00     0.004 C 
ENDBRANCH   2   3
ENDBRANCH   1   2
BRANCH   1   5
ATOM      5  C   UNL     1     130.964 146.236 119.754  1.00  0.00     0.028 C 
BRANCH   5   6
ATOM      6  C   UNL     1     131.836 146.974 120.771  1.00  0.00     0.156 C 
BRANCH   6   7
ATOM      7  O   UNL     1     131.239 146.933 122.038  1.00  0.00    -0.396 OA
ATOM      8  H   UNL     1     130.346 146.521 121.907  1.00  0.00     0.210 HD
ENDBRANCH   6   7
ENDBRANCH   5   6
ENDBRANCH   1   5
TORSDOF 5
ENDMDL
MODEL 9
REMARK VINA RESULT:    -2.625     11.819     12.738
REMARK INTER + INTRA:          -3.401
REMARK INTER:                  -3.262
REMARK INTRA:                  -0.139
REMARK UNBOUND:                -0.085
REMARK SMILES CCCCCCO
REMARK SMILES IDX 4 1 3 2 2 3 1 4 5 5 6 6 7 7
REMARK H PARENT 7 8
REMARK Flexibility Score: inf
ROOT
ATOM      1  C   UNL     1     143.750 129.846 119.341  1.00  0.00     0.002 C 
ENDROOT
BRANCH   1   2
ATOM      2  C   UNL     1     144.586 131.089 118.999  1.00  0.00    -0.000 C 
BRANCH   2   3
ATOM      3  C   UNL     1     145.474 131.543 120.167  1.00  0.00    -0.003 C 
ATOM      4  C   UNL     1     146.915 131.825 119.739  1.00  0.00     0.004 C 
ENDBRANCH   2   3
ENDBRANCH   1   2
BRANCH   1   5
ATOM      5  C   UNL     1     142.563 130.214 120.241  1.00  0.00     0.028 C 
BRANCH   5   6
ATOM      6  C   UNL     1     142.624 129.489 121.586  1.00  0.00     0.156 C 
BRANCH   6   7
ATOM      7  O   UNL     1     143.794 128.724 121.669  1.00  0.00    -0.396 OA
ATOM      8  H   UNL     1     144.457 129.288 122.148  1.00  0.00     0.210 HD
ENDBRANCH   6   7
ENDBRANCH   5   6
ENDBRANCH   1   5
TORSDOF 5
ENDMDL
