MODEL 1
REMARK VINA RESULT:     8.038      0.000      0.000
REMARK INTER + INTRA:          10.945
REMARK INTER:                   9.213
REMARK INTRA:                   1.732
REMARK UNBOUND:                 1.732
REMARK SMILES C=C(C)[C@@H]1CC[C@]2(C(=O)[O-])CC[C@]3(C)[C@@H](CC[C@@H]4[C@]5(C)CC[C@@H](O)C(C)(C)[C@H]5CC[C@]43C)[C@H]12
REMARK SMILES IDX 7 1 6 2 33 3 11 4 5 5 15 6 4 7 12 8 16 9 13 10 17 11 31 12
REMARK SMILES IDX 14 13 18 14 30 15 32 16 19 17 29 18 21 19 20 20 28 21 22 22
REMARK SMILES IDX 25 23 23 24 26 25 27 26 8 27 9 28 10 29 2 30 3 31 1 32 24 33
REMARK H PARENT 24 34
REMARK Flexibility Score: inf
ROOT
ATOM      1  C   UNL     1      98.457 116.254 122.761  1.00  0.00     0.014 C 
ATOM      2  C   UNL     1      98.885 116.360 124.241  1.00  0.00     0.014 C 
ATOM      3  C   UNL     1      99.787 116.514 121.982  1.00  0.00     0.012 C 
ATOM      4  C   UNL     1      97.754 114.901 122.506  1.00  0.00     0.014 C 
ATOM      5  C   UNL     1      99.938 117.453 124.304  1.00  0.00     0.009 C 
ATOM      6  C   UNL     1     100.679 115.231 121.760  1.00  0.00     0.000 C 
ATOM      7  C   UNL     1     100.432 117.647 122.861  1.00  0.00     0.018 C 
ATOM      8  C   UNL     1      98.696 113.705 122.415  1.00  0.00     0.008 C 
ATOM      9  C   UNL     1     101.816 115.480 120.721  1.00  0.00     0.005 C 
ATOM     10  C   UNL     1      99.945 113.845 121.477  1.00  0.00    -0.024 C 
ATOM     11  C   UNL     1     101.425 115.272 119.253  1.00  0.00     0.005 C 
ATOM     12  C   UNL     1      99.601 113.612 119.894  1.00  0.00    -0.024 C 
ATOM     13  C   UNL     1     100.906 112.716 122.008  1.00  0.00     0.012 C 
ATOM     14  C   UNL     1     100.885 113.846 119.018  1.00  0.00     0.002 C 
ATOM     15  C   UNL     1      99.177 112.129 119.615  1.00  0.00     0.008 C 
ATOM     16  C   UNL     1      98.465 114.583 119.434  1.00  0.00     0.012 C 
ATOM     17  C   UNL     1     100.858 113.298 117.492  1.00  0.00    -0.026 C 
ATOM     18  C   UNL     1      98.816 111.791 118.153  1.00  0.00     0.005 C 
ATOM     19  C   UNL     1     101.216 114.418 116.463  1.00  0.00     0.010 C 
ATOM     20  C   UNL     1     101.947 112.183 117.400  1.00  0.00     0.012 C 
ATOM     21  C   UNL     1      99.439 112.732 117.091  1.00  0.00     0.003 C 
ATOM     22  C   UNL     1     101.071 114.000 114.988  1.00  0.00     0.033 C 
ATOM     23  C   UNL     1      99.241 112.272 115.586  1.00  0.00    -0.006 C 
ATOM     24  C   UNL     1      99.672 113.450 114.656  1.00  0.00     0.120 C 
ATOM     25  C   UNL     1      97.727 112.015 115.331  1.00  0.00     0.014 C 
ATOM     26  C   UNL     1      99.989 110.960 115.204  1.00  0.00     0.014 C 
ENDROOT
BRANCH   1  27
ATOM     27  C   UNL     1      97.447 117.352 122.425  1.00  0.00     0.048 C 
ATOM     28  O   UNL     1      96.833 117.330 121.324  1.00  0.00    -0.550 OA
ATOM     29  O   UNL     1      97.147 118.358 123.337  1.00  0.00    -0.550 OA
ENDBRANCH   1  27
BRANCH   7  30
ATOM     30  C   UNL     1     101.933 117.926 122.761  1.00  0.00    -0.077 C 
ATOM     31  C   UNL     1     102.623 118.680 123.873  1.00  0.00     0.039 C 
ATOM     32  C   UNL     1     102.684 117.489 121.733  1.00  0.00     0.008 C 
ENDBRANCH   7  30
BRANCH  24  33
ATOM     33  O   UNL     1      99.641 113.045 113.309  1.00  0.00    -0.393 OA
ATOM     34  H   UNL     1      98.791 113.382 112.924  1.00  0.00     0.210 HD
ENDBRANCH  24  33
TORSDOF 3
ENDMDL
MODEL 2
REMARK VINA RESULT:     8.040      1.423      7.912
REMARK INTER + INTRA:          10.947
REMARK INTER:                   9.557
REMARK INTRA:                   1.390
REMARK UNBOUND:                 1.732
REMARK SMILES C=C(C)[C@@H]1CC[C@]2(C(=O)[O-])CC[C@]3(C)[C@@H](CC[C@@H]4[C@]5(C)CC[C@@H](O)C(C)(C)[C@H]5CC[C@]43C)[C@H]12
REMARK SMILES IDX 7 1 6 2 33 3 11 4 5 5 15 6 4 7 12 8 16 9 13 10 17 11 31 12
REMARK SMILES IDX 14 13 18 14 30 15 32 16 19 17 29 18 21 19 20 20 28 21 22 22
REMARK SMILES IDX 25 23 23 24 26 25 27 26 8 27 9 28 10 29 2 30 3 31 1 32 24 33
REMARK H PARENT 24 34
REMARK Flexibility Score: inf
ROOT
ATOM      1  C   UNL     1      99.532 113.513 114.938  1.00  0.00     0.014 C 
ATOM      2  C   UNL     1     100.234 112.657 113.861  1.00  0.00     0.014 C 
ATOM      3  C   UNL     1      99.222 112.481 116.071  1.00  0.00     0.012 C 
ATOM      4  C   UNL     1     100.419 114.720 115.319  1.00  0.00     0.014 C 
ATOM      5  C   UNL     1      99.552 111.300 113.883  1.00  0.00     0.009 C 
ATOM      6  C   UNL     1     100.402 112.257 117.095  1.00  0.00     0.000 C 
ATOM      7  C   UNL     1      98.807 111.222 115.225  1.00  0.00     0.018 C 
ATOM      8  C   UNL     1     101.597 114.380 116.226  1.00  0.00     0.008 C 
ATOM      9  C   UNL     1      99.938 111.477 118.363  1.00  0.00     0.005 C 
ATOM     10  C   UNL     1     101.297 113.513 117.497  1.00  0.00    -0.024 C 
ATOM     11  C   UNL     1      99.336 112.336 119.483  1.00  0.00     0.005 C 
ATOM     12  C   UNL     1     100.673 114.374 118.742  1.00  0.00    -0.024 C 
ATOM     13  C   UNL     1     102.717 112.944 117.873  1.00  0.00     0.012 C 
ATOM     14  C   UNL     1     100.329 113.422 119.944  1.00  0.00     0.002 C 
ATOM     15  C   UNL     1     101.719 115.395 119.310  1.00  0.00     0.008 C 
ATOM     16  C   UNL     1      99.384 115.134 118.286  1.00  0.00     0.012 C 
ATOM     17  C   UNL     1     100.068 114.109 121.390  1.00  0.00    -0.026 C 
ATOM     18  C   UNL     1     101.238 116.274 120.483  1.00  0.00     0.005 C 
ATOM     19  C   UNL     1      98.699 113.675 122.004  1.00  0.00     0.010 C 
ATOM     20  C   UNL     1     101.208 113.609 122.333  1.00  0.00     0.012 C 
ATOM     21  C   UNL     1     100.062 115.686 121.303  1.00  0.00     0.003 C 
ATOM     22  C   UNL     1      98.326 114.401 123.310  1.00  0.00     0.033 C 
ATOM     23  C   UNL     1      99.700 116.483 122.626  1.00  0.00    -0.006 C 
ATOM     24  C   UNL     1      98.343 115.934 123.169  1.00  0.00     0.120 C 
ATOM     25  C   UNL     1      99.478 117.982 122.268  1.00  0.00     0.014 C 
ATOM     26  C   UNL     1     100.798 116.444 123.729  1.00  0.00     0.014 C 
ENDROOT
BRANCH   1  27
ATOM     27  C   UNL     1      98.221 114.077 114.390  1.00  0.00     0.048 C 
ATOM     28  O   UNL     1      97.985 115.313 114.465  1.00  0.00    -0.550 OA
ATOM     29  O   UNL     1      97.293 113.258 113.756  1.00  0.00    -0.550 OA
ENDBRANCH   1  27
BRANCH   7  30
ATOM     30  C   UNL     1      98.839 109.833 115.863  1.00  0.00    -0.077 C 
ATOM     31  C   UNL     1      98.362 109.659 117.285  1.00  0.00     0.039 C 
ATOM     32  C   UNL     1      99.241 108.737 115.193  1.00  0.00     0.008 C 
ENDBRANCH   7  30
BRANCH  24  33
ATOM     33  O   UNL     1      98.043 116.516 124.414  1.00  0.00    -0.393 OA
ATOM     34  H   UNL     1      98.734 116.205 125.054  1.00  0.00     0.210 HD
ENDBRANCH  24  33
TORSDOF 3
ENDMDL
