MODEL 1
REMARK VINA RESULT:    -5.479      0.000      0.000
REMARK INTER + INTRA:          -7.810
REMARK INTER:                  -7.401
REMARK INTRA:                  -0.409
REMARK UNBOUND:                -0.409
REMARK SMILES CC(=O)CCC=C(C)CCC=C(C)C
REMARK SMILES IDX 7 1 6 2 8 3 9 4 10 5 11 6 13 7 12 8 14 9 5 10 4 11 2 12 3 13
REMARK SMILES IDX 1 14
REMARK H PARENT
REMARK Flexibility Score: inf
ROOT
ATOM      1  C   UNL     1      -2.342 -13.283  -7.137  1.00  0.00    -0.077 C 
ATOM      2  C   UNL     1      -2.887 -13.848  -6.035  1.00  0.00    -0.028 C 
ATOM      3  C   UNL     1      -1.437 -14.058  -8.065  1.00  0.00     0.039 C 
ENDROOT
BRANCH   1   4
ATOM      4  C   UNL     1      -2.670 -11.841  -7.459  1.00  0.00     0.034 C 
BRANCH   4   5
ATOM      5  C   UNL     1      -3.333 -11.730  -8.837  1.00  0.00     0.032 C 
BRANCH   5   6
ATOM      6  C   UNL     1      -4.175 -12.948  -9.125  1.00  0.00    -0.028 C 
ATOM      7  C   UNL     1      -6.237 -11.961  -8.101  1.00  0.00     0.039 C 
ATOM      8  C   UNL     1      -5.475 -13.077  -8.779  1.00  0.00    -0.080 C 
ATOM      9  C   UNL     1      -6.179 -14.369  -9.099  1.00  0.00     0.039 C 
ENDBRANCH   5   6
ENDBRANCH   4   5
ENDBRANCH   1   4
BRANCH   2  10
ATOM     10  C   UNL     1      -2.610 -15.257  -5.571  1.00  0.00     0.035 C 
BRANCH  10  11
ATOM     11  C   UNL     1      -3.541 -16.250  -6.281  1.00  0.00     0.079 C 
BRANCH  11  12
ATOM     12  C   UNL     1      -4.135 -17.307  -5.376  1.00  0.00     0.130 C 
ATOM     13  O   UNL     1      -4.757 -16.943  -4.389  1.00  0.00    -0.300 OA
ATOM     14  C   UNL     1      -3.988 -18.781  -5.633  1.00  0.00     0.087 C 
ENDBRANCH  11  12
ENDBRANCH  10  11
ENDBRANCH   2  10
TORSDOF 6
ENDMDL
MODEL 2
REMARK VINA RESULT:    -5.318      1.161      1.612
REMARK INTER + INTRA:          -7.592
REMARK INTER:                  -6.762
REMARK INTRA:                  -0.830
REMARK UNBOUND:                -0.409
REMARK SMILES CC(=O)CCC=C(C)CCC=C(C)C
REMARK SMILES IDX 7 1 6 2 8 3 9 4 10 5 11 6 13 7 12 8 14 9 5 10 4 11 2 12 3 13
REMARK SMILES IDX 1 14
REMARK H PARENT
REMARK Flexibility Score: inf
ROOT
ATOM      1  C   UNL     1      -2.414 -13.635  -8.387  1.00  0.00    -0.077 C 
ATOM      2  C   UNL     1      -1.907 -13.804  -7.144  1.00  0.00    -0.028 C 
ATOM      3  C   UNL     1      -3.104 -14.757  -9.125  1.00  0.00     0.039 C 
ENDROOT
BRANCH   1   4
ATOM      4  C   UNL     1      -2.306 -12.276  -9.044  1.00  0.00     0.034 C 
BRANCH   4   5
ATOM      5  C   UNL     1      -3.667 -11.571  -9.059  1.00  0.00     0.032 C 
BRANCH   5   6
ATOM      6  C   UNL     1      -4.380 -11.756  -7.743  1.00  0.00    -0.028 C 
ATOM      7  C   UNL     1      -6.305 -12.980  -8.778  1.00  0.00     0.039 C 
ATOM      8  C   UNL     1      -5.578 -12.366  -7.604  1.00  0.00    -0.080 C 
ATOM      9  C   UNL     1      -6.188 -12.445  -6.229  1.00  0.00     0.039 C 
ENDBRANCH   5   6
ENDBRANCH   4   5
ENDBRANCH   1   4
BRANCH   2  10
ATOM     10  C   UNL     1      -1.904 -15.112  -6.393  1.00  0.00     0.035 C 
BRANCH  10  11
ATOM     11  C   UNL     1      -3.040 -15.142  -5.359  1.00  0.00     0.079 C 
BRANCH  11  12
ATOM     12  C   UNL     1      -3.746 -16.474  -5.244  1.00  0.00     0.130 C 
ATOM     13  O   UNL     1      -4.619 -16.597  -4.398  1.00  0.00    -0.300 OA
ATOM     14  C   UNL     1      -3.417 -17.653  -6.118  1.00  0.00     0.087 C 
ENDBRANCH  11  12
ENDBRANCH  10  11
ENDBRANCH   2  10
TORSDOF 6
ENDMDL
MODEL 3
REMARK VINA RESULT:    -5.093      1.836      4.603
REMARK INTER + INTRA:          -7.289
REMARK INTER:                  -6.419
REMARK INTRA:                  -0.870
REMARK UNBOUND:                -0.409
REMARK SMILES CC(=O)CCC=C(C)CCC=C(C)C
REMARK SMILES IDX 7 1 6 2 8 3 9 4 10 5 11 6 13 7 12 8 14 9 5 10 4 11 2 12 3 13
REMARK SMILES IDX 1 14
REMARK H PARENT
REMARK Flexibility Score: inf
ROOT
ATOM      1  C   UNL     1      -2.258 -13.300  -7.817  1.00  0.00    -0.077 C 
ATOM      2  C   UNL     1      -2.975 -12.154  -7.761  1.00  0.00    -0.028 C 
ATOM      3  C   UNL     1      -1.976 -14.000  -9.125  1.00  0.00     0.039 C 
ENDROOT
BRANCH   1   4
ATOM      4  C   UNL     1      -1.703 -13.881  -6.534  1.00  0.00     0.034 C 
BRANCH   4   5
ATOM      5  C   UNL     1      -2.834 -14.220  -5.558  1.00  0.00     0.032 C 
BRANCH   5   6
ATOM      6  C   UNL     1      -2.916 -15.709  -5.330  1.00  0.00    -0.028 C 
ATOM      7  C   UNL     1      -4.291 -16.107  -7.386  1.00  0.00     0.039 C 
ATOM      8  C   UNL     1      -3.587 -16.567  -6.130  1.00  0.00    -0.080 C 
ATOM      9  C   UNL     1      -3.613 -18.026  -5.756  1.00  0.00     0.039 C 
ENDBRANCH   5   6
ENDBRANCH   4   5
ENDBRANCH   1   4
BRANCH   2  10
ATOM     10  C   UNL     1      -3.624 -11.493  -8.952  1.00  0.00     0.035 C 
BRANCH  10  11
ATOM     11  C   UNL     1      -5.141 -11.381  -8.745  1.00  0.00     0.079 C 
BRANCH  11  12
ATOM     12  C   UNL     1      -5.788 -12.623  -8.173  1.00  0.00     0.130 C 
ATOM     13  O   UNL     1      -6.158 -13.493  -8.947  1.00  0.00    -0.300 OA
ATOM     14  C   UNL     1      -6.001 -12.831  -6.699  1.00  0.00     0.087 C 
ENDBRANCH  11  12
ENDBRANCH  10  11
ENDBRANCH   2  10
TORSDOF 6
ENDMDL
MODEL 4
REMARK VINA RESULT:    -4.322      1.599      4.685
REMARK INTER + INTRA:          -6.248
REMARK INTER:                  -5.772
REMARK INTRA:                  -0.476
REMARK UNBOUND:                -0.409
REMARK SMILES CC(=O)CCC=C(C)CCC=C(C)C
REMARK SMILES IDX 7 1 6 2 8 3 9 4 10 5 11 6 13 7 12 8 14 9 5 10 4 11 2 12 3 13
REMARK SMILES IDX 1 14
REMARK H PARENT
REMARK Flexibility Score: inf
ROOT
ATOM      1  C   UNL     1      -2.766 -14.086  -8.221  1.00  0.00    -0.077 C 
ATOM      2  C   UNL     1      -3.951 -14.741  -8.231  1.00  0.00    -0.028 C 
ATOM      3  C   UNL     1      -2.523 -12.867  -9.079  1.00  0.00     0.039 C 
ENDROOT
BRANCH   1   4
ATOM      4  C   UNL     1      -1.666 -14.576  -7.305  1.00  0.00     0.034 C 
BRANCH   4   5
ATOM      5  C   UNL     1      -2.250 -15.114  -5.994  1.00  0.00     0.032 C 
BRANCH   5   6
ATOM      6  C   UNL     1      -2.489 -16.600  -6.085  1.00  0.00    -0.028 C 
ATOM      7  C   UNL     1      -4.739 -16.464  -4.992  1.00  0.00     0.039 C 
ATOM      8  C   UNL     1      -3.592 -17.225  -5.618  1.00  0.00    -0.080 C 
ATOM      9  C   UNL     1      -3.677 -18.724  -5.745  1.00  0.00     0.039 C 
ENDBRANCH   5   6
ENDBRANCH   4   5
ENDBRANCH   1   4
BRANCH   2  10
ATOM     10  C   UNL     1      -5.114 -14.390  -9.125  1.00  0.00     0.035 C 
BRANCH  10  11
ATOM     11  C   UNL     1      -6.263 -13.790  -8.303  1.00  0.00     0.079 C 
BRANCH  11  12
ATOM     12  C   UNL     1      -5.822 -12.848  -7.204  1.00  0.00     0.130 C 
ATOM     13  O   UNL     1      -5.630 -13.308  -6.089  1.00  0.00    -0.300 OA
ATOM     14  C   UNL     1      -5.615 -11.375  -7.423  1.00  0.00     0.087 C 
ENDBRANCH  11  12
ENDBRANCH  10  11
ENDBRANCH   2  10
TORSDOF 6
ENDMDL
MODEL 5
REMARK VINA RESULT:    -4.294      1.335      3.315
REMARK INTER + INTRA:          -6.210
REMARK INTER:                  -5.624
REMARK INTRA:                  -0.586
REMARK UNBOUND:                -0.409
REMARK SMILES CC(=O)CCC=C(C)CCC=C(C)C
REMARK SMILES IDX 7 1 6 2 8 3 9 4 10 5 11 6 13 7 12 8 14 9 5 10 4 11 2 12 3 13
REMARK SMILES IDX 1 14
REMARK H PARENT
REMARK Flexibility Score: inf
ROOT
ATOM      1  C   UNL     1      -5.300 -12.502  -8.456  1.00  0.00    -0.077 C 
ATOM      2  C   UNL     1      -5.178 -13.690  -9.093  1.00  0.00    -0.028 C 
ATOM      3  C   UNL     1      -5.929 -12.393  -7.087  1.00  0.00     0.039 C 
ENDROOT
BRANCH   1   4
ATOM      4  C   UNL     1      -4.768 -11.254  -9.125  1.00  0.00     0.034 C 
BRANCH   4   5
ATOM      5  C   UNL     1      -3.283 -11.055  -8.801  1.00  0.00     0.032 C 
BRANCH   5   6
ATOM      6  C   UNL     1      -2.521 -12.346  -8.968  1.00  0.00    -0.028 C 
ATOM      7  C   UNL     1      -2.355 -12.751  -6.501  1.00  0.00     0.039 C 
ATOM      8  C   UNL     1      -2.077 -13.108  -7.944  1.00  0.00    -0.080 C 
ATOM      9  C   UNL     1      -1.296 -14.356  -8.263  1.00  0.00     0.039 C 
ENDBRANCH   5   6
ENDBRANCH   4   5
ENDBRANCH   1   4
BRANCH   2  10
ATOM     10  C   UNL     1      -5.704 -15.001  -8.564  1.00  0.00     0.035 C 
BRANCH  10  11
ATOM     11  C   UNL     1      -4.546 -15.908  -8.126  1.00  0.00     0.079 C 
BRANCH  11  12
ATOM     12  C   UNL     1      -4.243 -15.865  -6.645  1.00  0.00     0.130 C 
ATOM     13  O   UNL     1      -4.988 -15.223  -5.919  1.00  0.00    -0.300 OA
ATOM     14  C   UNL     1      -3.067 -16.570  -6.028  1.00  0.00     0.087 C 
ENDBRANCH  11  12
ENDBRANCH  10  11
ENDBRANCH   2  10
TORSDOF 6
ENDMDL
MODEL 6
REMARK VINA RESULT:    -4.283      1.500      4.260
REMARK INTER + INTRA:          -6.194
REMARK INTER:                  -5.604
REMARK INTRA:                  -0.590
REMARK UNBOUND:                -0.409
REMARK SMILES CC(=O)CCC=C(C)CCC=C(C)C
REMARK SMILES IDX 7 1 6 2 8 3 9 4 10 5 11 6 13 7 12 8 14 9 5 10 4 11 2 12 3 13
REMARK SMILES IDX 1 14
REMARK H PARENT
REMARK Flexibility Score: inf
ROOT
ATOM      1  C   UNL     1      -2.912 -12.495  -8.416  1.00  0.00    -0.077 C 
ATOM      2  C   UNL     1      -4.071 -12.418  -9.110  1.00  0.00    -0.028 C 
ATOM      3  C   UNL     1      -2.617 -11.575  -7.254  1.00  0.00     0.039 C 
ENDROOT
BRANCH   1   4
ATOM      4  C   UNL     1      -1.896 -13.548  -8.800  1.00  0.00     0.034 C 
BRANCH   4   5
ATOM      5  C   UNL     1      -1.471 -14.365  -7.574  1.00  0.00     0.032 C 
BRANCH   5   6
ATOM      6  C   UNL     1      -2.500 -15.419  -7.250  1.00  0.00    -0.028 C 
ATOM      7  C   UNL     1      -2.650 -14.757  -4.839  1.00  0.00     0.039 C 
ATOM      8  C   UNL     1      -3.022 -15.623  -6.021  1.00  0.00    -0.080 C 
ATOM      9  C   UNL     1      -4.016 -16.740  -5.839  1.00  0.00     0.039 C 
ENDBRANCH   5   6
ENDBRANCH   4   5
ENDBRANCH   1   4
BRANCH   2  10
ATOM     10  C   UNL     1      -5.147 -11.390  -8.866  1.00  0.00     0.035 C 
BRANCH  10  11
ATOM     11  C   UNL     1      -6.219 -11.948  -7.918  1.00  0.00     0.079 C 
BRANCH  11  12
ATOM     12  C   UNL     1      -5.918 -13.327  -7.375  1.00  0.00     0.130 C 
ATOM     13  O   UNL     1      -5.684 -13.442  -6.181  1.00  0.00    -0.300 OA
ATOM     14  C   UNL     1      -5.889 -14.558  -8.238  1.00  0.00     0.087 C 
ENDBRANCH  11  12
ENDBRANCH  10  11
ENDBRANCH   2  10
TORSDOF 6
ENDMDL
MODEL 7
REMARK VINA RESULT:    -4.203      1.532      2.622
REMARK INTER + INTRA:          -6.086
REMARK INTER:                  -5.061
REMARK INTRA:                  -1.026
REMARK UNBOUND:                -0.409
REMARK SMILES CC(=O)CCC=C(C)CCC=C(C)C
REMARK SMILES IDX 7 1 6 2 8 3 9 4 10 5 11 6 13 7 12 8 14 9 5 10 4 11 2 12 3 13
REMARK SMILES IDX 1 14
REMARK H PARENT
REMARK Flexibility Score: inf
ROOT
ATOM      1  C   UNL     1      -2.957 -12.151  -8.140  1.00  0.00    -0.077 C 
ATOM      2  C   UNL     1      -2.614 -13.434  -8.403  1.00  0.00    -0.028 C 
ATOM      3  C   UNL     1      -2.468 -11.434  -6.904  1.00  0.00     0.039 C 
ENDROOT
BRANCH   1   4
ATOM      4  C   UNL     1      -3.834 -11.410  -9.125  1.00  0.00     0.034 C 
BRANCH   4   5
ATOM      5  C   UNL     1      -5.309 -11.776  -8.922  1.00  0.00     0.032 C 
BRANCH   5   6
ATOM      6  C   UNL     1      -5.677 -11.724  -7.460  1.00  0.00    -0.028 C 
ATOM      7  C   UNL     1      -5.926 -14.209  -7.270  1.00  0.00     0.039 C 
ATOM      8  C   UNL     1      -5.980 -12.806  -6.710  1.00  0.00    -0.080 C 
ATOM      9  C   UNL     1      -6.366 -12.596  -5.269  1.00  0.00     0.039 C 
ENDBRANCH   5   6
ENDBRANCH   4   5
ENDBRANCH   1   4
BRANCH   2  10
ATOM     10  C   UNL     1      -1.788 -14.302  -7.489  1.00  0.00     0.035 C 
BRANCH  10  11
ATOM     11  C   UNL     1      -2.583 -15.545  -7.062  1.00  0.00     0.079 C 
BRANCH  11  12
ATOM     12  C   UNL     1      -3.192 -15.454  -5.681  1.00  0.00     0.130 C 
ATOM     13  O   UNL     1      -3.975 -16.326  -5.334  1.00  0.00    -0.300 OA
ATOM     14  C   UNL     1      -2.883 -14.338  -4.722  1.00  0.00     0.087 C 
ENDBRANCH  11  12
ENDBRANCH  10  11
ENDBRANCH   2  10
TORSDOF 6
ENDMDL
MODEL 8
REMARK VINA RESULT:    -4.175      1.727      3.531
REMARK INTER + INTRA:          -6.049
REMARK INTER:                  -5.054
REMARK INTRA:                  -0.994
REMARK UNBOUND:                -0.409
REMARK SMILES CC(=O)CCC=C(C)CCC=C(C)C
REMARK SMILES IDX 7 1 6 2 8 3 9 4 10 5 11 6 13 7 12 8 14 9 5 10 4 11 2 12 3 13
REMARK SMILES IDX 1 14
REMARK H PARENT
REMARK Flexibility Score: inf
ROOT
ATOM      1  C   UNL     1      -5.266 -15.156  -7.552  1.00  0.00    -0.077 C 
ATOM      2  C   UNL     1      -4.214 -15.999  -7.433  1.00  0.00    -0.028 C 
ATOM      3  C   UNL     1      -5.882 -14.477  -6.351  1.00  0.00     0.039 C 
ENDROOT
BRANCH   1   4
ATOM      4  C   UNL     1      -5.822 -14.867  -8.929  1.00  0.00     0.034 C 
BRANCH   4   5
ATOM      5  C   UNL     1      -6.033 -13.362  -9.125  1.00  0.00     0.032 C 
BRANCH   5   6
ATOM      6  C   UNL     1      -4.713 -12.632  -9.125  1.00  0.00    -0.028 C 
ATOM      7  C   UNL     1      -5.341 -11.169  -7.191  1.00  0.00     0.039 C 
ATOM      8  C   UNL     1      -4.395 -11.629  -8.278  1.00  0.00    -0.080 C 
ATOM      9  C   UNL     1      -3.050 -10.967  -8.421  1.00  0.00     0.039 C 
ENDBRANCH   5   6
ENDBRANCH   4   5
ENDBRANCH   1   4
BRANCH   2  10
ATOM     10  C   UNL     1      -3.592 -16.410  -6.122  1.00  0.00     0.035 C 
BRANCH  10  11
ATOM     11  C   UNL     1      -2.191 -15.799  -5.976  1.00  0.00     0.079 C 
BRANCH  11  12
ATOM     12  C   UNL     1      -2.030 -14.441  -6.622  1.00  0.00     0.130 C 
ATOM     13  O   UNL     1      -2.374 -13.453  -5.989  1.00  0.00    -0.300 OA
ATOM     14  C   UNL     1      -1.473 -14.253  -8.006  1.00  0.00     0.087 C 
ENDBRANCH  11  12
ENDBRANCH  10  11
ENDBRANCH   2  10
TORSDOF 6
ENDMDL
MODEL 9
REMARK VINA RESULT:    -3.725      2.137      5.289
REMARK INTER + INTRA:          -5.441
REMARK INTER:                  -5.136
REMARK INTRA:                  -0.305
REMARK UNBOUND:                -0.409
REMARK SMILES CC(=O)CCC=C(C)CCC=C(C)C
REMARK SMILES IDX 7 1 6 2 8 3 9 4 10 5 11 6 13 7 12 8 14 9 5 10 4 11 2 12 3 13
REMARK SMILES IDX 1 14
REMARK H PARENT
REMARK Flexibility Score: inf
ROOT
ATOM      1  C   UNL     1      -5.562 -13.821  -8.133  1.00  0.00    -0.077 C 
ATOM      2  C   UNL     1      -5.290 -12.878  -9.066  1.00  0.00    -0.028 C 
ATOM      3  C   UNL     1      -5.776 -13.466  -6.681  1.00  0.00     0.039 C 
ENDROOT
BRANCH   1   4
ATOM      4  C   UNL     1      -5.677 -15.267  -8.565  1.00  0.00     0.034 C 
BRANCH   4   5
ATOM      5  C   UNL     1      -4.339 -15.994  -8.391  1.00  0.00     0.032 C 
BRANCH   5   6
ATOM      6  C   UNL     1      -3.592 -15.460  -7.194  1.00  0.00    -0.028 C 
ATOM      7  C   UNL     1      -3.689 -17.640  -5.964  1.00  0.00     0.039 C 
ATOM      8  C   UNL     1      -3.313 -16.181  -6.086  1.00  0.00    -0.080 C 
ATOM      9  C   UNL     1      -2.591 -15.503  -4.951  1.00  0.00     0.039 C 
ENDBRANCH   5   6
ENDBRANCH   4   5
ENDBRANCH   1   4
BRANCH   2  10
ATOM     10  C   UNL     1      -5.102 -11.412  -8.769  1.00  0.00     0.035 C 
BRANCH  10  11
ATOM     11  C   UNL     1      -3.614 -11.037  -8.825  1.00  0.00     0.079 C 
BRANCH  11  12
ATOM     12  C   UNL     1      -2.679 -12.113  -8.320  1.00  0.00     0.130 C 
ATOM     13  O   UNL     1      -2.230 -12.916  -9.125  1.00  0.00    -0.300 OA
ATOM     14  C   UNL     1      -2.283 -12.242  -6.876  1.00  0.00     0.087 C 
ENDBRANCH  11  12
ENDBRANCH  10  11
ENDBRANCH   2  10
TORSDOF 6
ENDMDL
