MODEL 1
REMARK VINA RESULT:    -4.506      0.000      0.000
REMARK INTER + INTRA:          -5.821
REMARK INTER:                  -5.560
REMARK INTRA:                  -0.262
REMARK UNBOUND:                -0.262
REMARK SMILES CCCCC=CC(C)=O
REMARK SMILES IDX 4 1 3 2 2 3 1 4 5 5 6 6 7 7 9 8 8 9
REMARK H PARENT
REMARK Flexibility Score: inf
ROOT
ATOM      1  C   UNL     1     -12.878 -16.115  32.072  1.00  0.00     0.027 C 
ENDROOT
BRANCH   1   2
ATOM      2  C   UNL     1     -14.026 -15.385  31.357  1.00  0.00     0.004 C 
BRANCH   2   3
ATOM      3  C   UNL     1     -15.021 -14.748  32.340  1.00  0.00    -0.003 C 
ATOM      4  C   UNL     1     -15.800 -15.785  33.149  1.00  0.00     0.004 C 
ENDBRANCH   2   3
ENDBRANCH   1   2
BRANCH   1   5
ATOM      5  C   UNL     1     -12.564 -17.420  31.398  1.00  0.00    -0.023 C 
ATOM      6  C   UNL     1     -13.312 -18.510  31.599  1.00  0.00     0.042 C 
BRANCH   6   7
ATOM      7  C   UNL     1     -13.011 -19.804  30.958  1.00  0.00     0.152 C 
ATOM      8  O   UNL     1     -12.527 -20.757  31.625  1.00  0.00    -0.295 OA
ATOM      9  C   UNL     1     -13.281 -19.986  29.499  1.00  0.00     0.093 C 
ENDBRANCH   6   7
ENDBRANCH   1   5
TORSDOF 4
ENDMDL
MODEL 2
REMARK VINA RESULT:    -4.427      3.099      4.834
REMARK INTER + INTRA:          -5.724
REMARK INTER:                  -5.522
REMARK INTRA:                  -0.201
REMARK UNBOUND:                -0.262
REMARK SMILES CCCCC=CC(C)=O
REMARK SMILES IDX 4 1 3 2 2 3 1 4 5 5 6 6 7 7 9 8 8 9
REMARK H PARENT
REMARK Flexibility Score: inf
ROOT
ATOM      1  C   UNL     1     -13.279 -15.258  28.269  1.00  0.00     0.027 C 
ENDROOT
BRANCH   1   2
ATOM      2  C   UNL     1     -13.376 -16.179  27.043  1.00  0.00     0.004 C 
BRANCH   2   3
ATOM      3  C   UNL     1     -12.396 -17.360  27.115  1.00  0.00    -0.003 C 
ATOM      4  C   UNL     1     -11.369 -17.347  25.983  1.00  0.00     0.004 C 
ENDBRANCH   2   3
ENDBRANCH   1   2
BRANCH   1   5
ATOM      5  C   UNL     1     -12.809 -16.014  29.479  1.00  0.00    -0.023 C 
ATOM      6  C   UNL     1     -13.459 -15.942  30.645  1.00  0.00     0.042 C 
BRANCH   6   7
ATOM      7  C   UNL     1     -13.005 -16.665  31.848  1.00  0.00     0.152 C 
ATOM      8  O   UNL     1     -13.696 -17.599  32.338  1.00  0.00    -0.295 OA
ATOM      9  C   UNL     1     -11.714 -16.285  32.496  1.00  0.00     0.093 C 
ENDBRANCH   6   7
ENDBRANCH   1   5
TORSDOF 4
ENDMDL
MODEL 3
REMARK VINA RESULT:    -4.376      2.443      4.974
REMARK INTER + INTRA:          -5.660
REMARK INTER:                  -5.443
REMARK INTRA:                  -0.217
REMARK UNBOUND:                -0.262
REMARK SMILES CCCCC=CC(C)=O
REMARK SMILES IDX 4 1 3 2 2 3 1 4 5 5 6 6 7 7 9 8 8 9
REMARK H PARENT
REMARK Flexibility Score: inf
ROOT
ATOM      1  C   UNL     1     -12.432 -18.421  31.614  1.00  0.00     0.027 C 
ENDROOT
BRANCH   1   2
ATOM      2  C   UNL     1     -13.251 -19.572  31.009  1.00  0.00     0.004 C 
BRANCH   2   3
ATOM      3  C   UNL     1     -12.834 -19.896  29.566  1.00  0.00    -0.003 C 
ATOM      4  C   UNL     1     -14.022 -19.965  28.607  1.00  0.00     0.004 C 
ENDBRANCH   2   3
ENDBRANCH   1   2
BRANCH   1   5
ATOM      5  C   UNL     1     -13.317 -17.271  32.000  1.00  0.00    -0.023 C 
ATOM      6  C   UNL     1     -13.550 -16.255  31.162  1.00  0.00     0.042 C 
BRANCH   6   7
ATOM      7  C   UNL     1     -14.404 -15.110  31.527  1.00  0.00     0.152 C 
ATOM      8  O   UNL     1     -14.807 -14.299  30.650  1.00  0.00    -0.295 OA
ATOM      9  C   UNL     1     -14.796 -14.905  32.955  1.00  0.00     0.093 C 
ENDBRANCH   6   7
ENDBRANCH   1   5
TORSDOF 4
ENDMDL
MODEL 4
REMARK VINA RESULT:    -4.365      2.995      4.869
REMARK INTER + INTRA:          -5.647
REMARK INTER:                  -5.444
REMARK INTRA:                  -0.203
REMARK UNBOUND:                -0.262
REMARK SMILES CCCCC=CC(C)=O
REMARK SMILES IDX 4 1 3 2 2 3 1 4 5 5 6 6 7 7 9 8 8 9
REMARK H PARENT
REMARK Flexibility Score: inf
ROOT
ATOM      1  C   UNL     1     -11.753 -16.087  29.035  1.00  0.00     0.027 C 
ENDROOT
BRANCH   1   2
ATOM      2  C   UNL     1     -12.834 -15.700  28.013  1.00  0.00     0.004 C 
BRANCH   2   3
ATOM      3  C   UNL     1     -13.027 -16.768  26.926  1.00  0.00    -0.003 C 
ATOM      4  C   UNL     1     -11.715 -17.180  26.261  1.00  0.00     0.004 C 
ENDBRANCH   2   3
ENDBRANCH   1   2
BRANCH   1   5
ATOM      5  C   UNL     1     -12.336 -16.234  30.411  1.00  0.00    -0.023 C 
ATOM      6  C   UNL     1     -13.561 -15.786  30.703  1.00  0.00     0.042 C 
BRANCH   6   7
ATOM      7  C   UNL     1     -14.146 -15.908  32.051  1.00  0.00     0.152 C 
ATOM      8  O   UNL     1     -14.251 -17.033  32.610  1.00  0.00    -0.295 OA
ATOM      9  C   UNL     1     -14.624 -14.684  32.763  1.00  0.00     0.093 C 
ENDBRANCH   6   7
ENDBRANCH   1   5
TORSDOF 4
ENDMDL
MODEL 5
REMARK VINA RESULT:    -4.319      3.027      4.211
REMARK INTER + INTRA:          -5.591
REMARK INTER:                  -5.325
REMARK INTRA:                  -0.266
REMARK UNBOUND:                -0.262
REMARK SMILES CCCCC=CC(C)=O
REMARK SMILES IDX 4 1 3 2 2 3 1 4 5 5 6 6 7 7 9 8 8 9
REMARK H PARENT
REMARK Flexibility Score: inf
ROOT
ATOM      1  C   UNL     1     -11.914 -15.859  28.629  1.00  0.00     0.027 C 
ENDROOT
BRANCH   1   2
ATOM      2  C   UNL     1     -13.204 -15.876  27.794  1.00  0.00     0.004 C 
BRANCH   2   3
ATOM      3  C   UNL     1     -13.031 -16.617  26.459  1.00  0.00    -0.003 C 
ATOM      4  C   UNL     1     -11.628 -17.198  26.282  1.00  0.00     0.004 C 
ENDBRANCH   2   3
ENDBRANCH   1   2
BRANCH   1   5
ATOM      5  C   UNL     1     -12.114 -16.548  29.949  1.00  0.00    -0.023 C 
ATOM      6  C   UNL     1     -12.933 -17.596  30.073  1.00  0.00     0.042 C 
BRANCH   6   7
ATOM      7  C   UNL     1     -13.154 -18.278  31.362  1.00  0.00     0.152 C 
ATOM      8  O   UNL     1     -13.621 -17.651  32.352  1.00  0.00    -0.295 OA
ATOM      9  C   UNL     1     -12.819 -19.727  31.500  1.00  0.00     0.093 C 
ENDBRANCH   6   7
ENDBRANCH   1   5
TORSDOF 4
ENDMDL
MODEL 6
REMARK VINA RESULT:    -4.288      3.426      3.707
REMARK INTER + INTRA:          -5.552
REMARK INTER:                  -5.412
REMARK INTRA:                  -0.141
REMARK UNBOUND:                -0.262
REMARK SMILES CCCCC=CC(C)=O
REMARK SMILES IDX 4 1 3 2 2 3 1 4 5 5 6 6 7 7 9 8 8 9
REMARK H PARENT
REMARK Flexibility Score: inf
ROOT
ATOM      1  C   UNL     1     -12.276 -16.248  30.719  1.00  0.00     0.027 C 
ENDROOT
BRANCH   1   2
ATOM      2  C   UNL     1     -13.482 -16.382  31.662  1.00  0.00     0.004 C 
BRANCH   2   3
ATOM      3  C   UNL     1     -14.350 -15.114  31.692  1.00  0.00    -0.003 C 
ATOM      4  C   UNL     1     -14.680 -14.657  33.113  1.00  0.00     0.004 C 
ENDBRANCH   2   3
ENDBRANCH   1   2
BRANCH   1   5
ATOM      5  C   UNL     1     -12.581 -16.820  29.364  1.00  0.00    -0.023 C 
ATOM      6  C   UNL     1     -12.402 -16.108  28.247  1.00  0.00     0.042 C 
BRANCH   6   7
ATOM      7  C   UNL     1     -12.708 -16.647  26.909  1.00  0.00     0.152 C 
ATOM      8  O   UNL     1     -13.878 -16.586  26.441  1.00  0.00    -0.295 OA
ATOM      9  C   UNL     1     -11.622 -17.275  26.098  1.00  0.00     0.093 C 
ENDBRANCH   6   7
ENDBRANCH   1   5
TORSDOF 4
ENDMDL
MODEL 7
REMARK VINA RESULT:    -4.215      3.400      4.412
REMARK INTER + INTRA:          -5.462
REMARK INTER:                  -5.237
REMARK INTRA:                  -0.225
REMARK UNBOUND:                -0.262
REMARK SMILES CCCCC=CC(C)=O
REMARK SMILES IDX 4 1 3 2 2 3 1 4 5 5 6 6 7 7 9 8 8 9
REMARK H PARENT
REMARK Flexibility Score: inf
ROOT
ATOM      1  C   UNL     1     -12.678 -16.248  30.726  1.00  0.00     0.027 C 
ENDROOT
BRANCH   1   2
ATOM      2  C   UNL     1     -12.062 -17.603  31.110  1.00  0.00     0.004 C 
BRANCH   2   3
ATOM      3  C   UNL     1     -13.114 -18.608  31.603  1.00  0.00    -0.003 C 
ATOM      4  C   UNL     1     -12.750 -20.055  31.273  1.00  0.00     0.004 C 
ENDBRANCH   2   3
ENDBRANCH   1   2
BRANCH   1   5
ATOM      5  C   UNL     1     -12.972 -16.184  29.254  1.00  0.00    -0.023 C 
ATOM      6  C   UNL     1     -12.296 -16.929  28.373  1.00  0.00     0.042 C 
BRANCH   6   7
ATOM      7  C   UNL     1     -12.560 -16.871  26.923  1.00  0.00     0.152 C 
ATOM      8  O   UNL     1     -13.676 -16.483  26.485  1.00  0.00    -0.295 OA
ATOM      9  C   UNL     1     -11.492 -17.280  25.961  1.00  0.00     0.093 C 
ENDBRANCH   6   7
ENDBRANCH   1   5
TORSDOF 4
ENDMDL
MODEL 8
REMARK VINA RESULT:    -4.129      1.698      2.055
REMARK INTER + INTRA:          -5.356
REMARK INTER:                  -5.174
REMARK INTRA:                  -0.182
REMARK UNBOUND:                -0.262
REMARK SMILES CCCCC=CC(C)=O
REMARK SMILES IDX 4 1 3 2 2 3 1 4 5 5 6 6 7 7 9 8 8 9
REMARK H PARENT
REMARK Flexibility Score: inf
ROOT
ATOM      1  C   UNL     1     -12.620 -17.441  32.085  1.00  0.00     0.027 C 
ENDROOT
BRANCH   1   2
ATOM      2  C   UNL     1     -12.904 -15.972  32.435  1.00  0.00     0.004 C 
BRANCH   2   3
ATOM      3  C   UNL     1     -14.070 -15.388  31.623  1.00  0.00    -0.003 C 
ATOM      4  C   UNL     1     -15.198 -14.857  32.506  1.00  0.00     0.004 C 
ENDBRANCH   2   3
ENDBRANCH   1   2
BRANCH   1   5
ATOM      5  C   UNL     1     -12.878 -17.711  30.630  1.00  0.00    -0.023 C 
ATOM      6  C   UNL     1     -12.947 -18.957  30.151  1.00  0.00     0.042 C 
BRANCH   6   7
ATOM      7  C   UNL     1     -13.186 -19.243  28.724  1.00  0.00     0.152 C 
ATOM      8  O   UNL     1     -12.619 -18.563  27.826  1.00  0.00    -0.295 OA
ATOM      9  C   UNL     1     -14.113 -20.349  28.337  1.00  0.00     0.093 C 
ENDBRANCH   6   7
ENDBRANCH   1   5
TORSDOF 4
ENDMDL
MODEL 9
REMARK VINA RESULT:    -4.106      3.117      4.229
REMARK INTER + INTRA:          -5.328
REMARK INTER:                  -5.056
REMARK INTRA:                  -0.272
REMARK UNBOUND:                -0.262
REMARK SMILES CCCCC=CC(C)=O
REMARK SMILES IDX 4 1 3 2 2 3 1 4 5 5 6 6 7 7 9 8 8 9
REMARK H PARENT
REMARK Flexibility Score: inf
ROOT
ATOM      1  C   UNL     1     -13.232 -19.647  30.036  1.00  0.00     0.027 C 
ENDROOT
BRANCH   1   2
ATOM      2  C   UNL     1     -12.432 -18.809  31.046  1.00  0.00     0.004 C 
BRANCH   2   3
ATOM      3  C   UNL     1     -13.336 -17.963  31.955  1.00  0.00    -0.003 C 
ATOM      4  C   UNL     1     -13.321 -16.479  31.590  1.00  0.00     0.004 C 
ENDBRANCH   2   3
ENDBRANCH   1   2
BRANCH   1   5
ATOM      5  C   UNL     1     -13.350 -18.938  28.717  1.00  0.00    -0.023 C 
ATOM      6  C   UNL     1     -12.414 -18.081  28.297  1.00  0.00     0.042 C 
BRANCH   6   7
ATOM      7  C   UNL     1     -12.518 -17.364  27.012  1.00  0.00     0.152 C 
ATOM      8  O   UNL     1     -13.569 -16.739  26.705  1.00  0.00    -0.295 OA
ATOM      9  C   UNL     1     -11.365 -17.380  26.062  1.00  0.00     0.093 C 
ENDBRANCH   6   7
ENDBRANCH   1   5
TORSDOF 4
ENDMDL
