MODEL 1
REMARK VINA RESULT:    -3.708      0.000      0.000
REMARK INTER + INTRA:          -3.675
REMARK INTER:                  -5.660
REMARK INTRA:                   1.984
REMARK UNBOUND:                 1.984
REMARK SMILES CC1=CCC[C@H](C)C(=O)C[C@@H](C(C)C)C(=O)C1
REMARK SMILES IDX 8 1 9 2 6 3 7 4 5 5 4 6 3 7 2 8 1 9 10 11 11 12 15 13 16 14
REMARK SMILES IDX 17 15 12 17 13 18 14 19
REMARK H PARENT
REMARK Flexibility Score: 70.00
ROOT
ATOM      1  C   UNL     1       2.750 144.052  -7.759  1.00  0.00     0.136 C 
ATOM      2  O   UNL     1       2.325 144.493  -8.819  1.00  0.00    -0.299 OA
ENDROOT
BRANCH   1   3
ATOM      3  C   UNL     1       3.593 142.791  -7.755  1.00  0.00     0.053 C 
ATOM      4  C   UNL     1       3.484 142.066  -9.105  1.00  0.00     0.016 C 
BRANCH   3   5
ATOM      5  C   UNL     1       5.063 143.131  -7.426  1.00  0.00     0.015 C 
BRANCH   5   6
ATOM      6  C   UNL     1       5.901 143.378  -8.697  1.00  0.00     0.028 C 
BRANCH   6   7
ATOM      7  C   UNL     1       5.852 144.825  -9.114  1.00  0.00    -0.028 C 
ATOM      8  C   UNL     1       5.551 145.860  -8.296  1.00  0.00    -0.070 CG0
ATOM      9  C   UNL     1       5.485 147.241  -8.899  1.00  0.00     0.039 C 
ATOM     10  G   UNL     1       5.269 145.696  -6.810  1.00  0.00     0.000 G0
ENDBRANCH   6   7
ENDBRANCH   5   6
ENDBRANCH   3   5
ENDBRANCH   1   3
BRANCH   1  11
ATOM     11  C   UNL     1       2.426 144.782  -6.477  1.00  0.00     0.087 C 
BRANCH  11  12
ATOM     12  C   UNL     1       2.682 146.309  -6.584  1.00  0.00     0.066 C 
BRANCH  12  13
ATOM     13  C   UNL     1       4.150 146.632  -6.326  1.00  0.00     0.140 C 
ATOM     14  O   UNL     1       4.427 147.630  -5.675  1.00  0.00    -0.299 OA
BRANCH  13  15
ATOM     15  C   UNL     1       5.264 145.718  -6.784  1.00  0.00     0.106 CG0
ATOM     16  G   UNL     1       5.555 145.864  -8.270  1.00  0.00     0.000 G0
ENDBRANCH  13  15
ENDBRANCH  12  13
BRANCH  12  17
ATOM     17  C   UNL     1       1.740 147.154  -5.668  1.00  0.00    -0.006 C 
ATOM     18  C   UNL     1       1.817 148.649  -6.026  1.00  0.00     0.008 C 
ATOM     19  C   UNL     1       0.271 146.701  -5.759  1.00  0.00     0.008 C 
ENDBRANCH  12  17
ENDBRANCH  11  12
ENDBRANCH   1  11
TORSDOF 1
ENDMDL
MODEL 2
REMARK VINA RESULT:    -3.588      1.202      1.948
REMARK INTER + INTRA:          -3.492
REMARK INTER:                  -4.508
REMARK INTRA:                   1.016
REMARK UNBOUND:                 1.984
REMARK SMILES CC1=CCC[C@H](C)C(=O)C[C@@H](C(C)C)C(=O)C1
REMARK SMILES IDX 8 1 9 2 6 3 7 4 5 5 4 6 3 7 2 8 1 9 10 11 11 12 15 13 16 14
REMARK SMILES IDX 17 15 12 17 13 18 14 19
REMARK H PARENT
REMARK Flexibility Score: 70.00
ROOT
ATOM      1  C   UNL     1       2.692 144.464  -8.677  1.00  0.00     0.136 C 
ATOM      2  O   UNL     1       1.514 144.550  -8.994  1.00  0.00    -0.299 OA
ENDROOT
BRANCH   1   3
ATOM      3  C   UNL     1       3.246 143.136  -8.197  1.00  0.00     0.053 C 
ATOM      4  C   UNL     1       2.131 142.082  -8.128  1.00  0.00     0.016 C 
BRANCH   3   5
ATOM      5  C   UNL     1       4.393 142.670  -9.121  1.00  0.00     0.015 C 
BRANCH   5   6
ATOM      6  C   UNL     1       5.732 143.351  -8.775  1.00  0.00     0.028 C 
BRANCH   6   7
ATOM      7  C   UNL     1       5.927 143.453  -7.285  1.00  0.00    -0.028 C 
ATOM      8  C   UNL     1       6.078 144.610  -6.599  1.00  0.00    -0.070 CG0
ATOM      9  C   UNL     1       6.328 144.522  -5.113  1.00  0.00     0.039 C 
ATOM     10  G   UNL     1       6.019 145.983  -7.250  1.00  0.00     0.000 G0
ENDBRANCH   6   7
ENDBRANCH   5   6
ENDBRANCH   3   5
ENDBRANCH   1   3
BRANCH   1  11
ATOM     11  C   UNL     1       3.571 145.690  -8.776  1.00  0.00     0.087 C 
BRANCH  11  12
ATOM     12  C   UNL     1       3.441 146.614  -7.536  1.00  0.00     0.066 C 
BRANCH  12  13
ATOM     13  C   UNL     1       4.781 146.753  -6.821  1.00  0.00     0.140 C 
ATOM     14  O   UNL     1       4.846 147.464  -5.828  1.00  0.00    -0.299 OA
BRANCH  13  15
ATOM     15  C   UNL     1       6.006 145.983  -7.259  1.00  0.00     0.106 CG0
ATOM     16  G   UNL     1       6.092 144.614  -6.603  1.00  0.00     0.000 G0
ENDBRANCH  13  15
ENDBRANCH  12  13
BRANCH  12  17
ATOM     17  C   UNL     1       2.311 146.167  -6.555  1.00  0.00    -0.006 C 
ATOM     18  C   UNL     1       2.903 145.580  -5.261  1.00  0.00     0.008 C 
ATOM     19  C   UNL     1       1.364 147.323  -6.184  1.00  0.00     0.008 C 
ENDBRANCH  12  17
ENDBRANCH  11  12
ENDBRANCH   1  11
TORSDOF 1
ENDMDL
MODEL 3
REMARK VINA RESULT:    -3.251      1.595      3.684
REMARK INTER + INTRA:          -2.978
REMARK INTER:                  -3.962
REMARK INTRA:                   0.984
REMARK UNBOUND:                 1.984
REMARK SMILES CC1=CCC[C@H](C)C(=O)C[C@@H](C(C)C)C(=O)C1
REMARK SMILES IDX 8 1 9 2 6 3 7 4 5 5 4 6 3 7 2 8 1 9 10 11 11 12 15 13 16 14
REMARK SMILES IDX 17 15 12 17 13 18 14 19
REMARK H PARENT
REMARK Flexibility Score: 70.00
ROOT
ATOM      1  C   UNL     1       4.758 143.379  -8.146  1.00  0.00     0.136 C 
ATOM      2  O   UNL     1       5.708 142.968  -8.797  1.00  0.00    -0.299 OA
ENDROOT
BRANCH   1   3
ATOM      3  C   UNL     1       3.346 143.145  -8.649  1.00  0.00     0.053 C 
ATOM      4  C   UNL     1       2.643 142.073  -7.802  1.00  0.00     0.016 C 
BRANCH   3   5
ATOM      5  C   UNL     1       2.549 144.469  -8.638  1.00  0.00     0.015 C 
BRANCH   5   6
ATOM      6  C   UNL     1       1.591 144.561  -7.433  1.00  0.00     0.028 C 
BRANCH   6   7
ATOM      7  C   UNL     1       1.364 145.993  -7.022  1.00  0.00    -0.028 C 
ATOM      8  C   UNL     1       2.129 146.678  -6.141  1.00  0.00    -0.070 CG0
ATOM      9  C   UNL     1       1.717 148.088  -5.796  1.00  0.00     0.039 C 
ATOM     10  G   UNL     1       3.369 146.096  -5.480  1.00  0.00     0.000 G0
ENDBRANCH   6   7
ENDBRANCH   5   6
ENDBRANCH   3   5
ENDBRANCH   1   3
BRANCH   1  11
ATOM     11  C   UNL     1       5.017 144.109  -6.848  1.00  0.00     0.087 C 
BRANCH  11  12
ATOM     12  C   UNL     1       5.457 145.579  -7.074  1.00  0.00     0.066 C 
BRANCH  12  13
ATOM     13  C   UNL     1       4.657 146.527  -6.186  1.00  0.00     0.140 C 
ATOM     14  O   UNL     1       5.032 147.686  -6.076  1.00  0.00    -0.299 OA
BRANCH  13  15
ATOM     15  C   UNL     1       3.380 146.096  -5.500  1.00  0.00     0.106 CG0
ATOM     16  G   UNL     1       2.144 146.687  -6.160  1.00  0.00     0.000 G0
ENDBRANCH  13  15
ENDBRANCH  12  13
BRANCH  12  17
ATOM     17  C   UNL     1       5.400 146.013  -8.573  1.00  0.00    -0.006 C 
ATOM     18  C   UNL     1       4.402 147.167  -8.777  1.00  0.00     0.008 C 
ATOM     19  C   UNL     1       6.775 146.449  -9.112  1.00  0.00     0.008 C 
ENDBRANCH  12  17
ENDBRANCH  11  12
ENDBRANCH   1  11
TORSDOF 1
ENDMDL
MODEL 4
REMARK VINA RESULT:    -3.191      1.774      3.348
REMARK INTER + INTRA:          -2.885
REMARK INTER:                  -3.719
REMARK INTRA:                   0.833
REMARK UNBOUND:                 1.984
REMARK SMILES CC1=CCC[C@H](C)C(=O)C[C@@H](C(C)C)C(=O)C1
REMARK SMILES IDX 8 1 9 2 6 3 7 4 5 5 4 6 3 7 2 8 1 9 10 11 11 12 15 13 16 14
REMARK SMILES IDX 17 15 12 17 13 18 14 19
REMARK H PARENT
REMARK Flexibility Score: 70.00
ROOT
ATOM      1  C   UNL     1       5.155 146.532  -8.453  1.00  0.00     0.136 C 
ATOM      2  O   UNL     1       5.789 147.551  -8.690  1.00  0.00    -0.299 OA
ENDROOT
BRANCH   1   3
ATOM      3  C   UNL     1       5.855 145.187  -8.489  1.00  0.00     0.053 C 
ATOM      4  C   UNL     1       7.263 145.328  -9.086  1.00  0.00     0.016 C 
BRANCH   3   5
ATOM      5  C   UNL     1       5.914 144.577  -7.070  1.00  0.00     0.015 C 
BRANCH   5   6
ATOM      6  C   UNL     1       5.614 143.064  -7.075  1.00  0.00     0.028 C 
BRANCH   6   7
ATOM      7  C   UNL     1       4.577 142.714  -8.109  1.00  0.00    -0.028 C 
ATOM      8  C   UNL     1       3.241 142.869  -7.955  1.00  0.00    -0.070 CG0
ATOM      9  C   UNL     1       2.342 142.404  -9.073  1.00  0.00     0.039 C 
ATOM     10  G   UNL     1       2.609 143.477  -6.712  1.00  0.00     0.000 G0
ENDBRANCH   6   7
ENDBRANCH   5   6
ENDBRANCH   3   5
ENDBRANCH   1   3
BRANCH   1  11
ATOM     11  C   UNL     1       3.684 146.642  -8.124  1.00  0.00     0.087 C 
BRANCH  11  12
ATOM     12  C   UNL     1       3.339 146.028  -6.742  1.00  0.00     0.066 C 
BRANCH  12  13
ATOM     13  C   UNL     1       2.271 144.948  -6.880  1.00  0.00     0.140 C 
ATOM     14  O   UNL     1       1.135 145.281  -7.188  1.00  0.00    -0.299 OA
BRANCH  13  15
ATOM     15  C   UNL     1       2.592 143.479  -6.722  1.00  0.00     0.106 CG0
ATOM     16  G   UNL     1       3.237 142.892  -7.967  1.00  0.00     0.000 G0
ENDBRANCH  13  15
ENDBRANCH  12  13
BRANCH  12  17
ATOM     17  C   UNL     1       2.936 147.100  -5.678  1.00  0.00    -0.006 C 
ATOM     18  C   UNL     1       4.056 148.139  -5.490  1.00  0.00     0.008 C 
ATOM     19  C   UNL     1       1.637 147.837  -6.049  1.00  0.00     0.008 C 
ENDBRANCH  12  17
ENDBRANCH  11  12
ENDBRANCH   1  11
TORSDOF 1
ENDMDL
MODEL 5
REMARK VINA RESULT:    -2.491      1.893      4.746
REMARK INTER + INTRA:          -1.818
REMARK INTER:                  -4.027
REMARK INTRA:                   2.209
REMARK UNBOUND:                 1.984
REMARK SMILES CC1=CCC[C@H](C)C(=O)C[C@@H](C(C)C)C(=O)C1
REMARK SMILES IDX 8 1 9 2 6 3 7 4 5 5 4 6 3 7 2 8 1 9 10 11 11 12 15 13 16 14
REMARK SMILES IDX 17 15 12 17 13 18 14 19
REMARK H PARENT
REMARK Flexibility Score: 70.00
ROOT
ATOM      1  C   UNL     1       4.958 146.029  -8.083  1.00  0.00     0.136 C 
ATOM      2  O   UNL     1       5.916 146.700  -8.440  1.00  0.00    -0.299 OA
ENDROOT
BRANCH   1   3
ATOM      3  C   UNL     1       4.820 145.631  -6.626  1.00  0.00     0.053 C 
ATOM      4  C   UNL     1       5.941 144.660  -6.225  1.00  0.00     0.016 C 
BRANCH   3   5
ATOM      5  C   UNL     1       4.827 146.886  -5.725  1.00  0.00     0.015 C 
BRANCH   5   6
ATOM      6  C   UNL     1       3.765 147.917  -6.156  1.00  0.00     0.028 C 
BRANCH   6   7
ATOM      7  C   UNL     1       2.451 147.673  -5.461  1.00  0.00    -0.028 C 
ATOM      8  C   UNL     1       1.418 146.968  -5.978  1.00  0.00    -0.070 CG0
ATOM      9  C   UNL     1       0.149 146.878  -5.167  1.00  0.00     0.039 C 
ATOM     10  G   UNL     1       1.472 146.275  -7.330  1.00  0.00     0.000 G0
ENDBRANCH   6   7
ENDBRANCH   5   6
ENDBRANCH   3   5
ENDBRANCH   1   3
BRANCH   1  11
ATOM     11  C   UNL     1       3.928 145.616  -9.109  1.00  0.00     0.087 C 
BRANCH  11  12
ATOM     12  C   UNL     1       2.977 144.509  -8.581  1.00  0.00     0.066 C 
BRANCH  12  13
ATOM     13  C   UNL     1       2.223 144.986  -7.344  1.00  0.00     0.140 C 
ATOM     14  O   UNL     1       2.321 144.340  -6.311  1.00  0.00    -0.299 OA
BRANCH  13  15
ATOM     15  C   UNL     1       1.423 146.270  -7.339  1.00  0.00     0.106 CG0
ATOM     16  G   UNL     1       1.414 146.938  -5.974  1.00  0.00     0.000 G0
ENDBRANCH  13  15
ENDBRANCH  12  13
BRANCH  12  17
ATOM     17  C   UNL     1       3.703 143.150  -8.321  1.00  0.00    -0.006 C 
ATOM     18  C   UNL     1       2.804 141.961  -8.704  1.00  0.00     0.008 C 
ATOM     19  C   UNL     1       5.029 143.035  -9.095  1.00  0.00     0.008 C 
ENDBRANCH  12  17
ENDBRANCH  11  12
ENDBRANCH   1  11
TORSDOF 1
ENDMDL
MODEL 6
REMARK VINA RESULT:    -2.391      1.561      4.091
REMARK INTER + INTRA:          -1.664
REMARK INTER:                  -3.529
REMARK INTRA:                   1.864
REMARK UNBOUND:                 1.984
REMARK SMILES CC1=CCC[C@H](C)C(=O)C[C@@H](C(C)C)C(=O)C1
REMARK SMILES IDX 8 1 9 2 6 3 7 4 5 5 4 6 3 7 2 8 1 9 10 11 11 12 15 13 16 14
REMARK SMILES IDX 17 15 12 17 13 18 14 19
REMARK H PARENT
REMARK Flexibility Score: 70.00
ROOT
ATOM      1  C   UNL     1       1.488 145.784  -6.443  1.00  0.00     0.136 C 
ATOM      2  O   UNL     1       0.323 145.655  -6.793  1.00  0.00    -0.299 OA
ENDROOT
BRANCH   1   3
ATOM      3  C   UNL     1       2.029 147.165  -6.126  1.00  0.00     0.053 C 
ATOM      4  C   UNL     1       1.002 147.973  -5.318  1.00  0.00     0.016 C 
BRANCH   3   5
ATOM      5  C   UNL     1       3.368 147.052  -5.363  1.00  0.00     0.015 C 
BRANCH   5   6
ATOM      6  C   UNL     1       4.505 147.820  -6.068  1.00  0.00     0.028 C 
BRANCH   6   7
ATOM      7  C   UNL     1       5.506 146.877  -6.681  1.00  0.00    -0.028 C 
ATOM      8  C   UNL     1       5.366 146.268  -7.881  1.00  0.00    -0.070 CG0
ATOM      9  C   UNL     1       6.441 145.301  -8.313  1.00  0.00     0.039 C 
ATOM     10  G   UNL     1       4.180 146.502  -8.804  1.00  0.00     0.000 G0
ENDBRANCH   6   7
ENDBRANCH   5   6
ENDBRANCH   3   5
ENDBRANCH   1   3
BRANCH   1  11
ATOM     11  C   UNL     1       2.362 144.556  -6.332  1.00  0.00     0.087 C 
BRANCH  11  12
ATOM     12  C   UNL     1       3.236 144.334  -7.595  1.00  0.00     0.066 C 
BRANCH  12  13
ATOM     13  C   UNL     1       3.080 145.495  -8.572  1.00  0.00     0.140 C 
ATOM     14  O   UNL     1       2.000 145.657  -9.124  1.00  0.00    -0.299 OA
BRANCH  13  15
ATOM     15  C   UNL     1       4.192 146.489  -8.821  1.00  0.00     0.106 CG0
ATOM     16  G   UNL     1       5.375 146.275  -7.889  1.00  0.00     0.000 G0
ENDBRANCH  13  15
ENDBRANCH  12  13
BRANCH  12  17
ATOM     17  C   UNL     1       2.972 142.960  -8.290  1.00  0.00    -0.006 C 
ATOM     18  C   UNL     1       4.262 142.402  -8.919  1.00  0.00     0.008 C 
ATOM     19  C   UNL     1       2.403 141.910  -7.318  1.00  0.00     0.008 C 
ENDBRANCH  12  17
ENDBRANCH  11  12
ENDBRANCH   1  11
TORSDOF 1
ENDMDL
MODEL 7
REMARK VINA RESULT:    -2.101      1.721      4.434
REMARK INTER + INTRA:          -1.223
REMARK INTER:                  -3.704
REMARK INTRA:                   2.481
REMARK UNBOUND:                 1.984
REMARK SMILES CC1=CCC[C@H](C)C(=O)C[C@@H](C(C)C)C(=O)C1
REMARK SMILES IDX 8 1 9 2 6 3 7 4 5 5 4 6 3 7 2 8 1 9 10 11 11 12 15 13 16 14
REMARK SMILES IDX 17 15 12 17 13 18 14 19
REMARK H PARENT
REMARK Flexibility Score: 70.00
ROOT
ATOM      1  C   UNL     1       3.652 147.861  -5.910  1.00  0.00     0.136 C 
ATOM      2  O   UNL     1       3.659 149.011  -5.492  1.00  0.00    -0.299 OA
ENDROOT
BRANCH   1   3
ATOM      3  C   UNL     1       2.361 147.064  -5.897  1.00  0.00     0.053 C 
ATOM      4  C   UNL     1       1.169 147.977  -5.575  1.00  0.00     0.016 C 
BRANCH   3   5
ATOM      5  C   UNL     1       2.161 146.349  -7.252  1.00  0.00     0.015 C 
BRANCH   5   6
ATOM      6  C   UNL     1       1.695 144.890  -7.076  1.00  0.00     0.028 C 
BRANCH   6   7
ATOM      7  C   UNL     1       2.330 143.985  -8.099  1.00  0.00    -0.028 C 
ATOM      8  C   UNL     1       3.522 143.361  -7.952  1.00  0.00    -0.070 CG0
ATOM      9  C   UNL     1       4.036 142.540  -9.108  1.00  0.00     0.039 C 
ATOM     10  G   UNL     1       4.365 143.456  -6.690  1.00  0.00     0.000 G0
ENDBRANCH   6   7
ENDBRANCH   5   6
ENDBRANCH   3   5
ENDBRANCH   1   3
BRANCH   1  11
ATOM     11  C   UNL     1       4.937 147.263  -6.436  1.00  0.00     0.087 C 
BRANCH  11  12
ATOM     12  C   UNL     1       4.688 146.028  -7.342  1.00  0.00     0.066 C 
BRANCH  12  13
ATOM     13  C   UNL     1       5.181 144.753  -6.667  1.00  0.00     0.140 C 
ATOM     14  O   UNL     1       6.219 144.793  -6.022  1.00  0.00    -0.299 OA
BRANCH  13  15
ATOM     15  C   UNL     1       4.388 143.466  -6.710  1.00  0.00     0.106 CG0
ATOM     16  G   UNL     1       3.524 143.362  -7.957  1.00  0.00     0.000 G0
ENDBRANCH  13  15
ENDBRANCH  12  13
BRANCH  12  17
ATOM     17  C   UNL     1       5.290 146.189  -8.775  1.00  0.00    -0.006 C 
ATOM     18  C   UNL     1       5.689 147.650  -9.046  1.00  0.00     0.008 C 
ATOM     19  C   UNL     1       6.522 145.292  -8.998  1.00  0.00     0.008 C 
ENDBRANCH  12  17
ENDBRANCH  11  12
ENDBRANCH   1  11
TORSDOF 1
ENDMDL
MODEL 8
REMARK VINA RESULT:    -1.618      1.417      3.365
REMARK INTER + INTRA:          -0.486
REMARK INTER:                  -3.655
REMARK INTRA:                   3.169
REMARK UNBOUND:                 1.984
REMARK SMILES CC1=CCC[C@H](C)C(=O)C[C@@H](C(C)C)C(=O)C1
REMARK SMILES IDX 8 1 9 2 6 3 7 4 5 5 4 6 3 7 2 8 1 9 10 11 11 12 15 13 16 14
REMARK SMILES IDX 17 15 12 17 13 18 14 19
REMARK H PARENT
REMARK Flexibility Score: 70.00
ROOT
ATOM      1  C   UNL     1       4.679 147.183  -6.334  1.00  0.00     0.136 C 
ATOM      2  O   UNL     1       4.920 147.803  -5.307  1.00  0.00    -0.299 OA
ENDROOT
BRANCH   1   3
ATOM      3  C   UNL     1       5.716 146.231  -6.898  1.00  0.00     0.053 C 
ATOM      4  C   UNL     1       5.756 144.932  -6.078  1.00  0.00     0.016 C 
BRANCH   3   5
ATOM      5  C   UNL     1       5.420 145.938  -8.386  1.00  0.00     0.015 C 
BRANCH   5   6
ATOM      6  C   UNL     1       5.732 144.475  -8.763  1.00  0.00     0.028 C 
BRANCH   6   7
ATOM      7  C   UNL     1       4.768 143.522  -8.106  1.00  0.00    -0.028 C 
ATOM      8  C   UNL     1       3.425 143.680  -8.065  1.00  0.00    -0.070 CG0
ATOM      9  C   UNL     1       2.617 142.657  -7.307  1.00  0.00     0.039 C 
ATOM     10  G   UNL     1       2.699 144.837  -8.733  1.00  0.00     0.000 G0
ENDBRANCH   6   7
ENDBRANCH   5   6
ENDBRANCH   3   5
ENDBRANCH   1   3
BRANCH   1  11
ATOM     11  C   UNL     1       3.345 147.382  -7.016  1.00  0.00     0.087 C 
BRANCH  11  12
ATOM     12  C   UNL     1       2.294 146.327  -6.579  1.00  0.00     0.066 C 
BRANCH  12  13
ATOM     13  C   UNL     1       1.748 145.575  -7.788  1.00  0.00     0.140 C 
ATOM     14  O   UNL     1       0.548 145.631  -8.023  1.00  0.00    -0.299 OA
BRANCH  13  15
ATOM     15  C   UNL     1       2.652 144.826  -8.742  1.00  0.00     0.106 CG0
ATOM     16  G   UNL     1       3.425 143.714  -8.051  1.00  0.00     0.000 G0
ENDBRANCH  13  15
ENDBRANCH  12  13
BRANCH  12  17
ATOM     17  C   UNL     1       1.143 146.930  -5.711  1.00  0.00    -0.006 C 
ATOM     18  C   UNL     1       1.145 148.468  -5.784  1.00  0.00     0.008 C 
ATOM     19  C   UNL     1      -0.245 146.418  -6.137  1.00  0.00     0.008 C 
ENDBRANCH  12  17
ENDBRANCH  11  12
ENDBRANCH   1  11
TORSDOF 1
ENDMDL
MODEL 9
REMARK VINA RESULT:    -1.238      1.549      2.250
REMARK INTER + INTRA:           0.095
REMARK INTER:                  -3.215
REMARK INTRA:                   3.310
REMARK UNBOUND:                 1.984
REMARK SMILES CC1=CCC[C@H](C)C(=O)C[C@@H](C(C)C)C(=O)C1
REMARK SMILES IDX 8 1 9 2 6 3 7 4 5 5 4 6 3 7 2 8 1 9 10 11 11 12 15 13 16 14
REMARK SMILES IDX 17 15 12 17 13 18 14 19
REMARK H PARENT
REMARK Flexibility Score: 70.00
ROOT
ATOM      1  C   UNL     1       3.164 145.675  -8.526  1.00  0.00     0.136 C 
ATOM      2  O   UNL     1       3.785 146.709  -8.734  1.00  0.00    -0.299 OA
ENDROOT
BRANCH   1   3
ATOM      3  C   UNL     1       3.654 144.371  -9.125  1.00  0.00     0.053 C 
ATOM      4  C   UNL     1       5.179 144.252  -8.980  1.00  0.00     0.016 C 
BRANCH   3   5
ATOM      5  C   UNL     1       2.940 143.174  -8.457  1.00  0.00     0.015 C 
BRANCH   5   6
ATOM      6  C   UNL     1       3.338 143.012  -6.977  1.00  0.00     0.028 C 
BRANCH   6   7
ATOM      7  C   UNL     1       4.656 143.681  -6.686  1.00  0.00    -0.028 C 
ATOM      8  C   UNL     1       4.820 144.757  -5.883  1.00  0.00    -0.070 CG0
ATOM      9  C   UNL     1       6.207 145.338  -5.755  1.00  0.00     0.039 C 
ATOM     10  G   UNL     1       3.681 145.410  -5.116  1.00  0.00     0.000 G0
ENDBRANCH   6   7
ENDBRANCH   5   6
ENDBRANCH   3   5
ENDBRANCH   1   3
BRANCH   1  11
ATOM     11  C   UNL     1       1.919 145.725  -7.670  1.00  0.00     0.087 C 
BRANCH  11  12
ATOM     12  C   UNL     1       1.981 146.849  -6.602  1.00  0.00     0.066 C 
BRANCH  12  13
ATOM     13  C   UNL     1       3.250 146.731  -5.764  1.00  0.00     0.140 C 
ATOM     14  O   UNL     1       3.915 147.737  -5.561  1.00  0.00    -0.299 OA
BRANCH  13  15
ATOM     15  C   UNL     1       3.667 145.428  -5.121  1.00  0.00     0.106 CG0
ATOM     16  G   UNL     1       4.810 144.757  -5.866  1.00  0.00     0.000 G0
ENDBRANCH  13  15
ENDBRANCH  12  13
BRANCH  12  17
ATOM     17  C   UNL     1       0.704 146.909  -5.703  1.00  0.00    -0.006 C 
ATOM     18  C   UNL     1       0.350 148.364  -5.344  1.00  0.00     0.008 C 
ATOM     19  C   UNL     1      -0.518 146.255  -6.372  1.00  0.00     0.008 C 
ENDBRANCH  12  17
ENDBRANCH  11  12
ENDBRANCH   1  11
TORSDOF 1
ENDMDL
