MODEL 1
REMARK VINA RESULT:    -4.991      0.000      0.000
REMARK INTER + INTRA:          -8.033
REMARK INTER:                  -7.179
REMARK INTRA:                  -0.854
REMARK UNBOUND:                -0.854
REMARK SMILES O=c1c(O[C@@H]2O[C@@H](CO)[C@@H](O)[C@@H](O)[C@H]2O)c(-c2ccc(O)cc2)oc2cc(O)cc(O)c12
REMARK SMILES IDX 4 1 3 2 16 3 24 4 2 5 25 6 1 7 32 8 26 9 30 10 27 11 29 12
REMARK SMILES IDX 17 13 18 14 19 15 20 16 23 17 22 18 21 19 31 21 28 23 5 25
REMARK SMILES IDX 14 26 6 27 12 28 7 29 10 30 15 31 13 33 8 35 9 36 11 38
REMARK H PARENT 21 20 31 22 28 24 15 32 13 34 9 37 11 39
REMARK Flexibility Score: inf
ROOT
ATOM      1  O   UNL     1      34.543  26.500  18.958  1.00  0.00    -0.454 OA
ENDROOT
BRANCH   1   2
ATOM      2  C   UNL     1      34.568  25.211  19.521  1.00  0.00     0.214 A 
ATOM      3  C   UNL     1      34.944  25.079  20.867  1.00  0.00     0.180 A 
ATOM      4  O   UNL     1      34.896  23.897  21.462  1.00  0.00    -0.452 OA
ATOM      5  C   UNL     1      34.172  24.055  18.816  1.00  0.00     0.239 A 
ATOM      6  C   UNL     1      34.513  22.788  20.849  1.00  0.00     0.146 A 
ATOM      7  O   UNL     1      33.865  24.152  17.600  1.00  0.00    -0.285 OA
ATOM      8  C   UNL     1      34.110  22.806  19.486  1.00  0.00     0.111 A 
ATOM      9  C   UNL     1      34.526  21.593  21.570  1.00  0.00     0.094 A 
ATOM     10  C   UNL     1      33.684  21.579  18.890  1.00  0.00     0.134 A 
ATOM     11  C   UNL     1      34.165  20.395  20.963  1.00  0.00     0.123 A 
ATOM     12  C   UNL     1      33.751  20.392  19.630  1.00  0.00     0.093 A 
BRANCH   3  13
ATOM     13  C   UNL     1      35.409  26.240  21.649  1.00  0.00     0.021 A 
ATOM     14  C   UNL     1      36.743  26.664  21.542  1.00  0.00     0.016 A 
ATOM     15  C   UNL     1      37.186  27.780  22.260  1.00  0.00     0.047 A 
ATOM     16  C   UNL     1      36.295  28.502  23.061  1.00  0.00     0.115 A 
ATOM     17  C   UNL     1      34.514  26.968  22.455  1.00  0.00     0.016 A 
ATOM     18  C   UNL     1      34.955  28.097  23.153  1.00  0.00     0.047 A 
BRANCH  16  19
ATOM     19  O   UNL     1      36.747  29.624  23.752  1.00  0.00    -0.508 OA
ATOM     20  H   UNL     1      36.103  30.253  24.218  1.00  0.00     0.293 HD
ENDBRANCH  16  19
ENDBRANCH   3  13
BRANCH  10  21
ATOM     21  O   UNL     1      33.173  21.469  17.593  1.00  0.00    -0.507 OA
ATOM     22  H   UNL     1      33.590  21.871  16.768  1.00  0.00     0.293 HD
ENDBRANCH  10  21
BRANCH  11  23
ATOM     23  O   UNL     1      34.222  19.210  21.693  1.00  0.00    -0.508 OA
ATOM     24  H   UNL     1      34.575  19.185  22.641  1.00  0.00     0.293 HD
ENDBRANCH  11  23
ENDBRANCH   1   2
BRANCH   1  25
ATOM     25  C   UNL     1      33.452  27.093  18.258  1.00  0.00     0.339 C 
ATOM     26  C   UNL     1      33.016  28.334  19.052  1.00  0.00     0.214 C 
ATOM     27  O   UNL     1      33.895  27.448  16.956  1.00  0.00    -0.332 OA
ATOM     28  C   UNL     1      31.884  29.067  18.320  1.00  0.00     0.180 C 
ATOM     29  C   UNL     1      32.882  28.072  16.177  1.00  0.00     0.179 C 
ATOM     30  C   UNL     1      32.303  29.337  16.866  1.00  0.00     0.177 C 
BRANCH  26  31
ATOM     31  O   UNL     1      32.587  27.946  20.332  1.00  0.00    -0.384 OA
ATOM     32  H   UNL     1      32.026  27.134  20.212  1.00  0.00     0.211 HD
ENDBRANCH  26  31
BRANCH  28  33
ATOM     33  O   UNL     1      30.704  28.301  18.370  1.00  0.00    -0.387 OA
ATOM     34  H   UNL     1      30.384  28.324  19.309  1.00  0.00     0.211 HD
ENDBRANCH  28  33
BRANCH  29  35
ATOM     35  C   UNL     1      31.821  27.065  15.670  1.00  0.00     0.191 C 
BRANCH  35  36
ATOM     36  O   UNL     1      32.424  25.850  15.315  1.00  0.00    -0.394 OA
ATOM     37  H   UNL     1      32.666  25.393  16.162  1.00  0.00     0.210 HD
ENDBRANCH  35  36
ENDBRANCH  29  35
BRANCH  30  38
ATOM     38  O   UNL     1      31.219  29.859  16.141  1.00  0.00    -0.387 OA
ATOM     39  H   UNL     1      31.275  30.848  16.217  1.00  0.00     0.211 HD
ENDBRANCH  30  38
ENDBRANCH   1  25
TORSDOF 11
ENDMDL
MODEL 2
REMARK VINA RESULT:    -4.835      1.614      5.522
REMARK INTER + INTRA:          -7.810
REMARK INTER:                  -7.790
REMARK INTRA:                  -0.019
REMARK UNBOUND:                -0.854
REMARK SMILES O=c1c(O[C@@H]2O[C@@H](CO)[C@@H](O)[C@@H](O)[C@H]2O)c(-c2ccc(O)cc2)oc2cc(O)cc(O)c12
REMARK SMILES IDX 4 1 3 2 16 3 24 4 2 5 25 6 1 7 32 8 26 9 30 10 27 11 29 12
REMARK SMILES IDX 17 13 18 14 19 15 20 16 23 17 22 18 21 19 31 21 28 23 5 25
REMARK SMILES IDX 14 26 6 27 12 28 7 29 10 30 15 31 13 33 8 35 9 36 11 38
REMARK H PARENT 21 20 31 22 28 24 15 32 13 34 9 37 11 39
REMARK Flexibility Score: inf
ROOT
ATOM      1  O   UNL     1      34.744  27.009  20.268  1.00  0.00    -0.454 OA
ENDROOT
BRANCH   1   2
ATOM      2  C   UNL     1      34.385  25.724  19.823  1.00  0.00     0.214 A 
ATOM      3  C   UNL     1      33.723  25.607  18.591  1.00  0.00     0.180 A 
ATOM      4  O   UNL     1      33.445  24.411  18.092  1.00  0.00    -0.452 OA
ATOM      5  C   UNL     1      34.714  24.545  20.526  1.00  0.00     0.239 A 
ATOM      6  C   UNL     1      33.752  23.277  18.703  1.00  0.00     0.146 A 
ATOM      7  O   UNL     1      35.277  24.636  21.647  1.00  0.00    -0.285 OA
ATOM      8  C   UNL     1      34.423  23.280  19.955  1.00  0.00     0.111 A 
ATOM      9  C   UNL     1      33.387  22.076  18.094  1.00  0.00     0.094 A 
ATOM     10  C   UNL     1      34.747  22.021  20.551  1.00  0.00     0.134 A 
ATOM     11  C   UNL     1      33.655  20.859  18.711  1.00  0.00     0.123 A 
ATOM     12  C   UNL     1      34.328  20.836  19.934  1.00  0.00     0.093 A 
BRANCH   3  13
ATOM     13  C   UNL     1      33.312  26.799  17.826  1.00  0.00     0.021 A 
ATOM     14  C   UNL     1      33.283  26.752  16.423  1.00  0.00     0.016 A 
ATOM     15  C   UNL     1      32.870  27.869  15.690  1.00  0.00     0.047 A 
ATOM     16  C   UNL     1      32.448  29.028  16.351  1.00  0.00     0.115 A 
ATOM     17  C   UNL     1      32.888  27.966  18.488  1.00  0.00     0.016 A 
ATOM     18  C   UNL     1      32.453  29.073  17.753  1.00  0.00     0.047 A 
BRANCH  16  19
ATOM     19  O   UNL     1      32.018  30.125  15.606  1.00  0.00    -0.508 OA
ATOM     20  H   UNL     1      31.034  30.288  15.424  1.00  0.00     0.293 HD
ENDBRANCH  16  19
ENDBRANCH   3  13
BRANCH  10  21
ATOM     21  O   UNL     1      35.487  21.875  21.729  1.00  0.00    -0.507 OA
ATOM     22  H   UNL     1      36.288  22.430  21.985  1.00  0.00     0.293 HD
ENDBRANCH  10  21
BRANCH  11  23
ATOM     23  O   UNL     1      33.248  19.675  18.101  1.00  0.00    -0.508 OA
ATOM     24  H   UNL     1      32.475  19.129  18.460  1.00  0.00     0.293 HD
ENDBRANCH  11  23
ENDBRANCH   1   2
BRANCH   1  25
ATOM     25  C   UNL     1      34.910  27.414  21.625  1.00  0.00     0.339 C 
ATOM     26  C   UNL     1      35.117  28.937  21.628  1.00  0.00     0.214 C 
ATOM     27  O   UNL     1      33.740  27.056  22.346  1.00  0.00    -0.332 OA
ATOM     28  C   UNL     1      35.236  29.459  23.066  1.00  0.00     0.180 C 
ATOM     29  C   UNL     1      33.793  27.439  23.715  1.00  0.00     0.179 C 
ATOM     30  C   UNL     1      34.038  28.962  23.892  1.00  0.00     0.177 C 
BRANCH  26  31
ATOM     31  O   UNL     1      36.280  29.254  20.905  1.00  0.00    -0.384 OA
ATOM     32  H   UNL     1      36.804  29.885  21.467  1.00  0.00     0.211 HD
ENDBRANCH  26  31
BRANCH  28  33
ATOM     33  O   UNL     1      36.451  29.031  23.634  1.00  0.00    -0.387 OA
ATOM     34  H   UNL     1      36.238  28.268  24.232  1.00  0.00     0.211 HD
ENDBRANCH  28  33
BRANCH  29  35
ATOM     35  C   UNL     1      34.728  26.529  24.547  1.00  0.00     0.191 C 
BRANCH  35  36
ATOM     36  O   UNL     1      34.502  25.179  24.243  1.00  0.00    -0.394 OA
ATOM     37  H   UNL     1      35.282  24.871  23.713  1.00  0.00     0.210 HD
ENDBRANCH  35  36
ENDBRANCH  29  35
BRANCH  30  38
ATOM     38  O   UNL     1      34.216  29.292  25.246  1.00  0.00    -0.387 OA
ATOM     39  H   UNL     1      34.984  29.921  25.287  1.00  0.00     0.211 HD
ENDBRANCH  30  38
ENDBRANCH   1  25
TORSDOF 11
ENDMDL
MODEL 3
REMARK VINA RESULT:    -4.492      1.724      7.134
REMARK INTER + INTRA:          -7.316
REMARK INTER:                  -8.107
REMARK INTRA:                   0.791
REMARK UNBOUND:                -0.854
REMARK SMILES O=c1c(O[C@@H]2O[C@@H](CO)[C@@H](O)[C@@H](O)[C@H]2O)c(-c2ccc(O)cc2)oc2cc(O)cc(O)c12
REMARK SMILES IDX 4 1 3 2 16 3 24 4 2 5 25 6 1 7 32 8 26 9 30 10 27 11 29 12
REMARK SMILES IDX 17 13 18 14 19 15 20 16 23 17 22 18 21 19 31 21 28 23 5 25
REMARK SMILES IDX 14 26 6 27 12 28 7 29 10 30 15 31 13 33 8 35 9 36 11 38
REMARK H PARENT 21 20 31 22 28 24 15 32 13 34 9 37 11 39
REMARK Flexibility Score: inf
ROOT
ATOM      1  O   UNL     1      34.422  24.298  19.009  1.00  0.00    -0.454 OA
ENDROOT
BRANCH   1   2
ATOM      2  C   UNL     1      34.409  25.383  19.905  1.00  0.00     0.214 A 
ATOM      3  C   UNL     1      33.950  26.625  19.440  1.00  0.00     0.180 A 
ATOM      4  O   UNL     1      33.837  27.650  20.272  1.00  0.00    -0.452 OA
ATOM      5  C   UNL     1      34.775  25.265  21.263  1.00  0.00     0.239 A 
ATOM      6  C   UNL     1      34.149  27.583  21.557  1.00  0.00     0.146 A 
ATOM      7  O   UNL     1      35.221  24.167  21.685  1.00  0.00    -0.285 OA
ATOM      8  C   UNL     1      34.623  26.374  22.133  1.00  0.00     0.111 A 
ATOM      9  C   UNL     1      34.013  28.736  22.333  1.00  0.00     0.094 A 
ATOM     10  C   UNL     1      34.919  26.362  23.532  1.00  0.00     0.134 A 
ATOM     11  C   UNL     1      34.360  28.727  23.679  1.00  0.00     0.123 A 
ATOM     12  C   UNL     1      34.813  27.547  24.270  1.00  0.00     0.093 A 
BRANCH   3  13
ATOM     13  C   UNL     1      33.591  26.828  18.024  1.00  0.00     0.021 A 
ATOM     14  C   UNL     1      33.801  25.795  17.097  1.00  0.00     0.016 A 
ATOM     15  C   UNL     1      33.441  25.970  15.756  1.00  0.00     0.047 A 
ATOM     16  C   UNL     1      32.835  27.160  15.339  1.00  0.00     0.115 A 
ATOM     17  C   UNL     1      32.982  28.025  17.601  1.00  0.00     0.016 A 
ATOM     18  C   UNL     1      32.602  28.186  16.265  1.00  0.00     0.047 A 
BRANCH  16  19
ATOM     19  O   UNL     1      32.461  27.308  14.004  1.00  0.00    -0.508 OA
ATOM     20  H   UNL     1      33.113  27.127  13.249  1.00  0.00     0.293 HD
ENDBRANCH  16  19
ENDBRANCH   3  13
BRANCH  10  21
ATOM     21  O   UNL     1      35.300  25.221  24.246  1.00  0.00    -0.507 OA
ATOM     22  H   UNL     1      35.349  25.153  25.250  1.00  0.00     0.293 HD
ENDBRANCH  10  21
BRANCH  11  23
ATOM     23  O   UNL     1      34.251  29.899  24.424  1.00  0.00    -0.508 OA
ATOM     24  H   UNL     1      33.352  30.272  24.702  1.00  0.00     0.293 HD
ENDBRANCH  11  23
ENDBRANCH   1   2
BRANCH   1  25
ATOM     25  C   UNL     1      34.019  22.962  19.298  1.00  0.00     0.339 C 
ATOM     26  C   UNL     1      33.577  22.318  17.975  1.00  0.00     0.214 C 
ATOM     27  O   UNL     1      35.126  22.271  19.858  1.00  0.00    -0.332 OA
ATOM     28  C   UNL     1      33.191  20.849  18.196  1.00  0.00     0.180 C 
ATOM     29  C   UNL     1      34.836  20.913  20.164  1.00  0.00     0.179 C 
ATOM     30  C   UNL     1      34.334  20.124  18.925  1.00  0.00     0.177 C 
BRANCH  26  31
ATOM     31  O   UNL     1      32.483  23.027  17.450  1.00  0.00    -0.384 OA
ATOM     32  H   UNL     1      32.672  23.173  16.485  1.00  0.00     0.211 HD
ENDBRANCH  26  31
BRANCH  28  33
ATOM     33  O   UNL     1      31.995  20.773  18.933  1.00  0.00    -0.387 OA
ATOM     34  H   UNL     1      31.574  19.902  18.711  1.00  0.00     0.211 HD
ENDBRANCH  28  33
BRANCH  29  35
ATOM     35  C   UNL     1      33.954  20.767  21.428  1.00  0.00     0.191 C 
BRANCH  35  36
ATOM     36  O   UNL     1      34.000  19.452  21.913  1.00  0.00    -0.394 OA
ATOM     37  H   UNL     1      33.756  19.493  22.874  1.00  0.00     0.210 HD
ENDBRANCH  35  36
ENDBRANCH  29  35
BRANCH  30  38
ATOM     38  O   UNL     1      33.932  18.825  19.280  1.00  0.00    -0.387 OA
ATOM     39  H   UNL     1      34.174  18.704  20.235  1.00  0.00     0.211 HD
ENDBRANCH  30  38
ENDBRANCH   1  25
TORSDOF 11
ENDMDL
MODEL 4
REMARK VINA RESULT:    -4.295      1.510      5.507
REMARK INTER + INTRA:          -7.032
REMARK INTER:                  -7.419
REMARK INTRA:                   0.387
REMARK UNBOUND:                -0.854
REMARK SMILES O=c1c(O[C@@H]2O[C@@H](CO)[C@@H](O)[C@@H](O)[C@H]2O)c(-c2ccc(O)cc2)oc2cc(O)cc(O)c12
REMARK SMILES IDX 4 1 3 2 16 3 24 4 2 5 25 6 1 7 32 8 26 9 30 10 27 11 29 12
REMARK SMILES IDX 17 13 18 14 19 15 20 16 23 17 22 18 21 19 31 21 28 23 5 25
REMARK SMILES IDX 14 26 6 27 12 28 7 29 10 30 15 31 13 33 8 35 9 36 11 38
REMARK H PARENT 21 20 31 22 28 24 15 32 13 34 9 37 11 39
REMARK Flexibility Score: inf
ROOT
ATOM      1  O   UNL     1      32.693  26.485  19.650  1.00  0.00    -0.454 OA
ENDROOT
BRANCH   1   2
ATOM      2  C   UNL     1      33.876  26.582  20.406  1.00  0.00     0.214 A 
ATOM      3  C   UNL     1      34.790  25.518  20.351  1.00  0.00     0.180 A 
ATOM      4  O   UNL     1      35.955  25.604  20.976  1.00  0.00    -0.452 OA
ATOM      5  C   UNL     1      34.215  27.723  21.164  1.00  0.00     0.239 A 
ATOM      6  C   UNL     1      36.327  26.661  21.682  1.00  0.00     0.146 A 
ATOM      7  O   UNL     1      33.391  28.669  21.250  1.00  0.00    -0.285 OA
ATOM      8  C   UNL     1      35.479  27.795  21.803  1.00  0.00     0.111 A 
ATOM      9  C   UNL     1      37.568  26.630  22.318  1.00  0.00     0.094 A 
ATOM     10  C   UNL     1      35.949  28.912  22.561  1.00  0.00     0.134 A 
ATOM     11  C   UNL     1      37.990  27.699  23.100  1.00  0.00     0.123 A 
ATOM     12  C   UNL     1      37.181  28.830  23.221  1.00  0.00     0.093 A 
BRANCH   3  13
ATOM     13  C   UNL     1      34.480  24.280  19.612  1.00  0.00     0.021 A 
ATOM     14  C   UNL     1      34.668  23.033  20.230  1.00  0.00     0.016 A 
ATOM     15  C   UNL     1      34.353  21.854  19.546  1.00  0.00     0.047 A 
ATOM     16  C   UNL     1      33.814  21.911  18.256  1.00  0.00     0.115 A 
ATOM     17  C   UNL     1      33.938  24.334  18.314  1.00  0.00     0.016 A 
ATOM     18  C   UNL     1      33.602  23.155  17.642  1.00  0.00     0.047 A 
BRANCH  16  19
ATOM     19  O   UNL     1      33.484  20.728  17.597  1.00  0.00    -0.508 OA
ATOM     20  H   UNL     1      34.196  20.064  17.315  1.00  0.00     0.293 HD
ENDBRANCH  16  19
ENDBRANCH   3  13
BRANCH  10  21
ATOM     21  O   UNL     1      35.263  30.125  22.683  1.00  0.00    -0.507 OA
ATOM     22  H   UNL     1      34.270  30.246  22.561  1.00  0.00     0.293 HD
ENDBRANCH  10  21
BRANCH  11  23
ATOM     23  O   UNL     1      39.218  27.630  23.755  1.00  0.00    -0.508 OA
ATOM     24  H   UNL     1      39.632  26.744  24.017  1.00  0.00     0.293 HD
ENDBRANCH  11  23
ENDBRANCH   1   2
BRANCH   1  25
ATOM     25  C   UNL     1      32.385  27.224  18.471  1.00  0.00     0.339 C 
ATOM     26  C   UNL     1      32.034  28.657  18.903  1.00  0.00     0.214 C 
ATOM     27  O   UNL     1      33.524  27.210  17.623  1.00  0.00    -0.332 OA
ATOM     28  C   UNL     1      31.754  29.533  17.675  1.00  0.00     0.180 C 
ATOM     29  C   UNL     1      33.328  27.943  16.420  1.00  0.00     0.179 C 
ATOM     30  C   UNL     1      32.926  29.419  16.687  1.00  0.00     0.177 C 
BRANCH  26  31
ATOM     31  O   UNL     1      30.905  28.631  19.741  1.00  0.00    -0.384 OA
ATOM     32  H   UNL     1      30.225  29.222  19.323  1.00  0.00     0.211 HD
ENDBRANCH  26  31
BRANCH  28  33
ATOM     33  O   UNL     1      30.545  29.142  17.071  1.00  0.00    -0.387 OA
ATOM     34  H   UNL     1      29.835  29.729  17.439  1.00  0.00     0.211 HD
ENDBRANCH  28  33
BRANCH  29  35
ATOM     35  C   UNL     1      32.422  27.195  15.412  1.00  0.00     0.191 C 
BRANCH  35  36
ATOM     36  O   UNL     1      32.864  25.876  15.236  1.00  0.00    -0.394 OA
ATOM     37  H   UNL     1      33.667  25.764  15.808  1.00  0.00     0.210 HD
ENDBRANCH  35  36
ENDBRANCH  29  35
BRANCH  30  38
ATOM     38  O   UNL     1      32.613  30.084  15.489  1.00  0.00    -0.387 OA
ATOM     39  H   UNL     1      32.160  30.930  15.744  1.00  0.00     0.211 HD
ENDBRANCH  30  38
ENDBRANCH   1  25
TORSDOF 11
ENDMDL
MODEL 5
REMARK VINA RESULT:    -4.242      1.567      5.668
REMARK INTER + INTRA:          -6.956
REMARK INTER:                  -6.853
REMARK INTRA:                  -0.103
REMARK UNBOUND:                -0.854
REMARK SMILES O=c1c(O[C@@H]2O[C@@H](CO)[C@@H](O)[C@@H](O)[C@H]2O)c(-c2ccc(O)cc2)oc2cc(O)cc(O)c12
REMARK SMILES IDX 4 1 3 2 16 3 24 4 2 5 25 6 1 7 32 8 26 9 30 10 27 11 29 12
REMARK SMILES IDX 17 13 18 14 19 15 20 16 23 17 22 18 21 19 31 21 28 23 5 25
REMARK SMILES IDX 14 26 6 27 12 28 7 29 10 30 15 31 13 33 8 35 9 36 11 38
REMARK H PARENT 21 20 31 22 28 24 15 32 13 34 9 37 11 39
REMARK Flexibility Score: inf
ROOT
ATOM      1  O   UNL     1      34.753  26.416  19.995  1.00  0.00    -0.454 OA
ENDROOT
BRANCH   1   2
ATOM      2  C   UNL     1      34.416  25.083  19.698  1.00  0.00     0.214 A 
ATOM      3  C   UNL     1      33.892  24.795  18.428  1.00  0.00     0.180 A 
ATOM      4  O   UNL     1      33.643  23.542  18.076  1.00  0.00    -0.452 OA
ATOM      5  C   UNL     1      34.639  24.015  20.593  1.00  0.00     0.239 A 
ATOM      6  C   UNL     1      33.855  22.506  18.872  1.00  0.00     0.146 A 
ATOM      7  O   UNL     1      35.076  24.262  21.747  1.00  0.00    -0.285 OA
ATOM      8  C   UNL     1      34.384  22.683  20.179  1.00  0.00     0.111 A 
ATOM      9  C   UNL     1      33.532  21.232  18.401  1.00  0.00     0.094 A 
ATOM     10  C   UNL     1      34.611  21.520  20.979  1.00  0.00     0.134 A 
ATOM     11  C   UNL     1      33.703  20.114  19.211  1.00  0.00     0.123 A 
ATOM     12  C   UNL     1      34.235  20.262  20.492  1.00  0.00     0.093 A 
BRANCH   3  13
ATOM     13  C   UNL     1      33.595  25.868  17.461  1.00  0.00     0.021 A 
ATOM     14  C   UNL     1      33.578  25.583  16.086  1.00  0.00     0.016 A 
ATOM     15  C   UNL     1      33.273  26.589  15.163  1.00  0.00     0.047 A 
ATOM     16  C   UNL     1      32.946  27.875  15.605  1.00  0.00     0.115 A 
ATOM     17  C   UNL     1      33.266  27.163  17.903  1.00  0.00     0.016 A 
ATOM     18  C   UNL     1      32.938  28.160  16.979  1.00  0.00     0.047 A 
BRANCH  16  19
ATOM     19  O   UNL     1      32.622  28.860  14.674  1.00  0.00    -0.508 OA
ATOM     20  H   UNL     1      31.766  28.814  14.132  1.00  0.00     0.293 HD
ENDBRANCH  16  19
ENDBRANCH   3  13
BRANCH  10  21
ATOM     21  O   UNL     1      35.213  21.539  22.242  1.00  0.00    -0.507 OA
ATOM     22  H   UNL     1      35.705  22.323  22.639  1.00  0.00     0.293 HD
ENDBRANCH  10  21
BRANCH  11  23
ATOM     23  O   UNL     1      33.339  18.857  18.732  1.00  0.00    -0.508 OA
ATOM     24  H   UNL     1      32.902  18.167  19.329  1.00  0.00     0.293 HD
ENDBRANCH  11  23
ENDBRANCH   1   2
BRANCH   1  25
ATOM     25  C   UNL     1      35.089  26.934  21.279  1.00  0.00     0.339 C 
ATOM     26  C   UNL     1      36.585  27.288  21.256  1.00  0.00     0.214 C 
ATOM     27  O   UNL     1      34.295  28.086  21.521  1.00  0.00    -0.332 OA
ATOM     28  C   UNL     1      37.008  27.917  22.589  1.00  0.00     0.180 C 
ATOM     29  C   UNL     1      34.571  28.697  22.775  1.00  0.00     0.179 C 
ATOM     30  C   UNL     1      36.066  29.085  22.926  1.00  0.00     0.177 C 
BRANCH  26  31
ATOM     31  O   UNL     1      37.338  26.126  21.013  1.00  0.00    -0.384 OA
ATOM     32  H   UNL     1      37.685  25.821  21.893  1.00  0.00     0.211 HD
ENDBRANCH  26  31
BRANCH  28  33
ATOM     33  O   UNL     1      36.988  26.946  23.607  1.00  0.00    -0.387 OA
ATOM     34  H   UNL     1      37.439  27.345  24.396  1.00  0.00     0.211 HD
ENDBRANCH  28  33
BRANCH  29  35
ATOM     35  C   UNL     1      33.983  27.899  23.963  1.00  0.00     0.191 C 
BRANCH  35  36
ATOM     36  O   UNL     1      33.920  28.699  25.113  1.00  0.00    -0.394 OA
ATOM     37  H   UNL     1      33.157  28.365  25.652  1.00  0.00     0.210 HD
ENDBRANCH  35  36
ENDBRANCH  29  35
BRANCH  30  38
ATOM     38  O   UNL     1      36.337  29.566  24.218  1.00  0.00    -0.387 OA
ATOM     39  H   UNL     1      36.478  30.546  24.133  1.00  0.00     0.211 HD
ENDBRANCH  30  38
ENDBRANCH   1  25
TORSDOF 11
ENDMDL
MODEL 6
REMARK VINA RESULT:    -3.808      1.597      6.622
REMARK INTER + INTRA:          -6.332
REMARK INTER:                  -6.702
REMARK INTRA:                   0.369
REMARK UNBOUND:                -0.854
REMARK SMILES O=c1c(O[C@@H]2O[C@@H](CO)[C@@H](O)[C@@H](O)[C@H]2O)c(-c2ccc(O)cc2)oc2cc(O)cc(O)c12
REMARK SMILES IDX 4 1 3 2 16 3 24 4 2 5 25 6 1 7 32 8 26 9 30 10 27 11 29 12
REMARK SMILES IDX 17 13 18 14 19 15 20 16 23 17 22 18 21 19 31 21 28 23 5 25
REMARK SMILES IDX 14 26 6 27 12 28 7 29 10 30 15 31 13 33 8 35 9 36 11 38
REMARK H PARENT 21 20 31 22 28 24 15 32 13 34 9 37 11 39
REMARK Flexibility Score: inf
ROOT
ATOM      1  O   UNL     1      34.425  26.594  20.972  1.00  0.00    -0.454 OA
ENDROOT
BRANCH   1   2
ATOM      2  C   UNL     1      34.029  26.528  19.624  1.00  0.00     0.214 A 
ATOM      3  C   UNL     1      33.906  25.264  19.026  1.00  0.00     0.180 A 
ATOM      4  O   UNL     1      33.451  25.152  17.787  1.00  0.00    -0.452 OA
ATOM      5  C   UNL     1      33.688  27.668  18.866  1.00  0.00     0.239 A 
ATOM      6  C   UNL     1      33.100  26.189  17.043  1.00  0.00     0.146 A 
ATOM      7  O   UNL     1      33.825  28.809  19.377  1.00  0.00    -0.285 OA
ATOM      8  C   UNL     1      33.183  27.514  17.549  1.00  0.00     0.111 A 
ATOM      9  C   UNL     1      32.657  25.952  15.741  1.00  0.00     0.094 A 
ATOM     10  C   UNL     1      32.766  28.589  16.703  1.00  0.00     0.134 A 
ATOM     11  C   UNL     1      32.310  27.009  14.908  1.00  0.00     0.123 A 
ATOM     12  C   UNL     1      32.369  28.318  15.388  1.00  0.00     0.093 A 
BRANCH   3  13
ATOM     13  C   UNL     1      34.286  24.036  19.748  1.00  0.00     0.021 A 
ATOM     14  C   UNL     1      34.725  24.116  21.080  1.00  0.00     0.016 A 
ATOM     15  C   UNL     1      35.062  22.954  21.780  1.00  0.00     0.047 A 
ATOM     16  C   UNL     1      34.930  21.701  21.172  1.00  0.00     0.115 A 
ATOM     17  C   UNL     1      34.154  22.774  19.139  1.00  0.00     0.016 A 
ATOM     18  C   UNL     1      34.470  21.612  19.850  1.00  0.00     0.047 A 
BRANCH  16  19
ATOM     19  O   UNL     1      35.249  20.551  21.892  1.00  0.00    -0.508 OA
ATOM     20  H   UNL     1      35.193  20.529  22.904  1.00  0.00     0.293 HD
ENDBRANCH  16  19
ENDBRANCH   3  13
BRANCH  10  21
ATOM     21  O   UNL     1      32.705  29.927  17.103  1.00  0.00    -0.507 OA
ATOM     22  H   UNL     1      32.896  30.721  16.512  1.00  0.00     0.293 HD
ENDBRANCH  10  21
BRANCH  11  23
ATOM     23  O   UNL     1      31.906  26.749  13.600  1.00  0.00    -0.508 OA
ATOM     24  H   UNL     1      32.288  27.259  12.813  1.00  0.00     0.293 HD
ENDBRANCH  11  23
ENDBRANCH   1   2
BRANCH   1  25
ATOM     25  C   UNL     1      35.039  27.707  21.616  1.00  0.00     0.339 C 
ATOM     26  C   UNL     1      34.531  27.738  23.067  1.00  0.00     0.214 C 
ATOM     27  O   UNL     1      36.448  27.530  21.573  1.00  0.00    -0.332 OA
ATOM     28  C   UNL     1      35.203  28.876  23.846  1.00  0.00     0.180 C 
ATOM     29  C   UNL     1      37.160  28.581  22.213  1.00  0.00     0.179 C 
ATOM     30  C   UNL     1      36.729  28.769  23.692  1.00  0.00     0.177 C 
BRANCH  26  31
ATOM     31  O   UNL     1      33.136  27.913  23.071  1.00  0.00    -0.384 OA
ATOM     32  H   UNL     1      32.734  27.009  23.170  1.00  0.00     0.211 HD
ENDBRANCH  26  31
BRANCH  28  33
ATOM     33  O   UNL     1      34.736  30.119  23.381  1.00  0.00    -0.387 OA
ATOM     34  H   UNL     1      33.781  29.997  23.139  1.00  0.00     0.211 HD
ENDBRANCH  28  33
BRANCH  29  35
ATOM     35  C   UNL     1      37.178  29.880  21.371  1.00  0.00     0.191 C 
BRANCH  35  36
ATOM     36  O   UNL     1      38.465  30.125  20.870  1.00  0.00    -0.394 OA
ATOM     37  H   UNL     1      38.378  30.855  20.203  1.00  0.00     0.210 HD
ENDBRANCH  35  36
ENDBRANCH  29  35
BRANCH  30  38
ATOM     38  O   UNL     1      37.350  29.894  24.262  1.00  0.00    -0.387 OA
ATOM     39  H   UNL     1      38.330  29.739  24.200  1.00  0.00     0.211 HD
ENDBRANCH  30  38
ENDBRANCH   1  25
TORSDOF 11
ENDMDL
MODEL 7
REMARK VINA RESULT:    -3.799      1.097      2.426
REMARK INTER + INTRA:          -6.320
REMARK INTER:                  -6.362
REMARK INTRA:                   0.043
REMARK UNBOUND:                -0.854
REMARK SMILES O=c1c(O[C@@H]2O[C@@H](CO)[C@@H](O)[C@@H](O)[C@H]2O)c(-c2ccc(O)cc2)oc2cc(O)cc(O)c12
REMARK SMILES IDX 4 1 3 2 16 3 24 4 2 5 25 6 1 7 32 8 26 9 30 10 27 11 29 12
REMARK SMILES IDX 17 13 18 14 19 15 20 16 23 17 22 18 21 19 31 21 28 23 5 25
REMARK SMILES IDX 14 26 6 27 12 28 7 29 10 30 15 31 13 33 8 35 9 36 11 38
REMARK H PARENT 21 20 31 22 28 24 15 32 13 34 9 37 11 39
REMARK Flexibility Score: inf
ROOT
ATOM      1  O   UNL     1      34.810  26.061  18.723  1.00  0.00    -0.454 OA
ENDROOT
BRANCH   1   2
ATOM      2  C   UNL     1      34.718  24.807  19.354  1.00  0.00     0.214 A 
ATOM      3  C   UNL     1      35.076  24.715  20.708  1.00  0.00     0.180 A 
ATOM      4  O   UNL     1      34.922  23.574  21.364  1.00  0.00    -0.452 OA
ATOM      5  C   UNL     1      34.225  23.654  18.707  1.00  0.00     0.239 A 
ATOM      6  C   UNL     1      34.445  22.472  20.807  1.00  0.00     0.146 A 
ATOM      7  O   UNL     1      33.934  23.713  17.485  1.00  0.00    -0.285 OA
ATOM      8  C   UNL     1      34.051  22.454  19.442  1.00  0.00     0.111 A 
ATOM      9  C   UNL     1      34.349  21.321  21.590  1.00  0.00     0.094 A 
ATOM     10  C   UNL     1      33.522  21.238  18.907  1.00  0.00     0.134 A 
ATOM     11  C   UNL     1      33.888  20.129  21.044  1.00  0.00     0.123 A 
ATOM     12  C   UNL     1      33.481  20.091  19.709  1.00  0.00     0.093 A 
BRANCH   3  13
ATOM     13  C   UNL     1      35.638  25.870  21.432  1.00  0.00     0.021 A 
ATOM     14  C   UNL     1      34.908  26.461  22.476  1.00  0.00     0.016 A 
ATOM     15  C   UNL     1      35.444  27.541  23.185  1.00  0.00     0.047 A 
ATOM     16  C   UNL     1      36.725  28.016  22.883  1.00  0.00     0.115 A 
ATOM     17  C   UNL     1      36.926  26.350  21.130  1.00  0.00     0.016 A 
ATOM     18  C   UNL     1      37.468  27.415  21.857  1.00  0.00     0.047 A 
BRANCH  16  19
ATOM     19  O   UNL     1      37.253  29.078  23.615  1.00  0.00    -0.508 OA
ATOM     20  H   UNL     1      37.815  29.797  23.172  1.00  0.00     0.293 HD
ENDBRANCH  16  19
ENDBRANCH   3  13
BRANCH  10  21
ATOM     21  O   UNL     1      33.009  21.105  17.612  1.00  0.00    -0.507 OA
ATOM     22  H   UNL     1      32.081  20.784  17.384  1.00  0.00     0.293 HD
ENDBRANCH  10  21
BRANCH  11  23
ATOM     23  O   UNL     1      33.836  18.984  21.835  1.00  0.00    -0.508 OA
ATOM     24  H   UNL     1      34.453  18.857  22.628  1.00  0.00     0.293 HD
ENDBRANCH  11  23
ENDBRANCH   1   2
BRANCH   1  25
ATOM     25  C   UNL     1      33.876  27.132  18.838  1.00  0.00     0.339 C 
ATOM     26  C   UNL     1      32.598  26.709  18.095  1.00  0.00     0.214 C 
ATOM     27  O   UNL     1      33.616  27.355  20.216  1.00  0.00    -0.332 OA
ATOM     28  C   UNL     1      31.516  27.789  18.233  1.00  0.00     0.180 C 
ATOM     29  C   UNL     1      32.673  28.395  20.442  1.00  0.00     0.179 C 
ATOM     30  C   UNL     1      31.324  28.134  19.719  1.00  0.00     0.177 C 
BRANCH  26  31
ATOM     31  O   UNL     1      32.893  26.496  16.738  1.00  0.00    -0.384 OA
ATOM     32  H   UNL     1      33.781  26.052  16.704  1.00  0.00     0.211 HD
ENDBRANCH  26  31
BRANCH  28  33
ATOM     33  O   UNL     1      31.880  28.930  17.494  1.00  0.00    -0.387 OA
ATOM     34  H   UNL     1      32.092  28.623  16.575  1.00  0.00     0.211 HD
ENDBRANCH  28  33
BRANCH  29  35
ATOM     35  C   UNL     1      33.276  29.801  20.206  1.00  0.00     0.191 C 
BRANCH  35  36
ATOM     36  O   UNL     1      34.504  29.928  20.869  1.00  0.00    -0.394 OA
ATOM     37  H   UNL     1      34.881  30.809  20.608  1.00  0.00     0.210 HD
ENDBRANCH  35  36
ENDBRANCH  29  35
BRANCH  30  38
ATOM     38  O   UNL     1      30.458  29.233  19.850  1.00  0.00    -0.387 OA
ATOM     39  H   UNL     1      29.571  28.937  19.517  1.00  0.00     0.211 HD
ENDBRANCH  30  38
ENDBRANCH   1  25
TORSDOF 11
ENDMDL
MODEL 8
REMARK VINA RESULT:    -3.439      1.639      5.505
REMARK INTER + INTRA:          -5.801
REMARK INTER:                  -8.320
REMARK INTRA:                   2.519
REMARK UNBOUND:                -0.854
REMARK SMILES O=c1c(O[C@@H]2O[C@@H](CO)[C@@H](O)[C@@H](O)[C@H]2O)c(-c2ccc(O)cc2)oc2cc(O)cc(O)c12
REMARK SMILES IDX 4 1 3 2 16 3 24 4 2 5 25 6 1 7 32 8 26 9 30 10 27 11 29 12
REMARK SMILES IDX 17 13 18 14 19 15 20 16 23 17 22 18 21 19 31 21 28 23 5 25
REMARK SMILES IDX 14 26 6 27 12 28 7 29 10 30 15 31 13 33 8 35 9 36 11 38
REMARK H PARENT 21 20 31 22 28 24 15 32 13 34 9 37 11 39
REMARK Flexibility Score: inf
ROOT
ATOM      1  O   UNL     1      34.992  26.178  19.545  1.00  0.00    -0.454 OA
ENDROOT
BRANCH   1   2
ATOM      2  C   UNL     1      34.512  24.871  19.348  1.00  0.00     0.214 A 
ATOM      3  C   UNL     1      33.835  24.582  18.152  1.00  0.00     0.180 A 
ATOM      4  O   UNL     1      33.443  23.345  17.887  1.00  0.00    -0.452 OA
ATOM      5  C   UNL     1      34.733  23.823  20.267  1.00  0.00     0.239 A 
ATOM      6  C   UNL     1      33.646  22.325  18.708  1.00  0.00     0.146 A 
ATOM      7  O   UNL     1      35.308  24.073  21.357  1.00  0.00    -0.285 OA
ATOM      8  C   UNL     1      34.321  22.504  19.945  1.00  0.00     0.111 A 
ATOM      9  C   UNL     1      33.167  21.069  18.334  1.00  0.00     0.094 A 
ATOM     10  C   UNL     1      34.528  21.358  20.774  1.00  0.00     0.134 A 
ATOM     11  C   UNL     1      33.323  19.973  19.175  1.00  0.00     0.123 A 
ATOM     12  C   UNL     1      33.997  20.121  20.388  1.00  0.00     0.093 A 
BRANCH   3  13
ATOM     13  C   UNL     1      33.533  25.639  17.169  1.00  0.00     0.021 A 
ATOM     14  C   UNL     1      33.181  26.924  17.612  1.00  0.00     0.016 A 
ATOM     15  C   UNL     1      32.919  27.940  16.687  1.00  0.00     0.047 A 
ATOM     16  C   UNL     1      33.041  27.692  15.315  1.00  0.00     0.115 A 
ATOM     17  C   UNL     1      33.655  25.393  15.789  1.00  0.00     0.016 A 
ATOM     18  C   UNL     1      33.415  26.417  14.867  1.00  0.00     0.047 A 
BRANCH  16  19
ATOM     19  O   UNL     1      32.798  28.721  14.408  1.00  0.00    -0.508 OA
ATOM     20  H   UNL     1      33.170  28.693  13.465  1.00  0.00     0.293 HD
ENDBRANCH  16  19
ENDBRANCH   3  13
BRANCH  10  21
ATOM     21  O   UNL     1      35.258  21.371  21.967  1.00  0.00    -0.507 OA
ATOM     22  H   UNL     1      36.217  21.666  22.059  1.00  0.00     0.293 HD
ENDBRANCH  10  21
BRANCH  11  23
ATOM     23  O   UNL     1      32.803  18.737  18.797  1.00  0.00    -0.508 OA
ATOM     24  H   UNL     1      31.928  18.391  19.168  1.00  0.00     0.293 HD
ENDBRANCH  11  23
ENDBRANCH   1   2
BRANCH   1  25
ATOM     25  C   UNL     1      35.047  26.877  20.785  1.00  0.00     0.339 C 
ATOM     26  C   UNL     1      33.602  27.210  21.191  1.00  0.00     0.214 C 
ATOM     27  O   UNL     1      35.667  26.036  21.747  1.00  0.00    -0.332 OA
ATOM     28  C   UNL     1      33.575  27.907  22.557  1.00  0.00     0.180 C 
ATOM     29  C   UNL     1      35.751  26.634  23.035  1.00  0.00     0.179 C 
ATOM     30  C   UNL     1      34.362  27.067  23.576  1.00  0.00     0.177 C 
BRANCH  26  31
ATOM     31  O   UNL     1      33.021  28.041  20.217  1.00  0.00    -0.384 OA
ATOM     32  H   UNL     1      33.365  27.733  19.336  1.00  0.00     0.211 HD
ENDBRANCH  26  31
BRANCH  28  33
ATOM     33  O   UNL     1      34.118  29.201  22.447  1.00  0.00    -0.387 OA
ATOM     34  H   UNL     1      34.923  29.129  21.871  1.00  0.00     0.211 HD
ENDBRANCH  28  33
BRANCH  29  35
ATOM     35  C   UNL     1      36.846  27.725  23.109  1.00  0.00     0.191 C 
BRANCH  35  36
ATOM     36  O   UNL     1      38.096  27.194  22.759  1.00  0.00    -0.394 OA
ATOM     37  H   UNL     1      38.729  27.454  23.478  1.00  0.00     0.210 HD
ENDBRANCH  35  36
ENDBRANCH  29  35
BRANCH  30  38
ATOM     38  O   UNL     1      34.486  27.769  24.787  1.00  0.00    -0.387 OA
ATOM     39  H   UNL     1      33.876  27.328  25.435  1.00  0.00     0.211 HD
ENDBRANCH  30  38
ENDBRANCH   1  25
TORSDOF 11
ENDMDL
MODEL 9
REMARK VINA RESULT:    -3.098      1.478      7.002
REMARK INTER + INTRA:          -5.311
REMARK INTER:                  -7.329
REMARK INTRA:                   2.018
REMARK UNBOUND:                -0.854
REMARK SMILES O=c1c(O[C@@H]2O[C@@H](CO)[C@@H](O)[C@@H](O)[C@H]2O)c(-c2ccc(O)cc2)oc2cc(O)cc(O)c12
REMARK SMILES IDX 4 1 3 2 16 3 24 4 2 5 25 6 1 7 32 8 26 9 30 10 27 11 29 12
REMARK SMILES IDX 17 13 18 14 19 15 20 16 23 17 22 18 21 19 31 21 28 23 5 25
REMARK SMILES IDX 14 26 6 27 12 28 7 29 10 30 15 31 13 33 8 35 9 36 11 38
REMARK H PARENT 21 20 31 22 28 24 15 32 13 34 9 37 11 39
REMARK Flexibility Score: inf
ROOT
ATOM      1  O   UNL     1      34.068  25.239  20.910  1.00  0.00    -0.454 OA
ENDROOT
BRANCH   1   2
ATOM      2  C   UNL     1      33.814  25.544  19.560  1.00  0.00     0.214 A 
ATOM      3  C   UNL     1      33.670  24.482  18.653  1.00  0.00     0.180 A 
ATOM      4  O   UNL     1      33.344  24.721  17.392  1.00  0.00    -0.452 OA
ATOM      5  C   UNL     1      33.638  26.862  19.089  1.00  0.00     0.239 A 
ATOM      6  C   UNL     1      33.147  25.937  16.907  1.00  0.00     0.146 A 
ATOM      7  O   UNL     1      33.798  27.825  19.883  1.00  0.00    -0.285 OA
ATOM      8  C   UNL     1      33.268  27.084  17.738  1.00  0.00     0.111 A 
ATOM      9  C   UNL     1      32.832  26.069  15.554  1.00  0.00     0.094 A 
ATOM     10  C   UNL     1      33.019  28.367  17.158  1.00  0.00     0.134 A 
ATOM     11  C   UNL     1      32.650  27.326  14.989  1.00  0.00     0.123 A 
ATOM     12  C   UNL     1      32.748  28.466  15.788  1.00  0.00     0.093 A 
BRANCH   3  13
ATOM     13  C   UNL     1      33.883  23.084  19.071  1.00  0.00     0.021 A 
ATOM     14  C   UNL     1      34.570  22.809  20.264  1.00  0.00     0.016 A 
ATOM     15  C   UNL     1      34.754  21.487  20.681  1.00  0.00     0.047 A 
ATOM     16  C   UNL     1      34.224  20.431  19.931  1.00  0.00     0.115 A 
ATOM     17  C   UNL     1      33.351  22.020  18.318  1.00  0.00     0.016 A 
ATOM     18  C   UNL     1      33.517  20.701  18.750  1.00  0.00     0.047 A 
BRANCH  16  19
ATOM     19  O   UNL     1      34.398  19.121  20.372  1.00  0.00    -0.508 OA
ATOM     20  H   UNL     1      34.206  18.330  19.768  1.00  0.00     0.293 HD
ENDBRANCH  16  19
ENDBRANCH   3  13
BRANCH  10  21
ATOM     21  O   UNL     1      33.009  29.567  17.878  1.00  0.00    -0.507 OA
ATOM     22  H   UNL     1      32.233  30.208  17.928  1.00  0.00     0.293 HD
ENDBRANCH  10  21
BRANCH  11  23
ATOM     23  O   UNL     1      32.372  27.434  13.628  1.00  0.00    -0.508 OA
ATOM     24  H   UNL     1      33.047  27.811  12.975  1.00  0.00     0.293 HD
ENDBRANCH  11  23
ENDBRANCH   1   2
BRANCH   1  25
ATOM     25  C   UNL     1      34.716  26.084  21.857  1.00  0.00     0.339 C 
ATOM     26  C   UNL     1      35.979  26.647  21.184  1.00  0.00     0.214 C 
ATOM     27  O   UNL     1      33.821  27.126  22.215  1.00  0.00    -0.332 OA
ATOM     28  C   UNL     1      36.697  27.623  22.123  1.00  0.00     0.180 C 
ATOM     29  C   UNL     1      34.382  28.045  23.145  1.00  0.00     0.179 C 
ATOM     30  C   UNL     1      35.699  28.680  22.624  1.00  0.00     0.177 C 
BRANCH  26  31
ATOM     31  O   UNL     1      36.839  25.589  20.842  1.00  0.00    -0.384 OA
ATOM     32  H   UNL     1      36.667  25.377  19.886  1.00  0.00     0.211 HD
ENDBRANCH  26  31
BRANCH  28  33
ATOM     33  O   UNL     1      37.270  26.921  23.200  1.00  0.00    -0.387 OA
ATOM     34  H   UNL     1      38.102  27.401  23.448  1.00  0.00     0.211 HD
ENDBRANCH  28  33
BRANCH  29  35
ATOM     35  C   UNL     1      34.463  27.462  24.576  1.00  0.00     0.191 C 
BRANCH  35  36
ATOM     36  O   UNL     1      34.000  28.394  25.516  1.00  0.00    -0.394 OA
ATOM     37  H   UNL     1      34.603  29.180  25.461  1.00  0.00     0.210 HD
ENDBRANCH  35  36
ENDBRANCH  29  35
BRANCH  30  38
ATOM     38  O   UNL     1      36.300  29.481  23.610  1.00  0.00    -0.387 OA
ATOM     39  H   UNL     1      36.038  29.096  24.487  1.00  0.00     0.211 HD
ENDBRANCH  30  38
ENDBRANCH   1  25
TORSDOF 11
ENDMDL
