MODEL 1
REMARK VINA RESULT:    -3.752      0.000      0.000
REMARK INTER + INTRA:          -4.521
REMARK INTER:                  -4.410
REMARK INTRA:                  -0.111
REMARK UNBOUND:                -0.111
REMARK SMILES O=C([O-])CCC(=O)[O-]
REMARK SMILES IDX 4 1 2 2 1 3 3 4 5 5 6 6 7 7 8 8
REMARK H PARENT
REMARK Flexibility Score: inf
ROOT
ATOM      1  C   UNL     1      50.948  56.516  92.593  1.00  0.00     0.059 C 
ENDROOT
BRANCH   1   2
ATOM      2  C   UNL     1      51.869  56.898  91.476  1.00  0.00     0.042 C 
ATOM      3  O   UNL     1      51.973  56.162  90.460  1.00  0.00    -0.550 OA
ATOM      4  O   UNL     1      52.644  58.047  91.576  1.00  0.00    -0.550 OA
ENDBRANCH   1   2
BRANCH   1   5
ATOM      5  C   UNL     1      50.121  57.711  93.079  1.00  0.00     0.059 C 
BRANCH   5   6
ATOM      6  C   UNL     1      50.407  58.033  94.514  1.00  0.00     0.042 C 
ATOM      7  O   UNL     1      51.454  57.599  95.064  1.00  0.00    -0.550 OA
ATOM      8  O   UNL     1      49.500  58.778  95.256  1.00  0.00    -0.550 OA
ENDBRANCH   5   6
ENDBRANCH   1   5
TORSDOF 3
ENDMDL
MODEL 2
REMARK VINA RESULT:    -3.747      0.053      3.956
REMARK INTER + INTRA:          -4.515
REMARK INTER:                  -4.402
REMARK INTRA:                  -0.113
REMARK UNBOUND:                -0.111
REMARK SMILES O=C([O-])CCC(=O)[O-]
REMARK SMILES IDX 4 1 2 2 1 3 3 4 5 5 6 6 7 7 8 8
REMARK H PARENT
REMARK Flexibility Score: inf
ROOT
ATOM      1  C   UNL     1      50.158  57.707  93.062  1.00  0.00     0.059 C 
ENDROOT
BRANCH   1   2
ATOM      2  C   UNL     1      50.454  58.016  94.497  1.00  0.00     0.042 C 
ATOM      3  O   UNL     1      51.521  57.609  95.026  1.00  0.00    -0.550 OA
ATOM      4  O   UNL     1      49.531  58.719  95.262  1.00  0.00    -0.550 OA
ENDBRANCH   1   2
BRANCH   1   5
ATOM      5  C   UNL     1      50.959  56.499  92.566  1.00  0.00     0.059 C 
BRANCH   5   6
ATOM      6  C   UNL     1      51.886  56.872  91.449  1.00  0.00     0.042 C 
ATOM      7  O   UNL     1      51.977  56.137  90.430  1.00  0.00    -0.550 OA
ATOM      8  O   UNL     1      52.677  58.008  91.550  1.00  0.00    -0.550 OA
ENDBRANCH   5   6
ENDBRANCH   1   5
TORSDOF 3
ENDMDL
MODEL 3
REMARK VINA RESULT:    -3.727      0.117      4.020
REMARK INTER + INTRA:          -4.491
REMARK INTER:                  -4.380
REMARK INTRA:                  -0.111
REMARK UNBOUND:                -0.111
REMARK SMILES O=C([O-])CCC(=O)[O-]
REMARK SMILES IDX 4 1 2 2 1 3 3 4 5 5 6 6 7 7 8 8
REMARK H PARENT
REMARK Flexibility Score: inf
ROOT
ATOM      1  C   UNL     1      50.137  57.708  93.127  1.00  0.00     0.059 C 
ENDROOT
BRANCH   1   2
ATOM      2  C   UNL     1      50.441  58.037  94.557  1.00  0.00     0.042 C 
ATOM      3  O   UNL     1      49.690  58.814  95.201  1.00  0.00    -0.550 OA
ATOM      4  O   UNL     1      51.579  57.518  95.163  1.00  0.00    -0.550 OA
ENDBRANCH   1   2
BRANCH   1   5
ATOM      5  C   UNL     1      50.962  56.515  92.633  1.00  0.00     0.059 C 
BRANCH   5   6
ATOM      6  C   UNL     1      51.898  56.910  91.531  1.00  0.00     0.042 C 
ATOM      7  O   UNL     1      52.537  57.993  91.602  1.00  0.00    -0.550 OA
ATOM      8  O   UNL     1      52.033  56.103  90.409  1.00  0.00    -0.550 OA
ENDBRANCH   5   6
ENDBRANCH   1   5
TORSDOF 3
ENDMDL
MODEL 4
REMARK VINA RESULT:    -3.594      1.870      3.428
REMARK INTER + INTRA:          -4.335
REMARK INTER:                  -4.153
REMARK INTRA:                  -0.182
REMARK UNBOUND:                -0.111
REMARK SMILES O=C([O-])CCC(=O)[O-]
REMARK SMILES IDX 4 1 2 2 1 3 3 4 5 5 6 6 7 7 8 8
REMARK H PARENT
REMARK Flexibility Score: inf
ROOT
ATOM      1  C   UNL     1      50.226  57.586  92.978  1.00  0.00     0.059 C 
ENDROOT
BRANCH   1   2
ATOM      2  C   UNL     1      50.186  58.770  93.894  1.00  0.00     0.042 C 
ATOM      3  O   UNL     1      50.525  59.907  93.475  1.00  0.00    -0.550 OA
ATOM      4  O   UNL     1      49.812  58.609  95.223  1.00  0.00    -0.550 OA
ENDBRANCH   1   2
BRANCH   1   5
ATOM      5  C   UNL     1      51.640  57.328  92.448  1.00  0.00     0.059 C 
BRANCH   5   6
ATOM      6  C   UNL     1      52.604  57.050  93.561  1.00  0.00     0.042 C 
ATOM      7  O   UNL     1      52.506  55.989  94.233  1.00  0.00    -0.550 OA
ATOM      8  O   UNL     1      53.585  57.979  93.881  1.00  0.00    -0.550 OA
ENDBRANCH   5   6
ENDBRANCH   1   5
TORSDOF 3
ENDMDL
MODEL 5
REMARK VINA RESULT:    -3.581      2.239      2.761
REMARK INTER + INTRA:          -4.320
REMARK INTER:                  -4.168
REMARK INTRA:                  -0.152
REMARK UNBOUND:                -0.111
REMARK SMILES O=C([O-])CCC(=O)[O-]
REMARK SMILES IDX 4 1 2 2 1 3 3 4 5 5 6 6 7 7 8 8
REMARK H PARENT
REMARK Flexibility Score: inf
ROOT
ATOM      1  C   UNL     1      52.283  58.457  93.004  1.00  0.00     0.059 C 
ENDROOT
BRANCH   1   2
ATOM      2  C   UNL     1      51.357  57.575  92.223  1.00  0.00     0.042 C 
ATOM      3  O   UNL     1      51.772  56.969  91.201  1.00  0.00    -0.550 OA
ATOM      4  O   UNL     1      50.025  57.458  92.601  1.00  0.00    -0.550 OA
ENDBRANCH   1   2
BRANCH   1   5
ATOM      5  C   UNL     1      53.326  57.642  93.774  1.00  0.00     0.059 C 
BRANCH   5   6
ATOM      6  C   UNL     1      52.689  56.548  94.576  1.00  0.00     0.042 C 
ATOM      7  O   UNL     1      52.014  56.827  95.602  1.00  0.00    -0.550 OA
ATOM      8  O   UNL     1      52.873  55.221  94.215  1.00  0.00    -0.550 OA
ENDBRANCH   5   6
ENDBRANCH   1   5
TORSDOF 3
ENDMDL
MODEL 6
REMARK VINA RESULT:    -3.571      1.862      2.123
REMARK INTER + INTRA:          -4.307
REMARK INTER:                  -4.129
REMARK INTRA:                  -0.178
REMARK UNBOUND:                -0.111
REMARK SMILES O=C([O-])CCC(=O)[O-]
REMARK SMILES IDX 4 1 2 2 1 3 3 4 5 5 6 6 7 7 8 8
REMARK H PARENT
REMARK Flexibility Score: inf
ROOT
ATOM      1  C   UNL     1      51.593  57.326  92.433  1.00  0.00     0.059 C 
ENDROOT
BRANCH   1   2
ATOM      2  C   UNL     1      52.563  57.026  93.535  1.00  0.00     0.042 C 
ATOM      3  O   UNL     1      52.413  56.002  94.250  1.00  0.00    -0.550 OA
ATOM      4  O   UNL     1      53.610  57.902  93.796  1.00  0.00    -0.550 OA
ENDBRANCH   1   2
BRANCH   1   5
ATOM      5  C   UNL     1      50.201  57.661  92.980  1.00  0.00     0.059 C 
BRANCH   5   6
ATOM      6  C   UNL     1      50.241  58.836  93.908  1.00  0.00     0.042 C 
ATOM      7  O   UNL     1      50.669  59.949  93.502  1.00  0.00    -0.550 OA
ATOM      8  O   UNL     1      49.843  58.694  95.231  1.00  0.00    -0.550 OA
ENDBRANCH   5   6
ENDBRANCH   1   5
TORSDOF 3
ENDMDL
MODEL 7
REMARK VINA RESULT:    -3.565      2.100      3.923
REMARK INTER + INTRA:          -4.301
REMARK INTER:                  -4.178
REMARK INTRA:                  -0.122
REMARK UNBOUND:                -0.111
REMARK SMILES O=C([O-])CCC(=O)[O-]
REMARK SMILES IDX 4 1 2 2 1 3 3 4 5 5 6 6 7 7 8 8
REMARK H PARENT
REMARK Flexibility Score: inf
ROOT
ATOM      1  C   UNL     1      53.071  57.426  93.906  1.00  0.00     0.059 C 
ENDROOT
BRANCH   1   2
ATOM      2  C   UNL     1      52.075  57.225  95.008  1.00  0.00     0.042 C 
ATOM      3  O   UNL     1      50.988  57.858  95.001  1.00  0.00    -0.550 OA
ATOM      4  O   UNL     1      52.369  56.370  96.063  1.00  0.00    -0.550 OA
ENDBRANCH   1   2
BRANCH   1   5
ATOM      5  C   UNL     1      52.393  57.855  92.601  1.00  0.00     0.059 C 
BRANCH   5   6
ATOM      6  C   UNL     1      52.766  59.256  92.221  1.00  0.00     0.042 C 
ATOM      7  O   UNL     1      53.446  59.469  91.183  1.00  0.00    -0.550 OA
ATOM      8  O   UNL     1      52.397  60.320  93.032  1.00  0.00    -0.550 OA
ENDBRANCH   5   6
ENDBRANCH   1   5
TORSDOF 3
ENDMDL
MODEL 8
REMARK VINA RESULT:    -3.563      2.224      3.609
REMARK INTER + INTRA:          -4.299
REMARK INTER:                  -4.145
REMARK INTRA:                  -0.154
REMARK UNBOUND:                -0.111
REMARK SMILES O=C([O-])CCC(=O)[O-]
REMARK SMILES IDX 4 1 2 2 1 3 3 4 5 5 6 6 7 7 8 8
REMARK H PARENT
REMARK Flexibility Score: inf
ROOT
ATOM      1  C   UNL     1      53.251  57.668  93.752  1.00  0.00     0.059 C 
ENDROOT
BRANCH   1   2
ATOM      2  C   UNL     1      52.671  56.545  94.556  1.00  0.00     0.042 C 
ATOM      3  O   UNL     1      52.018  56.788  95.605  1.00  0.00    -0.550 OA
ATOM      4  O   UNL     1      52.889  55.228  94.170  1.00  0.00    -0.550 OA
ENDBRANCH   1   2
BRANCH   1   5
ATOM      5  C   UNL     1      52.160  58.477  93.042  1.00  0.00     0.059 C 
BRANCH   5   6
ATOM      6  C   UNL     1      51.250  57.595  92.244  1.00  0.00     0.042 C 
ATOM      7  O   UNL     1      50.047  57.450  92.588  1.00  0.00    -0.550 OA
ATOM      8  O   UNL     1      51.739  56.903  91.144  1.00  0.00    -0.550 OA
ENDBRANCH   5   6
ENDBRANCH   1   5
TORSDOF 3
ENDMDL
MODEL 9
REMARK VINA RESULT:    -3.531      2.542      3.455
REMARK INTER + INTRA:          -4.261
REMARK INTER:                  -4.154
REMARK INTRA:                  -0.107
REMARK UNBOUND:                -0.111
REMARK SMILES O=C([O-])CCC(=O)[O-]
REMARK SMILES IDX 4 1 2 2 1 3 3 4 5 5 6 6 7 7 8 8
REMARK H PARENT
REMARK Flexibility Score: inf
ROOT
ATOM      1  C   UNL     1      52.816  58.735  92.582  1.00  0.00     0.059 C 
ENDROOT
BRANCH   1   2
ATOM      2  C   UNL     1      51.933  59.865  93.015  1.00  0.00     0.042 C 
ATOM      3  O   UNL     1      52.388  61.036  93.078  1.00  0.00    -0.550 OA
ATOM      4  O   UNL     1      50.618  59.615  93.390  1.00  0.00    -0.550 OA
ENDBRANCH   1   2
BRANCH   1   5
ATOM      5  C   UNL     1      53.433  58.007  93.781  1.00  0.00     0.059 C 
BRANCH   5   6
ATOM      6  C   UNL     1      52.563  56.881  94.249  1.00  0.00     0.042 C 
ATOM      7  O   UNL     1      52.016  56.114  93.414  1.00  0.00    -0.550 OA
ATOM      8  O   UNL     1      52.325  56.702  95.606  1.00  0.00    -0.550 OA
ENDBRANCH   5   6
ENDBRANCH   1   5
TORSDOF 3
ENDMDL
