MODEL 1
REMARK VINA RESULT:    -5.723      0.000      0.000
REMARK INTER + INTRA:          -9.927
REMARK INTER:                  -8.568
REMARK INTRA:                  -1.359
REMARK UNBOUND:                -1.359
REMARK SMILES C=C(CC[C@H](C(=O)[O-])[C@H]1[C@@H](O)C[C@]2(C)C3=C(CC[C@]12C)[C@@]1(C)CC[C@@H](OC(C)=O)C(C)(C)[C@@H]1CC3)C(C)C
REMARK SMILES IDX 4 1 5 2 6 3 7 4 8 5 9 6 10 7 19 8 12 9 13 10 18 11 20 12
REMARK SMILES IDX 14 13 15 14 17 15 16 16 35 17 21 18 34 19 33 20 23 21 22 22
REMARK SMILES IDX 30 23 24 24 25 25 31 26 32 27 11 28 26 30 27 31 29 32 28 33
REMARK SMILES IDX 3 34 2 35 1 36 36 37 37 38 38 39
REMARK H PARENT 11 29
REMARK Flexibility Score: inf
ROOT
ATOM      1  C   UNL     1       2.046  30.920  43.576  1.00  0.00     0.014 C 
ENDROOT
BRANCH   1   2
ATOM      2  C   UNL     1       0.906  30.006  43.022  1.00  0.00     0.042 C 
BRANCH   2   3
ATOM      3  C   UNL     1       1.478  29.329  41.787  1.00  0.00     0.045 C 
ATOM      4  O   UNL     1       2.388  29.888  41.113  1.00  0.00    -0.550 OA
ATOM      5  O   UNL     1       0.983  28.095  41.373  1.00  0.00    -0.550 OA
ENDBRANCH   2   3
BRANCH   2   6
ATOM      6  C   UNL     1      -0.451  30.736  42.607  1.00  0.00     0.033 C 
ATOM      7  C   UNL     1      -1.705  29.804  42.710  1.00  0.00     0.119 C 
ATOM      8  C   UNL     1      -0.939  32.088  43.291  1.00  0.00    -0.017 C 
ATOM      9  C   UNL     1      -2.629  30.337  43.814  1.00  0.00     0.043 C 
ATOM     10  C   UNL     1      -2.038  31.662  44.352  1.00  0.00    -0.003 C 
ATOM     11  C   UNL     1      -1.561  33.016  42.171  1.00  0.00     0.012 C 
ATOM     12  C   UNL     1       0.164  32.953  43.948  1.00  0.00     0.013 C 
ATOM     13  C   UNL     1      -1.415  31.336  45.749  1.00  0.00     0.017 C 
ATOM     14  C   UNL     1      -3.167  32.730  44.458  1.00  0.00    -0.064 C 
ATOM     15  C   UNL     1      -3.073  32.859  41.990  1.00  0.00     0.032 C 
ATOM     16  C   UNL     1      -3.780  33.160  43.302  1.00  0.00    -0.064 C 
ATOM     17  C   UNL     1      -3.535  33.318  45.834  1.00  0.00     0.032 C 
ATOM     18  C   UNL     1      -4.910  34.210  43.342  1.00  0.00    -0.008 C 
ATOM     19  C   UNL     1      -4.702  34.324  45.870  1.00  0.00     0.009 C 
ATOM     20  C   UNL     1      -5.667  34.035  44.714  1.00  0.00     0.009 C 
ATOM     21  C   UNL     1      -5.946  34.060  42.169  1.00  0.00     0.015 C 
ATOM     22  C   UNL     1      -4.178  35.578  43.193  1.00  0.00     0.016 C 
ATOM     23  C   UNL     1      -7.121  34.646  44.786  1.00  0.00     0.005 C 
ATOM     24  C   UNL     1      -7.208  33.277  42.546  1.00  0.00     0.047 C 
ATOM     25  C   UNL     1      -8.020  33.937  43.693  1.00  0.00     0.182 C 
ATOM     26  C   UNL     1      -7.139  36.177  44.557  1.00  0.00     0.015 C 
ATOM     27  C   UNL     1      -7.729  34.413  46.200  1.00  0.00     0.015 C 
BRANCH   7  28
ATOM     28  O   UNL     1      -1.392  28.455  42.964  1.00  0.00    -0.393 OA
ATOM     29  H   UNL     1      -2.224  28.006  43.255  1.00  0.00     0.210 HD
ENDBRANCH   7  28
BRANCH  25  30
ATOM     30  O   UNL     1      -8.835  32.925  44.298  1.00  0.00    -0.462 OA
BRANCH  30  31
ATOM     31  C   UNL     1      -8.650  31.549  44.133  1.00  0.00     0.302 C 
ATOM     32  O   UNL     1      -9.318  30.894  43.284  1.00  0.00    -0.253 OA
ATOM     33  C   UNL     1      -7.595  30.856  44.927  1.00  0.00     0.139 C 
ENDBRANCH  30  31
ENDBRANCH  25  30
ENDBRANCH   2   6
ENDBRANCH   1   2
BRANCH   1  34
ATOM     34  C   UNL     1       2.937  30.260  44.664  1.00  0.00     0.031 C 
BRANCH  34  35
ATOM     35  C   UNL     1       2.332  30.378  46.044  1.00  0.00    -0.075 C 
ATOM     36  C   UNL     1       2.205  31.587  46.621  1.00  0.00     0.008 C 
BRANCH  35  37
ATOM     37  C   UNL     1       1.885  29.110  46.761  1.00  0.00     0.008 C 
ATOM     38  C   UNL     1       3.096  28.239  47.128  1.00  0.00     0.012 C 
ATOM     39  C   UNL     1       1.031  29.424  47.997  1.00  0.00     0.012 C 
ENDBRANCH  35  37
ENDBRANCH  34  35
ENDBRANCH   1  34
TORSDOF 9
ENDMDL
MODEL 2
REMARK VINA RESULT:    -5.538      4.698      7.784
REMARK INTER + INTRA:          -9.649
REMARK INTER:                  -8.212
REMARK INTRA:                  -1.437
REMARK UNBOUND:                -1.359
REMARK SMILES C=C(CC[C@H](C(=O)[O-])[C@H]1[C@@H](O)C[C@]2(C)C3=C(CC[C@]12C)[C@@]1(C)CC[C@@H](OC(C)=O)C(C)(C)[C@@H]1CC3)C(C)C
REMARK SMILES IDX 4 1 5 2 6 3 7 4 8 5 9 6 10 7 19 8 12 9 13 10 18 11 20 12
REMARK SMILES IDX 14 13 15 14 17 15 16 16 35 17 21 18 34 19 33 20 23 21 22 22
REMARK SMILES IDX 30 23 24 24 25 25 31 26 32 27 11 28 26 30 27 31 29 32 28 33
REMARK SMILES IDX 3 34 2 35 1 36 36 37 37 38 38 39
REMARK H PARENT 11 29
REMARK Flexibility Score: inf
ROOT
ATOM      1  C   UNL     1      -4.094  37.371  45.266  1.00  0.00     0.014 C 
ENDROOT
BRANCH   1   2
ATOM      2  C   UNL     1      -3.975  36.534  43.952  1.00  0.00     0.042 C 
BRANCH   2   3
ATOM      3  C   UNL     1      -3.758  37.541  42.835  1.00  0.00     0.045 C 
ATOM      4  O   UNL     1      -4.679  37.792  42.009  1.00  0.00    -0.550 OA
ATOM      5  O   UNL     1      -2.526  38.177  42.697  1.00  0.00    -0.550 OA
ENDBRANCH   2   3
BRANCH   2   6
ATOM      6  C   UNL     1      -5.234  35.630  43.570  1.00  0.00     0.033 C 
ATOM      7  C   UNL     1      -4.955  34.665  42.368  1.00  0.00     0.119 C 
ATOM      8  C   UNL     1      -5.970  34.697  44.628  1.00  0.00    -0.017 C 
ATOM      9  C   UNL     1      -5.010  33.217  42.874  1.00  0.00     0.043 C 
ATOM     10  C   UNL     1      -5.426  33.231  44.364  1.00  0.00    -0.003 C 
ATOM     11  C   UNL     1      -7.529  34.779  44.367  1.00  0.00     0.012 C 
ATOM     12  C   UNL     1      -5.802  35.094  46.116  1.00  0.00     0.013 C 
ATOM     13  C   UNL     1      -4.134  32.923  45.189  1.00  0.00     0.017 C 
ATOM     14  C   UNL     1      -6.534  32.163  44.605  1.00  0.00    -0.064 C 
ATOM     15  C   UNL     1      -8.067  33.702  43.422  1.00  0.00     0.032 C 
ATOM     16  C   UNL     1      -7.753  32.325  43.985  1.00  0.00    -0.064 C 
ATOM     17  C   UNL     1      -6.266  30.989  45.565  1.00  0.00     0.032 C 
ATOM     18  C   UNL     1      -8.887  31.297  44.177  1.00  0.00    -0.008 C 
ATOM     19  C   UNL     1      -7.384  29.938  45.707  1.00  0.00     0.009 C 
ATOM     20  C   UNL     1      -8.214  29.892  44.418  1.00  0.00     0.009 C 
ATOM     21  C   UNL     1      -9.853  31.190  42.941  1.00  0.00     0.015 C 
ATOM     22  C   UNL     1      -9.695  31.830  45.399  1.00  0.00     0.016 C 
ATOM     23  C   UNL     1      -9.131  28.631  44.167  1.00  0.00     0.005 C 
ATOM     24  C   UNL     1      -9.519  30.040  41.984  1.00  0.00     0.047 C 
ATOM     25  C   UNL     1      -9.599  28.643  42.655  1.00  0.00     0.182 C 
ATOM     26  C   UNL     1     -10.373  28.600  45.092  1.00  0.00     0.015 C 
ATOM     27  C   UNL     1      -8.338  27.326  44.464  1.00  0.00     0.015 C 
BRANCH   7  28
ATOM     28  O   UNL     1      -3.723  34.898  41.727  1.00  0.00    -0.393 OA
ATOM     29  H   UNL     1      -3.919  35.161  40.794  1.00  0.00     0.210 HD
ENDBRANCH   7  28
BRANCH  25  30
ATOM     30  O   UNL     1      -8.804  27.734  41.881  1.00  0.00    -0.462 OA
BRANCH  30  31
ATOM     31  C   UNL     1      -9.312  26.843  40.931  1.00  0.00     0.302 C 
ATOM     32  O   UNL     1      -8.571  26.343  40.038  1.00  0.00    -0.253 OA
ATOM     33  C   UNL     1     -10.740  26.423  41.018  1.00  0.00     0.139 C 
ENDBRANCH  30  31
ENDBRANCH  25  30
ENDBRANCH   2   6
ENDBRANCH   1   2
BRANCH   1  34
ATOM     34  C   UNL     1      -4.922  38.679  45.129  1.00  0.00     0.031 C 
BRANCH  34  35
ATOM     35  C   UNL     1      -6.125  38.690  46.043  1.00  0.00    -0.075 C 
ATOM     36  C   UNL     1      -5.956  38.616  47.376  1.00  0.00     0.008 C 
BRANCH  35  37
ATOM     37  C   UNL     1      -7.516  38.773  45.426  1.00  0.00     0.008 C 
ATOM     38  C   UNL     1      -7.453  38.520  43.912  1.00  0.00     0.012 C 
ATOM     39  C   UNL     1      -8.501  37.815  46.110  1.00  0.00     0.012 C 
ENDBRANCH  35  37
ENDBRANCH  34  35
ENDBRANCH   1  34
TORSDOF 9
ENDMDL
MODEL 3
REMARK VINA RESULT:    -5.478      1.163      1.777
REMARK INTER + INTRA:          -9.560
REMARK INTER:                  -8.606
REMARK INTRA:                  -0.953
REMARK UNBOUND:                -1.359
REMARK SMILES C=C(CC[C@H](C(=O)[O-])[C@H]1[C@@H](O)C[C@]2(C)C3=C(CC[C@]12C)[C@@]1(C)CC[C@@H](OC(C)=O)C(C)(C)[C@@H]1CC3)C(C)C
REMARK SMILES IDX 4 1 5 2 6 3 7 4 8 5 9 6 10 7 19 8 12 9 13 10 18 11 20 12
REMARK SMILES IDX 14 13 15 14 17 15 16 16 35 17 21 18 34 19 33 20 23 21 22 22
REMARK SMILES IDX 30 23 24 24 25 25 31 26 32 27 11 28 26 30 27 31 29 32 28 33
REMARK SMILES IDX 3 34 2 35 1 36 36 37 37 38 38 39
REMARK H PARENT 11 29
REMARK Flexibility Score: inf
ROOT
ATOM      1  C   UNL     1       2.258  30.834  43.410  1.00  0.00     0.014 C 
ENDROOT
BRANCH   1   2
ATOM      2  C   UNL     1       1.074  29.914  42.973  1.00  0.00     0.042 C 
BRANCH   2   3
ATOM      3  C   UNL     1       1.569  29.146  41.759  1.00  0.00     0.045 C 
ATOM      4  O   UNL     1       2.713  29.377  41.276  1.00  0.00    -0.550 OA
ATOM      5  O   UNL     1       0.752  28.196  41.151  1.00  0.00    -0.550 OA
ENDBRANCH   2   3
BRANCH   2   6
ATOM      6  C   UNL     1      -0.287  30.649  42.576  1.00  0.00     0.033 C 
ATOM      7  C   UNL     1      -1.561  29.798  42.902  1.00  0.00     0.119 C 
ATOM      8  C   UNL     1      -0.665  32.098  43.114  1.00  0.00    -0.017 C 
ATOM      9  C   UNL     1      -2.366  30.512  43.997  1.00  0.00     0.043 C 
ATOM     10  C   UNL     1      -1.683  31.865  44.306  1.00  0.00    -0.003 C 
ATOM     11  C   UNL     1      -1.347  32.905  41.935  1.00  0.00     0.012 C 
ATOM     12  C   UNL     1       0.522  32.987  43.559  1.00  0.00     0.013 C 
ATOM     13  C   UNL     1      -0.954  31.691  45.679  1.00  0.00     0.017 C 
ATOM     14  C   UNL     1      -2.758  32.990  44.362  1.00  0.00    -0.064 C 
ATOM     15  C   UNL     1      -2.873  32.797  41.899  1.00  0.00     0.032 C 
ATOM     16  C   UNL     1      -3.452  33.298  43.213  1.00  0.00    -0.064 C 
ATOM     17  C   UNL     1      -2.984  33.766  45.674  1.00  0.00     0.032 C 
ATOM     18  C   UNL     1      -4.536  34.396  43.206  1.00  0.00    -0.008 C 
ATOM     19  C   UNL     1      -4.106  34.822  45.672  1.00  0.00     0.009 C 
ATOM     20  C   UNL     1      -5.177  34.434  44.645  1.00  0.00     0.009 C 
ATOM     21  C   UNL     1      -5.674  34.146  42.151  1.00  0.00     0.015 C 
ATOM     22  C   UNL     1      -3.770  35.697  42.819  1.00  0.00     0.016 C 
ATOM     23  C   UNL     1      -6.597  35.117  44.754  1.00  0.00     0.005 C 
ATOM     24  C   UNL     1      -6.927  33.479  42.728  1.00  0.00     0.047 C 
ATOM     25  C   UNL     1      -7.611  34.318  43.840  1.00  0.00     0.182 C 
ATOM     26  C   UNL     1      -6.578  36.606  44.328  1.00  0.00     0.015 C 
ATOM     27  C   UNL     1      -7.088  35.096  46.231  1.00  0.00     0.015 C 
BRANCH   7  28
ATOM     28  O   UNL     1      -1.276  28.479  43.305  1.00  0.00    -0.393 OA
ATOM     29  H   UNL     1      -1.355  28.446  44.291  1.00  0.00     0.210 HD
ENDBRANCH   7  28
BRANCH  25  30
ATOM     30  O   UNL     1      -8.408  33.431  44.637  1.00  0.00    -0.462 OA
BRANCH  30  31
ATOM     31  C   UNL     1      -9.059  32.293  44.153  1.00  0.00     0.302 C 
ATOM     32  O   UNL     1     -10.011  32.381  43.328  1.00  0.00    -0.253 OA
ATOM     33  C   UNL     1      -8.573  30.946  44.569  1.00  0.00     0.139 C 
ENDBRANCH  30  31
ENDBRANCH  25  30
ENDBRANCH   2   6
ENDBRANCH   1   2
BRANCH   1  34
ATOM     34  C   UNL     1       2.829  30.530  44.822  1.00  0.00     0.031 C 
BRANCH  34  35
ATOM     35  C   UNL     1       3.457  31.749  45.458  1.00  0.00    -0.075 C 
ATOM     36  C   UNL     1       3.051  32.156  46.675  1.00  0.00     0.008 C 
BRANCH  35  37
ATOM     37  C   UNL     1       4.536  32.505  44.692  1.00  0.00     0.008 C 
ATOM     38  C   UNL     1       4.086  33.945  44.401  1.00  0.00     0.012 C 
ATOM     39  C   UNL     1       5.881  32.480  45.429  1.00  0.00     0.012 C 
ENDBRANCH  35  37
ENDBRANCH  34  35
ENDBRANCH   1  34
TORSDOF 9
ENDMDL
MODEL 4
REMARK VINA RESULT:    -5.403      4.509      8.392
REMARK INTER + INTRA:          -9.447
REMARK INTER:                  -8.299
REMARK INTRA:                  -1.149
REMARK UNBOUND:                -1.359
REMARK SMILES C=C(CC[C@H](C(=O)[O-])[C@H]1[C@@H](O)C[C@]2(C)C3=C(CC[C@]12C)[C@@]1(C)CC[C@@H](OC(C)=O)C(C)(C)[C@@H]1CC3)C(C)C
REMARK SMILES IDX 4 1 5 2 6 3 7 4 8 5 9 6 10 7 19 8 12 9 13 10 18 11 20 12
REMARK SMILES IDX 14 13 15 14 17 15 16 16 35 17 21 18 34 19 33 20 23 21 22 22
REMARK SMILES IDX 30 23 24 24 25 25 31 26 32 27 11 28 26 30 27 31 29 32 28 33
REMARK SMILES IDX 3 34 2 35 1 36 36 37 37 38 38 39
REMARK H PARENT 11 29
REMARK Flexibility Score: inf
ROOT
ATOM      1  C   UNL     1      -2.269  29.876  43.730  1.00  0.00     0.014 C 
ENDROOT
BRANCH   1   2
ATOM      2  C   UNL     1      -1.868  28.798  44.787  1.00  0.00     0.042 C 
BRANCH   2   3
ATOM      3  C   UNL     1      -3.135  28.009  45.078  1.00  0.00     0.045 C 
ATOM      4  O   UNL     1      -3.077  26.901  45.680  1.00  0.00    -0.550 OA
ATOM      5  O   UNL     1      -4.371  28.492  44.656  1.00  0.00    -0.550 OA
ENDBRANCH   2   3
BRANCH   2   6
ATOM      6  C   UNL     1      -1.291  29.342  46.172  1.00  0.00     0.033 C 
ATOM      7  C   UNL     1       0.267  29.489  46.172  1.00  0.00     0.119 C 
ATOM      8  C   UNL     1      -1.790  30.702  46.832  1.00  0.00    -0.017 C 
ATOM      9  C   UNL     1       0.624  30.978  46.294  1.00  0.00     0.043 C 
ATOM     10  C   UNL     1      -0.684  31.783  46.482  1.00  0.00    -0.003 C 
ATOM     11  C   UNL     1      -1.897  30.487  48.396  1.00  0.00     0.012 C 
ATOM     12  C   UNL     1      -3.198  31.186  46.407  1.00  0.00     0.013 C 
ATOM     13  C   UNL     1      -0.966  32.495  45.118  1.00  0.00     0.017 C 
ATOM     14  C   UNL     1      -0.504  32.806  47.642  1.00  0.00    -0.064 C 
ATOM     15  C   UNL     1      -0.635  30.869  49.173  1.00  0.00     0.032 C 
ATOM     16  C   UNL     1      -0.299  32.329  48.917  1.00  0.00    -0.064 C 
ATOM     17  C   UNL     1      -0.612  34.315  47.352  1.00  0.00     0.032 C 
ATOM     18  C   UNL     1      -0.105  33.293  50.106  1.00  0.00    -0.008 C 
ATOM     19  C   UNL     1      -0.362  35.270  48.535  1.00  0.00     0.009 C 
ATOM     20  C   UNL     1       0.576  34.600  49.548  1.00  0.00     0.009 C 
ATOM     21  C   UNL     1       0.798  32.702  51.250  1.00  0.00     0.015 C 
ATOM     22  C   UNL     1      -1.542  33.516  50.667  1.00  0.00     0.016 C 
ATOM     23  C   UNL     1       1.299  35.515  50.612  1.00  0.00     0.005 C 
ATOM     24  C   UNL     1       2.265  33.139  51.178  1.00  0.00     0.047 C 
ATOM     25  C   UNL     1       2.453  34.675  51.296  1.00  0.00     0.182 C 
ATOM     26  C   UNL     1       0.333  36.047  51.699  1.00  0.00     0.015 C 
ATOM     27  C   UNL     1       1.901  36.770  49.917  1.00  0.00     0.015 C 
BRANCH   7  28
ATOM     28  O   UNL     1       0.890  28.945  45.032  1.00  0.00    -0.393 OA
ATOM     29  H   UNL     1       1.609  29.568  44.759  1.00  0.00     0.210 HD
ENDBRANCH   7  28
BRANCH  25  30
ATOM     30  O   UNL     1       3.722  35.011  50.719  1.00  0.00    -0.462 OA
BRANCH  30  31
ATOM     31  C   UNL     1       4.900  35.209  51.446  1.00  0.00     0.302 C 
ATOM     32  O   UNL     1       5.579  34.234  51.874  1.00  0.00    -0.253 OA
ATOM     33  C   UNL     1       5.399  36.598  51.657  1.00  0.00     0.139 C 
ENDBRANCH  30  31
ENDBRANCH  25  30
ENDBRANCH   2   6
ENDBRANCH   1   2
BRANCH   1  34
ATOM     34  C   UNL     1      -1.880  29.527  42.267  1.00  0.00     0.031 C 
BRANCH  34  35
ATOM     35  C   UNL     1      -0.423  29.809  41.982  1.00  0.00    -0.075 C 
ATOM     36  C   UNL     1       0.041  31.071  42.040  1.00  0.00     0.008 C 
BRANCH  35  37
ATOM     37  C   UNL     1       0.494  28.647  41.621  1.00  0.00     0.008 C 
ATOM     38  C   UNL     1      -0.033  27.906  40.382  1.00  0.00     0.012 C 
ATOM     39  C   UNL     1       1.944  29.106  41.419  1.00  0.00     0.012 C 
ENDBRANCH  35  37
ENDBRANCH  34  35
ENDBRANCH   1  34
TORSDOF 9
ENDMDL
MODEL 5
REMARK VINA RESULT:    -5.367      8.350     10.648
REMARK INTER + INTRA:          -9.393
REMARK INTER:                  -8.243
REMARK INTRA:                  -1.151
REMARK UNBOUND:                -1.359
REMARK SMILES C=C(CC[C@H](C(=O)[O-])[C@H]1[C@@H](O)C[C@]2(C)C3=C(CC[C@]12C)[C@@]1(C)CC[C@@H](OC(C)=O)C(C)(C)[C@@H]1CC3)C(C)C
REMARK SMILES IDX 4 1 5 2 6 3 7 4 8 5 9 6 10 7 19 8 12 9 13 10 18 11 20 12
REMARK SMILES IDX 14 13 15 14 17 15 16 16 35 17 21 18 34 19 33 20 23 21 22 22
REMARK SMILES IDX 30 23 24 24 25 25 31 26 32 27 11 28 26 30 27 31 29 32 28 33
REMARK SMILES IDX 3 34 2 35 1 36 36 37 37 38 38 39
REMARK H PARENT 11 29
REMARK Flexibility Score: inf
ROOT
ATOM      1  C   UNL     1      -5.492  27.412  46.626  1.00  0.00     0.014 C 
ENDROOT
BRANCH   1   2
ATOM      2  C   UNL     1      -4.609  26.416  47.444  1.00  0.00     0.042 C 
BRANCH   2   3
ATOM      3  C   UNL     1      -4.764  25.066  46.762  1.00  0.00     0.045 C 
ATOM      4  O   UNL     1      -5.908  24.557  46.600  1.00  0.00    -0.550 OA
ATOM      5  O   UNL     1      -3.640  24.366  46.334  1.00  0.00    -0.550 OA
ENDBRANCH   2   3
BRANCH   2   6
ATOM      6  C   UNL     1      -4.980  26.240  48.986  1.00  0.00     0.033 C 
ATOM      7  C   UNL     1      -3.981  26.973  49.944  1.00  0.00     0.119 C 
ATOM      8  C   UNL     1      -6.407  26.631  49.573  1.00  0.00    -0.017 C 
ATOM      9  C   UNL     1      -4.726  28.107  50.663  1.00  0.00     0.043 C 
ATOM     10  C   UNL     1      -6.219  28.048  50.260  1.00  0.00    -0.003 C 
ATOM     11  C   UNL     1      -6.826  25.537  50.637  1.00  0.00     0.012 C 
ATOM     12  C   UNL     1      -7.575  26.655  48.557  1.00  0.00     0.013 C 
ATOM     13  C   UNL     1      -6.455  29.225  49.258  1.00  0.00     0.017 C 
ATOM     14  C   UNL     1      -7.107  28.184  51.532  1.00  0.00    -0.064 C 
ATOM     15  C   UNL     1      -6.424  25.870  52.075  1.00  0.00     0.032 C 
ATOM     16  C   UNL     1      -7.049  27.194  52.487  1.00  0.00    -0.064 C 
ATOM     17  C   UNL     1      -8.064  29.384  51.669  1.00  0.00     0.032 C 
ATOM     18  C   UNL     1      -7.898  27.276  53.772  1.00  0.00    -0.008 C 
ATOM     19  C   UNL     1      -8.866  29.486  52.981  1.00  0.00     0.009 C 
ATOM     20  C   UNL     1      -8.090  28.803  54.114  1.00  0.00     0.009 C 
ATOM     21  C   UNL     1      -7.237  26.560  55.007  1.00  0.00     0.015 C 
ATOM     22  C   UNL     1      -9.222  26.535  53.414  1.00  0.00     0.016 C 
ATOM     23  C   UNL     1      -8.498  29.134  55.603  1.00  0.00     0.005 C 
ATOM     24  C   UNL     1      -6.466  27.503  55.937  1.00  0.00     0.047 C 
ATOM     25  C   UNL     1      -7.358  28.607  56.566  1.00  0.00     0.182 C 
ATOM     26  C   UNL     1      -9.851  28.501  56.008  1.00  0.00     0.015 C 
ATOM     27  C   UNL     1      -8.669  30.671  55.780  1.00  0.00     0.015 C 
BRANCH   7  28
ATOM     28  O   UNL     1      -2.844  27.489  49.294  1.00  0.00    -0.393 OA
ATOM     29  H   UNL     1      -2.462  26.763  48.742  1.00  0.00     0.210 HD
ENDBRANCH   7  28
BRANCH  25  30
ATOM     30  O   UNL     1      -6.507  29.688  56.969  1.00  0.00    -0.462 OA
BRANCH  30  31
ATOM     31  C   UNL     1      -5.838  29.761  58.194  1.00  0.00     0.302 C 
ATOM     32  O   UNL     1      -5.010  28.873  58.545  1.00  0.00    -0.253 OA
ATOM     33  C   UNL     1      -6.057  30.946  59.072  1.00  0.00     0.139 C 
ENDBRANCH  30  31
ENDBRANCH  25  30
ENDBRANCH   2   6
ENDBRANCH   1   2
BRANCH   1  34
ATOM     34  C   UNL     1      -4.745  28.152  45.482  1.00  0.00     0.031 C 
BRANCH  34  35
ATOM     35  C   UNL     1      -3.642  29.044  46.005  1.00  0.00    -0.075 C 
ATOM     36  C   UNL     1      -3.924  30.000  46.909  1.00  0.00     0.008 C 
BRANCH  35  37
ATOM     37  C   UNL     1      -2.225  28.845  45.481  1.00  0.00     0.008 C 
ATOM     38  C   UNL     1      -1.193  29.252  46.544  1.00  0.00     0.012 C 
ATOM     39  C   UNL     1      -1.992  27.406  45.001  1.00  0.00     0.012 C 
ENDBRANCH  35  37
ENDBRANCH  34  35
ENDBRANCH   1  34
TORSDOF 9
ENDMDL
MODEL 6
REMARK VINA RESULT:    -5.291      2.893      5.354
REMARK INTER + INTRA:          -9.280
REMARK INTER:                  -7.964
REMARK INTRA:                  -1.316
REMARK UNBOUND:                -1.359
REMARK SMILES C=C(CC[C@H](C(=O)[O-])[C@H]1[C@@H](O)C[C@]2(C)C3=C(CC[C@]12C)[C@@]1(C)CC[C@@H](OC(C)=O)C(C)(C)[C@@H]1CC3)C(C)C
REMARK SMILES IDX 4 1 5 2 6 3 7 4 8 5 9 6 10 7 19 8 12 9 13 10 18 11 20 12
REMARK SMILES IDX 14 13 15 14 17 15 16 16 35 17 21 18 34 19 33 20 23 21 22 22
REMARK SMILES IDX 30 23 24 24 25 25 31 26 32 27 11 28 26 30 27 31 29 32 28 33
REMARK SMILES IDX 3 34 2 35 1 36 36 37 37 38 38 39
REMARK H PARENT 11 29
REMARK Flexibility Score: inf
ROOT
ATOM      1  C   UNL     1      -2.266  29.970  43.338  1.00  0.00     0.014 C 
ENDROOT
BRANCH   1   2
ATOM      2  C   UNL     1      -1.765  30.233  44.794  1.00  0.00     0.042 C 
BRANCH   2   3
ATOM      3  C   UNL     1      -2.035  28.951  45.565  1.00  0.00     0.045 C 
ATOM      4  O   UNL     1      -2.486  28.994  46.743  1.00  0.00    -0.550 OA
ATOM      5  O   UNL     1      -1.761  27.716  44.984  1.00  0.00    -0.550 OA
ENDBRANCH   2   3
BRANCH   2   6
ATOM      6  C   UNL     1      -2.457  31.440  45.575  1.00  0.00     0.033 C 
ATOM      7  C   UNL     1      -1.657  32.781  45.465  1.00  0.00     0.119 C 
ATOM      8  C   UNL     1      -3.961  31.885  45.304  1.00  0.00    -0.017 C 
ATOM      9  C   UNL     1      -2.496  33.795  44.673  1.00  0.00     0.043 C 
ATOM     10  C   UNL     1      -3.872  33.158  44.363  1.00  0.00    -0.003 C 
ATOM     11  C   UNL     1      -4.632  32.249  46.690  1.00  0.00     0.012 C 
ATOM     12  C   UNL     1      -4.889  30.805  44.694  1.00  0.00     0.013 C 
ATOM     13  C   UNL     1      -3.852  32.773  42.848  1.00  0.00     0.017 C 
ATOM     14  C   UNL     1      -5.002  34.181  44.685  1.00  0.00    -0.064 C 
ATOM     15  C   UNL     1      -4.530  33.728  47.070  1.00  0.00     0.032 C 
ATOM     16  C   UNL     1      -5.180  34.580  45.991  1.00  0.00    -0.064 C 
ATOM     17  C   UNL     1      -5.924  34.679  43.555  1.00  0.00     0.032 C 
ATOM     18  C   UNL     1      -6.277  35.596  46.371  1.00  0.00    -0.008 C 
ATOM     19  C   UNL     1      -6.980  35.735  43.935  1.00  0.00     0.009 C 
ATOM     20  C   UNL     1      -6.483  36.552  45.135  1.00  0.00     0.009 C 
ATOM     21  C   UNL     1      -5.915  36.467  47.629  1.00  0.00     0.015 C 
ATOM     22  C   UNL     1      -7.521  34.720  46.709  1.00  0.00     0.016 C 
ATOM     23  C   UNL     1      -7.183  37.935  45.436  1.00  0.00     0.005 C 
ATOM     24  C   UNL     1      -5.325  37.840  47.291  1.00  0.00     0.047 C 
ATOM     25  C   UNL     1      -6.289  38.736  46.469  1.00  0.00     0.182 C 
ATOM     26  C   UNL     1      -8.612  37.770  46.007  1.00  0.00     0.015 C 
ATOM     27  C   UNL     1      -7.334  38.755  44.122  1.00  0.00     0.015 C 
BRANCH   7  28
ATOM     28  O   UNL     1      -0.392  32.641  44.864  1.00  0.00    -0.393 OA
ATOM     29  H   UNL     1       0.056  33.522  44.904  1.00  0.00     0.210 HD
ENDBRANCH   7  28
BRANCH  25  30
ATOM     30  O   UNL     1      -5.505  39.723  45.787  1.00  0.00    -0.462 OA
BRANCH  30  31
ATOM     31  C   UNL     1      -4.131  39.623  45.549  1.00  0.00     0.302 C 
ATOM     32  O   UNL     1      -3.288  40.124  46.345  1.00  0.00    -0.253 OA
ATOM     33  C   UNL     1      -3.652  38.850  44.367  1.00  0.00     0.139 C 
ENDBRANCH  30  31
ENDBRANCH  25  30
ENDBRANCH   2   6
ENDBRANCH   1   2
BRANCH   1  34
ATOM     34  C   UNL     1      -1.274  30.399  42.222  1.00  0.00     0.031 C 
BRANCH  34  35
ATOM     35  C   UNL     1      -0.064  29.495  42.158  1.00  0.00    -0.075 C 
ATOM     36  C   UNL     1      -0.219  28.181  41.912  1.00  0.00     0.008 C 
BRANCH  35  37
ATOM     37  C   UNL     1       1.317  30.098  42.388  1.00  0.00     0.008 C 
ATOM     38  C   UNL     1       1.738  29.944  43.858  1.00  0.00     0.012 C 
ATOM     39  C   UNL     1       2.366  29.497  41.443  1.00  0.00     0.012 C 
ENDBRANCH  35  37
ENDBRANCH  34  35
ENDBRANCH   1  34
TORSDOF 9
ENDMDL
MODEL 7
REMARK VINA RESULT:    -5.051      2.559      4.192
REMARK INTER + INTRA:          -8.921
REMARK INTER:                  -7.549
REMARK INTRA:                  -1.371
REMARK UNBOUND:                -1.359
REMARK SMILES C=C(CC[C@H](C(=O)[O-])[C@H]1[C@@H](O)C[C@]2(C)C3=C(CC[C@]12C)[C@@]1(C)CC[C@@H](OC(C)=O)C(C)(C)[C@@H]1CC3)C(C)C
REMARK SMILES IDX 4 1 5 2 6 3 7 4 8 5 9 6 10 7 19 8 12 9 13 10 18 11 20 12
REMARK SMILES IDX 14 13 15 14 17 15 16 16 35 17 21 18 34 19 33 20 23 21 22 22
REMARK SMILES IDX 30 23 24 24 25 25 31 26 32 27 11 28 26 30 27 31 29 32 28 33
REMARK SMILES IDX 3 34 2 35 1 36 36 37 37 38 38 39
REMARK H PARENT 11 29
REMARK Flexibility Score: inf
ROOT
ATOM      1  C   UNL     1       0.146  33.710  44.098  1.00  0.00     0.014 C 
ENDROOT
BRANCH   1   2
ATOM      2  C   UNL     1      -0.499  34.607  42.993  1.00  0.00     0.042 C 
BRANCH   2   3
ATOM      3  C   UNL     1      -0.123  36.037  43.346  1.00  0.00     0.045 C 
ATOM      4  O   UNL     1      -0.940  36.981  43.158  1.00  0.00    -0.550 OA
ATOM      5  O   UNL     1       1.142  36.321  43.855  1.00  0.00    -0.550 OA
ENDBRANCH   2   3
BRANCH   2   6
ATOM      6  C   UNL     1      -2.087  34.530  42.854  1.00  0.00     0.033 C 
ATOM      7  C   UNL     1      -2.560  33.462  41.811  1.00  0.00     0.119 C 
ATOM      8  C   UNL     1      -3.044  34.277  44.100  1.00  0.00    -0.017 C 
ATOM      9  C   UNL     1      -3.317  32.349  42.551  1.00  0.00     0.043 C 
ATOM     10  C   UNL     1      -3.431  32.740  44.044  1.00  0.00    -0.003 C 
ATOM     11  C   UNL     1      -4.326  35.190  43.938  1.00  0.00     0.012 C 
ATOM     12  C   UNL     1      -2.468  34.656  45.487  1.00  0.00     0.013 C 
ATOM     13  C   UNL     1      -2.407  31.845  44.816  1.00  0.00     0.017 C 
ATOM     14  C   UNL     1      -4.890  32.504  44.534  1.00  0.00    -0.064 C 
ATOM     15  C   UNL     1      -5.497  34.512  43.223  1.00  0.00     0.032 C 
ATOM     16  C   UNL     1      -5.902  33.258  43.982  1.00  0.00    -0.064 C 
ATOM     17  C   UNL     1      -5.163  31.481  45.653  1.00  0.00     0.032 C 
ATOM     18  C   UNL     1      -7.369  33.064  44.420  1.00  0.00    -0.008 C 
ATOM     19  C   UNL     1      -6.636  31.255  46.044  1.00  0.00     0.009 C 
ATOM     20  C   UNL     1      -7.540  31.555  44.841  1.00  0.00     0.009 C 
ATOM     21  C   UNL     1      -8.409  33.395  43.288  1.00  0.00     0.015 C 
ATOM     22  C   UNL     1      -7.563  34.075  45.590  1.00  0.00     0.016 C 
ATOM     23  C   UNL     1      -9.020  31.006  44.865  1.00  0.00     0.005 C 
ATOM     24  C   UNL     1      -8.901  32.168  42.513  1.00  0.00     0.047 C 
ATOM     25  C   UNL     1      -9.626  31.128  43.408  1.00  0.00     0.182 C 
ATOM     26  C   UNL     1      -9.924  31.765  45.867  1.00  0.00     0.015 C 
ATOM     27  C   UNL     1      -9.029  29.516  45.317  1.00  0.00     0.015 C 
BRANCH   7  28
ATOM     28  O   UNL     1      -1.512  32.901  41.056  1.00  0.00    -0.393 OA
ATOM     29  H   UNL     1      -0.771  33.556  41.044  1.00  0.00     0.210 HD
ENDBRANCH   7  28
BRANCH  25  30
ATOM     30  O   UNL     1      -9.578  29.860  42.741  1.00  0.00    -0.462 OA
BRANCH  30  31
ATOM     31  C   UNL     1     -10.694  29.180  42.242  1.00  0.00     0.302 C 
ATOM     32  O   UNL     1     -10.638  28.530  41.161  1.00  0.00    -0.253 OA
ATOM     33  C   UNL     1     -11.954  29.168  43.040  1.00  0.00     0.139 C 
ENDBRANCH  30  31
ENDBRANCH  25  30
ENDBRANCH   2   6
ENDBRANCH   1   2
BRANCH   1  34
ATOM     34  C   UNL     1       1.336  32.837  43.612  1.00  0.00     0.031 C 
BRANCH  34  35
ATOM     35  C   UNL     1       1.044  31.359  43.731  1.00  0.00    -0.075 C 
ATOM     36  C   UNL     1       1.068  30.765  44.939  1.00  0.00     0.008 C 
BRANCH  35  37
ATOM     37  C   UNL     1       0.738  30.566  42.467  1.00  0.00     0.008 C 
ATOM     38  C   UNL     1       2.021  29.944  41.893  1.00  0.00     0.012 C 
ATOM     39  C   UNL     1      -0.337  29.498  42.710  1.00  0.00     0.012 C 
ENDBRANCH  35  37
ENDBRANCH  34  35
ENDBRANCH   1  34
TORSDOF 9
ENDMDL
MODEL 8
REMARK VINA RESULT:    -4.981      5.597      7.944
REMARK INTER + INTRA:          -8.816
REMARK INTER:                  -7.505
REMARK INTRA:                  -1.311
REMARK UNBOUND:                -1.359
REMARK SMILES C=C(CC[C@H](C(=O)[O-])[C@H]1[C@@H](O)C[C@]2(C)C3=C(CC[C@]12C)[C@@]1(C)CC[C@@H](OC(C)=O)C(C)(C)[C@@H]1CC3)C(C)C
REMARK SMILES IDX 4 1 5 2 6 3 7 4 8 5 9 6 10 7 19 8 12 9 13 10 18 11 20 12
REMARK SMILES IDX 14 13 15 14 17 15 16 16 35 17 21 18 34 19 33 20 23 21 22 22
REMARK SMILES IDX 30 23 24 24 25 25 31 26 32 27 11 28 26 30 27 31 29 32 28 33
REMARK SMILES IDX 3 34 2 35 1 36 36 37 37 38 38 39
REMARK H PARENT 11 29
REMARK Flexibility Score: inf
ROOT
ATOM      1  C   UNL     1      -4.186  37.867  43.923  1.00  0.00     0.014 C 
ENDROOT
BRANCH   1   2
ATOM      2  C   UNL     1      -5.298  38.375  44.896  1.00  0.00     0.042 C 
BRANCH   2   3
ATOM      3  C   UNL     1      -4.567  39.056  46.042  1.00  0.00     0.045 C 
ATOM      4  O   UNL     1      -3.454  39.620  45.849  1.00  0.00    -0.550 OA
ATOM      5  O   UNL     1      -5.110  39.039  47.324  1.00  0.00    -0.550 OA
ENDBRANCH   2   3
BRANCH   2   6
ATOM      6  C   UNL     1      -6.265  37.265  45.511  1.00  0.00     0.033 C 
ATOM      7  C   UNL     1      -7.558  37.038  44.658  1.00  0.00     0.119 C 
ATOM      8  C   UNL     1      -5.773  35.786  45.835  1.00  0.00    -0.017 C 
ATOM      9  C   UNL     1      -7.524  35.618  44.075  1.00  0.00     0.043 C 
ATOM     10  C   UNL     1      -6.276  34.889  44.628  1.00  0.00    -0.003 C 
ATOM     11  C   UNL     1      -6.436  35.328  47.197  1.00  0.00     0.012 C 
ATOM     12  C   UNL     1      -4.252  35.612  46.063  1.00  0.00     0.013 C 
ATOM     13  C   UNL     1      -5.238  34.836  43.460  1.00  0.00     0.017 C 
ATOM     14  C   UNL     1      -6.677  33.463  45.110  1.00  0.00    -0.064 C 
ATOM     15  C   UNL     1      -7.761  34.580  47.033  1.00  0.00     0.032 C 
ATOM     16  C   UNL     1      -7.548  33.345  46.170  1.00  0.00    -0.064 C 
ATOM     17  C   UNL     1      -6.056  32.227  44.433  1.00  0.00     0.032 C 
ATOM     18  C   UNL     1      -7.989  31.961  46.688  1.00  0.00    -0.008 C 
ATOM     19  C   UNL     1      -6.546  30.849  44.920  1.00  0.00     0.009 C 
ATOM     20  C   UNL     1      -7.976  30.972  45.461  1.00  0.00     0.009 C 
ATOM     21  C   UNL     1      -9.428  31.959  47.324  1.00  0.00     0.015 C 
ATOM     22  C   UNL     1      -6.952  31.609  47.797  1.00  0.00     0.016 C 
ATOM     23  C   UNL     1      -8.827  29.652  45.624  1.00  0.00     0.005 C 
ATOM     24  C   UNL     1     -10.534  31.506  46.365  1.00  0.00     0.047 C 
ATOM     25  C   UNL     1     -10.342  30.055  45.849  1.00  0.00     0.182 C 
ATOM     26  C   UNL     1      -8.346  28.771  46.802  1.00  0.00     0.015 C 
ATOM     27  C   UNL     1      -8.700  28.773  44.346  1.00  0.00     0.015 C 
BRANCH   7  28
ATOM     28  O   UNL     1      -7.726  37.973  43.619  1.00  0.00    -0.393 OA
ATOM     29  H   UNL     1      -8.290  37.549  42.925  1.00  0.00     0.210 HD
ENDBRANCH   7  28
BRANCH  25  30
ATOM     30  O   UNL     1     -11.080  29.918  44.628  1.00  0.00    -0.462 OA
BRANCH  30  31
ATOM     31  C   UNL     1     -12.398  29.460  44.541  1.00  0.00     0.302 C 
ATOM     32  O   UNL     1     -13.048  29.530  43.461  1.00  0.00    -0.253 OA
ATOM     33  C   UNL     1     -13.023  28.815  45.732  1.00  0.00     0.139 C 
ENDBRANCH  30  31
ENDBRANCH  25  30
ENDBRANCH   2   6
ENDBRANCH   1   2
BRANCH   1  34
ATOM     34  C   UNL     1      -4.433  38.200  42.425  1.00  0.00     0.031 C 
BRANCH  34  35
ATOM     35  C   UNL     1      -3.583  37.353  41.506  1.00  0.00    -0.075 C 
ATOM     36  C   UNL     1      -3.982  37.128  40.240  1.00  0.00     0.008 C 
BRANCH  35  37
ATOM     37  C   UNL     1      -2.288  36.758  42.043  1.00  0.00     0.008 C 
ATOM     38  C   UNL     1      -2.063  35.347  41.476  1.00  0.00     0.012 C 
ATOM     39  C   UNL     1      -1.084  37.667  41.764  1.00  0.00     0.012 C 
ENDBRANCH  35  37
ENDBRANCH  34  35
ENDBRANCH   1  34
TORSDOF 9
ENDMDL
MODEL 9
REMARK VINA RESULT:    -4.961      3.454      8.369
REMARK INTER + INTRA:          -8.786
REMARK INTER:                  -7.639
REMARK INTRA:                  -1.147
REMARK UNBOUND:                -1.359
REMARK SMILES C=C(CC[C@H](C(=O)[O-])[C@H]1[C@@H](O)C[C@]2(C)C3=C(CC[C@]12C)[C@@]1(C)CC[C@@H](OC(C)=O)C(C)(C)[C@@H]1CC3)C(C)C
REMARK SMILES IDX 4 1 5 2 6 3 7 4 8 5 9 6 10 7 19 8 12 9 13 10 18 11 20 12
REMARK SMILES IDX 14 13 15 14 17 15 16 16 35 17 21 18 34 19 33 20 23 21 22 22
REMARK SMILES IDX 30 23 24 24 25 25 31 26 32 27 11 28 26 30 27 31 29 32 28 33
REMARK SMILES IDX 3 34 2 35 1 36 36 37 37 38 38 39
REMARK H PARENT 11 29
REMARK Flexibility Score: inf
ROOT
ATOM      1  C   UNL     1      -4.750  37.366  42.473  1.00  0.00     0.014 C 
ENDROOT
BRANCH   1   2
ATOM      2  C   UNL     1      -3.219  37.460  42.173  1.00  0.00     0.042 C 
BRANCH   2   3
ATOM      3  C   UNL     1      -3.107  37.835  40.704  1.00  0.00     0.045 C 
ATOM      4  O   UNL     1      -3.983  37.460  39.877  1.00  0.00    -0.550 OA
ATOM      5  O   UNL     1      -2.016  38.574  40.253  1.00  0.00    -0.550 OA
ENDBRANCH   2   3
BRANCH   2   6
ATOM      6  C   UNL     1      -2.365  36.134  42.416  1.00  0.00     0.033 C 
ATOM      7  C   UNL     1      -1.593  36.144  43.778  1.00  0.00     0.119 C 
ATOM      8  C   UNL     1      -3.010  34.680  42.369  1.00  0.00    -0.017 C 
ATOM      9  C   UNL     1      -2.169  35.045  44.682  1.00  0.00     0.043 C 
ATOM     10  C   UNL     1      -3.232  34.256  43.880  1.00  0.00    -0.003 C 
ATOM     11  C   UNL     1      -1.991  33.706  41.650  1.00  0.00     0.012 C 
ATOM     12  C   UNL     1      -4.320  34.545  41.554  1.00  0.00     0.013 C 
ATOM     13  C   UNL     1      -4.626  34.713  44.423  1.00  0.00     0.017 C 
ATOM     14  C   UNL     1      -3.006  32.728  44.080  1.00  0.00    -0.064 C 
ATOM     15  C   UNL     1      -1.039  32.977  42.602  1.00  0.00     0.032 C 
ATOM     16  C   UNL     1      -1.842  32.165  43.606  1.00  0.00    -0.064 C 
ATOM     17  C   UNL     1      -4.102  31.876  44.747  1.00  0.00     0.032 C 
ATOM     18  C   UNL     1      -1.557  30.659  43.781  1.00  0.00    -0.008 C 
ATOM     19  C   UNL     1      -3.785  30.384  44.967  1.00  0.00     0.009 C 
ATOM     20  C   UNL     1      -2.269  30.195  45.108  1.00  0.00     0.009 C 
ATOM     21  C   UNL     1      -0.025  30.320  43.882  1.00  0.00     0.015 C 
ATOM     22  C   UNL     1      -2.131  30.001  42.490  1.00  0.00     0.016 C 
ATOM     23  C   UNL     1      -1.741  28.850  45.745  1.00  0.00     0.005 C 
ATOM     24  C   UNL     1       0.488  30.172  45.319  1.00  0.00     0.047 C 
ATOM     25  C   UNL     1      -0.211  29.031  46.105  1.00  0.00     0.182 C 
ATOM     26  C   UNL     1      -1.910  27.635  44.801  1.00  0.00     0.015 C 
ATOM     27  C   UNL     1      -2.550  28.515  47.031  1.00  0.00     0.015 C 
BRANCH   7  28
ATOM     28  O   UNL     1      -1.638  37.381  44.449  1.00  0.00    -0.393 OA
ATOM     29  H   UNL     1      -2.320  37.309  45.162  1.00  0.00     0.210 HD
ENDBRANCH   7  28
BRANCH  25  30
ATOM     30  O   UNL     1      -0.057  29.300  47.505  1.00  0.00    -0.462 OA
BRANCH  30  31
ATOM     31  C   UNL     1       0.312  30.536  48.043  1.00  0.00     0.302 C 
ATOM     32  O   UNL     1       1.506  30.776  48.378  1.00  0.00    -0.253 OA
ATOM     33  C   UNL     1      -0.712  31.613  48.159  1.00  0.00     0.139 C 
ENDBRANCH  30  31
ENDBRANCH  25  30
ENDBRANCH   2   6
ENDBRANCH   1   2
BRANCH   1  34
ATOM     34  C   UNL     1      -5.406  38.701  42.922  1.00  0.00     0.031 C 
BRANCH  34  35
ATOM     35  C   UNL     1      -5.923  38.633  44.341  1.00  0.00    -0.075 C 
ATOM     36  C   UNL     1      -5.065  38.437  45.359  1.00  0.00     0.008 C 
BRANCH  35  37
ATOM     37  C   UNL     1      -7.420  38.777  44.586  1.00  0.00     0.008 C 
ATOM     38  C   UNL     1      -8.048  37.415  44.923  1.00  0.00     0.012 C 
ATOM     39  C   UNL     1      -7.722  39.814  45.676  1.00  0.00     0.012 C 
ENDBRANCH  35  37
ENDBRANCH  34  35
ENDBRANCH   1  34
TORSDOF 9
ENDMDL
