MODEL 1
REMARK VINA RESULT:    -5.573      0.000      0.000
REMARK INTER + INTRA:          -6.834
REMARK INTER:                  -6.550
REMARK INTRA:                  -0.284
REMARK UNBOUND:                -0.284
REMARK SMILES O=c1cc(-c2ccc(O)c(O)c2)oc2cc(O)cc(O)c12
REMARK SMILES IDX 4 1 3 2 2 3 1 4 21 5 19 6 18 7 16 8 15 9 14 10 13 11 5 12
REMARK SMILES IDX 6 13 7 14 8 15 12 16 10 17 9 18 11 20 20 22 17 24
REMARK H PARENT 9 19 11 21 20 23 17 25
REMARK Flexibility Score: inf
ROOT
ATOM      1  C   UNL     1      -7.399  23.493  -9.487  1.00  0.00     0.138 A 
ATOM      2  C   UNL     1      -8.689  23.647  -8.953  1.00  0.00     0.100 A 
ATOM      3  C   UNL     1      -9.376  24.845  -9.152  1.00  0.00     0.197 A 
ATOM      4  O   UNL     1     -10.533  24.974  -8.668  1.00  0.00    -0.289 OA
ATOM      5  C   UNL     1      -8.765  25.885  -9.880  1.00  0.00     0.107 A 
ATOM      6  C   UNL     1      -9.391  27.130 -10.129  1.00  0.00     0.134 A 
ATOM      7  C   UNL     1      -8.712  28.116 -10.859  1.00  0.00     0.093 A 
ATOM      8  C   UNL     1      -7.420  27.880 -11.345  1.00  0.00     0.123 A 
ATOM      9  C   UNL     1      -6.799  26.653 -11.103  1.00  0.00     0.094 A 
ATOM     10  C   UNL     1      -7.459  25.657 -10.378  1.00  0.00     0.146 A 
ATOM     11  O   UNL     1      -6.846  24.498 -10.162  1.00  0.00    -0.456 OA
ENDROOT
BRANCH   1  12
ATOM     12  C   UNL     1      -6.622  22.242  -9.307  1.00  0.00     0.021 A 
ATOM     13  C   UNL     1      -7.195  21.012  -9.675  1.00  0.00     0.016 A 
ATOM     14  C   UNL     1      -6.488  19.819  -9.510  1.00  0.00     0.051 A 
ATOM     15  C   UNL     1      -5.199  19.831  -8.963  1.00  0.00     0.157 A 
ATOM     16  C   UNL     1      -5.329  22.245  -8.745  1.00  0.00     0.062 A 
ATOM     17  C   UNL     1      -4.620  21.051  -8.576  1.00  0.00     0.158 A 
BRANCH  15  18
ATOM     18  O   UNL     1      -4.495  18.639  -8.801  1.00  0.00    -0.504 OA
ATOM     19  H   UNL     1      -4.860  17.880  -8.239  1.00  0.00     0.293 HD
ENDBRANCH  15  18
BRANCH  17  20
ATOM     20  O   UNL     1      -3.342  21.095  -8.018  1.00  0.00    -0.504 OA
ATOM     21  H   UNL     1      -2.601  20.476  -8.320  1.00  0.00     0.293 HD
ENDBRANCH  17  20
ENDBRANCH   1  12
BRANCH   6  22
ATOM     22  O   UNL     1     -10.677  27.392  -9.656  1.00  0.00    -0.507 OA
ATOM     23  H   UNL     1     -11.385  27.818 -10.244  1.00  0.00     0.293 HD
ENDBRANCH   6  22
BRANCH   8  24
ATOM     24  O   UNL     1      -6.746  28.860 -12.070  1.00  0.00    -0.508 OA
ATOM     25  H   UNL     1      -6.533  29.766 -11.668  1.00  0.00     0.293 HD
ENDBRANCH   8  24
TORSDOF 5
ENDMDL
MODEL 2
REMARK VINA RESULT:    -5.351      1.540      1.873
REMARK INTER + INTRA:          -6.574
REMARK INTER:                  -6.265
REMARK INTRA:                  -0.309
REMARK UNBOUND:                -0.284
REMARK SMILES O=c1cc(-c2ccc(O)c(O)c2)oc2cc(O)cc(O)c12
REMARK SMILES IDX 4 1 3 2 2 3 1 4 21 5 19 6 18 7 16 8 15 9 14 10 13 11 5 12
REMARK SMILES IDX 6 13 7 14 8 15 12 16 10 17 9 18 11 20 20 22 17 24
REMARK H PARENT 9 19 11 21 20 23 17 25
REMARK Flexibility Score: inf
ROOT
ATOM      1  C   UNL     1      -6.062  23.296  -9.691  1.00  0.00     0.138 A 
ATOM      2  C   UNL     1      -7.404  23.466 -10.071  1.00  0.00     0.100 A 
ATOM      3  C   UNL     1      -7.844  24.720 -10.496  1.00  0.00     0.197 A 
ATOM      4  O   UNL     1      -9.050  24.863 -10.833  1.00  0.00    -0.289 OA
ATOM      5  C   UNL     1      -6.938  25.798 -10.534  1.00  0.00     0.107 A 
ATOM      6  C   UNL     1      -7.301  27.101 -10.953  1.00  0.00     0.134 A 
ATOM      7  C   UNL     1      -6.339  28.122 -10.957  1.00  0.00     0.093 A 
ATOM      8  C   UNL     1      -5.024  27.865 -10.551  1.00  0.00     0.123 A 
ATOM      9  C   UNL     1      -4.662  26.582 -10.138  1.00  0.00     0.094 A 
ATOM     10  C   UNL     1      -5.605  25.550 -10.127  1.00  0.00     0.146 A 
ATOM     11  O   UNL     1      -5.234  24.337  -9.730  1.00  0.00    -0.456 OA
ENDROOT
BRANCH   1  12
ATOM     12  C   UNL     1      -5.539  21.985  -9.231  1.00  0.00     0.021 A 
ATOM     13  C   UNL     1      -6.165  20.802  -9.659  1.00  0.00     0.016 A 
ATOM     14  C   UNL     1      -5.697  19.556  -9.235  1.00  0.00     0.051 A 
ATOM     15  C   UNL     1      -4.602  19.470  -8.367  1.00  0.00     0.157 A 
ATOM     16  C   UNL     1      -4.446  21.892  -8.347  1.00  0.00     0.062 A 
ATOM     17  C   UNL     1      -3.976  20.645  -7.919  1.00  0.00     0.158 A 
BRANCH  15  18
ATOM     18  O   UNL     1      -4.137  18.225  -7.947  1.00  0.00    -0.504 OA
ATOM     19  H   UNL     1      -4.701  17.389  -8.037  1.00  0.00     0.293 HD
ENDBRANCH  15  18
BRANCH  17  20
ATOM     20  O   UNL     1      -2.891  20.593  -7.044  1.00  0.00    -0.504 OA
ATOM     21  H   UNL     1      -2.591  19.730  -6.609  1.00  0.00     0.293 HD
ENDBRANCH  17  20
ENDBRANCH   1  12
BRANCH   6  22
ATOM     22  O   UNL     1      -8.604  27.385 -11.363  1.00  0.00    -0.507 OA
ATOM     23  H   UNL     1      -9.394  27.284 -10.735  1.00  0.00     0.293 HD
ENDBRANCH   6  22
BRANCH   8  24
ATOM     24  O   UNL     1      -4.070  28.881 -10.555  1.00  0.00    -0.508 OA
ATOM     25  H   UNL     1      -3.761  29.315 -11.417  1.00  0.00     0.293 HD
ENDBRANCH   8  24
TORSDOF 5
ENDMDL
MODEL 3
REMARK VINA RESULT:    -5.335      1.339      2.777
REMARK INTER + INTRA:          -6.554
REMARK INTER:                  -6.284
REMARK INTRA:                  -0.270
REMARK UNBOUND:                -0.284
REMARK SMILES O=c1cc(-c2ccc(O)c(O)c2)oc2cc(O)cc(O)c12
REMARK SMILES IDX 4 1 3 2 2 3 1 4 21 5 19 6 18 7 16 8 15 9 14 10 13 11 5 12
REMARK SMILES IDX 6 13 7 14 8 15 12 16 10 17 9 18 11 20 20 22 17 24
REMARK H PARENT 9 19 11 21 20 23 17 25
REMARK Flexibility Score: inf
ROOT
ATOM      1  C   UNL     1      -6.071  23.427  -9.292  1.00  0.00     0.138 A 
ATOM      2  C   UNL     1      -5.246  24.426  -9.835  1.00  0.00     0.100 A 
ATOM      3  C   UNL     1      -5.790  25.674 -10.143  1.00  0.00     0.197 A 
ATOM      4  O   UNL     1      -5.043  26.563 -10.631  1.00  0.00    -0.289 OA
ATOM      5  C   UNL     1      -7.159  25.912  -9.909  1.00  0.00     0.107 A 
ATOM      6  C   UNL     1      -7.790  27.148 -10.191  1.00  0.00     0.134 A 
ATOM      7  C   UNL     1      -9.160  27.303  -9.933  1.00  0.00     0.093 A 
ATOM      8  C   UNL     1      -9.909  26.248  -9.400  1.00  0.00     0.123 A 
ATOM      9  C   UNL     1      -9.291  25.028  -9.120  1.00  0.00     0.094 A 
ATOM     10  C   UNL     1      -7.927  24.853  -9.368  1.00  0.00     0.146 A 
ATOM     11  O   UNL     1      -7.363  23.682  -9.091  1.00  0.00    -0.456 OA
ENDROOT
BRANCH   1  12
ATOM     12  C   UNL     1      -5.548  22.082  -8.946  1.00  0.00     0.021 A 
ATOM     13  C   UNL     1      -6.134  20.942  -9.523  1.00  0.00     0.016 A 
ATOM     14  C   UNL     1      -5.665  19.664  -9.209  1.00  0.00     0.051 A 
ATOM     15  C   UNL     1      -4.609  19.502  -8.305  1.00  0.00     0.157 A 
ATOM     16  C   UNL     1      -4.494  21.910  -8.027  1.00  0.00     0.062 A 
ATOM     17  C   UNL     1      -4.023  20.631  -7.709  1.00  0.00     0.158 A 
BRANCH  15  18
ATOM     18  O   UNL     1      -4.142  18.226  -7.995  1.00  0.00    -0.504 OA
ATOM     19  H   UNL     1      -3.826  17.988  -7.062  1.00  0.00     0.293 HD
ENDBRANCH  15  18
BRANCH  17  20
ATOM     20  O   UNL     1      -2.977  20.501  -6.795  1.00  0.00    -0.504 OA
ATOM     21  H   UNL     1      -2.225  19.837  -6.929  1.00  0.00     0.293 HD
ENDBRANCH  17  20
ENDBRANCH   1  12
BRANCH   6  22
ATOM     22  O   UNL     1      -7.067  28.216 -10.723  1.00  0.00    -0.507 OA
ATOM     23  H   UNL     1      -7.259  29.175 -10.455  1.00  0.00     0.293 HD
ENDBRANCH   6  22
BRANCH   8  24
ATOM     24  O   UNL     1     -11.270  26.403  -9.145  1.00  0.00    -0.508 OA
ATOM     25  H   UNL     1     -11.816  27.128  -9.597  1.00  0.00     0.293 HD
ENDBRANCH   8  24
TORSDOF 5
ENDMDL
MODEL 4
REMARK VINA RESULT:    -5.319      1.648      7.248
REMARK INTER + INTRA:          -6.535
REMARK INTER:                  -6.253
REMARK INTRA:                  -0.282
REMARK UNBOUND:                -0.284
REMARK SMILES O=c1cc(-c2ccc(O)c(O)c2)oc2cc(O)cc(O)c12
REMARK SMILES IDX 4 1 3 2 2 3 1 4 21 5 19 6 18 7 16 8 15 9 14 10 13 11 5 12
REMARK SMILES IDX 6 13 7 14 8 15 12 16 10 17 9 18 11 20 20 22 17 24
REMARK H PARENT 9 19 11 21 20 23 17 25
REMARK Flexibility Score: inf
ROOT
ATOM      1  C   UNL     1      -6.126  24.570  -9.909  1.00  0.00     0.138 A 
ATOM      2  C   UNL     1      -4.954  24.736  -9.151  1.00  0.00     0.100 A 
ATOM      3  C   UNL     1      -4.297  23.613  -8.646  1.00  0.00     0.197 A 
ATOM      4  O   UNL     1      -3.248  23.773  -7.967  1.00  0.00    -0.289 OA
ATOM      5  C   UNL     1      -4.820  22.330  -8.900  1.00  0.00     0.107 A 
ATOM      6  C   UNL     1      -4.216  21.140  -8.427  1.00  0.00     0.134 A 
ATOM      7  C   UNL     1      -4.803  19.899  -8.718  1.00  0.00     0.093 A 
ATOM      8  C   UNL     1      -5.979  19.827  -9.473  1.00  0.00     0.123 A 
ATOM      9  C   UNL     1      -6.578  20.998  -9.942  1.00  0.00     0.094 A 
ATOM     10  C   UNL     1      -6.009  22.244  -9.663  1.00  0.00     0.146 A 
ATOM     11  O   UNL     1      -6.598  23.343 -10.122  1.00  0.00    -0.456 OA
ENDROOT
BRANCH   1  12
ATOM     12  C   UNL     1      -6.866  25.727 -10.470  1.00  0.00     0.021 A 
ATOM     13  C   UNL     1      -8.272  25.716 -10.466  1.00  0.00     0.016 A 
ATOM     14  C   UNL     1      -8.993  26.790 -10.995  1.00  0.00     0.051 A 
ATOM     15  C   UNL     1      -8.323  27.888 -11.546  1.00  0.00     0.157 A 
ATOM     16  C   UNL     1      -6.198  26.830 -11.038  1.00  0.00     0.062 A 
ATOM     17  C   UNL     1      -6.918  27.906 -11.570  1.00  0.00     0.158 A 
BRANCH  15  18
ATOM     18  O   UNL     1      -9.045  28.958 -12.070  1.00  0.00    -0.504 OA
ATOM     19  H   UNL     1     -10.057  28.988 -12.028  1.00  0.00     0.293 HD
ENDBRANCH  15  18
BRANCH  17  20
ATOM     20  O   UNL     1      -6.222  28.980 -12.122  1.00  0.00    -0.504 OA
ATOM     21  H   UNL     1      -6.644  29.605 -12.799  1.00  0.00     0.293 HD
ENDBRANCH  17  20
ENDBRANCH   1  12
BRANCH   6  22
ATOM     22  O   UNL     1      -3.044  21.182  -7.672  1.00  0.00    -0.507 OA
ATOM     23  H   UNL     1      -3.031  21.551  -6.727  1.00  0.00     0.293 HD
ENDBRANCH   6  22
BRANCH   8  24
ATOM     24  O   UNL     1      -6.562  18.595  -9.762  1.00  0.00    -0.508 OA
ATOM     25  H   UNL     1      -7.174  18.472 -10.561  1.00  0.00     0.293 HD
ENDBRANCH   8  24
TORSDOF 5
ENDMDL
MODEL 5
REMARK VINA RESULT:    -5.284      3.731      4.908
REMARK INTER + INTRA:          -6.494
REMARK INTER:                  -6.226
REMARK INTRA:                  -0.269
REMARK UNBOUND:                -0.284
REMARK SMILES O=c1cc(-c2ccc(O)c(O)c2)oc2cc(O)cc(O)c12
REMARK SMILES IDX 4 1 3 2 2 3 1 4 21 5 19 6 18 7 16 8 15 9 14 10 13 11 5 12
REMARK SMILES IDX 6 13 7 14 8 15 12 16 10 17 9 18 11 20 20 22 17 24
REMARK H PARENT 9 19 11 21 20 23 17 25
REMARK Flexibility Score: inf
ROOT
ATOM      1  C   UNL     1      -5.797  21.927  -7.013  1.00  0.00     0.138 A 
ATOM      2  C   UNL     1      -6.756  21.636  -6.028  1.00  0.00     0.100 A 
ATOM      3  C   UNL     1      -8.107  21.598  -6.374  1.00  0.00     0.197 A 
ATOM      4  O   UNL     1      -8.959  21.338  -5.482  1.00  0.00    -0.289 OA
ATOM      5  C   UNL     1      -8.492  21.857  -7.704  1.00  0.00     0.107 A 
ATOM      6  C   UNL     1      -9.839  21.838  -8.139  1.00  0.00     0.134 A 
ATOM      7  C   UNL     1     -10.139  22.111  -9.482  1.00  0.00     0.093 A 
ATOM      8  C   UNL     1      -9.120  22.402 -10.395  1.00  0.00     0.123 A 
ATOM      9  C   UNL     1      -7.790  22.422  -9.971  1.00  0.00     0.094 A 
ATOM     10  C   UNL     1      -7.469  22.151  -8.638  1.00  0.00     0.146 A 
ATOM     11  O   UNL     1      -6.195  22.175  -8.260  1.00  0.00    -0.456 OA
ENDROOT
BRANCH   1  12
ATOM     12  C   UNL     1      -4.347  21.980  -6.703  1.00  0.00     0.021 A 
ATOM     13  C   UNL     1      -3.630  23.163  -6.953  1.00  0.00     0.016 A 
ATOM     14  C   UNL     1      -2.263  23.238  -6.677  1.00  0.00     0.051 A 
ATOM     15  C   UNL     1      -1.585  22.130  -6.156  1.00  0.00     0.157 A 
ATOM     16  C   UNL     1      -3.656  20.864  -6.191  1.00  0.00     0.062 A 
ATOM     17  C   UNL     1      -2.286  20.936  -5.916  1.00  0.00     0.158 A 
BRANCH  15  18
ATOM     18  O   UNL     1      -0.221  22.208  -5.880  1.00  0.00    -0.504 OA
ATOM     19  H   UNL     1       0.122  22.563  -4.995  1.00  0.00     0.293 HD
ENDBRANCH  15  18
BRANCH  17  20
ATOM     20  O   UNL     1      -1.637  19.811  -5.408  1.00  0.00    -0.504 OA
ATOM     21  H   UNL     1      -1.458  19.693  -4.419  1.00  0.00     0.293 HD
ENDBRANCH  17  20
ENDBRANCH   1  12
BRANCH   6  22
ATOM     22  O   UNL     1     -10.875  21.551  -7.250  1.00  0.00    -0.507 OA
ATOM     23  H   UNL     1     -11.573  22.244  -7.003  1.00  0.00     0.293 HD
ENDBRANCH   6  22
BRANCH   8  24
ATOM     24  O   UNL     1      -9.419  22.675 -11.729  1.00  0.00    -0.508 OA
ATOM     25  H   UNL     1      -9.306  21.973 -12.452  1.00  0.00     0.293 HD
ENDBRANCH   8  24
TORSDOF 5
ENDMDL
MODEL 6
REMARK VINA RESULT:    -5.278      3.901      5.626
REMARK INTER + INTRA:          -6.487
REMARK INTER:                  -6.201
REMARK INTRA:                  -0.286
REMARK UNBOUND:                -0.284
REMARK SMILES O=c1cc(-c2ccc(O)c(O)c2)oc2cc(O)cc(O)c12
REMARK SMILES IDX 4 1 3 2 2 3 1 4 21 5 19 6 18 7 16 8 15 9 14 10 13 11 5 12
REMARK SMILES IDX 6 13 7 14 8 15 12 16 10 17 9 18 11 20 20 22 17 24
REMARK H PARENT 9 19 11 21 20 23 17 25
REMARK Flexibility Score: inf
ROOT
ATOM      1  C   UNL     1      -5.025  21.894  -7.676  1.00  0.00     0.138 A 
ATOM      2  C   UNL     1      -5.078  22.018  -9.075  1.00  0.00     0.100 A 
ATOM      3  C   UNL     1      -6.316  22.015  -9.718  1.00  0.00     0.197 A 
ATOM      4  O   UNL     1      -6.352  22.125 -10.973  1.00  0.00    -0.289 OA
ATOM      5  C   UNL     1      -7.494  21.882  -8.958  1.00  0.00     0.107 A 
ATOM      6  C   UNL     1      -8.789  21.869  -9.531  1.00  0.00     0.134 A 
ATOM      7  C   UNL     1      -9.913  21.728  -8.704  1.00  0.00     0.093 A 
ATOM      8  C   UNL     1      -9.767  21.600  -7.318  1.00  0.00     0.123 A 
ATOM      9  C   UNL     1      -8.492  21.611  -6.749  1.00  0.00     0.094 A 
ATOM     10  C   UNL     1      -7.359  21.752  -7.555  1.00  0.00     0.146 A 
ATOM     11  O   UNL     1      -6.157  21.761  -6.988  1.00  0.00    -0.456 OA
ENDROOT
BRANCH   1  12
ATOM     12  C   UNL     1      -3.738  21.892  -6.938  1.00  0.00     0.021 A 
ATOM     13  C   UNL     1      -2.808  22.921  -7.167  1.00  0.00     0.016 A 
ATOM     14  C   UNL     1      -1.585  22.939  -6.490  1.00  0.00     0.051 A 
ATOM     15  C   UNL     1      -1.266  21.923  -5.582  1.00  0.00     0.157 A 
ATOM     16  C   UNL     1      -3.403  20.866  -6.032  1.00  0.00     0.062 A 
ATOM     17  C   UNL     1      -2.179  20.880  -5.355  1.00  0.00     0.158 A 
BRANCH  15  18
ATOM     18  O   UNL     1      -0.046  21.944  -4.908  1.00  0.00    -0.504 OA
ATOM     19  H   UNL     1       0.064  22.430  -4.026  1.00  0.00     0.293 HD
ENDBRANCH  15  18
BRANCH  17  20
ATOM     20  O   UNL     1      -1.885  19.847  -4.465  1.00  0.00    -0.504 OA
ATOM     21  H   UNL     1      -2.570  19.487  -3.813  1.00  0.00     0.293 HD
ENDBRANCH  17  20
ENDBRANCH   1  12
BRANCH   6  22
ATOM     22  O   UNL     1      -8.964  21.996 -10.909  1.00  0.00    -0.507 OA
ATOM     23  H   UNL     1      -9.336  22.843 -11.324  1.00  0.00     0.293 HD
ENDBRANCH   6  22
BRANCH   8  24
ATOM     24  O   UNL     1     -10.884  21.458  -6.497  1.00  0.00    -0.508 OA
ATOM     25  H   UNL     1     -11.190  22.205  -5.884  1.00  0.00     0.293 HD
ENDBRANCH   8  24
TORSDOF 5
ENDMDL
MODEL 7
REMARK VINA RESULT:    -5.275      1.608      7.253
REMARK INTER + INTRA:          -6.484
REMARK INTER:                  -6.220
REMARK INTRA:                  -0.264
REMARK UNBOUND:                -0.284
REMARK SMILES O=c1cc(-c2ccc(O)c(O)c2)oc2cc(O)cc(O)c12
REMARK SMILES IDX 4 1 3 2 2 3 1 4 21 5 19 6 18 7 16 8 15 9 14 10 13 11 5 12
REMARK SMILES IDX 6 13 7 14 8 15 12 16 10 17 9 18 11 20 20 22 17 24
REMARK H PARENT 9 19 11 21 20 23 17 25
REMARK Flexibility Score: inf
ROOT
ATOM      1  C   UNL     1      -6.681  22.896  -8.989  1.00  0.00     0.138 A 
ATOM      2  C   UNL     1      -6.865  21.617  -9.542  1.00  0.00     0.100 A 
ATOM      3  C   UNL     1      -6.071  20.558  -9.101  1.00  0.00     0.197 A 
ATOM      4  O   UNL     1      -6.242  19.415  -9.604  1.00  0.00    -0.289 OA
ATOM      5  C   UNL     1      -5.094  20.786  -8.112  1.00  0.00     0.107 A 
ATOM      6  C   UNL     1      -4.248  19.768  -7.609  1.00  0.00     0.134 A 
ATOM      7  C   UNL     1      -3.296  20.078  -6.627  1.00  0.00     0.093 A 
ATOM      8  C   UNL     1      -3.174  21.385  -6.140  1.00  0.00     0.123 A 
ATOM      9  C   UNL     1      -4.006  22.392  -6.633  1.00  0.00     0.094 A 
ATOM     10  C   UNL     1      -4.962  22.103  -7.611  1.00  0.00     0.146 A 
ATOM     11  O   UNL     1      -5.743  23.079  -8.063  1.00  0.00    -0.456 OA
ENDROOT
BRANCH   1  12
ATOM     12  C   UNL     1      -7.496  24.059  -9.420  1.00  0.00     0.021 A 
ATOM     13  C   UNL     1      -6.930  25.020 -10.275  1.00  0.00     0.016 A 
ATOM     14  C   UNL     1      -7.674  26.128 -10.690  1.00  0.00     0.051 A 
ATOM     15  C   UNL     1      -8.990  26.302 -10.249  1.00  0.00     0.157 A 
ATOM     16  C   UNL     1      -8.818  24.247  -8.969  1.00  0.00     0.062 A 
ATOM     17  C   UNL     1      -9.563  25.357  -9.381  1.00  0.00     0.158 A 
BRANCH  15  18
ATOM     18  O   UNL     1      -9.729  27.407 -10.665  1.00  0.00    -0.504 OA
ATOM     19  H   UNL     1     -10.662  27.586 -10.313  1.00  0.00     0.293 HD
ENDBRANCH  15  18
BRANCH  17  20
ATOM     20  O   UNL     1     -10.869  25.508  -8.914  1.00  0.00    -0.504 OA
ATOM     21  H   UNL     1     -11.572  26.017  -9.435  1.00  0.00     0.293 HD
ENDBRANCH  17  20
ENDBRANCH   1  12
BRANCH   6  22
ATOM     22  O   UNL     1      -4.348  18.457  -8.077  1.00  0.00    -0.507 OA
ATOM     23  H   UNL     1      -3.629  17.767  -7.886  1.00  0.00     0.293 HD
ENDBRANCH   6  22
BRANCH   8  24
ATOM     24  O   UNL     1      -2.228  21.693  -5.165  1.00  0.00    -0.508 OA
ATOM     25  H   UNL     1      -2.070  22.647  -4.861  1.00  0.00     0.293 HD
ENDBRANCH   8  24
TORSDOF 5
ENDMDL
MODEL 8
REMARK VINA RESULT:    -5.190      1.525      6.839
REMARK INTER + INTRA:          -6.384
REMARK INTER:                  -6.106
REMARK INTRA:                  -0.277
REMARK UNBOUND:                -0.284
REMARK SMILES O=c1cc(-c2ccc(O)c(O)c2)oc2cc(O)cc(O)c12
REMARK SMILES IDX 4 1 3 2 2 3 1 4 21 5 19 6 18 7 16 8 15 9 14 10 13 11 5 12
REMARK SMILES IDX 6 13 7 14 8 15 12 16 10 17 9 18 11 20 20 22 17 24
REMARK H PARENT 9 19 11 21 20 23 17 25
REMARK Flexibility Score: inf
ROOT
ATOM      1  C   UNL     1      -7.892  24.075  -9.592  1.00  0.00     0.138 A 
ATOM      2  C   UNL     1      -8.517  22.817  -9.590  1.00  0.00     0.100 A 
ATOM      3  C   UNL     1      -7.752  21.670  -9.376  1.00  0.00     0.197 A 
ATOM      4  O   UNL     1      -8.321  20.546  -9.378  1.00  0.00    -0.289 OA
ATOM      5  C   UNL     1      -6.363  21.789  -9.169  1.00  0.00     0.107 A 
ATOM      6  C   UNL     1      -5.515  20.679  -8.944  1.00  0.00     0.134 A 
ATOM      7  C   UNL     1      -4.140  20.882  -8.752  1.00  0.00     0.093 A 
ATOM      8  C   UNL     1      -3.600  22.173  -8.780  1.00  0.00     0.123 A 
ATOM      9  C   UNL     1      -4.433  23.271  -9.002  1.00  0.00     0.094 A 
ATOM     10  C   UNL     1      -5.805  23.091  -9.195  1.00  0.00     0.146 A 
ATOM     11  O   UNL     1      -6.576  24.153  -9.402  1.00  0.00    -0.456 OA
ENDROOT
BRANCH   1  12
ATOM     12  C   UNL     1      -8.655  25.328  -9.814  1.00  0.00     0.021 A 
ATOM     13  C   UNL     1      -9.692  25.673  -8.929  1.00  0.00     0.016 A 
ATOM     14  C   UNL     1     -10.430  26.844  -9.119  1.00  0.00     0.051 A 
ATOM     15  C   UNL     1     -10.154  27.685 -10.203  1.00  0.00     0.157 A 
ATOM     16  C   UNL     1      -8.392  26.174 -10.910  1.00  0.00     0.062 A 
ATOM     17  C   UNL     1      -9.131  27.345 -11.104  1.00  0.00     0.158 A 
BRANCH  15  18
ATOM     18  O   UNL     1     -10.892  28.853 -10.390  1.00  0.00    -0.504 OA
ATOM     19  H   UNL     1     -11.302  29.352  -9.609  1.00  0.00     0.293 HD
ENDBRANCH  15  18
BRANCH  17  20
ATOM     20  O   UNL     1      -8.840  28.157 -12.201  1.00  0.00    -0.504 OA
ATOM     21  H   UNL     1      -9.245  27.994 -13.114  1.00  0.00     0.293 HD
ENDBRANCH  17  20
ENDBRANCH   1  12
BRANCH   6  22
ATOM     22  O   UNL     1      -6.027  19.381  -8.911  1.00  0.00    -0.507 OA
ATOM     23  H   UNL     1      -5.424  18.573  -8.801  1.00  0.00     0.293 HD
ENDBRANCH   6  22
BRANCH   8  24
ATOM     24  O   UNL     1      -2.234  22.374  -8.590  1.00  0.00    -0.508 OA
ATOM     25  H   UNL     1      -1.557  22.129  -9.304  1.00  0.00     0.293 HD
ENDBRANCH   8  24
TORSDOF 5
ENDMDL
MODEL 9
REMARK VINA RESULT:    -5.150      3.631      5.204
REMARK INTER + INTRA:          -6.337
REMARK INTER:                  -6.024
REMARK INTRA:                  -0.312
REMARK UNBOUND:                -0.284
REMARK SMILES O=c1cc(-c2ccc(O)c(O)c2)oc2cc(O)cc(O)c12
REMARK SMILES IDX 4 1 3 2 2 3 1 4 21 5 19 6 18 7 16 8 15 9 14 10 13 11 5 12
REMARK SMILES IDX 6 13 7 14 8 15 12 16 10 17 9 18 11 20 20 22 17 24
REMARK H PARENT 9 19 11 21 20 23 17 25
REMARK Flexibility Score: inf
ROOT
ATOM      1  C   UNL     1      -4.624  22.541  -8.584  1.00  0.00     0.138 A 
ATOM      2  C   UNL     1      -5.192  21.979  -7.429  1.00  0.00     0.100 A 
ATOM      3  C   UNL     1      -6.548  21.649  -7.421  1.00  0.00     0.197 A 
ATOM      4  O   UNL     1      -7.049  21.147  -6.379  1.00  0.00    -0.289 OA
ATOM      5  C   UNL     1      -7.329  21.889  -8.569  1.00  0.00     0.107 A 
ATOM      6  C   UNL     1      -8.709  21.583  -8.645  1.00  0.00     0.134 A 
ATOM      7  C   UNL     1      -9.417  21.857  -9.825  1.00  0.00     0.093 A 
ATOM      8  C   UNL     1      -8.771  22.430 -10.927  1.00  0.00     0.123 A 
ATOM      9  C   UNL     1      -7.410  22.733 -10.856  1.00  0.00     0.094 A 
ATOM     10  C   UNL     1      -6.686  22.466  -9.690  1.00  0.00     0.146 A 
ATOM     11  O   UNL     1      -5.391  22.763  -9.649  1.00  0.00    -0.456 OA
ENDROOT
BRANCH   1  12
ATOM     12  C   UNL     1      -3.188  22.912  -8.650  1.00  0.00     0.021 A 
ATOM     13  C   UNL     1      -2.474  23.124  -7.458  1.00  0.00     0.016 A 
ATOM     14  C   UNL     1      -1.123  23.480  -7.492  1.00  0.00     0.051 A 
ATOM     15  C   UNL     1      -0.466  23.642  -8.717  1.00  0.00     0.157 A 
ATOM     16  C   UNL     1      -2.523  23.089  -9.879  1.00  0.00     0.062 A 
ATOM     17  C   UNL     1      -1.171  23.447  -9.916  1.00  0.00     0.158 A 
BRANCH  15  18
ATOM     18  O   UNL     1       0.882  23.996  -8.747  1.00  0.00    -0.504 OA
ATOM     19  H   UNL     1       1.565  23.538  -8.155  1.00  0.00     0.293 HD
ENDBRANCH  15  18
BRANCH  17  20
ATOM     20  O   UNL     1      -0.547  23.612 -11.152  1.00  0.00    -0.504 OA
ATOM     21  H   UNL     1      -0.423  22.843 -11.799  1.00  0.00     0.293 HD
ENDBRANCH  17  20
ENDBRANCH   1  12
BRANCH   6  22
ATOM     22  O   UNL     1      -9.377  21.012  -7.562  1.00  0.00    -0.507 OA
ATOM     23  H   UNL     1      -8.998  21.049  -6.622  1.00  0.00     0.293 HD
ENDBRANCH   6  22
BRANCH   8  24
ATOM     24  O   UNL     1      -9.475  22.703 -12.098  1.00  0.00    -0.508 OA
ATOM     25  H   UNL     1     -10.484  22.808 -12.098  1.00  0.00     0.293 HD
ENDBRANCH   8  24
TORSDOF 5
ENDMDL
