MODEL 1
REMARK VINA RESULT:    -3.562      0.000      0.000
REMARK INTER + INTRA:          -4.662
REMARK INTER:                  -4.395
REMARK INTRA:                  -0.268
REMARK UNBOUND:                -0.268
REMARK SMILES CCCCCC(=O)[O-]
REMARK SMILES IDX 4 1 5 2 6 3 7 4 8 5 3 6 2 7 1 8
REMARK H PARENT
REMARK Flexibility Score: inf
ROOT
ATOM      1  C   UNL     1      62.184  27.117  26.611  1.00  0.00     0.006 C 
ENDROOT
BRANCH   1   2
ATOM      2  C   UNL     1      62.134  27.417  28.113  1.00  0.00     0.053 C 
BRANCH   2   3
ATOM      3  C   UNL     1      61.636  28.806  28.353  1.00  0.00     0.041 C 
ATOM      4  O   UNL     1      60.660  29.006  29.123  1.00  0.00    -0.550 OA
ATOM      5  O   UNL     1      62.219  29.879  27.690  1.00  0.00    -0.550 OA
ENDBRANCH   2   3
ENDBRANCH   1   2
BRANCH   1   6
ATOM      6  C   UNL     1      60.771  27.077  26.011  1.00  0.00     0.000 C 
BRANCH   6   7
ATOM      7  C   UNL     1      60.577  28.104  24.886  1.00  0.00    -0.003 C 
ATOM      8  C   UNL     1      61.899  28.589  24.293  1.00  0.00     0.004 C 
ENDBRANCH   6   7
ENDBRANCH   1   6
TORSDOF 4
ENDMDL
MODEL 2
REMARK VINA RESULT:    -3.480      1.454      2.028
REMARK INTER + INTRA:          -4.561
REMARK INTER:                  -4.312
REMARK INTRA:                  -0.249
REMARK UNBOUND:                -0.268
REMARK SMILES CCCCCC(=O)[O-]
REMARK SMILES IDX 4 1 5 2 6 3 7 4 8 5 3 6 2 7 1 8
REMARK H PARENT
REMARK Flexibility Score: inf
ROOT
ATOM      1  C   UNL     1      63.093  29.446  26.385  1.00  0.00     0.006 C 
ENDROOT
BRANCH   1   2
ATOM      2  C   UNL     1      62.479  29.834  27.734  1.00  0.00     0.053 C 
BRANCH   2   3
ATOM      3  C   UNL     1      61.736  28.677  28.323  1.00  0.00     0.041 C 
ATOM      4  O   UNL     1      60.709  28.874  29.024  1.00  0.00    -0.550 OA
ATOM      5  O   UNL     1      62.204  27.382  28.138  1.00  0.00    -0.550 OA
ENDBRANCH   2   3
ENDBRANCH   1   2
BRANCH   1   6
ATOM      6  C   UNL     1      62.091  29.665  25.241  1.00  0.00     0.000 C 
BRANCH   6   7
ATOM      7  C   UNL     1      61.700  28.357  24.538  1.00  0.00    -0.003 C 
ATOM      8  C   UNL     1      60.384  27.779  25.056  1.00  0.00     0.004 C 
ENDBRANCH   6   7
ENDBRANCH   1   6
TORSDOF 4
ENDMDL
MODEL 3
REMARK VINA RESULT:    -3.433     14.322     16.150
REMARK INTER + INTRA:          -4.504
REMARK INTER:                  -4.278
REMARK INTRA:                  -0.226
REMARK UNBOUND:                -0.268
REMARK SMILES CCCCCC(=O)[O-]
REMARK SMILES IDX 4 1 5 2 6 3 7 4 8 5 3 6 2 7 1 8
REMARK H PARENT
REMARK Flexibility Score: inf
ROOT
ATOM      1  C   UNL     1      60.742  29.652  10.703  1.00  0.00     0.006 C 
ENDROOT
BRANCH   1   2
ATOM      2  C   UNL     1      61.576  28.608   9.955  1.00  0.00     0.053 C 
BRANCH   2   3
ATOM      3  C   UNL     1      63.035  28.905  10.098  1.00  0.00     0.041 C 
ATOM      4  O   UNL     1      63.513  29.210  11.222  1.00  0.00    -0.550 OA
ATOM      5  O   UNL     1      63.861  28.891   8.981  1.00  0.00    -0.550 OA
ENDBRANCH   2   3
ENDBRANCH   1   2
BRANCH   1   6
ATOM      6  C   UNL     1      59.662  28.978  11.563  1.00  0.00     0.000 C 
BRANCH   6   7
ATOM      7  C   UNL     1      60.254  28.103  12.678  1.00  0.00    -0.003 C 
ATOM      8  C   UNL     1      61.067  28.906  13.691  1.00  0.00     0.004 C 
ENDBRANCH   6   7
ENDBRANCH   1   6
TORSDOF 4
ENDMDL
MODEL 4
REMARK VINA RESULT:    -3.426     14.360     15.874
REMARK INTER + INTRA:          -4.495
REMARK INTER:                  -4.344
REMARK INTRA:                  -0.151
REMARK UNBOUND:                -0.268
REMARK SMILES CCCCCC(=O)[O-]
REMARK SMILES IDX 4 1 5 2 6 3 7 4 8 5 3 6 2 7 1 8
REMARK H PARENT
REMARK Flexibility Score: inf
ROOT
ATOM      1  C   UNL     1      60.092  29.094  10.155  1.00  0.00     0.006 C 
ENDROOT
BRANCH   1   2
ATOM      2  C   UNL     1      59.910  29.672  11.562  1.00  0.00     0.053 C 
BRANCH   2   3
ATOM      3  C   UNL     1      59.647  28.578  12.548  1.00  0.00     0.041 C 
ATOM      4  O   UNL     1      60.531  28.251  13.383  1.00  0.00    -0.550 OA
ATOM      5  O   UNL     1      58.444  27.885  12.515  1.00  0.00    -0.550 OA
ENDBRANCH   2   3
ENDBRANCH   1   2
BRANCH   1   6
ATOM      6  C   UNL     1      61.390  28.277  10.060  1.00  0.00     0.000 C 
BRANCH   6   7
ATOM      7  C   UNL     1      62.640  29.117  10.360  1.00  0.00    -0.003 C 
ATOM      8  C   UNL     1      63.688  29.034   9.250  1.00  0.00     0.004 C 
ENDBRANCH   6   7
ENDBRANCH   1   6
TORSDOF 4
ENDMDL
MODEL 5
REMARK VINA RESULT:    -3.419      1.471      1.873
REMARK INTER + INTRA:          -4.487
REMARK INTER:                  -4.292
REMARK INTRA:                  -0.195
REMARK UNBOUND:                -0.268
REMARK SMILES CCCCCC(=O)[O-]
REMARK SMILES IDX 4 1 5 2 6 3 7 4 8 5 3 6 2 7 1 8
REMARK H PARENT
REMARK Flexibility Score: inf
ROOT
ATOM      1  C   UNL     1      62.331  27.959  27.125  1.00  0.00     0.006 C 
ENDROOT
BRANCH   1   2
ATOM      2  C   UNL     1      61.923  29.123  28.034  1.00  0.00     0.053 C 
BRANCH   2   3
ATOM      3  C   UNL     1      62.739  30.338  27.727  1.00  0.00     0.041 C 
ATOM      4  O   UNL     1      63.205  30.512  26.570  1.00  0.00    -0.550 OA
ATOM      5  O   UNL     1      63.025  31.256  28.729  1.00  0.00    -0.550 OA
ENDBRANCH   2   3
ENDBRANCH   1   2
BRANCH   1   6
ATOM      6  C   UNL     1      61.102  27.152  26.680  1.00  0.00     0.000 C 
BRANCH   6   7
ATOM      7  C   UNL     1      60.479  27.690  25.384  1.00  0.00    -0.003 C 
ATOM      8  C   UNL     1      61.521  28.231  24.406  1.00  0.00     0.004 C 
ENDBRANCH   6   7
ENDBRANCH   1   6
TORSDOF 4
ENDMDL
MODEL 6
REMARK VINA RESULT:    -3.413      2.213      3.585
REMARK INTER + INTRA:          -4.479
REMARK INTER:                  -4.290
REMARK INTRA:                  -0.189
REMARK UNBOUND:                -0.268
REMARK SMILES CCCCCC(=O)[O-]
REMARK SMILES IDX 4 1 5 2 6 3 7 4 8 5 3 6 2 7 1 8
REMARK H PARENT
REMARK Flexibility Score: inf
ROOT
ATOM      1  C   UNL     1      61.256  27.291  28.012  1.00  0.00     0.006 C 
ENDROOT
BRANCH   1   2
ATOM      2  C   UNL     1      61.836  27.128  26.603  1.00  0.00     0.053 C 
BRANCH   2   3
ATOM      3  C   UNL     1      60.806  27.462  25.572  1.00  0.00     0.041 C 
ATOM      4  O   UNL     1      60.938  28.488  24.853  1.00  0.00    -0.550 OA
ATOM      5  O   UNL     1      59.674  26.668  25.434  1.00  0.00    -0.550 OA
ENDBRANCH   2   3
ENDBRANCH   1   2
BRANCH   1   6
ATOM      6  C   UNL     1      61.113  28.776  28.380  1.00  0.00     0.000 C 
BRANCH   6   7
ATOM      7  C   UNL     1      62.442  29.406  28.822  1.00  0.00    -0.003 C 
ATOM      8  C   UNL     1      62.918  30.508  27.876  1.00  0.00     0.004 C 
ENDBRANCH   6   7
ENDBRANCH   1   6
TORSDOF 4
ENDMDL
MODEL 7
REMARK VINA RESULT:    -3.401      3.046      3.634
REMARK INTER + INTRA:          -4.464
REMARK INTER:                  -4.339
REMARK INTRA:                  -0.125
REMARK UNBOUND:                -0.268
REMARK SMILES CCCCCC(=O)[O-]
REMARK SMILES IDX 4 1 5 2 6 3 7 4 8 5 3 6 2 7 1 8
REMARK H PARENT
REMARK Flexibility Score: inf
ROOT
ATOM      1  C   UNL     1      63.280  27.118  25.981  1.00  0.00     0.006 C 
ENDROOT
BRANCH   1   2
ATOM      2  C   UNL     1      62.080  27.186  25.032  1.00  0.00     0.053 C 
BRANCH   2   3
ATOM      3  C   UNL     1      60.800  27.089  25.799  1.00  0.00     0.041 C 
ATOM      4  O   UNL     1      60.801  27.208  27.052  1.00  0.00    -0.550 OA
ATOM      5  O   UNL     1      59.610  26.819  25.136  1.00  0.00    -0.550 OA
ENDBRANCH   2   3
ENDBRANCH   1   2
BRANCH   1   6
ATOM      6  C   UNL     1      64.451  26.363  25.335  1.00  0.00     0.000 C 
BRANCH   6   7
ATOM      7  C   UNL     1      64.146  25.917  23.897  1.00  0.00    -0.003 C 
ATOM      8  C   UNL     1      65.389  25.892  23.009  1.00  0.00     0.004 C 
ENDBRANCH   6   7
ENDBRANCH   1   6
TORSDOF 4
ENDMDL
MODEL 8
REMARK VINA RESULT:    -3.399     14.072     15.058
REMARK INTER + INTRA:          -4.462
REMARK INTER:                  -4.239
REMARK INTRA:                  -0.223
REMARK UNBOUND:                -0.268
REMARK SMILES CCCCCC(=O)[O-]
REMARK SMILES IDX 4 1 5 2 6 3 7 4 8 5 3 6 2 7 1 8
REMARK H PARENT
REMARK Flexibility Score: inf
ROOT
ATOM      1  C   UNL     1      61.606  29.459  13.176  1.00  0.00     0.006 C 
ENDROOT
BRANCH   1   2
ATOM      2  C   UNL     1      60.628  28.283  13.268  1.00  0.00     0.053 C 
BRANCH   2   3
ATOM      3  C   UNL     1      59.448  28.513  12.377  1.00  0.00     0.041 C 
ATOM      4  O   UNL     1      58.377  27.881  12.569  1.00  0.00    -0.550 OA
ATOM      5  O   UNL     1      59.546  29.391  11.305  1.00  0.00    -0.550 OA
ENDBRANCH   2   3
ENDBRANCH   1   2
BRANCH   1   6
ATOM      6  C   UNL     1      62.953  29.009  12.592  1.00  0.00     0.000 C 
BRANCH   6   7
ATOM      7  C   UNL     1      63.298  29.727  11.279  1.00  0.00    -0.003 C 
ATOM      8  C   UNL     1      62.861  28.942  10.043  1.00  0.00     0.004 C 
ENDBRANCH   6   7
ENDBRANCH   1   6
TORSDOF 4
ENDMDL
MODEL 9
REMARK VINA RESULT:    -3.229     14.459     16.198
REMARK INTER + INTRA:          -4.252
REMARK INTER:                  -4.009
REMARK INTRA:                  -0.243
REMARK UNBOUND:                -0.268
REMARK SMILES CCCCCC(=O)[O-]
REMARK SMILES IDX 4 1 5 2 6 3 7 4 8 5 3 6 2 7 1 8
REMARK H PARENT
REMARK Flexibility Score: inf
ROOT
ATOM      1  C   UNL     1      60.063  29.939  11.448  1.00  0.00     0.006 C 
ENDROOT
BRANCH   1   2
ATOM      2  C   UNL     1      60.048  29.666   9.941  1.00  0.00     0.053 C 
BRANCH   2   3
ATOM      3  C   UNL     1      61.069  28.631   9.587  1.00  0.00     0.041 C 
ATOM      4  O   UNL     1      60.749  27.643   8.875  1.00  0.00    -0.550 OA
ATOM      5  O   UNL     1      62.363  28.732  10.081  1.00  0.00    -0.550 OA
ENDBRANCH   2   3
ENDBRANCH   1   2
BRANCH   1   6
ATOM      6  C   UNL     1      59.627  28.695  12.237  1.00  0.00     0.000 C 
BRANCH   6   7
ATOM      7  C   UNL     1      60.676  28.252  13.268  1.00  0.00    -0.003 C 
ATOM      8  C   UNL     1      61.586  29.395  13.714  1.00  0.00     0.004 C 
ENDBRANCH   6   7
ENDBRANCH   1   6
TORSDOF 4
ENDMDL
