MODEL 1
REMARK VINA RESULT:    -4.124      0.000      0.000
REMARK INTER + INTRA:          -6.397
REMARK INTER:                  -5.812
REMARK INTRA:                  -0.585
REMARK UNBOUND:                -0.585
REMARK SMILES CCCCCCCCC(=O)[O-]
REMARK SMILES IDX 6 1 7 2 8 3 9 4 10 5 11 6 5 7 4 8 3 9 2 10 1 11
REMARK H PARENT
REMARK Flexibility Score: inf
ROOT
ATOM      1  C   UNL     1      26.854  35.333  33.707  1.00  0.00     0.000 C 
ENDROOT
BRANCH   1   2
ATOM      2  C   UNL     1      26.899  35.735  32.217  1.00  0.00     0.006 C 
BRANCH   2   3
ATOM      3  C   UNL     1      27.198  34.541  31.301  1.00  0.00     0.053 C 
BRANCH   3   4
ATOM      4  C   UNL     1      25.931  33.991  30.728  1.00  0.00     0.041 C 
ATOM      5  O   UNL     1      25.357  33.015  31.280  1.00  0.00    -0.550 OA
ATOM      6  O   UNL     1      25.356  34.587  29.613  1.00  0.00    -0.550 OA
ENDBRANCH   3   4
ENDBRANCH   2   3
ENDBRANCH   1   2
BRANCH   1   7
ATOM      7  C   UNL     1      27.653  34.057  34.023  1.00  0.00     0.000 C 
BRANCH   7   8
ATOM      8  C   UNL     1      26.895  33.093  34.950  1.00  0.00    -0.000 C 
BRANCH   8   9
ATOM      9  C   UNL     1      25.407  32.970  34.585  1.00  0.00    -0.000 C 
BRANCH   9  10
ATOM     10  C   UNL     1      24.481  33.287  35.767  1.00  0.00    -0.003 C 
ATOM     11  C   UNL     1      25.243  33.992  36.887  1.00  0.00     0.004 C 
ENDBRANCH   9  10
ENDBRANCH   8   9
ENDBRANCH   7   8
ENDBRANCH   1   7
TORSDOF 7
ENDMDL
MODEL 2
REMARK VINA RESULT:    -4.025      1.884      4.440
REMARK INTER + INTRA:          -6.257
REMARK INTER:                  -5.796
REMARK INTRA:                  -0.461
REMARK UNBOUND:                -0.585
REMARK SMILES CCCCCCCCC(=O)[O-]
REMARK SMILES IDX 6 1 7 2 8 3 9 4 10 5 11 6 5 7 4 8 3 9 2 10 1 11
REMARK H PARENT
REMARK Flexibility Score: inf
ROOT
ATOM      1  C   UNL     1      26.710  35.313  34.049  1.00  0.00     0.000 C 
ENDROOT
BRANCH   1   2
ATOM      2  C   UNL     1      27.394  33.969  34.380  1.00  0.00     0.006 C 
BRANCH   2   3
ATOM      3  C   UNL     1      26.720  33.248  35.555  1.00  0.00     0.053 C 
BRANCH   3   4
ATOM      4  C   UNL     1      25.266  33.038  35.276  1.00  0.00     0.041 C 
ATOM      5  O   UNL     1      24.402  33.382  36.125  1.00  0.00    -0.550 OA
ATOM      6  O   UNL     1      24.861  32.509  34.056  1.00  0.00    -0.550 OA
ENDBRANCH   3   4
ENDBRANCH   2   3
ENDBRANCH   1   2
BRANCH   1   7
ATOM      7  C   UNL     1      26.825  35.714  32.569  1.00  0.00     0.000 C 
BRANCH   7   8
ATOM      8  C   UNL     1      27.918  34.931  31.822  1.00  0.00    -0.000 C 
BRANCH   8   9
ATOM      9  C   UNL     1      27.350  34.056  30.693  1.00  0.00    -0.000 C 
BRANCH   9  10
ATOM     10  C   UNL     1      25.845  33.795  30.849  1.00  0.00    -0.003 C 
ATOM     11  C   UNL     1      25.055  34.444  29.716  1.00  0.00     0.004 C 
ENDBRANCH   9  10
ENDBRANCH   8   9
ENDBRANCH   7   8
ENDBRANCH   1   7
TORSDOF 7
ENDMDL
MODEL 3
REMARK VINA RESULT:    -3.881      3.117      5.251
REMARK INTER + INTRA:          -6.054
REMARK INTER:                  -5.594
REMARK INTRA:                  -0.460
REMARK UNBOUND:                -0.585
REMARK SMILES CCCCCCCCC(=O)[O-]
REMARK SMILES IDX 6 1 7 2 8 3 9 4 10 5 11 6 5 7 4 8 3 9 2 10 1 11
REMARK H PARENT
REMARK Flexibility Score: inf
ROOT
ATOM      1  C   UNL     1      26.200  33.610  34.157  1.00  0.00     0.000 C 
ENDROOT
BRANCH   1   2
ATOM      2  C   UNL     1      25.070  33.331  35.172  1.00  0.00     0.006 C 
BRANCH   2   3
ATOM      3  C   UNL     1      25.537  33.505  36.623  1.00  0.00     0.053 C 
BRANCH   3   4
ATOM      4  C   UNL     1      26.726  32.641  36.897  1.00  0.00     0.041 C 
ATOM      5  O   UNL     1      26.616  31.387  36.878  1.00  0.00    -0.550 OA
ATOM      6  O   UNL     1      27.969  33.221  37.125  1.00  0.00    -0.550 OA
ENDBRANCH   3   4
ENDBRANCH   2   3
ENDBRANCH   1   2
BRANCH   1   7
ATOM      7  C   UNL     1      26.603  35.093  34.078  1.00  0.00     0.000 C 
BRANCH   7   8
ATOM      8  C   UNL     1      26.700  35.608  32.632  1.00  0.00    -0.000 C 
BRANCH   8   9
ATOM      9  C   UNL     1      27.816  34.916  31.833  1.00  0.00    -0.000 C 
BRANCH   9  10
ATOM     10  C   UNL     1      27.272  34.072  30.670  1.00  0.00    -0.003 C 
ATOM     11  C   UNL     1      25.818  34.426  30.369  1.00  0.00     0.004 C 
ENDBRANCH   9  10
ENDBRANCH   8   9
ENDBRANCH   7   8
ENDBRANCH   1   7
TORSDOF 7
ENDMDL
MODEL 4
REMARK VINA RESULT:    -3.823      2.839      4.899
REMARK INTER + INTRA:          -5.972
REMARK INTER:                  -5.396
REMARK INTRA:                  -0.576
REMARK UNBOUND:                -0.585
REMARK SMILES CCCCCCCCC(=O)[O-]
REMARK SMILES IDX 6 1 7 2 8 3 9 4 10 5 11 6 5 7 4 8 3 9 2 10 1 11
REMARK H PARENT
REMARK Flexibility Score: inf
ROOT
ATOM      1  C   UNL     1      26.615  35.112  34.122  1.00  0.00     0.000 C 
ENDROOT
BRANCH   1   2
ATOM      2  C   UNL     1      26.761  33.589  34.329  1.00  0.00     0.006 C 
BRANCH   2   3
ATOM      3  C   UNL     1      27.580  33.249  35.581  1.00  0.00     0.053 C 
BRANCH   3   4
ATOM      4  C   UNL     1      29.014  33.024  35.222  1.00  0.00     0.041 C 
ATOM      5  O   UNL     1      29.316  32.242  34.282  1.00  0.00    -0.550 OA
ATOM      6  O   UNL     1      30.016  33.715  35.892  1.00  0.00    -0.550 OA
ENDBRANCH   3   4
ENDBRANCH   2   3
ENDBRANCH   1   2
BRANCH   1   7
ATOM      7  C   UNL     1      27.035  35.585  32.719  1.00  0.00     0.000 C 
BRANCH   7   8
ATOM      8  C   UNL     1      27.944  34.577  31.997  1.00  0.00    -0.000 C 
BRANCH   8   9
ATOM      9  C   UNL     1      27.370  34.130  30.642  1.00  0.00    -0.000 C 
BRANCH   9  10
ATOM     10  C   UNL     1      25.889  33.736  30.730  1.00  0.00    -0.003 C 
ATOM     11  C   UNL     1      25.057  34.495  29.700  1.00  0.00     0.004 C 
ENDBRANCH   9  10
ENDBRANCH   8   9
ENDBRANCH   7   8
ENDBRANCH   1   7
TORSDOF 7
ENDMDL
MODEL 5
REMARK VINA RESULT:    -3.783      1.152      1.772
REMARK INTER + INTRA:          -5.916
REMARK INTER:                  -5.383
REMARK INTRA:                  -0.533
REMARK UNBOUND:                -0.585
REMARK SMILES CCCCCCCCC(=O)[O-]
REMARK SMILES IDX 6 1 7 2 8 3 9 4 10 5 11 6 5 7 4 8 3 9 2 10 1 11
REMARK H PARENT
REMARK Flexibility Score: inf
ROOT
ATOM      1  C   UNL     1      28.021  33.904  33.905  1.00  0.00     0.000 C 
ENDROOT
BRANCH   1   2
ATOM      2  C   UNL     1      26.982  35.007  33.614  1.00  0.00     0.006 C 
BRANCH   2   3
ATOM      3  C   UNL     1      26.989  35.439  32.142  1.00  0.00     0.053 C 
BRANCH   3   4
ATOM      4  C   UNL     1      26.793  34.255  31.249  1.00  0.00     0.041 C 
ATOM      5  O   UNL     1      27.699  33.913  30.444  1.00  0.00    -0.550 OA
ATOM      6  O   UNL     1      25.631  33.499  31.341  1.00  0.00    -0.550 OA
ENDBRANCH   3   4
ENDBRANCH   2   3
ENDBRANCH   1   2
BRANCH   1   7
ATOM      7  C   UNL     1      28.017  33.424  35.367  1.00  0.00     0.000 C 
BRANCH   7   8
ATOM      8  C   UNL     1      27.101  32.210  35.594  1.00  0.00    -0.000 C 
BRANCH   8   9
ATOM      9  C   UNL     1      26.214  32.365  36.840  1.00  0.00    -0.000 C 
BRANCH   9  10
ATOM     10  C   UNL     1      25.105  33.410  36.649  1.00  0.00    -0.003 C 
ATOM     11  C   UNL     1      24.337  33.163  35.353  1.00  0.00     0.004 C 
ENDBRANCH   9  10
ENDBRANCH   8   9
ENDBRANCH   7   8
ENDBRANCH   1   7
TORSDOF 7
ENDMDL
MODEL 6
REMARK VINA RESULT:    -3.761      2.313      4.441
REMARK INTER + INTRA:          -5.885
REMARK INTER:                  -5.343
REMARK INTRA:                  -0.541
REMARK UNBOUND:                -0.585
REMARK SMILES CCCCCCCCC(=O)[O-]
REMARK SMILES IDX 6 1 7 2 8 3 9 4 10 5 11 6 5 7 4 8 3 9 2 10 1 11
REMARK H PARENT
REMARK Flexibility Score: inf
ROOT
ATOM      1  C   UNL     1      28.751  33.592  34.795  1.00  0.00     0.000 C 
ENDROOT
BRANCH   1   2
ATOM      2  C   UNL     1      27.647  33.264  35.824  1.00  0.00     0.006 C 
BRANCH   2   3
ATOM      3  C   UNL     1      26.455  32.540  35.184  1.00  0.00     0.053 C 
BRANCH   3   4
ATOM      4  C   UNL     1      25.214  33.366  35.307  1.00  0.00     0.041 C 
ATOM      5  O   UNL     1      24.098  32.886  34.976  1.00  0.00    -0.550 OA
ATOM      6  O   UNL     1      25.282  34.650  35.834  1.00  0.00    -0.550 OA
ENDBRANCH   3   4
ENDBRANCH   2   3
ENDBRANCH   1   2
BRANCH   1   7
ATOM      7  C   UNL     1      28.245  33.635  33.343  1.00  0.00     0.000 C 
BRANCH   7   8
ATOM      8  C   UNL     1      28.127  35.067  32.794  1.00  0.00    -0.000 C 
BRANCH   8   9
ATOM      9  C   UNL     1      26.818  35.298  32.023  1.00  0.00    -0.000 C 
BRANCH   9  10
ATOM     10  C   UNL     1      26.274  34.012  31.385  1.00  0.00    -0.003 C 
ATOM     11  C   UNL     1      25.489  34.320  30.113  1.00  0.00     0.004 C 
ENDBRANCH   9  10
ENDBRANCH   8   9
ENDBRANCH   7   8
ENDBRANCH   1   7
TORSDOF 7
ENDMDL
MODEL 7
REMARK VINA RESULT:    -3.722      3.137      5.106
REMARK INTER + INTRA:          -5.830
REMARK INTER:                  -5.337
REMARK INTRA:                  -0.492
REMARK UNBOUND:                -0.585
REMARK SMILES CCCCCCCCC(=O)[O-]
REMARK SMILES IDX 6 1 7 2 8 3 9 4 10 5 11 6 5 7 4 8 3 9 2 10 1 11
REMARK H PARENT
REMARK Flexibility Score: inf
ROOT
ATOM      1  C   UNL     1      26.296  34.027  34.094  1.00  0.00     0.000 C 
ENDROOT
BRANCH   1   2
ATOM      2  C   UNL     1      26.792  33.531  35.470  1.00  0.00     0.006 C 
BRANCH   2   3
ATOM      3  C   UNL     1      28.132  32.790  35.372  1.00  0.00     0.053 C 
BRANCH   3   4
ATOM      4  C   UNL     1      27.966  31.355  35.761  1.00  0.00     0.041 C 
ATOM      5  O   UNL     1      28.683  30.468  35.228  1.00  0.00    -0.550 OA
ATOM      6  O   UNL     1      27.054  31.004  36.748  1.00  0.00    -0.550 OA
ENDBRANCH   3   4
ENDBRANCH   2   3
ENDBRANCH   1   2
BRANCH   1   7
ATOM      7  C   UNL     1      26.686  35.484  33.789  1.00  0.00     0.000 C 
BRANCH   7   8
ATOM      8  C   UNL     1      27.085  35.699  32.319  1.00  0.00    -0.000 C 
BRANCH   8   9
ATOM      9  C   UNL     1      27.823  34.488  31.725  1.00  0.00    -0.000 C 
BRANCH   9  10
ATOM     10  C   UNL     1      27.187  33.993  30.418  1.00  0.00    -0.003 C 
ATOM     11  C   UNL     1      25.703  34.347  30.362  1.00  0.00     0.004 C 
ENDBRANCH   9  10
ENDBRANCH   8   9
ENDBRANCH   7   8
ENDBRANCH   1   7
TORSDOF 7
ENDMDL
MODEL 8
REMARK VINA RESULT:    -3.641      1.634      2.429
REMARK INTER + INTRA:          -5.716
REMARK INTER:                  -5.219
REMARK INTRA:                  -0.496
REMARK UNBOUND:                -0.585
REMARK SMILES CCCCCCCCC(=O)[O-]
REMARK SMILES IDX 6 1 7 2 8 3 9 4 10 5 11 6 5 7 4 8 3 9 2 10 1 11
REMARK H PARENT
REMARK Flexibility Score: inf
ROOT
ATOM      1  C   UNL     1      26.134  33.846  34.110  1.00  0.00     0.000 C 
ENDROOT
BRANCH   1   2
ATOM      2  C   UNL     1      27.269  34.748  33.580  1.00  0.00     0.006 C 
BRANCH   2   3
ATOM      3  C   UNL     1      26.867  35.499  32.304  1.00  0.00     0.053 C 
BRANCH   3   4
ATOM      4  C   UNL     1      26.793  34.557  31.145  1.00  0.00     0.041 C 
ATOM      5  O   UNL     1      27.818  33.925  30.776  1.00  0.00    -0.550 OA
ATOM      6  O   UNL     1      25.581  34.339  30.502  1.00  0.00    -0.550 OA
ENDBRANCH   3   4
ENDBRANCH   2   3
ENDBRANCH   1   2
BRANCH   1   7
ATOM      7  C   UNL     1      25.516  34.344  35.427  1.00  0.00     0.000 C 
BRANCH   7   8
ATOM      8  C   UNL     1      25.301  33.216  36.450  1.00  0.00    -0.000 C 
BRANCH   8   9
ATOM      9  C   UNL     1      26.617  32.735  37.083  1.00  0.00    -0.000 C 
BRANCH   9  10
ATOM     10  C   UNL     1      26.947  31.279  36.722  1.00  0.00    -0.003 C 
ATOM     11  C   UNL     1      28.179  31.203  35.823  1.00  0.00     0.004 C 
ENDBRANCH   9  10
ENDBRANCH   8   9
ENDBRANCH   7   8
ENDBRANCH   1   7
TORSDOF 7
ENDMDL
MODEL 9
REMARK VINA RESULT:    -3.440      2.980      5.241
REMARK INTER + INTRA:          -5.432
REMARK INTER:                  -4.952
REMARK INTRA:                  -0.480
REMARK UNBOUND:                -0.585
REMARK SMILES CCCCCCCCC(=O)[O-]
REMARK SMILES IDX 6 1 7 2 8 3 9 4 10 5 11 6 5 7 4 8 3 9 2 10 1 11
REMARK H PARENT
REMARK Flexibility Score: inf
ROOT
ATOM      1  C   UNL     1      25.746  33.120  34.880  1.00  0.00     0.000 C 
ENDROOT
BRANCH   1   2
ATOM      2  C   UNL     1      25.739  32.938  36.413  1.00  0.00     0.006 C 
BRANCH   2   3
ATOM      3  C   UNL     1      26.633  31.776  36.863  1.00  0.00     0.053 C 
BRANCH   3   4
ATOM      4  C   UNL     1      28.030  31.966  36.362  1.00  0.00     0.041 C 
ATOM      5  O   UNL     1      28.545  31.118  35.586  1.00  0.00    -0.550 OA
ATOM      6  O   UNL     1      28.745  33.104  36.711  1.00  0.00    -0.550 OA
ENDBRANCH   3   4
ENDBRANCH   2   3
ENDBRANCH   1   2
BRANCH   1   7
ATOM      7  C   UNL     1      26.239  34.506  34.428  1.00  0.00     0.000 C 
BRANCH   7   8
ATOM      8  C   UNL     1      27.479  34.432  33.521  1.00  0.00    -0.000 C 
BRANCH   8   9
ATOM      9  C   UNL     1      27.314  35.246  32.228  1.00  0.00    -0.000 C 
BRANCH   9  10
ATOM     10  C   UNL     1      27.219  34.358  30.979  1.00  0.00    -0.003 C 
ATOM     11  C   UNL     1      25.763  34.100  30.599  1.00  0.00     0.004 C 
ENDBRANCH   9  10
ENDBRANCH   8   9
ENDBRANCH   7   8
ENDBRANCH   1   7
TORSDOF 7
ENDMDL
