MODEL 1
REMARK VINA RESULT:    -8.525      0.000      0.000
REMARK INTER + INTRA:         -13.304
REMARK INTER:                 -11.765
REMARK INTRA:                  -1.539
REMARK UNBOUND:                -1.539
REMARK SMILES O=C([O-])[C@@H]1O[C@H](Oc2cc3oc(-c4ccccc4)cc(=O)c3c(O)c2O)[C@@H](O)[C@H](O)[C@H]1O
REMARK SMILES IDX 7 1 6 2 4 3 31 4 5 5 29 6 27 7 2 8 1 9 3 10 32 11 30 13
REMARK SMILES IDX 28 15 8 17 25 18 9 19 23 20 10 21 22 22 11 23 20 24 12 25
REMARK SMILES IDX 19 26 21 27 26 28 24 30 13 32 14 33 18 34 15 35 17 36 16 37
REMARK H PARENT 32 12 30 14 28 16 26 29 24 31
REMARK Flexibility Score: inf
ROOT
ATOM      1  O   UNL     1     -30.476   6.096   0.663  1.00  0.00    -0.458 OA
ENDROOT
BRANCH   1   2
ATOM      2  C   UNL     1     -30.780   4.735   1.009  1.00  0.00     0.339 C 
ATOM      3  C   UNL     1     -33.086   5.113   1.522  1.00  0.00     0.199 C 
ATOM      4  C   UNL     1     -33.553   4.389   0.228  1.00  0.00     0.180 C 
ATOM      5  O   UNL     1     -31.811   4.691   1.993  1.00  0.00    -0.328 OA
ATOM      6  C   UNL     1     -32.462   4.333  -0.848  1.00  0.00     0.181 C 
ATOM      7  C   UNL     1     -31.119   3.883  -0.237  1.00  0.00     0.214 C 
BRANCH   3   8
ATOM      8  C   UNL     1     -33.201   6.622   1.526  1.00  0.00     0.073 C 
ATOM      9  O   UNL     1     -33.563   7.261   0.497  1.00  0.00    -0.547 OA
ATOM     10  O   UNL     1     -32.888   7.324   2.694  1.00  0.00    -0.547 OA
ENDBRANCH   3   8
BRANCH   4  11
ATOM     11  O   UNL     1     -34.022   3.084   0.505  1.00  0.00    -0.387 OA
ATOM     12  H   UNL     1     -33.365   2.391   0.183  1.00  0.00     0.211 HD
ENDBRANCH   4  11
BRANCH   6  13
ATOM     13  O   UNL     1     -32.316   5.603  -1.443  1.00  0.00    -0.387 OA
ATOM     14  H   UNL     1     -33.060   5.722  -2.091  1.00  0.00     0.211 HD
ENDBRANCH   6  13
BRANCH   7  15
ATOM     15  O   UNL     1     -31.143   2.522   0.122  1.00  0.00    -0.384 OA
ATOM     16  H   UNL     1     -31.832   2.426   0.834  1.00  0.00     0.211 HD
ENDBRANCH   7  15
ENDBRANCH   1   2
BRANCH   1  17
ATOM     17  C   UNL     1     -29.283   6.784   0.967  1.00  0.00     0.172 A 
ATOM     18  C   UNL     1     -29.195   7.817   1.924  1.00  0.00     0.201 A 
ATOM     19  C   UNL     1     -28.130   6.388   0.287  1.00  0.00     0.098 A 
ATOM     20  C   UNL     1     -27.951   8.418   2.220  1.00  0.00     0.176 A 
ATOM     21  C   UNL     1     -26.896   6.986   0.547  1.00  0.00     0.146 A 
ATOM     22  C   UNL     1     -26.787   8.043   1.485  1.00  0.00     0.111 A 
ATOM     23  O   UNL     1     -25.817   6.539  -0.106  1.00  0.00    -0.456 OA
ATOM     24  C   UNL     1     -25.516   8.649   1.631  1.00  0.00     0.197 A 
ATOM     25  C   UNL     1     -24.608   7.054   0.066  1.00  0.00     0.138 A 
ATOM     26  C   UNL     1     -24.429   8.156   0.907  1.00  0.00     0.100 A 
ATOM     27  O   UNL     1     -25.329   9.662   2.351  1.00  0.00    -0.289 OA
BRANCH  18  28
ATOM     28  O   UNL     1     -30.339   8.241   2.606  1.00  0.00    -0.502 OA
ATOM     29  H   UNL     1     -30.693   9.182   2.537  1.00  0.00     0.293 HD
ENDBRANCH  18  28
BRANCH  20  30
ATOM     30  O   UNL     1     -27.944   9.368   3.250  1.00  0.00    -0.504 OA
ATOM     31  H   UNL     1     -27.148   9.653   3.806  1.00  0.00     0.293 HD
ENDBRANCH  20  30
BRANCH  25  32
ATOM     32  C   UNL     1     -23.471   6.503  -0.691  1.00  0.00     0.017 A 
ATOM     33  C   UNL     1     -22.215   7.131  -0.646  1.00  0.00     0.012 A 
ATOM     34  C   UNL     1     -23.633   5.327  -1.443  1.00  0.00     0.012 A 
ATOM     35  C   UNL     1     -21.131   6.579  -1.327  1.00  0.00     0.001 A 
ATOM     36  C   UNL     1     -22.540   4.773  -2.116  1.00  0.00     0.001 A 
ATOM     37  C   UNL     1     -21.289   5.394  -2.051  1.00  0.00     0.000 A 
ENDBRANCH  25  32
ENDBRANCH   1  17
TORSDOF 9
ENDMDL
MODEL 2
REMARK VINA RESULT:    -8.271      1.928      7.949
REMARK INTER + INTRA:         -12.953
REMARK INTER:                 -11.701
REMARK INTRA:                  -1.252
REMARK UNBOUND:                -1.539
REMARK SMILES O=C([O-])[C@@H]1O[C@H](Oc2cc3oc(-c4ccccc4)cc(=O)c3c(O)c2O)[C@@H](O)[C@H](O)[C@H]1O
REMARK SMILES IDX 7 1 6 2 4 3 31 4 5 5 29 6 27 7 2 8 1 9 3 10 32 11 30 13
REMARK SMILES IDX 28 15 8 17 25 18 9 19 23 20 10 21 22 22 11 23 20 24 12 25
REMARK SMILES IDX 19 26 21 27 26 28 24 30 13 32 14 33 18 34 15 35 17 36 16 37
REMARK H PARENT 32 12 30 14 28 16 26 29 24 31
REMARK Flexibility Score: inf
ROOT
ATOM      1  O   UNL     1     -26.439   7.665   1.358  1.00  0.00    -0.458 OA
ENDROOT
BRANCH   1   2
ATOM      2  C   UNL     1     -25.836   8.626   0.476  1.00  0.00     0.339 C 
ATOM      3  C   UNL     1     -23.657   8.539   1.458  1.00  0.00     0.199 C 
ATOM      4  C   UNL     1     -23.075   7.765   0.242  1.00  0.00     0.180 C 
ATOM      5  O   UNL     1     -24.797   9.333   1.148  1.00  0.00    -0.328 OA
ATOM      6  C   UNL     1     -24.154   7.040  -0.572  1.00  0.00     0.181 C 
ATOM      7  C   UNL     1     -25.350   7.976  -0.843  1.00  0.00     0.214 C 
BRANCH   3   8
ATOM      8  C   UNL     1     -23.876   7.738   2.724  1.00  0.00     0.073 C 
ATOM      9  O   UNL     1     -23.400   6.574   2.860  1.00  0.00    -0.547 OA
ATOM     10  O   UNL     1     -24.630   8.296   3.759  1.00  0.00    -0.547 OA
ENDBRANCH   3   8
BRANCH   4  11
ATOM     11  O   UNL     1     -22.325   8.615  -0.602  1.00  0.00    -0.387 OA
ATOM     12  H   UNL     1     -21.372   8.295  -0.678  1.00  0.00     0.211 HD
ENDBRANCH   4  11
BRANCH   6  13
ATOM     13  O   UNL     1     -24.589   5.896   0.128  1.00  0.00    -0.387 OA
ATOM     14  H   UNL     1     -25.134   5.347  -0.496  1.00  0.00     0.211 HD
ENDBRANCH   6  13
BRANCH   7  15
ATOM     15  O   UNL     1     -25.019   8.986  -1.766  1.00  0.00    -0.384 OA
ATOM     16  H   UNL     1     -25.446   8.736  -2.629  1.00  0.00     0.211 HD
ENDBRANCH   7  15
ENDBRANCH   1   2
BRANCH   1  17
ATOM     17  C   UNL     1     -27.816   7.376   1.454  1.00  0.00     0.172 A 
ATOM     18  C   UNL     1     -28.749   8.212   2.104  1.00  0.00     0.201 A 
ATOM     19  C   UNL     1     -28.264   6.203   0.845  1.00  0.00     0.098 A 
ATOM     20  C   UNL     1     -30.124   7.887   2.108  1.00  0.00     0.176 A 
ATOM     21  C   UNL     1     -29.615   5.851   0.858  1.00  0.00     0.146 A 
ATOM     22  C   UNL     1     -30.567   6.661   1.526  1.00  0.00     0.111 A 
ATOM     23  O   UNL     1     -29.993   4.736   0.224  1.00  0.00    -0.456 OA
ATOM     24  C   UNL     1     -31.903   6.193   1.561  1.00  0.00     0.197 A 
ATOM     25  C   UNL     1     -31.250   4.317   0.194  1.00  0.00     0.138 A 
ATOM     26  C   UNL     1     -32.237   5.010   0.901  1.00  0.00     0.100 A 
ATOM     27  O   UNL     1     -32.805   6.773   2.216  1.00  0.00    -0.289 OA
BRANCH  18  28
ATOM     28  O   UNL     1     -28.322   9.383   2.735  1.00  0.00    -0.502 OA
ATOM     29  H   UNL     1     -28.953   9.996   3.227  1.00  0.00     0.293 HD
ENDBRANCH  18  28
BRANCH  20  30
ATOM     30  O   UNL     1     -30.987   8.822   2.694  1.00  0.00    -0.504 OA
ATOM     31  H   UNL     1     -31.977   8.707   2.871  1.00  0.00     0.293 HD
ENDBRANCH  20  30
BRANCH  25  32
ATOM     32  C   UNL     1     -31.584   3.078  -0.529  1.00  0.00     0.017 A 
ATOM     33  C   UNL     1     -30.695   2.546  -1.477  1.00  0.00     0.012 A 
ATOM     34  C   UNL     1     -32.787   2.407  -0.251  1.00  0.00     0.012 A 
ATOM     35  C   UNL     1     -30.995   1.348  -2.125  1.00  0.00     0.001 A 
ATOM     36  C   UNL     1     -33.078   1.201  -0.897  1.00  0.00     0.001 A 
ATOM     37  C   UNL     1     -32.179   0.669  -1.826  1.00  0.00     0.000 A 
ENDBRANCH  25  32
ENDBRANCH   1  17
TORSDOF 9
ENDMDL
MODEL 3
REMARK VINA RESULT:    -8.162      0.962      2.605
REMARK INTER + INTRA:         -12.802
REMARK INTER:                 -11.456
REMARK INTRA:                  -1.346
REMARK UNBOUND:                -1.539
REMARK SMILES O=C([O-])[C@@H]1O[C@H](Oc2cc3oc(-c4ccccc4)cc(=O)c3c(O)c2O)[C@@H](O)[C@H](O)[C@H]1O
REMARK SMILES IDX 7 1 6 2 4 3 31 4 5 5 29 6 27 7 2 8 1 9 3 10 32 11 30 13
REMARK SMILES IDX 28 15 8 17 25 18 9 19 23 20 10 21 22 22 11 23 20 24 12 25
REMARK SMILES IDX 19 26 21 27 26 28 24 30 13 32 14 33 18 34 15 35 17 36 16 37
REMARK H PARENT 32 12 30 14 28 16 26 29 24 31
REMARK Flexibility Score: inf
ROOT
ATOM      1  O   UNL     1     -30.138   5.632   0.366  1.00  0.00    -0.458 OA
ENDROOT
BRANCH   1   2
ATOM      2  C   UNL     1     -31.226   5.989  -0.503  1.00  0.00     0.339 C 
ATOM      3  C   UNL     1     -31.612   3.783  -1.344  1.00  0.00     0.199 C 
ATOM      4  C   UNL     1     -32.930   3.641  -0.533  1.00  0.00     0.180 C 
ATOM      5  O   UNL     1     -31.256   5.130  -1.639  1.00  0.00    -0.328 OA
ATOM      6  C   UNL     1     -32.997   4.596   0.665  1.00  0.00     0.181 C 
ATOM      7  C   UNL     1     -32.579   6.021   0.248  1.00  0.00     0.214 C 
BRANCH   3   8
ATOM      8  C   UNL     1     -30.420   3.001  -0.834  1.00  0.00     0.073 C 
ATOM      9  O   UNL     1     -30.523   2.201   0.141  1.00  0.00    -0.547 OA
ATOM     10  O   UNL     1     -29.178   3.177  -1.448  1.00  0.00    -0.547 OA
ENDBRANCH   3   8
BRANCH   4  11
ATOM     11  O   UNL     1     -34.066   3.822  -1.356  1.00  0.00    -0.387 OA
ATOM     12  H   UNL     1     -34.728   3.074  -1.221  1.00  0.00     0.211 HD
ENDBRANCH   4  11
BRANCH   6  13
ATOM     13  O   UNL     1     -32.150   4.129   1.691  1.00  0.00    -0.387 OA
ATOM     14  H   UNL     1     -32.047   4.860   2.357  1.00  0.00     0.211 HD
ENDBRANCH   6  13
BRANCH   7  15
ATOM     15  O   UNL     1     -33.551   6.627  -0.570  1.00  0.00    -0.384 OA
ATOM     16  H   UNL     1     -34.073   7.243   0.013  1.00  0.00     0.211 HD
ENDBRANCH   7  15
ENDBRANCH   1   2
BRANCH   1  17
ATOM     17  C   UNL     1     -29.041   6.452   0.702  1.00  0.00     0.172 A 
ATOM     18  C   UNL     1     -29.106   7.506   1.639  1.00  0.00     0.201 A 
ATOM     19  C   UNL     1     -27.824   6.174   0.078  1.00  0.00     0.098 A 
ATOM     20  C   UNL     1     -27.949   8.246   1.971  1.00  0.00     0.176 A 
ATOM     21  C   UNL     1     -26.674   6.909   0.373  1.00  0.00     0.146 A 
ATOM     22  C   UNL     1     -26.721   7.988   1.291  1.00  0.00     0.111 A 
ATOM     23  O   UNL     1     -25.527   6.571  -0.227  1.00  0.00    -0.456 OA
ATOM     24  C   UNL     1     -25.531   8.732   1.474  1.00  0.00     0.197 A 
ATOM     25  C   UNL     1     -24.389   7.220  -0.018  1.00  0.00     0.138 A 
ATOM     26  C   UNL     1     -24.368   8.350   0.806  1.00  0.00     0.100 A 
ATOM     27  O   UNL     1     -25.487   9.772   2.178  1.00  0.00    -0.289 OA
BRANCH  18  28
ATOM     28  O   UNL     1     -30.318   7.814   2.265  1.00  0.00    -0.502 OA
ATOM     29  H   UNL     1     -30.703   8.745   2.272  1.00  0.00     0.293 HD
ENDBRANCH  18  28
BRANCH  20  30
ATOM     30  O   UNL     1     -28.089   9.208   2.979  1.00  0.00    -0.504 OA
ATOM     31  H   UNL     1     -27.805   9.119   3.946  1.00  0.00     0.293 HD
ENDBRANCH  20  30
BRANCH  25  32
ATOM     32  C   UNL     1     -23.168   6.784  -0.716  1.00  0.00     0.017 A 
ATOM     33  C   UNL     1     -23.143   5.562  -1.409  1.00  0.00     0.012 A 
ATOM     34  C   UNL     1     -22.028   7.606  -0.713  1.00  0.00     0.012 A 
ATOM     35  C   UNL     1     -21.999   5.176  -2.106  1.00  0.00     0.001 A 
ATOM     36  C   UNL     1     -20.887   7.218  -1.423  1.00  0.00     0.001 A 
ATOM     37  C   UNL     1     -20.876   6.008  -2.125  1.00  0.00     0.000 A 
ENDBRANCH  25  32
ENDBRANCH   1  17
TORSDOF 9
ENDMDL
MODEL 4
REMARK VINA RESULT:    -8.150      2.298      3.740
REMARK INTER + INTRA:         -12.785
REMARK INTER:                 -11.643
REMARK INTRA:                  -1.142
REMARK UNBOUND:                -1.539
REMARK SMILES O=C([O-])[C@@H]1O[C@H](Oc2cc3oc(-c4ccccc4)cc(=O)c3c(O)c2O)[C@@H](O)[C@H](O)[C@H]1O
REMARK SMILES IDX 7 1 6 2 4 3 31 4 5 5 29 6 27 7 2 8 1 9 3 10 32 11 30 13
REMARK SMILES IDX 28 15 8 17 25 18 9 19 23 20 10 21 22 22 11 23 20 24 12 25
REMARK SMILES IDX 19 26 21 27 26 28 24 30 13 32 14 33 18 34 15 35 17 36 16 37
REMARK H PARENT 32 12 30 14 28 16 26 29 24 31
REMARK Flexibility Score: inf
ROOT
ATOM      1  O   UNL     1     -32.545   6.722   1.707  1.00  0.00    -0.458 OA
ENDROOT
BRANCH   1   2
ATOM      2  C   UNL     1     -33.792   7.423   1.564  1.00  0.00     0.339 C 
ATOM      3  C   UNL     1     -34.991   5.606   0.572  1.00  0.00     0.199 C 
ATOM      4  C   UNL     1     -35.819   5.369   1.866  1.00  0.00     0.180 C 
ATOM      5  O   UNL     1     -34.506   6.937   0.430  1.00  0.00    -0.328 OA
ATOM      6  C   UNL     1     -35.140   5.936   3.118  1.00  0.00     0.181 C 
ATOM      7  C   UNL     1     -34.637   7.372   2.859  1.00  0.00     0.214 C 
BRANCH   3   8
ATOM      8  C   UNL     1     -33.906   4.594   0.272  1.00  0.00     0.073 C 
ATOM      9  O   UNL     1     -33.748   3.563   0.987  1.00  0.00    -0.547 OA
ATOM     10  O   UNL     1     -33.055   4.812  -0.815  1.00  0.00    -0.547 OA
ENDBRANCH   3   8
BRANCH   4  11
ATOM     11  O   UNL     1     -37.126   5.894   1.748  1.00  0.00    -0.387 OA
ATOM     12  H   UNL     1     -37.119   6.759   1.231  1.00  0.00     0.211 HD
ENDBRANCH   4  11
BRANCH   6  13
ATOM     13  O   UNL     1     -34.060   5.109   3.488  1.00  0.00    -0.387 OA
ATOM     14  H   UNL     1     -33.291   5.330   2.898  1.00  0.00     0.211 HD
ENDBRANCH   6  13
BRANCH   7  15
ATOM     15  O   UNL     1     -35.704   8.284   2.755  1.00  0.00    -0.384 OA
ATOM     16  H   UNL     1     -36.543   7.752   2.818  1.00  0.00     0.211 HD
ENDBRANCH   7  15
ENDBRANCH   1   2
BRANCH   1  17
ATOM     17  C   UNL     1     -31.338   7.266   2.192  1.00  0.00     0.172 A 
ATOM     18  C   UNL     1     -31.102   7.565   3.551  1.00  0.00     0.201 A 
ATOM     19  C   UNL     1     -30.323   7.493   1.261  1.00  0.00     0.098 A 
ATOM     20  C   UNL     1     -29.844   8.051   3.972  1.00  0.00     0.176 A 
ATOM     21  C   UNL     1     -29.081   7.996   1.652  1.00  0.00     0.146 A 
ATOM     22  C   UNL     1     -28.829   8.327   3.007  1.00  0.00     0.111 A 
ATOM     23  O   UNL     1     -28.133   8.155   0.722  1.00  0.00    -0.456 OA
ATOM     24  C   UNL     1     -27.573   8.906   3.307  1.00  0.00     0.197 A 
ATOM     25  C   UNL     1     -26.929   8.638   0.998  1.00  0.00     0.138 A 
ATOM     26  C   UNL     1     -26.628   9.071   2.293  1.00  0.00     0.100 A 
ATOM     27  O   UNL     1     -27.284   9.338   4.451  1.00  0.00    -0.289 OA
BRANCH  18  28
ATOM     28  O   UNL     1     -32.108   7.361   4.499  1.00  0.00    -0.502 OA
ATOM     29  H   UNL     1     -32.206   7.940   5.318  1.00  0.00     0.293 HD
ENDBRANCH  18  28
BRANCH  20  30
ATOM     30  O   UNL     1     -29.670   8.229   5.350  1.00  0.00    -0.504 OA
ATOM     31  H   UNL     1     -30.261   7.866   6.088  1.00  0.00     0.293 HD
ENDBRANCH  20  30
BRANCH  25  32
ATOM     32  C   UNL     1     -25.940   8.781  -0.083  1.00  0.00     0.017 A 
ATOM     33  C   UNL     1     -25.014   9.837  -0.065  1.00  0.00     0.012 A 
ATOM     34  C   UNL     1     -25.903   7.842  -1.128  1.00  0.00     0.012 A 
ATOM     35  C   UNL     1     -24.050   9.941  -1.068  1.00  0.00     0.001 A 
ATOM     36  C   UNL     1     -24.928   7.946  -2.125  1.00  0.00     0.001 A 
ATOM     37  C   UNL     1     -23.998   8.990  -2.090  1.00  0.00     0.000 A 
ENDBRANCH  25  32
ENDBRANCH   1  17
TORSDOF 9
ENDMDL
MODEL 5
REMARK VINA RESULT:    -8.137      1.960      7.997
REMARK INTER + INTRA:         -12.768
REMARK INTER:                 -11.419
REMARK INTRA:                  -1.349
REMARK UNBOUND:                -1.539
REMARK SMILES O=C([O-])[C@@H]1O[C@H](Oc2cc3oc(-c4ccccc4)cc(=O)c3c(O)c2O)[C@@H](O)[C@H](O)[C@H]1O
REMARK SMILES IDX 7 1 6 2 4 3 31 4 5 5 29 6 27 7 2 8 1 9 3 10 32 11 30 13
REMARK SMILES IDX 28 15 8 17 25 18 9 19 23 20 10 21 22 22 11 23 20 24 12 25
REMARK SMILES IDX 19 26 21 27 26 28 24 30 13 32 14 33 18 34 15 35 17 36 16 37
REMARK H PARENT 32 12 30 14 28 16 26 29 24 31
REMARK Flexibility Score: inf
ROOT
ATOM      1  O   UNL     1     -26.576   7.651   1.097  1.00  0.00    -0.458 OA
ENDROOT
BRANCH   1   2
ATOM      2  C   UNL     1     -25.499   6.757   1.424  1.00  0.00     0.339 C 
ATOM      3  C   UNL     1     -24.129   7.311  -0.457  1.00  0.00     0.199 C 
ATOM      4  C   UNL     1     -23.121   8.090   0.433  1.00  0.00     0.180 C 
ATOM      5  O   UNL     1     -24.854   6.302   0.238  1.00  0.00    -0.328 OA
ATOM      6  C   UNL     1     -23.731   8.545   1.764  1.00  0.00     0.181 C 
ATOM      7  C   UNL     1     -24.507   7.390   2.429  1.00  0.00     0.214 C 
BRANCH   3   8
ATOM      8  C   UNL     1     -25.046   8.146  -1.324  1.00  0.00     0.073 C 
ATOM      9  O   UNL     1     -24.967   9.408  -1.346  1.00  0.00    -0.547 OA
ATOM     10  O   UNL     1     -26.009   7.505  -2.108  1.00  0.00    -0.547 OA
ENDBRANCH   3   8
BRANCH   4  11
ATOM     11  O   UNL     1     -21.951   7.334   0.674  1.00  0.00    -0.387 OA
ATOM     12  H   UNL     1     -21.125   7.888   0.508  1.00  0.00     0.211 HD
ENDBRANCH   4  11
BRANCH   6  13
ATOM     13  O   UNL     1     -24.595   9.637   1.541  1.00  0.00    -0.387 OA
ATOM     14  H   UNL     1     -24.140  10.457   1.871  1.00  0.00     0.211 HD
ENDBRANCH   6  13
BRANCH   7  15
ATOM     15  O   UNL     1     -23.638   6.394   2.915  1.00  0.00    -0.384 OA
ATOM     16  H   UNL     1     -22.738   6.589   2.535  1.00  0.00     0.211 HD
ENDBRANCH   7  15
ENDBRANCH   1   2
BRANCH   1  17
ATOM     17  C   UNL     1     -27.951   7.385   1.251  1.00  0.00     0.172 A 
ATOM     18  C   UNL     1     -28.859   8.274   1.867  1.00  0.00     0.201 A 
ATOM     19  C   UNL     1     -28.428   6.178   0.736  1.00  0.00     0.098 A 
ATOM     20  C   UNL     1     -30.236   7.966   1.930  1.00  0.00     0.176 A 
ATOM     21  C   UNL     1     -29.781   5.843   0.811  1.00  0.00     0.146 A 
ATOM     22  C   UNL     1     -30.707   6.708   1.447  1.00  0.00     0.111 A 
ATOM     23  O   UNL     1     -30.187   4.691   0.265  1.00  0.00    -0.456 OA
ATOM     24  C   UNL     1     -32.045   6.259   1.551  1.00  0.00     0.197 A 
ATOM     25  C   UNL     1     -31.449   4.285   0.299  1.00  0.00     0.138 A 
ATOM     26  C   UNL     1     -32.409   5.037   0.983  1.00  0.00     0.100 A 
ATOM     27  O   UNL     1     -32.923   6.892   2.189  1.00  0.00    -0.289 OA
BRANCH  18  28
ATOM     28  O   UNL     1     -28.403   9.481   2.404  1.00  0.00    -0.502 OA
ATOM     29  H   UNL     1     -28.199  10.286   1.832  1.00  0.00     0.293 HD
ENDBRANCH  18  28
BRANCH  20  30
ATOM     30  O   UNL     1     -31.073   8.949   2.474  1.00  0.00    -0.504 OA
ATOM     31  H   UNL     1     -31.309   9.841   2.060  1.00  0.00     0.293 HD
ENDBRANCH  20  30
BRANCH  25  32
ATOM     32  C   UNL     1     -31.815   3.004  -0.327  1.00  0.00     0.017 A 
ATOM     33  C   UNL     1     -30.961   2.402  -1.267  1.00  0.00     0.012 A 
ATOM     34  C   UNL     1     -33.011   2.362   0.036  1.00  0.00     0.012 A 
ATOM     35  C   UNL     1     -31.291   1.166  -1.822  1.00  0.00     0.001 A 
ATOM     36  C   UNL     1     -33.331   1.118  -0.517  1.00  0.00     0.001 A 
ATOM     37  C   UNL     1     -32.468   0.518  -1.439  1.00  0.00     0.000 A 
ENDBRANCH  25  32
ENDBRANCH   1  17
TORSDOF 9
ENDMDL
MODEL 6
REMARK VINA RESULT:    -8.080      2.015      8.001
REMARK INTER + INTRA:         -12.690
REMARK INTER:                 -11.215
REMARK INTRA:                  -1.475
REMARK UNBOUND:                -1.539
REMARK SMILES O=C([O-])[C@@H]1O[C@H](Oc2cc3oc(-c4ccccc4)cc(=O)c3c(O)c2O)[C@@H](O)[C@H](O)[C@H]1O
REMARK SMILES IDX 7 1 6 2 4 3 31 4 5 5 29 6 27 7 2 8 1 9 3 10 32 11 30 13
REMARK SMILES IDX 28 15 8 17 25 18 9 19 23 20 10 21 22 22 11 23 20 24 12 25
REMARK SMILES IDX 19 26 21 27 26 28 24 30 13 32 14 33 18 34 15 35 17 36 16 37
REMARK H PARENT 32 12 30 14 28 16 26 29 24 31
REMARK Flexibility Score: inf
ROOT
ATOM      1  O   UNL     1     -27.459   7.360   0.996  1.00  0.00    -0.458 OA
ENDROOT
BRANCH   1   2
ATOM      2  C   UNL     1     -26.944   8.239  -0.017  1.00  0.00     0.339 C 
ATOM      3  C   UNL     1     -25.399   9.386   1.405  1.00  0.00     0.199 C 
ATOM      4  C   UNL     1     -24.180   8.684   0.745  1.00  0.00     0.180 C 
ATOM      5  O   UNL     1     -26.541   9.478   0.560  1.00  0.00    -0.328 OA
ATOM      6  C   UNL     1     -24.558   7.377   0.038  1.00  0.00     0.181 C 
ATOM      7  C   UNL     1     -25.812   7.576  -0.838  1.00  0.00     0.214 C 
BRANCH   3   8
ATOM      8  C   UNL     1     -25.781   8.910   2.790  1.00  0.00     0.073 C 
ATOM      9  O   UNL     1     -26.874   9.249   3.328  1.00  0.00    -0.547 OA
ATOM     10  O   UNL     1     -24.897   8.087   3.494  1.00  0.00    -0.547 OA
ENDBRANCH   3   8
BRANCH   4  11
ATOM     11  O   UNL     1     -23.514   9.544  -0.158  1.00  0.00    -0.387 OA
ATOM     12  H   UNL     1     -23.069  10.303   0.333  1.00  0.00     0.211 HD
ENDBRANCH   4  11
BRANCH   6  13
ATOM     13  O   UNL     1     -24.797   6.370   0.996  1.00  0.00    -0.387 OA
ATOM     14  H   UNL     1     -24.946   6.815   1.873  1.00  0.00     0.211 HD
ENDBRANCH   6  13
BRANCH   7  15
ATOM     15  O   UNL     1     -25.533   8.365  -1.970  1.00  0.00    -0.384 OA
ATOM     16  H   UNL     1     -26.373   8.850  -2.195  1.00  0.00     0.211 HD
ENDBRANCH   7  15
ENDBRANCH   1   2
BRANCH   1  17
ATOM     17  C   UNL     1     -28.808   6.983   1.161  1.00  0.00     0.172 A 
ATOM     18  C   UNL     1     -29.772   7.782   1.812  1.00  0.00     0.201 A 
ATOM     19  C   UNL     1     -29.197   5.755   0.622  1.00  0.00     0.098 A 
ATOM     20  C   UNL     1     -31.120   7.366   1.885  1.00  0.00     0.176 A 
ATOM     21  C   UNL     1     -30.518   5.314   0.705  1.00  0.00     0.146 A 
ATOM     22  C   UNL     1     -31.498   6.088   1.375  1.00  0.00     0.111 A 
ATOM     23  O   UNL     1     -30.841   4.148   0.135  1.00  0.00    -0.456 OA
ATOM     24  C   UNL     1     -32.796   5.532   1.484  1.00  0.00     0.197 A 
ATOM     25  C   UNL     1     -32.067   3.643   0.174  1.00  0.00     0.138 A 
ATOM     26  C   UNL     1     -33.072   4.301   0.890  1.00  0.00     0.100 A 
ATOM     27  O   UNL     1     -33.711   6.079   2.150  1.00  0.00    -0.289 OA
BRANCH  18  28
ATOM     28  O   UNL     1     -29.403   9.008   2.374  1.00  0.00    -0.502 OA
ATOM     29  H   UNL     1     -28.700   9.602   1.964  1.00  0.00     0.293 HD
ENDBRANCH  18  28
BRANCH  20  30
ATOM     30  O   UNL     1     -32.023   8.266   2.465  1.00  0.00    -0.504 OA
ATOM     31  H   UNL     1     -31.829   8.924   3.209  1.00  0.00     0.293 HD
ENDBRANCH  20  30
BRANCH  25  32
ATOM     32  C   UNL     1     -32.341   2.353  -0.480  1.00  0.00     0.017 A 
ATOM     33  C   UNL     1     -31.533   1.907  -1.539  1.00  0.00     0.012 A 
ATOM     34  C   UNL     1     -33.400   1.548  -0.027  1.00  0.00     0.012 A 
ATOM     35  C   UNL     1     -31.769   0.664  -2.125  1.00  0.00     0.001 A 
ATOM     36  C   UNL     1     -33.625   0.298  -0.612  1.00  0.00     0.001 A 
ATOM     37  C   UNL     1     -32.805  -0.147  -1.654  1.00  0.00     0.000 A 
ENDBRANCH  25  32
ENDBRANCH   1  17
TORSDOF 9
ENDMDL
MODEL 7
REMARK VINA RESULT:    -7.982      3.000      8.608
REMARK INTER + INTRA:         -12.554
REMARK INTER:                 -11.202
REMARK INTRA:                  -1.352
REMARK UNBOUND:                -1.539
REMARK SMILES O=C([O-])[C@@H]1O[C@H](Oc2cc3oc(-c4ccccc4)cc(=O)c3c(O)c2O)[C@@H](O)[C@H](O)[C@H]1O
REMARK SMILES IDX 7 1 6 2 4 3 31 4 5 5 29 6 27 7 2 8 1 9 3 10 32 11 30 13
REMARK SMILES IDX 28 15 8 17 25 18 9 19 23 20 10 21 22 22 11 23 20 24 12 25
REMARK SMILES IDX 19 26 21 27 26 28 24 30 13 32 14 33 18 34 15 35 17 36 16 37
REMARK H PARENT 32 12 30 14 28 16 26 29 24 31
REMARK Flexibility Score: inf
ROOT
ATOM      1  O   UNL     1     -30.367   7.151   1.210  1.00  0.00    -0.458 OA
ENDROOT
BRANCH   1   2
ATOM      2  C   UNL     1     -29.220   7.453   2.021  1.00  0.00     0.339 C 
ATOM      3  C   UNL     1     -27.590   7.036   0.321  1.00  0.00     0.199 C 
ATOM      4  C   UNL     1     -27.284   8.552   0.161  1.00  0.00     0.180 C 
ATOM      5  O   UNL     1     -28.098   6.680   1.602  1.00  0.00    -0.328 OA
ATOM      6  C   UNL     1     -28.424   9.445   0.666  1.00  0.00     0.181 C 
ATOM      7  C   UNL     1     -28.914   8.970   2.049  1.00  0.00     0.214 C 
BRANCH   3   8
ATOM      8  C   UNL     1     -28.396   6.392  -0.786  1.00  0.00     0.073 C 
ATOM      9  O   UNL     1     -28.810   7.061  -1.777  1.00  0.00    -0.547 OA
ATOM     10  O   UNL     1     -28.698   5.030  -0.704  1.00  0.00    -0.547 OA
ENDBRANCH   3   8
BRANCH   4  11
ATOM     11  O   UNL     1     -26.075   8.906   0.803  1.00  0.00    -0.387 OA
ATOM     12  H   UNL     1     -26.248   9.220   1.745  1.00  0.00     0.211 HD
ENDBRANCH   4  11
BRANCH   6  13
ATOM     13  O   UNL     1     -29.490   9.419  -0.257  1.00  0.00    -0.387 OA
ATOM     14  H   UNL     1     -30.304   9.118   0.228  1.00  0.00     0.211 HD
ENDBRANCH   6  13
BRANCH   7  15
ATOM     15  O   UNL     1     -27.965   9.235   3.054  1.00  0.00    -0.384 OA
ATOM     16  H   UNL     1     -27.747  10.205   2.993  1.00  0.00     0.211 HD
ENDBRANCH   7  15
ENDBRANCH   1   2
BRANCH   1  17
ATOM     17  C   UNL     1     -31.523   6.461   1.630  1.00  0.00     0.172 A 
ATOM     18  C   UNL     1     -32.478   6.999   2.518  1.00  0.00     0.201 A 
ATOM     19  C   UNL     1     -31.726   5.182   1.108  1.00  0.00     0.098 A 
ATOM     20  C   UNL     1     -33.645   6.272   2.847  1.00  0.00     0.176 A 
ATOM     21  C   UNL     1     -32.860   4.437   1.439  1.00  0.00     0.146 A 
ATOM     22  C   UNL     1     -33.820   4.946   2.348  1.00  0.00     0.111 A 
ATOM     23  O   UNL     1     -33.021   3.234   0.876  1.00  0.00    -0.456 OA
ATOM     24  C   UNL     1     -34.898   4.096   2.692  1.00  0.00     0.197 A 
ATOM     25  C   UNL     1     -34.059   2.451   1.140  1.00  0.00     0.138 A 
ATOM     26  C   UNL     1     -35.006   2.841   2.091  1.00  0.00     0.100 A 
ATOM     27  O   UNL     1     -35.746   4.401   3.568  1.00  0.00    -0.289 OA
BRANCH  18  28
ATOM     28  O   UNL     1     -32.288   8.270   3.067  1.00  0.00    -0.502 OA
ATOM     29  H   UNL     1     -32.162   8.421   4.056  1.00  0.00     0.293 HD
ENDBRANCH  18  28
BRANCH  20  30
ATOM     30  O   UNL     1     -34.581   6.924   3.659  1.00  0.00    -0.504 OA
ATOM     31  H   UNL     1     -35.069   7.786   3.452  1.00  0.00     0.293 HD
ENDBRANCH  20  30
BRANCH  25  32
ATOM     32  C   UNL     1     -34.165   1.141   0.477  1.00  0.00     0.017 A 
ATOM     33  C   UNL     1     -35.099   0.191   0.924  1.00  0.00     0.012 A 
ATOM     34  C   UNL     1     -33.346   0.845  -0.626  1.00  0.00     0.012 A 
ATOM     35  C   UNL     1     -35.226  -1.031   0.264  1.00  0.00     0.001 A 
ATOM     36  C   UNL     1     -33.486  -0.378  -1.290  1.00  0.00     0.001 A 
ATOM     37  C   UNL     1     -34.430  -1.311  -0.850  1.00  0.00     0.000 A 
ENDBRANCH  25  32
ENDBRANCH   1  17
TORSDOF 9
ENDMDL
MODEL 8
REMARK VINA RESULT:    -7.526      2.085      8.976
REMARK INTER + INTRA:         -11.924
REMARK INTER:                 -10.644
REMARK INTRA:                  -1.281
REMARK UNBOUND:                -1.539
REMARK SMILES O=C([O-])[C@@H]1O[C@H](Oc2cc3oc(-c4ccccc4)cc(=O)c3c(O)c2O)[C@@H](O)[C@H](O)[C@H]1O
REMARK SMILES IDX 7 1 6 2 4 3 31 4 5 5 29 6 27 7 2 8 1 9 3 10 32 11 30 13
REMARK SMILES IDX 28 15 8 17 25 18 9 19 23 20 10 21 22 22 11 23 20 24 12 25
REMARK SMILES IDX 19 26 21 27 26 28 24 30 13 32 14 33 18 34 15 35 17 36 16 37
REMARK H PARENT 32 12 30 14 28 16 26 29 24 31
REMARK Flexibility Score: inf
ROOT
ATOM      1  O   UNL     1     -27.587   7.498   1.045  1.00  0.00    -0.458 OA
ENDROOT
BRANCH   1   2
ATOM      2  C   UNL     1     -27.043   8.454   0.121  1.00  0.00     0.339 C 
ATOM      3  C   UNL     1     -25.654   9.580   1.710  1.00  0.00     0.199 C 
ATOM      4  C   UNL     1     -24.361   8.968   1.101  1.00  0.00     0.180 C 
ATOM      5  O   UNL     1     -26.738   9.674   0.791  1.00  0.00    -0.328 OA
ATOM      6  C   UNL     1     -24.630   7.689   0.299  1.00  0.00     0.181 C 
ATOM      7  C   UNL     1     -25.828   7.886  -0.652  1.00  0.00     0.214 C 
BRANCH   3   8
ATOM      8  C   UNL     1     -26.109   9.011   3.036  1.00  0.00     0.073 C 
ATOM      9  O   UNL     1     -27.280   9.205   3.472  1.00  0.00    -0.547 OA
ATOM     10  O   UNL     1     -25.208   8.264   3.800  1.00  0.00    -0.547 OA
ENDBRANCH   3   8
BRANCH   4  11
ATOM     11  O   UNL     1     -23.673   9.904   0.297  1.00  0.00    -0.387 OA
ATOM     12  H   UNL     1     -24.302  10.617  -0.040  1.00  0.00     0.211 HD
ENDBRANCH   4  11
BRANCH   6  13
ATOM     13  O   UNL     1     -24.890   6.620   1.182  1.00  0.00    -0.387 OA
ATOM     14  H   UNL     1     -25.670   6.873   1.744  1.00  0.00     0.211 HD
ENDBRANCH   6  13
BRANCH   7  15
ATOM     15  O   UNL     1     -25.508   8.750  -1.716  1.00  0.00    -0.384 OA
ATOM     16  H   UNL     1     -26.104   8.504  -2.475  1.00  0.00     0.211 HD
ENDBRANCH   7  15
ENDBRANCH   1   2
BRANCH   1  17
ATOM     17  C   UNL     1     -28.613   6.570   0.771  1.00  0.00     0.172 A 
ATOM     18  C   UNL     1     -28.390   5.302   0.192  1.00  0.00     0.201 A 
ATOM     19  C   UNL     1     -29.914   6.936   1.122  1.00  0.00     0.098 A 
ATOM     20  C   UNL     1     -29.460   4.399   0.004  1.00  0.00     0.176 A 
ATOM     21  C   UNL     1     -30.989   6.069   0.921  1.00  0.00     0.146 A 
ATOM     22  C   UNL     1     -30.793   4.801   0.319  1.00  0.00     0.111 A 
ATOM     23  O   UNL     1     -32.207   6.458   1.314  1.00  0.00    -0.456 OA
ATOM     24  C   UNL     1     -31.946   4.015   0.078  1.00  0.00     0.197 A 
ATOM     25  C   UNL     1     -33.288   5.707   1.152  1.00  0.00     0.138 A 
ATOM     26  C   UNL     1     -33.196   4.480   0.488  1.00  0.00     0.100 A 
ATOM     27  O   UNL     1     -31.902   2.926  -0.548  1.00  0.00    -0.289 OA
BRANCH  18  28
ATOM     28  O   UNL     1     -27.099   4.919  -0.182  1.00  0.00    -0.502 OA
ATOM     29  H   UNL     1     -26.362   4.768   0.489  1.00  0.00     0.293 HD
ENDBRANCH  18  28
BRANCH  20  30
ATOM     30  O   UNL     1     -29.130   3.131  -0.489  1.00  0.00    -0.504 OA
ATOM     31  H   UNL     1     -28.381   2.530  -0.166  1.00  0.00     0.293 HD
ENDBRANCH  20  30
BRANCH  25  32
ATOM     32  C   UNL     1     -34.593   6.207   1.613  1.00  0.00     0.017 A 
ATOM     33  C   UNL     1     -34.722   7.521   2.094  1.00  0.00     0.012 A 
ATOM     34  C   UNL     1     -35.726   5.378   1.549  1.00  0.00     0.012 A 
ATOM     35  C   UNL     1     -35.970   8.005   2.487  1.00  0.00     0.001 A 
ATOM     36  C   UNL     1     -36.975   5.872   1.934  1.00  0.00     0.001 A 
ATOM     37  C   UNL     1     -37.098   7.186   2.395  1.00  0.00     0.000 A 
ENDBRANCH  25  32
ENDBRANCH   1  17
TORSDOF 9
ENDMDL
MODEL 9
REMARK VINA RESULT:    -7.039      2.348      8.865
REMARK INTER + INTRA:         -11.253
REMARK INTER:                 -10.201
REMARK INTRA:                  -1.052
REMARK UNBOUND:                -1.539
REMARK SMILES O=C([O-])[C@@H]1O[C@H](Oc2cc3oc(-c4ccccc4)cc(=O)c3c(O)c2O)[C@@H](O)[C@H](O)[C@H]1O
REMARK SMILES IDX 7 1 6 2 4 3 31 4 5 5 29 6 27 7 2 8 1 9 3 10 32 11 30 13
REMARK SMILES IDX 28 15 8 17 25 18 9 19 23 20 10 21 22 22 11 23 20 24 12 25
REMARK SMILES IDX 19 26 21 27 26 28 24 30 13 32 14 33 18 34 15 35 17 36 16 37
REMARK H PARENT 32 12 30 14 28 16 26 29 24 31
REMARK Flexibility Score: inf
ROOT
ATOM      1  O   UNL     1     -27.877   6.780   0.537  1.00  0.00    -0.458 OA
ENDROOT
BRANCH   1   2
ATOM      2  C   UNL     1     -27.231   7.749  -0.306  1.00  0.00     0.339 C 
ATOM      3  C   UNL     1     -27.201   9.511   1.311  1.00  0.00     0.199 C 
ATOM      4  C   UNL     1     -25.667   9.373   1.520  1.00  0.00     0.180 C 
ATOM      5  O   UNL     1     -27.655   9.066   0.037  1.00  0.00    -0.328 OA
ATOM      6  C   UNL     1     -25.132   7.999   1.098  1.00  0.00     0.181 C 
ATOM      7  C   UNL     1     -25.691   7.601  -0.284  1.00  0.00     0.214 C 
BRANCH   3   8
ATOM      8  C   UNL     1     -28.082   8.981   2.422  1.00  0.00     0.073 C 
ATOM      9  O   UNL     1     -27.602   8.637   3.540  1.00  0.00    -0.547 OA
ATOM     10  O   UNL     1     -29.457   8.861   2.201  1.00  0.00    -0.547 OA
ENDBRANCH   3   8
BRANCH   4  11
ATOM     11  O   UNL     1     -24.958  10.394   0.847  1.00  0.00    -0.387 OA
ATOM     12  H   UNL     1     -24.015  10.464   1.194  1.00  0.00     0.211 HD
ENDBRANCH   4  11
BRANCH   6  13
ATOM     13  O   UNL     1     -25.492   7.033   2.059  1.00  0.00    -0.387 OA
ATOM     14  H   UNL     1     -25.375   7.440   2.958  1.00  0.00     0.211 HD
ENDBRANCH   6  13
BRANCH   7  15
ATOM     15  O   UNL     1     -25.133   8.381  -1.314  1.00  0.00    -0.384 OA
ATOM     16  H   UNL     1     -24.520   7.785  -1.825  1.00  0.00     0.211 HD
ENDBRANCH   7  15
ENDBRANCH   1   2
BRANCH   1  17
ATOM     17  C   UNL     1     -28.781   5.784   0.114  1.00  0.00     0.172 A 
ATOM     18  C   UNL     1     -28.483   4.822  -0.874  1.00  0.00     0.201 A 
ATOM     19  C   UNL     1     -30.029   5.751   0.739  1.00  0.00     0.098 A 
ATOM     20  C   UNL     1     -29.418   3.815  -1.202  1.00  0.00     0.176 A 
ATOM     21  C   UNL     1     -30.976   4.779   0.412  1.00  0.00     0.146 A 
ATOM     22  C   UNL     1     -30.710   3.818  -0.595  1.00  0.00     0.111 A 
ATOM     23  O   UNL     1     -32.140   4.772   1.073  1.00  0.00    -0.456 OA
ATOM     24  C   UNL     1     -31.752   2.919  -0.922  1.00  0.00     0.197 A 
ATOM     25  C   UNL     1     -33.103   3.896   0.821  1.00  0.00     0.138 A 
ATOM     26  C   UNL     1     -32.955   2.970  -0.216  1.00  0.00     0.100 A 
ATOM     27  O   UNL     1     -31.665   2.100  -1.871  1.00  0.00    -0.289 OA
BRANCH  18  28
ATOM     28  O   UNL     1     -27.246   4.845  -1.525  1.00  0.00    -0.502 OA
ATOM     29  H   UNL     1     -27.108   4.444  -2.440  1.00  0.00     0.293 HD
ENDBRANCH  18  28
BRANCH  20  30
ATOM     30  O   UNL     1     -28.999   2.848  -2.125  1.00  0.00    -0.504 OA
ATOM     31  H   UNL     1     -29.089   1.844  -2.035  1.00  0.00     0.293 HD
ENDBRANCH  20  30
BRANCH  25  32
ATOM     32  C   UNL     1     -34.355   3.954   1.594  1.00  0.00     0.017 A 
ATOM     33  C   UNL     1     -35.031   5.174   1.762  1.00  0.00     0.012 A 
ATOM     34  C   UNL     1     -34.893   2.779   2.146  1.00  0.00     0.012 A 
ATOM     35  C   UNL     1     -36.240   5.215   2.457  1.00  0.00     0.001 A 
ATOM     36  C   UNL     1     -36.111   2.825   2.832  1.00  0.00     0.001 A 
ATOM     37  C   UNL     1     -36.787   4.040   2.980  1.00  0.00     0.000 A 
ENDBRANCH  25  32
ENDBRANCH   1  17
TORSDOF 9
ENDMDL
