MODEL 1
REMARK VINA RESULT:    -5.231      0.000      0.000
REMARK INTER + INTRA:          -6.894
REMARK INTER:                  -7.371
REMARK INTRA:                   0.477
REMARK UNBOUND:                 0.477
REMARK SMILES CC1=CCC(=C(C)C)C(=O)CC(C)=CCC1
REMARK SMILES IDX 12 1 14 2 13 3 15 4 16 5 2 6 1 7 3 8 11 10 9 11 10 12 5 13
REMARK SMILES IDX 6 14 7 15 8 16 4 17
REMARK H PARENT
REMARK Flexibility Score: 60.00
ROOT
ATOM      1  C   UNL     1     -11.466 -34.085  27.781  1.00  0.00    -0.070 C 
ATOM      2  C   UNL     1     -10.791 -34.981  28.534  1.00  0.00    -0.027 C 
ATOM      3  C   UNL     1     -11.464 -34.275  26.286  1.00  0.00     0.039 C 
ENDROOT
BRANCH   2   4
ATOM      4  C   UNL     1     -10.595 -34.908  30.034  1.00  0.00     0.032 C 
BRANCH   4   5
ATOM      5  C   UNL     1     -11.130 -36.124  30.816  1.00  0.00     0.034 C 
BRANCH   5   6
ATOM      6  C   UNL     1     -12.603 -36.395  30.566  1.00  0.00    -0.077 C 
ATOM      7  C   UNL     1     -12.989 -37.761  30.055  1.00  0.00     0.039 C 
ATOM      8  C   UNL     1     -13.584 -35.469  30.704  1.00  0.00    -0.023 CG0
ATOM      9  G   UNL     1     -13.437 -34.051  31.215  1.00  0.00     0.000 G0
ENDBRANCH   5   6
ENDBRANCH   4   5
ENDBRANCH   2   4
BRANCH   1  10
ATOM     10  C   UNL     1     -12.141 -32.858  28.358  1.00  0.00     0.111 C 
BRANCH  10  11
ATOM     11  C   UNL     1     -13.547 -33.157  28.809  1.00  0.00     0.163 C 
ATOM     12  O   UNL     1     -14.395 -33.485  27.935  1.00  0.00    -0.294 OA
BRANCH  11  13
ATOM     13  C   UNL     1     -13.978 -33.019  30.232  1.00  0.00    -0.002 C 
ATOM     14  C   UNL     1     -14.744 -31.961  30.632  1.00  0.00    -0.069 C 
ATOM     15  C   UNL     1     -15.313 -30.982  29.627  1.00  0.00     0.039 C 
ATOM     16  C   UNL     1     -15.065 -31.707  32.088  1.00  0.00     0.039 C 
BRANCH  13  17
ATOM     17  C   UNL     1     -13.450 -34.047  31.221  1.00  0.00     0.066 CG0
ATOM     18  G   UNL     1     -13.565 -35.464  30.697  1.00  0.00     0.000 G0
ENDBRANCH  13  17
ENDBRANCH  11  13
ENDBRANCH  10  11
ENDBRANCH   1  10
TORSDOF 0
ENDMDL
MODEL 2
REMARK VINA RESULT:    -4.948      1.717      3.229
REMARK INTER + INTRA:          -6.496
REMARK INTER:                  -6.834
REMARK INTRA:                   0.338
REMARK UNBOUND:                 0.477
REMARK SMILES CC1=CCC(=C(C)C)C(=O)CC(C)=CCC1
REMARK SMILES IDX 12 1 14 2 13 3 15 4 16 5 2 6 1 7 3 8 11 10 9 11 10 12 5 13
REMARK SMILES IDX 6 14 7 15 8 16 4 17
REMARK H PARENT
REMARK Flexibility Score: 60.00
ROOT
ATOM      1  C   UNL     1     -13.444 -36.470  29.199  1.00  0.00    -0.070 C 
ATOM      2  C   UNL     1     -13.826 -36.753  30.464  1.00  0.00    -0.027 C 
ATOM      3  C   UNL     1     -14.360 -36.885  28.075  1.00  0.00     0.039 C 
ENDROOT
BRANCH   2   4
ATOM      4  C   UNL     1     -13.006 -36.507  31.711  1.00  0.00     0.032 C 
BRANCH   4   5
ATOM      5  C   UNL     1     -12.501 -35.059  31.878  1.00  0.00     0.034 C 
BRANCH   5   6
ATOM      6  C   UNL     1     -13.610 -34.026  31.792  1.00  0.00    -0.077 C 
ATOM      7  C   UNL     1     -14.736 -34.121  32.791  1.00  0.00     0.039 C 
ATOM      8  C   UNL     1     -13.691 -33.069  30.835  1.00  0.00    -0.023 CG0
ATOM      9  G   UNL     1     -12.676 -32.775  29.749  1.00  0.00     0.000 G0
ENDBRANCH   5   6
ENDBRANCH   4   5
ENDBRANCH   2   4
BRANCH   1  10
ATOM     10  C   UNL     1     -12.109 -35.844  28.855  1.00  0.00     0.111 C 
BRANCH  10  11
ATOM     11  C   UNL     1     -12.274 -34.626  27.985  1.00  0.00     0.163 C 
ATOM     12  O   UNL     1     -11.675 -34.603  26.875  1.00  0.00    -0.294 OA
BRANCH  11  13
ATOM     13  C   UNL     1     -13.062 -33.434  28.416  1.00  0.00    -0.002 C 
ATOM     14  C   UNL     1     -14.032 -32.907  27.609  1.00  0.00    -0.069 C 
ATOM     15  C   UNL     1     -14.448 -33.600  26.330  1.00  0.00     0.039 C 
ATOM     16  C   UNL     1     -14.738 -31.611  27.945  1.00  0.00     0.039 C 
BRANCH  13  17
ATOM     17  C   UNL     1     -12.675 -32.784  29.735  1.00  0.00     0.066 CG0
ATOM     18  G   UNL     1     -13.677 -33.070  30.835  1.00  0.00     0.000 G0
ENDBRANCH  13  17
ENDBRANCH  11  13
ENDBRANCH  10  11
ENDBRANCH   1  10
TORSDOF 0
ENDMDL
MODEL 3
REMARK VINA RESULT:    -4.901      2.070      4.804
REMARK INTER + INTRA:          -6.429
REMARK INTER:                  -6.791
REMARK INTRA:                   0.362
REMARK UNBOUND:                 0.477
REMARK SMILES CC1=CCC(=C(C)C)C(=O)CC(C)=CCC1
REMARK SMILES IDX 12 1 14 2 13 3 15 4 16 5 2 6 1 7 3 8 11 10 9 11 10 12 5 13
REMARK SMILES IDX 6 14 7 15 8 16 4 17
REMARK H PARENT
REMARK Flexibility Score: 60.00
ROOT
ATOM      1  C   UNL     1     -13.570 -33.453  31.217  1.00  0.00    -0.070 C 
ATOM      2  C   UNL     1     -14.382 -32.674  30.469  1.00  0.00    -0.027 C 
ATOM      3  C   UNL     1     -14.195 -34.272  32.319  1.00  0.00     0.039 C 
ENDROOT
BRANCH   2   4
ATOM      4  C   UNL     1     -13.936 -31.712  29.389  1.00  0.00     0.032 C 
BRANCH   4   5
ATOM      5  C   UNL     1     -12.956 -32.308  28.357  1.00  0.00     0.034 C 
BRANCH   5   6
ATOM      6  C   UNL     1     -13.566 -33.427  27.532  1.00  0.00    -0.077 C 
ATOM      7  C   UNL     1     -14.809 -33.115  26.736  1.00  0.00     0.039 C 
ATOM      8  C   UNL     1     -13.108 -34.703  27.518  1.00  0.00    -0.023 CG0
ATOM      9  G   UNL     1     -11.877 -35.240  28.218  1.00  0.00     0.000 G0
ENDBRANCH   5   6
ENDBRANCH   4   5
ENDBRANCH   2   4
BRANCH   1  10
ATOM     10  C   UNL     1     -12.064 -33.473  31.062  1.00  0.00     0.111 C 
BRANCH  10  11
ATOM     11  C   UNL     1     -11.556 -34.854  30.739  1.00  0.00     0.163 C 
ATOM     12  O   UNL     1     -10.569 -35.292  31.391  1.00  0.00    -0.294 OA
BRANCH  11  13
ATOM     13  C   UNL     1     -12.137 -35.685  29.644  1.00  0.00    -0.002 C 
ATOM     14  C   UNL     1     -12.802 -36.845  29.923  1.00  0.00    -0.069 C 
ATOM     15  C   UNL     1     -13.112 -37.247  31.350  1.00  0.00     0.039 C 
ATOM     16  C   UNL     1     -13.264 -37.788  28.834  1.00  0.00     0.039 C 
BRANCH  13  17
ATOM     17  C   UNL     1     -11.873 -35.236  28.214  1.00  0.00     0.066 CG0
ATOM     18  G   UNL     1     -13.119 -34.704  27.538  1.00  0.00     0.000 G0
ENDBRANCH  13  17
ENDBRANCH  11  13
ENDBRANCH  10  11
ENDBRANCH   1  10
TORSDOF 0
ENDMDL
MODEL 4
REMARK VINA RESULT:    -4.861      1.774      3.780
REMARK INTER + INTRA:          -6.374
REMARK INTER:                  -7.619
REMARK INTRA:                   1.245
REMARK UNBOUND:                 0.477
REMARK SMILES CC1=CCC(=C(C)C)C(=O)CC(C)=CCC1
REMARK SMILES IDX 12 1 14 2 13 3 15 4 16 5 2 6 1 7 3 8 11 10 9 11 10 12 5 13
REMARK SMILES IDX 6 14 7 15 8 16 4 17
REMARK H PARENT
REMARK Flexibility Score: 60.00
ROOT
ATOM      1  C   UNL     1     -13.678 -32.485  28.809  1.00  0.00    -0.070 C 
ATOM      2  C   UNL     1     -14.420 -32.465  29.939  1.00  0.00    -0.027 C 
ATOM      3  C   UNL     1     -14.384 -32.263  27.496  1.00  0.00     0.039 C 
ENDROOT
BRANCH   2   4
ATOM      4  C   UNL     1     -13.915 -32.761  31.334  1.00  0.00     0.032 C 
BRANCH   4   5
ATOM      5  C   UNL     1     -13.265 -34.149  31.506  1.00  0.00     0.034 C 
BRANCH   5   6
ATOM      6  C   UNL     1     -11.784 -34.079  31.836  1.00  0.00    -0.077 C 
ATOM      7  C   UNL     1     -11.352 -33.126  32.922  1.00  0.00     0.039 C 
ATOM      8  C   UNL     1     -10.820 -34.763  31.172  1.00  0.00    -0.023 CG0
ATOM      9  G   UNL     1     -11.018 -35.782  30.068  1.00  0.00     0.000 G0
ENDBRANCH   5   6
ENDBRANCH   4   5
ENDBRANCH   2   4
BRANCH   1  10
ATOM     10  C   UNL     1     -12.198 -32.808  28.794  1.00  0.00     0.111 C 
BRANCH  10  11
ATOM     11  C   UNL     1     -11.938 -34.195  28.266  1.00  0.00     0.163 C 
ATOM     12  O   UNL     1     -11.603 -34.317  27.056  1.00  0.00    -0.294 OA
BRANCH  11  13
ATOM     13  C   UNL     1     -12.122 -35.418  29.101  1.00  0.00    -0.002 C 
ATOM     14  C   UNL     1     -13.292 -36.124  29.060  1.00  0.00    -0.069 C 
ATOM     15  C   UNL     1     -14.375 -35.787  28.058  1.00  0.00     0.039 C 
ATOM     16  C   UNL     1     -13.570 -37.272  30.006  1.00  0.00     0.039 C 
BRANCH  13  17
ATOM     17  C   UNL     1     -10.998 -35.782  30.059  1.00  0.00     0.066 CG0
ATOM     18  G   UNL     1     -10.837 -34.766  31.171  1.00  0.00     0.000 G0
ENDBRANCH  13  17
ENDBRANCH  11  13
ENDBRANCH  10  11
ENDBRANCH   1  10
TORSDOF 0
ENDMDL
MODEL 5
REMARK VINA RESULT:    -4.811      1.800      4.201
REMARK INTER + INTRA:          -6.304
REMARK INTER:                  -6.646
REMARK INTRA:                   0.342
REMARK UNBOUND:                 0.477
REMARK SMILES CC1=CCC(=C(C)C)C(=O)CC(C)=CCC1
REMARK SMILES IDX 12 1 14 2 13 3 15 4 16 5 2 6 1 7 3 8 11 10 9 11 10 12 5 13
REMARK SMILES IDX 6 14 7 15 8 16 4 17
REMARK H PARENT
REMARK Flexibility Score: 60.00
ROOT
ATOM      1  C   UNL     1     -14.541 -31.722  28.957  1.00  0.00    -0.070 C 
ATOM      2  C   UNL     1     -14.868 -32.003  27.676  1.00  0.00    -0.027 C 
ATOM      3  C   UNL     1     -15.501 -30.883  29.763  1.00  0.00     0.039 C 
ENDROOT
BRANCH   2   4
ATOM      4  C   UNL     1     -13.997 -32.743  26.683  1.00  0.00     0.032 C 
BRANCH   4   5
ATOM      5  C   UNL     1     -13.855 -34.256  26.949  1.00  0.00     0.034 C 
BRANCH   5   6
ATOM      6  C   UNL     1     -12.413 -34.698  27.129  1.00  0.00    -0.077 C 
ATOM      7  C   UNL     1     -11.476 -34.529  25.960  1.00  0.00     0.039 C 
ATOM      8  C   UNL     1     -11.932 -35.297  28.246  1.00  0.00    -0.023 CG0
ATOM      9  G   UNL     1     -12.678 -35.552  29.540  1.00  0.00     0.000 G0
ENDBRANCH   5   6
ENDBRANCH   4   5
ENDBRANCH   2   4
BRANCH   1  10
ATOM     10  C   UNL     1     -13.225 -32.130  29.586  1.00  0.00     0.111 C 
BRANCH  10  11
ATOM     11  C   UNL     1     -13.398 -33.288  30.534  1.00  0.00     0.163 C 
ATOM     12  O   UNL     1     -14.349 -33.243  31.360  1.00  0.00    -0.294 OA
BRANCH  11  13
ATOM     13  C   UNL     1     -12.453 -34.443  30.568  1.00  0.00    -0.002 C 
ATOM     14  C   UNL     1     -11.387 -34.451  31.424  1.00  0.00    -0.069 C 
ATOM     15  C   UNL     1     -11.216 -33.372  32.472  1.00  0.00     0.039 C 
ATOM     16  C   UNL     1     -10.326 -35.528  31.374  1.00  0.00     0.039 C 
BRANCH  13  17
ATOM     17  C   UNL     1     -12.673 -35.552  29.551  1.00  0.00     0.066 CG0
ATOM     18  G   UNL     1     -11.934 -35.299  28.253  1.00  0.00     0.000 G0
ENDBRANCH  13  17
ENDBRANCH  11  13
ENDBRANCH  10  11
ENDBRANCH   1  10
TORSDOF 0
ENDMDL
MODEL 6
REMARK VINA RESULT:    -4.716      1.906      3.407
REMARK INTER + INTRA:          -6.169
REMARK INTER:                  -7.072
REMARK INTRA:                   0.902
REMARK UNBOUND:                 0.477
REMARK SMILES CC1=CCC(=C(C)C)C(=O)CC(C)=CCC1
REMARK SMILES IDX 12 1 14 2 13 3 15 4 16 5 2 6 1 7 3 8 11 10 9 11 10 12 5 13
REMARK SMILES IDX 6 14 7 15 8 16 4 17
REMARK H PARENT
REMARK Flexibility Score: 60.00
ROOT
ATOM      1  C   UNL     1     -13.055 -34.116  31.340  1.00  0.00    -0.070 C 
ATOM      2  C   UNL     1     -13.548 -35.337  31.644  1.00  0.00    -0.027 C 
ATOM      3  C   UNL     1     -14.003 -32.943  31.372  1.00  0.00     0.039 C 
ENDROOT
BRANCH   2   4
ATOM      4  C   UNL     1     -12.784 -36.641  31.573  1.00  0.00     0.032 C 
BRANCH   4   5
ATOM      5  C   UNL     1     -12.193 -36.971  30.187  1.00  0.00     0.034 C 
BRANCH   5   6
ATOM      6  C   UNL     1     -13.214 -36.883  29.066  1.00  0.00    -0.077 C 
ATOM      7  C   UNL     1     -14.381 -37.838  29.104  1.00  0.00     0.039 C 
ATOM      8  C   UNL     1     -13.107 -36.053  28.000  1.00  0.00    -0.023 CG0
ATOM      9  G   UNL     1     -12.040 -35.005  27.760  1.00  0.00     0.000 G0
ENDBRANCH   5   6
ENDBRANCH   4   5
ENDBRANCH   2   4
BRANCH   1  10
ATOM     10  C   UNL     1     -11.629 -33.886  30.883  1.00  0.00     0.111 C 
BRANCH  10  11
ATOM     11  C   UNL     1     -11.579 -33.202  29.542  1.00  0.00     0.163 C 
ATOM     12  O   UNL     1     -10.850 -32.179  29.424  1.00  0.00    -0.294 OA
BRANCH  11  13
ATOM     13  C   UNL     1     -12.401 -33.653  28.381  1.00  0.00    -0.002 C 
ATOM     14  C   UNL     1     -13.477 -32.924  27.960  1.00  0.00    -0.069 C 
ATOM     15  C   UNL     1     -13.780 -31.563  28.549  1.00  0.00     0.039 C 
ATOM     16  C   UNL     1     -14.422 -33.431  26.892  1.00  0.00     0.039 C 
BRANCH  13  17
ATOM     17  C   UNL     1     -12.046 -34.994  27.757  1.00  0.00     0.066 CG0
ATOM     18  G   UNL     1     -13.115 -36.041  27.995  1.00  0.00     0.000 G0
ENDBRANCH  13  17
ENDBRANCH  11  13
ENDBRANCH  10  11
ENDBRANCH   1  10
TORSDOF 0
ENDMDL
MODEL 7
REMARK VINA RESULT:    -4.685      1.793      3.893
REMARK INTER + INTRA:          -6.125
REMARK INTER:                  -7.196
REMARK INTRA:                   1.071
REMARK UNBOUND:                 0.477
REMARK SMILES CC1=CCC(=C(C)C)C(=O)CC(C)=CCC1
REMARK SMILES IDX 12 1 14 2 13 3 15 4 16 5 2 6 1 7 3 8 11 10 9 11 10 12 5 13
REMARK SMILES IDX 6 14 7 15 8 16 4 17
REMARK H PARENT
REMARK Flexibility Score: 60.00
ROOT
ATOM      1  C   UNL     1     -13.181 -36.152  28.522  1.00  0.00    -0.070 C 
ATOM      2  C   UNL     1     -12.837 -35.156  27.675  1.00  0.00    -0.027 C 
ATOM      3  C   UNL     1     -14.477 -36.879  28.267  1.00  0.00     0.039 C 
ENDROOT
BRANCH   2   4
ATOM      4  C   UNL     1     -11.633 -34.251  27.818  1.00  0.00     0.032 C 
BRANCH   4   5
ATOM      5  C   UNL     1     -11.871 -32.989  28.673  1.00  0.00     0.034 C 
BRANCH   5   6
ATOM      6  C   UNL     1     -13.339 -32.731  28.962  1.00  0.00    -0.077 C 
ATOM      7  C   UNL     1     -14.213 -32.291  27.814  1.00  0.00     0.039 C 
ATOM      8  C   UNL     1     -13.899 -32.802  30.195  1.00  0.00    -0.023 CG0
ATOM      9  G   UNL     1     -13.226 -33.235  31.481  1.00  0.00     0.000 G0
ENDBRANCH   5   6
ENDBRANCH   4   5
ENDBRANCH   2   4
BRANCH   1  10
ATOM     10  C   UNL     1     -12.379 -36.506  29.757  1.00  0.00     0.111 C 
BRANCH  10  11
ATOM     11  C   UNL     1     -12.825 -35.712  30.956  1.00  0.00     0.163 C 
ATOM     12  O   UNL     1     -13.755 -36.181  31.668  1.00  0.00    -0.294 OA
BRANCH  11  13
ATOM     13  C   UNL     1     -12.252 -34.374  31.289  1.00  0.00    -0.002 C 
ATOM     14  C   UNL     1     -10.908 -34.216  31.477  1.00  0.00    -0.069 C 
ATOM     15  C   UNL     1      -9.940 -35.346  31.202  1.00  0.00     0.039 C 
ATOM     16  C   UNL     1     -10.315 -32.914  31.969  1.00  0.00     0.039 C 
BRANCH  13  17
ATOM     17  C   UNL     1     -13.233 -33.231  31.501  1.00  0.00     0.066 CG0
ATOM     18  G   UNL     1     -13.900 -32.797  30.212  1.00  0.00     0.000 G0
ENDBRANCH  13  17
ENDBRANCH  11  13
ENDBRANCH  10  11
ENDBRANCH   1  10
TORSDOF 0
ENDMDL
MODEL 8
REMARK VINA RESULT:    -4.684      1.987      4.114
REMARK INTER + INTRA:          -6.124
REMARK INTER:                  -6.433
REMARK INTRA:                   0.308
REMARK UNBOUND:                 0.477
REMARK SMILES CC1=CCC(=C(C)C)C(=O)CC(C)=CCC1
REMARK SMILES IDX 12 1 14 2 13 3 15 4 16 5 2 6 1 7 3 8 11 10 9 11 10 12 5 13
REMARK SMILES IDX 6 14 7 15 8 16 4 17
REMARK H PARENT
REMARK Flexibility Score: 60.00
ROOT
ATOM      1  C   UNL     1     -14.012 -32.679  31.466  1.00  0.00    -0.070 C 
ATOM      2  C   UNL     1     -13.129 -32.899  32.466  1.00  0.00    -0.027 C 
ATOM      3  C   UNL     1     -15.100 -31.660  31.696  1.00  0.00     0.039 C 
ENDROOT
BRANCH   2   4
ATOM      4  C   UNL     1     -12.034 -33.944  32.465  1.00  0.00     0.032 C 
BRANCH   4   5
ATOM      5  C   UNL     1     -10.765 -33.549  31.682  1.00  0.00     0.034 C 
BRANCH   5   6
ATOM      6  C   UNL     1     -10.407 -34.538  30.587  1.00  0.00    -0.077 C 
ATOM      7  C   UNL     1      -9.876 -35.887  31.005  1.00  0.00     0.039 C 
ATOM      8  C   UNL     1     -10.466 -34.264  29.260  1.00  0.00    -0.023 CG0
ATOM      9  G   UNL     1     -10.979 -32.995  28.611  1.00  0.00     0.000 G0
ENDBRANCH   5   6
ENDBRANCH   4   5
ENDBRANCH   2   4
BRANCH   1  10
ATOM     10  C   UNL     1     -14.015 -33.468  30.173  1.00  0.00     0.111 C 
BRANCH  10  11
ATOM     11  C   UNL     1     -13.497 -32.648  29.021  1.00  0.00     0.163 C 
ATOM     12  O   UNL     1     -14.040 -31.532  28.794  1.00  0.00    -0.294 OA
BRANCH  11  13
ATOM     13  C   UNL     1     -12.418 -33.135  28.113  1.00  0.00    -0.002 C 
ATOM     14  C   UNL     1     -12.722 -33.756  26.934  1.00  0.00    -0.069 C 
ATOM     15  C   UNL     1     -14.148 -33.831  26.433  1.00  0.00     0.039 C 
ATOM     16  C   UNL     1     -11.660 -34.400  26.069  1.00  0.00     0.039 C 
BRANCH  13  17
ATOM     17  C   UNL     1     -10.983 -32.995  28.599  1.00  0.00     0.066 CG0
ATOM     18  G   UNL     1     -10.469 -34.264  29.247  1.00  0.00     0.000 G0
ENDBRANCH  13  17
ENDBRANCH  11  13
ENDBRANCH  10  11
ENDBRANCH   1  10
TORSDOF 0
ENDMDL
MODEL 9
REMARK VINA RESULT:    -4.651      1.966      3.839
REMARK INTER + INTRA:          -6.078
REMARK INTER:                  -6.662
REMARK INTRA:                   0.584
REMARK UNBOUND:                 0.477
REMARK SMILES CC1=CCC(=C(C)C)C(=O)CC(C)=CCC1
REMARK SMILES IDX 12 1 14 2 13 3 15 4 16 5 2 6 1 7 3 8 11 10 9 11 10 12 5 13
REMARK SMILES IDX 6 14 7 15 8 16 4 17
REMARK H PARENT
REMARK Flexibility Score: 60.00
ROOT
ATOM      1  C   UNL     1     -12.037 -36.600  30.395  1.00  0.00    -0.070 C 
ATOM      2  C   UNL     1     -13.056 -36.767  29.523  1.00  0.00    -0.027 C 
ATOM      3  C   UNL     1     -12.169 -37.220  31.763  1.00  0.00     0.039 C 
ENDROOT
BRANCH   2   4
ATOM      4  C   UNL     1     -13.153 -36.145  28.147  1.00  0.00     0.032 C 
BRANCH   4   5
ATOM      5  C   UNL     1     -14.394 -35.255  27.926  1.00  0.00     0.034 C 
BRANCH   5   6
ATOM      6  C   UNL     1     -14.072 -33.771  27.924  1.00  0.00    -0.077 C 
ATOM      7  C   UNL     1     -14.103 -33.049  26.600  1.00  0.00     0.039 C 
ATOM      8  C   UNL     1     -13.691 -33.070  29.020  1.00  0.00    -0.023 CG0
ATOM      9  G   UNL     1     -13.607 -33.577  30.445  1.00  0.00     0.000 G0
ENDBRANCH   5   6
ENDBRANCH   4   5
ENDBRANCH   2   4
BRANCH   1  10
ATOM     10  C   UNL     1     -10.820 -35.749  30.097  1.00  0.00     0.111 C 
BRANCH  10  11
ATOM     11  C   UNL     1     -11.165 -34.283  30.050  1.00  0.00     0.163 C 
ATOM     12  O   UNL     1     -10.531 -33.549  29.243  1.00  0.00    -0.294 OA
BRANCH  11  13
ATOM     13  C   UNL     1     -12.176 -33.669  30.959  1.00  0.00    -0.002 C 
ATOM     14  C   UNL     1     -11.839 -33.295  32.230  1.00  0.00    -0.069 C 
ATOM     15  C   UNL     1     -10.403 -33.342  32.705  1.00  0.00     0.039 C 
ATOM     16  C   UNL     1     -12.873 -32.817  33.226  1.00  0.00     0.039 C 
BRANCH  13  17
ATOM     17  C   UNL     1     -13.604 -33.569  30.445  1.00  0.00     0.066 CG0
ATOM     18  G   UNL     1     -13.669 -33.068  29.017  1.00  0.00     0.000 G0
ENDBRANCH  13  17
ENDBRANCH  11  13
ENDBRANCH  10  11
ENDBRANCH   1  10
TORSDOF 0
ENDMDL
