MODEL 1
REMARK VINA RESULT:    -4.536      0.000      0.000
REMARK INTER + INTRA:          -8.312
REMARK INTER:                  -7.718
REMARK INTRA:                  -0.595
REMARK UNBOUND:                -0.595
REMARK SMILES CCCCCCCCCCCCCC(=O)[O-]
REMARK SMILES IDX 8 1 9 2 10 3 11 4 12 5 13 6 14 7 15 8 16 9 7 10 6 11 5 12
REMARK SMILES IDX 4 13 3 14 2 15 1 16
REMARK H PARENT
REMARK Flexibility Score: inf
ROOT
ATOM      1  C   UNL     1      -1.258   9.025   8.550  1.00  0.00     0.000 C 
ENDROOT
BRANCH   1   2
ATOM      2  C   UNL     1      -0.055   9.733   9.192  1.00  0.00     0.000 C 
BRANCH   2   3
ATOM      3  C   UNL     1       1.239   9.558   8.381  1.00  0.00     0.000 C 
BRANCH   3   4
ATOM      4  C   UNL     1       2.273   8.675   9.102  1.00  0.00     0.000 C 
BRANCH   4   5
ATOM      5  C   UNL     1       3.693   8.820   8.521  1.00  0.00     0.006 C 
BRANCH   5   6
ATOM      6  C   UNL     1       3.923   8.019   7.228  1.00  0.00     0.053 C 
BRANCH   6   7
ATOM      7  C   UNL     1       5.325   8.139   6.715  1.00  0.00     0.041 C 
ATOM      8  O   UNL     1       6.292   8.221   7.520  1.00  0.00    -0.550 OA
ATOM      9  O   UNL     1       5.565   8.172   5.347  1.00  0.00    -0.550 OA
ENDBRANCH   6   7
ENDBRANCH   5   6
ENDBRANCH   4   5
ENDBRANCH   3   4
ENDBRANCH   2   3
ENDBRANCH   1   2
BRANCH   1  10
ATOM     10  C   UNL     1      -2.151  10.024   7.804  1.00  0.00     0.000 C 
BRANCH  10  11
ATOM     11  C   UNL     1      -2.825   9.362   6.593  1.00  0.00    -0.000 C 
BRANCH  11  12
ATOM     12  C   UNL     1      -2.293   7.945   6.321  1.00  0.00    -0.000 C 
BRANCH  12  13
ATOM     13  C   UNL     1      -2.329   7.575   4.831  1.00  0.00    -0.000 C 
BRANCH  13  14
ATOM     14  C   UNL     1      -2.185   6.057   4.639  1.00  0.00    -0.000 C 
BRANCH  14  15
ATOM     15  C   UNL     1      -3.486   5.297   4.938  1.00  0.00    -0.003 C 
ATOM     16  C   UNL     1      -3.335   4.296   6.084  1.00  0.00     0.004 C 
ENDBRANCH  14  15
ENDBRANCH  13  14
ENDBRANCH  12  13
ENDBRANCH  11  12
ENDBRANCH  10  11
ENDBRANCH   1  10
TORSDOF 12
ENDMDL
MODEL 2
REMARK VINA RESULT:    -4.161      3.617      6.872
REMARK INTER + INTRA:          -7.675
REMARK INTER:                  -6.853
REMARK INTRA:                  -0.822
REMARK UNBOUND:                -0.595
REMARK SMILES CCCCCCCCCCCCCC(=O)[O-]
REMARK SMILES IDX 8 1 9 2 10 3 11 4 12 5 13 6 14 7 15 8 16 9 7 10 6 11 5 12
REMARK SMILES IDX 4 13 3 14 2 15 1 16
REMARK H PARENT
REMARK Flexibility Score: inf
ROOT
ATOM      1  C   UNL     1      -2.862   9.244   8.122  1.00  0.00     0.000 C 
ENDROOT
BRANCH   1   2
ATOM      2  C   UNL     1      -2.280   9.347   6.705  1.00  0.00     0.000 C 
BRANCH   2   3
ATOM      3  C   UNL     1      -3.358   9.262   5.612  1.00  0.00     0.000 C 
BRANCH   3   4
ATOM      4  C   UNL     1      -3.001   8.253   4.507  1.00  0.00     0.000 C 
BRANCH   4   5
ATOM      5  C   UNL     1      -2.096   7.110   5.009  1.00  0.00     0.006 C 
BRANCH   5   6
ATOM      6  C   UNL     1      -2.685   5.706   4.790  1.00  0.00     0.053 C 
BRANCH   6   7
ATOM      7  C   UNL     1      -3.355   5.163   6.015  1.00  0.00     0.041 C 
ATOM      8  O   UNL     1      -3.538   5.901   7.019  1.00  0.00    -0.550 OA
ATOM      9  O   UNL     1      -3.770   3.837   6.050  1.00  0.00    -0.550 OA
ENDBRANCH   6   7
ENDBRANCH   5   6
ENDBRANCH   4   5
ENDBRANCH   3   4
ENDBRANCH   2   3
ENDBRANCH   1   2
BRANCH   1  10
ATOM     10  C   UNL     1      -1.947   9.932   9.143  1.00  0.00     0.000 C 
BRANCH  10  11
ATOM     11  C   UNL     1      -0.999   8.919   9.801  1.00  0.00    -0.000 C 
BRANCH  11  12
ATOM     12  C   UNL     1       0.462   9.397   9.815  1.00  0.00    -0.000 C 
BRANCH  12  13
ATOM     13  C   UNL     1       1.172   9.173   8.470  1.00  0.00    -0.000 C 
BRANCH  13  14
ATOM     14  C   UNL     1       2.698   9.203   8.644  1.00  0.00    -0.000 C 
BRANCH  14  15
ATOM     15  C   UNL     1       3.410   8.130   7.806  1.00  0.00    -0.003 C 
ATOM     16  C   UNL     1       4.931   8.278   7.825  1.00  0.00     0.004 C 
ENDBRANCH  14  15
ENDBRANCH  13  14
ENDBRANCH  12  13
ENDBRANCH  11  12
ENDBRANCH  10  11
ENDBRANCH   1  10
TORSDOF 12
ENDMDL
MODEL 3
REMARK VINA RESULT:    -4.014     13.078     15.976
REMARK INTER + INTRA:          -7.424
REMARK INTER:                  -6.529
REMARK INTRA:                  -0.895
REMARK UNBOUND:                -0.595
REMARK SMILES CCCCCCCCCCCCCC(=O)[O-]
REMARK SMILES IDX 8 1 9 2 10 3 11 4 12 5 13 6 14 7 15 8 16 9 7 10 6 11 5 12
REMARK SMILES IDX 4 13 3 14 2 15 1 16
REMARK H PARENT
REMARK Flexibility Score: inf
ROOT
ATOM      1  C   UNL     1       5.267  -7.200   7.189  1.00  0.00     0.000 C 
ENDROOT
BRANCH   1   2
ATOM      2  C   UNL     1       5.095  -7.468   8.692  1.00  0.00     0.000 C 
BRANCH   2   3
ATOM      3  C   UNL     1       3.673  -7.166   9.191  1.00  0.00     0.000 C 
BRANCH   3   4
ATOM      4  C   UNL     1       3.393  -5.657   9.301  1.00  0.00     0.000 C 
BRANCH   4   5
ATOM      5  C   UNL     1       2.427  -5.146   8.215  1.00  0.00     0.006 C 
BRANCH   5   6
ATOM      6  C   UNL     1       1.353  -6.168   7.803  1.00  0.00     0.053 C 
BRANCH   6   7
ATOM      7  C   UNL     1       0.116  -5.521   7.262  1.00  0.00     0.041 C 
ATOM      8  O   UNL     1      -0.937  -6.195   7.103  1.00  0.00    -0.550 OA
ATOM      9  O   UNL     1       0.127  -4.173   6.924  1.00  0.00    -0.550 OA
ENDBRANCH   6   7
ENDBRANCH   5   6
ENDBRANCH   4   5
ENDBRANCH   3   4
ENDBRANCH   2   3
ENDBRANCH   1   2
BRANCH   1  10
ATOM     10  C   UNL     1       6.393  -6.189   6.937  1.00  0.00     0.000 C 
BRANCH  10  11
ATOM     11  C   UNL     1       6.865  -5.553   8.252  1.00  0.00    -0.000 C 
BRANCH  11  12
ATOM     12  C   UNL     1       8.219  -4.837   8.111  1.00  0.00    -0.000 C 
BRANCH  12  13
ATOM     13  C   UNL     1       9.058  -4.898   9.396  1.00  0.00    -0.000 C 
BRANCH  13  14
ATOM     14  C   UNL     1       9.205  -3.501  10.022  1.00  0.00    -0.000 C 
BRANCH  14  15
ATOM     15  C   UNL     1       8.568  -2.399   9.162  1.00  0.00    -0.003 C 
ATOM     16  C   UNL     1       8.638  -1.022   9.822  1.00  0.00     0.004 C 
ENDBRANCH  14  15
ENDBRANCH  13  14
ENDBRANCH  12  13
ENDBRANCH  11  12
ENDBRANCH  10  11
ENDBRANCH   1  10
TORSDOF 12
ENDMDL
MODEL 4
REMARK VINA RESULT:    -4.012      1.037      1.862
REMARK INTER + INTRA:          -7.421
REMARK INTER:                  -6.809
REMARK INTRA:                  -0.612
REMARK UNBOUND:                -0.595
REMARK SMILES CCCCCCCCCCCCCC(=O)[O-]
REMARK SMILES IDX 8 1 9 2 10 3 11 4 12 5 13 6 14 7 15 8 16 9 7 10 6 11 5 12
REMARK SMILES IDX 4 13 3 14 2 15 1 16
REMARK H PARENT
REMARK Flexibility Score: inf
ROOT
ATOM      1  C   UNL     1       0.429   9.153   9.354  1.00  0.00     0.000 C 
ENDROOT
BRANCH   1   2
ATOM      2  C   UNL     1       1.583  10.107   9.013  1.00  0.00     0.000 C 
BRANCH   2   3
ATOM      3  C   UNL     1       2.936   9.386   8.898  1.00  0.00     0.000 C 
BRANCH   3   4
ATOM      4  C   UNL     1       3.066   8.580   7.594  1.00  0.00     0.000 C 
BRANCH   4   5
ATOM      5  C   UNL     1       4.390   7.797   7.504  1.00  0.00     0.006 C 
BRANCH   5   6
ATOM      6  C   UNL     1       5.064   7.867   6.123  1.00  0.00     0.053 C 
BRANCH   6   7
ATOM      7  C   UNL     1       6.221   8.817   6.092  1.00  0.00     0.041 C 
ATOM      8  O   UNL     1       6.716   9.252   7.166  1.00  0.00    -0.550 OA
ATOM      9  O   UNL     1       6.748   9.231   4.874  1.00  0.00    -0.550 OA
ENDBRANCH   6   7
ENDBRANCH   5   6
ENDBRANCH   4   5
ENDBRANCH   3   4
ENDBRANCH   2   3
ENDBRANCH   1   2
BRANCH   1  10
ATOM     10  C   UNL     1      -0.907   9.904   9.410  1.00  0.00     0.000 C 
BRANCH  10  11
ATOM     11  C   UNL     1      -1.648   9.808   8.067  1.00  0.00    -0.000 C 
BRANCH  11  12
ATOM     12  C   UNL     1      -2.922   8.951   8.153  1.00  0.00    -0.000 C 
BRANCH  12  13
ATOM     13  C   UNL     1      -2.899   7.758   7.186  1.00  0.00    -0.000 C 
BRANCH  13  14
ATOM     14  C   UNL     1      -2.337   8.173   5.817  1.00  0.00    -0.000 C 
BRANCH  14  15
ATOM     15  C   UNL     1      -2.099   6.973   4.888  1.00  0.00    -0.003 C 
ATOM     16  C   UNL     1      -2.943   5.755   5.267  1.00  0.00     0.004 C 
ENDBRANCH  14  15
ENDBRANCH  13  14
ENDBRANCH  12  13
ENDBRANCH  11  12
ENDBRANCH  10  11
ENDBRANCH   1  10
TORSDOF 12
ENDMDL
MODEL 5
REMARK VINA RESULT:    -3.998      3.426      7.126
REMARK INTER + INTRA:          -7.398
REMARK INTER:                  -6.876
REMARK INTRA:                  -0.522
REMARK UNBOUND:                -0.595
REMARK SMILES CCCCCCCCCCCCCC(=O)[O-]
REMARK SMILES IDX 8 1 9 2 10 3 11 4 12 5 13 6 14 7 15 8 16 9 7 10 6 11 5 12
REMARK SMILES IDX 4 13 3 14 2 15 1 16
REMARK H PARENT
REMARK Flexibility Score: inf
ROOT
ATOM      1  C   UNL     1      -0.061   8.983   8.743  1.00  0.00     0.000 C 
ENDROOT
BRANCH   1   2
ATOM      2  C   UNL     1      -1.239   9.947   8.532  1.00  0.00     0.000 C 
BRANCH   2   3
ATOM      3  C   UNL     1      -2.557   9.216   8.231  1.00  0.00     0.000 C 
BRANCH   3   4
ATOM      4  C   UNL     1      -2.827   9.082   6.722  1.00  0.00     0.000 C 
BRANCH   4   5
ATOM      5  C   UNL     1      -1.909   8.051   6.038  1.00  0.00     0.006 C 
BRANCH   5   6
ATOM      6  C   UNL     1      -2.616   7.195   4.973  1.00  0.00     0.053 C 
BRANCH   6   7
ATOM      7  C   UNL     1      -2.920   5.809   5.455  1.00  0.00     0.041 C 
ATOM      8  O   UNL     1      -2.627   4.811   4.745  1.00  0.00    -0.550 OA
ATOM      9  O   UNL     1      -3.538   5.621   6.686  1.00  0.00    -0.550 OA
ENDBRANCH   6   7
ENDBRANCH   5   6
ENDBRANCH   4   5
ENDBRANCH   3   4
ENDBRANCH   2   3
ENDBRANCH   1   2
BRANCH   1  10
ATOM     10  C   UNL     1       1.273   9.666   8.417  1.00  0.00     0.000 C 
BRANCH  10  11
ATOM     11  C   UNL     1       2.337   9.323   9.470  1.00  0.00    -0.000 C 
BRANCH  11  12
ATOM     12  C   UNL     1       3.423   8.379   8.928  1.00  0.00    -0.000 C 
BRANCH  12  13
ATOM     13  C   UNL     1       3.545   8.433   7.398  1.00  0.00    -0.000 C 
BRANCH  13  14
ATOM     14  C   UNL     1       4.763   7.628   6.916  1.00  0.00    -0.000 C 
BRANCH  14  15
ATOM     15  C   UNL     1       6.087   8.380   7.120  1.00  0.00    -0.003 C 
ATOM     16  C   UNL     1       6.493   9.202   5.897  1.00  0.00     0.004 C 
ENDBRANCH  14  15
ENDBRANCH  13  14
ENDBRANCH  12  13
ENDBRANCH  11  12
ENDBRANCH  10  11
ENDBRANCH   1  10
TORSDOF 12
ENDMDL
MODEL 6
REMARK VINA RESULT:    -3.654     14.185     16.333
REMARK INTER + INTRA:          -6.812
REMARK INTER:                  -5.232
REMARK INTRA:                  -1.580
REMARK UNBOUND:                -0.595
REMARK SMILES CCCCCCCCCCCCCC(=O)[O-]
REMARK SMILES IDX 8 1 9 2 10 3 11 4 12 5 13 6 14 7 15 8 16 9 7 10 6 11 5 12
REMARK SMILES IDX 4 13 3 14 2 15 1 16
REMARK H PARENT
REMARK Flexibility Score: inf
ROOT
ATOM      1  C   UNL     1       5.820  -6.402   9.212  1.00  0.00     0.000 C 
ENDROOT
BRANCH   1   2
ATOM      2  C   UNL     1       4.963  -5.446  10.054  1.00  0.00     0.000 C 
BRANCH   2   3
ATOM      3  C   UNL     1       3.464  -5.546   9.726  1.00  0.00     0.000 C 
BRANCH   3   4
ATOM      4  C   UNL     1       3.079  -6.912   9.134  1.00  0.00     0.000 C 
BRANCH   4   5
ATOM      5  C   UNL     1       2.149  -6.795   7.910  1.00  0.00     0.006 C 
BRANCH   5   6
ATOM      6  C   UNL     1       1.648  -5.365   7.642  1.00  0.00     0.053 C 
BRANCH   6   7
ATOM      7  C   UNL     1       0.210  -5.325   7.228  1.00  0.00     0.041 C 
ATOM      8  O   UNL     1      -0.337  -4.228   6.935  1.00  0.00    -0.550 OA
ATOM      9  O   UNL     1      -0.531  -6.499   7.174  1.00  0.00    -0.550 OA
ENDBRANCH   6   7
ENDBRANCH   5   6
ENDBRANCH   4   5
ENDBRANCH   3   4
ENDBRANCH   2   3
ENDBRANCH   1   2
BRANCH   1  10
ATOM     10  C   UNL     1       6.813  -5.624   8.339  1.00  0.00     0.000 C 
BRANCH  10  11
ATOM     11  C   UNL     1       6.708  -6.057   6.869  1.00  0.00    -0.000 C 
BRANCH  11  12
ATOM     12  C   UNL     1       5.696  -7.195   6.657  1.00  0.00    -0.000 C 
BRANCH  12  13
ATOM     13  C   UNL     1       6.212  -8.273   5.692  1.00  0.00    -0.000 C 
BRANCH  13  14
ATOM     14  C   UNL     1       5.992  -9.679   6.273  1.00  0.00    -0.000 C 
BRANCH  14  15
ATOM     15  C   UNL     1       5.073  -9.673   7.504  1.00  0.00    -0.003 C 
ATOM     16  C   UNL     1       3.649 -10.124   7.180  1.00  0.00     0.004 C 
ENDBRANCH  14  15
ENDBRANCH  13  14
ENDBRANCH  12  13
ENDBRANCH  11  12
ENDBRANCH  10  11
ENDBRANCH   1  10
TORSDOF 12
ENDMDL
MODEL 7
REMARK VINA RESULT:    -3.628      3.495      7.293
REMARK INTER + INTRA:          -6.767
REMARK INTER:                  -5.911
REMARK INTRA:                  -0.857
REMARK UNBOUND:                -0.595
REMARK SMILES CCCCCCCCCCCCCC(=O)[O-]
REMARK SMILES IDX 8 1 9 2 10 3 11 4 12 5 13 6 14 7 15 8 16 9 7 10 6 11 5 12
REMARK SMILES IDX 4 13 3 14 2 15 1 16
REMARK H PARENT
REMARK Flexibility Score: inf
ROOT
ATOM      1  C   UNL     1       1.861   9.812   8.773  1.00  0.00     0.000 C 
ENDROOT
BRANCH   1   2
ATOM      2  C   UNL     1       0.399  10.076   9.162  1.00  0.00     0.000 C 
BRANCH   2   3
ATOM      3  C   UNL     1      -0.564   9.014   8.607  1.00  0.00     0.000 C 
BRANCH   3   4
ATOM      4  C   UNL     1      -1.967   9.580   8.325  1.00  0.00     0.000 C 
BRANCH   4   5
ATOM      5  C   UNL     1      -2.729   8.783   7.248  1.00  0.00     0.006 C 
BRANCH   5   6
ATOM      6  C   UNL     1      -1.816   8.111   6.207  1.00  0.00     0.053 C 
BRANCH   6   7
ATOM      7  C   UNL     1      -2.586   7.454   5.103  1.00  0.00     0.041 C 
ATOM      8  O   UNL     1      -2.957   8.123   4.101  1.00  0.00    -0.550 OA
ATOM      9  O   UNL     1      -2.902   6.103   5.183  1.00  0.00    -0.550 OA
ENDBRANCH   6   7
ENDBRANCH   5   6
ENDBRANCH   4   5
ENDBRANCH   3   4
ENDBRANCH   2   3
ENDBRANCH   1   2
BRANCH   1  10
ATOM     10  C   UNL     1       2.598   9.054   9.884  1.00  0.00     0.000 C 
BRANCH  10  11
ATOM     11  C   UNL     1       4.048   9.545  10.016  1.00  0.00    -0.000 C 
BRANCH  11  12
ATOM     12  C   UNL     1       5.056   8.389  10.125  1.00  0.00    -0.000 C 
BRANCH  12  13
ATOM     13  C   UNL     1       6.329   8.635   9.301  1.00  0.00    -0.000 C 
BRANCH  13  14
ATOM     14  C   UNL     1       5.980   9.120   7.884  1.00  0.00    -0.000 C 
BRANCH  14  15
ATOM     15  C   UNL     1       5.652   7.963   6.928  1.00  0.00    -0.003 C 
ATOM     16  C   UNL     1       4.155   7.840   6.642  1.00  0.00     0.004 C 
ENDBRANCH  14  15
ENDBRANCH  13  14
ENDBRANCH  12  13
ENDBRANCH  11  12
ENDBRANCH  10  11
ENDBRANCH   1  10
TORSDOF 12
ENDMDL
MODEL 8
REMARK VINA RESULT:    -3.477     14.282     16.555
REMARK INTER + INTRA:          -6.511
REMARK INTER:                  -5.185
REMARK INTRA:                  -1.326
REMARK UNBOUND:                -0.595
REMARK SMILES CCCCCCCCCCCCCC(=O)[O-]
REMARK SMILES IDX 8 1 9 2 10 3 11 4 12 5 13 6 14 7 15 8 16 9 7 10 6 11 5 12
REMARK SMILES IDX 4 13 3 14 2 15 1 16
REMARK H PARENT
REMARK Flexibility Score: inf
ROOT
ATOM      1  C   UNL     1       5.456  -7.240   9.268  1.00  0.00     0.000 C 
ENDROOT
BRANCH   1   2
ATOM      2  C   UNL     1       4.909  -5.831   8.994  1.00  0.00     0.000 C 
BRANCH   2   3
ATOM      3  C   UNL     1       3.901  -5.368  10.058  1.00  0.00     0.000 C 
BRANCH   3   4
ATOM      4  C   UNL     1       2.707  -4.611   9.450  1.00  0.00     0.000 C 
BRANCH   4   5
ATOM      5  C   UNL     1       2.366  -5.078   8.022  1.00  0.00     0.006 C 
BRANCH   5   6
ATOM      6  C   UNL     1       1.147  -6.014   7.946  1.00  0.00     0.053 C 
BRANCH   6   7
ATOM      7  C   UNL     1       0.003  -5.414   7.187  1.00  0.00     0.041 C 
ATOM      8  O   UNL     1      -0.013  -4.179   6.933  1.00  0.00    -0.550 OA
ATOM      9  O   UNL     1      -1.050  -6.216   6.767  1.00  0.00    -0.550 OA
ENDBRANCH   6   7
ENDBRANCH   5   6
ENDBRANCH   4   5
ENDBRANCH   3   4
ENDBRANCH   2   3
ENDBRANCH   1   2
BRANCH   1  10
ATOM     10  C   UNL     1       4.430  -8.090  10.027  1.00  0.00     0.000 C 
BRANCH  10  11
ATOM     11  C   UNL     1       3.366  -8.649   9.071  1.00  0.00    -0.000 C 
BRANCH  11  12
ATOM     12  C   UNL     1       3.689 -10.074   8.593  1.00  0.00    -0.000 C 
BRANCH  12  13
ATOM     13  C   UNL     1       4.095 -10.124   7.112  1.00  0.00    -0.000 C 
BRANCH  13  14
ATOM     14  C   UNL     1       5.619 -10.000   6.957  1.00  0.00    -0.000 C 
BRANCH  14  15
ATOM     15  C   UNL     1       6.026  -9.296   5.654  1.00  0.00    -0.003 C 
ATOM     16  C   UNL     1       6.355  -7.817   5.859  1.00  0.00     0.004 C 
ENDBRANCH  14  15
ENDBRANCH  13  14
ENDBRANCH  12  13
ENDBRANCH  11  12
ENDBRANCH  10  11
ENDBRANCH   1  10
TORSDOF 12
ENDMDL
