MODEL 1
REMARK VINA RESULT:    66.676      0.000      0.000
REMARK INTER + INTRA:          88.446
REMARK INTER:                  88.115
REMARK INTRA:                   0.331
REMARK UNBOUND:                 0.331
REMARK SMILES CC[C@H](C=C[C@@H](C)[C@H]1CC[C@H]2[C@H]3CC[C@@H]4C[C@H](O)CC[C@@]4(C)[C@H]3CC[C@@]12C)C(C)C
REMARK SMILES IDX 6 1 7 2 5 3 4 4 3 5 2 6 1 7 28 8 29 9 30 10 8 11 9 12 26 13
REMARK SMILES IDX 10 14 11 15 25 16 27 17 12 18 24 19 23 20 13 21 21 22 14 23
REMARK SMILES IDX 15 24 20 25 22 26 16 27 19 28 17 29 18 30
REMARK H PARENT 18 31
REMARK Flexibility Score: inf
ROOT
ATOM      1  C   UNL     1     -38.950  25.845   7.189  1.00  0.00     0.012 C 
ATOM      2  C   UNL     1     -39.614  27.076   7.847  1.00  0.00     0.012 C 
ENDROOT
BRANCH   1   3
ATOM      3  C   UNL     1     -39.961  24.716   6.978  1.00  0.00    -0.028 C 
ATOM      4  C   UNL     1     -41.045  24.501   7.748  1.00  0.00    -0.027 C 
BRANCH   4   5
ATOM      5  C   UNL     1     -41.975  23.310   7.575  1.00  0.00     0.014 C 
BRANCH   5   6
ATOM      6  C   UNL     1     -42.089  22.912   6.081  1.00  0.00     0.004 C 
ATOM      7  C   UNL     1     -40.760  22.992   5.328  1.00  0.00     0.004 C 
ENDBRANCH   5   6
BRANCH   5   8
ATOM      8  C   UNL     1     -41.669  22.129   8.559  1.00  0.00    -0.011 C 
ATOM      9  C   UNL     1     -41.928  20.723   7.988  1.00  0.00     0.008 C 
ATOM     10  C   UNL     1     -40.238  22.205   9.121  1.00  0.00     0.008 C 
ENDBRANCH   5   8
ENDBRANCH   4   5
ENDBRANCH   1   3
BRANCH   1  11
ATOM     11  C   UNL     1     -37.758  25.287   8.049  1.00  0.00     0.002 C 
ATOM     12  C   UNL     1     -37.396  23.832   7.692  1.00  0.00     0.005 C 
ATOM     13  C   UNL     1     -36.385  26.041   8.075  1.00  0.00    -0.026 C 
ATOM     14  C   UNL     1     -35.908  23.660   7.975  1.00  0.00     0.005 C 
ATOM     15  C   UNL     1     -35.445  24.954   8.658  1.00  0.00    -0.001 C 
ATOM     16  C   UNL     1     -35.911  26.443   6.627  1.00  0.00     0.007 C 
ATOM     17  C   UNL     1     -36.436  27.267   9.047  1.00  0.00     0.012 C 
ATOM     18  C   UNL     1     -33.901  25.288   8.594  1.00  0.00    -0.004 C 
ATOM     19  C   UNL     1     -34.387  26.342   6.355  1.00  0.00     0.005 C 
ATOM     20  C   UNL     1     -33.565  26.499   7.652  1.00  0.00    -0.001 C 
ATOM     21  C   UNL     1     -33.030  24.033   8.307  1.00  0.00     0.004 C 
ATOM     22  C   UNL     1     -32.002  26.748   7.496  1.00  0.00    -0.026 C 
ATOM     23  C   UNL     1     -31.534  24.338   8.245  1.00  0.00     0.004 C 
ATOM     24  C   UNL     1     -31.269  25.404   7.173  1.00  0.00    -0.002 C 
ATOM     25  C   UNL     1     -31.680  27.762   6.353  1.00  0.00     0.010 C 
ATOM     26  C   UNL     1     -31.503  27.374   8.838  1.00  0.00     0.012 C 
ATOM     27  C   UNL     1     -29.754  25.579   6.915  1.00  0.00     0.036 C 
ATOM     28  C   UNL     1     -30.167  27.955   6.128  1.00  0.00     0.032 C 
ATOM     29  C   UNL     1     -29.489  26.618   5.804  1.00  0.00     0.114 C 
BRANCH  29  30
ATOM     30  O   UNL     1     -28.109  26.832   5.667  1.00  0.00    -0.393 OA
ATOM     31  H   UNL     1     -27.927  26.958   4.703  1.00  0.00     0.210 HD
ENDBRANCH  29  30
ENDBRANCH   1  11
TORSDOF 6
ENDMDL
