MODEL 1
REMARK VINA RESULT:    -5.040      0.000      0.000
REMARK INTER + INTRA:          -8.483
REMARK INTER:                  -7.986
REMARK INTRA:                  -0.497
REMARK UNBOUND:                -0.497
REMARK SMILES CCCCCCCCCCCC(=O)[O-]
REMARK SMILES IDX 7 1 8 2 9 3 10 4 11 5 12 6 13 7 14 8 6 9 5 10 4 11 3 12 2 13
REMARK SMILES IDX 1 14
REMARK H PARENT
REMARK Flexibility Score: inf
ROOT
ATOM      1  C   UNL     1      80.449  59.650  10.386  1.00  0.00     0.000 C 
ENDROOT
BRANCH   1   2
ATOM      2  C   UNL     1      79.288  58.709  10.041  1.00  0.00     0.000 C 
BRANCH   2   3
ATOM      3  C   UNL     1      79.540  57.299  10.596  1.00  0.00     0.000 C 
BRANCH   3   4
ATOM      4  C   UNL     1      78.599  56.246   9.988  1.00  0.00     0.006 C 
BRANCH   4   5
ATOM      5  C   UNL     1      77.610  56.850   8.982  1.00  0.00     0.053 C 
BRANCH   5   6
ATOM      6  C   UNL     1      77.759  56.192   7.646  1.00  0.00     0.041 C 
ATOM      7  O   UNL     1      77.977  54.954   7.571  1.00  0.00    -0.550 OA
ATOM      8  O   UNL     1      77.708  56.953   6.486  1.00  0.00    -0.550 OA
ENDBRANCH   5   6
ENDBRANCH   4   5
ENDBRANCH   3   4
ENDBRANCH   2   3
ENDBRANCH   1   2
BRANCH   1   9
ATOM      9  C   UNL     1      81.704  58.858  10.771  1.00  0.00     0.000 C 
BRANCH   9  10
ATOM     10  C   UNL     1      82.860  59.803  11.137  1.00  0.00    -0.000 C 
BRANCH  10  11
ATOM     11  C   UNL     1      82.782  61.146  10.395  1.00  0.00    -0.000 C 
BRANCH  11  12
ATOM     12  C   UNL     1      84.130  61.563   9.782  1.00  0.00    -0.000 C 
BRANCH  12  13
ATOM     13  C   UNL     1      84.154  63.040   9.359  1.00  0.00    -0.003 C 
ATOM     14  C   UNL     1      84.451  63.222   7.871  1.00  0.00     0.004 C 
ENDBRANCH  12  13
ENDBRANCH  11  12
ENDBRANCH  10  11
ENDBRANCH   9  10
ENDBRANCH   1   9
TORSDOF 10
ENDMDL
MODEL 2
REMARK VINA RESULT:    -5.034      3.487      6.529
REMARK INTER + INTRA:          -8.473
REMARK INTER:                  -7.468
REMARK INTRA:                  -1.005
REMARK UNBOUND:                -0.497
REMARK SMILES CCCCCCCCCCCC(=O)[O-]
REMARK SMILES IDX 7 1 8 2 9 3 10 4 11 5 12 6 13 7 14 8 6 9 5 10 4 11 3 12 2 13
REMARK SMILES IDX 1 14
REMARK H PARENT
REMARK Flexibility Score: inf
ROOT
ATOM      1  C   UNL     1      80.492  55.355  11.107  1.00  0.00     0.000 C 
ENDROOT
BRANCH   1   2
ATOM      2  C   UNL     1      79.071  55.925  11.199  1.00  0.00     0.000 C 
BRANCH   2   3
ATOM      3  C   UNL     1      79.073  57.446  10.979  1.00  0.00     0.000 C 
BRANCH   3   4
ATOM      4  C   UNL     1      80.440  57.975  10.515  1.00  0.00     0.006 C 
BRANCH   4   5
ATOM      5  C   UNL     1      80.442  59.494  10.300  1.00  0.00     0.053 C 
BRANCH   5   6
ATOM      6  C   UNL     1      81.765  60.074  10.690  1.00  0.00     0.041 C 
ATOM      7  O   UNL     1      82.515  59.457  11.492  1.00  0.00    -0.550 OA
ATOM      8  O   UNL     1      82.149  61.319  10.209  1.00  0.00    -0.550 OA
ENDBRANCH   5   6
ENDBRANCH   4   5
ENDBRANCH   3   4
ENDBRANCH   2   3
ENDBRANCH   1   2
BRANCH   1   9
ATOM      9  C   UNL     1      80.592  54.302   9.997  1.00  0.00     0.000 C 
BRANCH   9  10
ATOM     10  C   UNL     1      80.123  54.875   8.651  1.00  0.00    -0.000 C 
BRANCH  10  11
ATOM     11  C   UNL     1      79.089  53.978   7.955  1.00  0.00    -0.000 C 
BRANCH  11  12
ATOM     12  C   UNL     1      77.789  54.727   7.614  1.00  0.00    -0.000 C 
BRANCH  12  13
ATOM     13  C   UNL     1      77.920  56.247   7.798  1.00  0.00    -0.003 C 
ATOM     14  C   UNL     1      77.775  57.015   6.484  1.00  0.00     0.004 C 
ENDBRANCH  12  13
ENDBRANCH  11  12
ENDBRANCH  10  11
ENDBRANCH   9  10
ENDBRANCH   1   9
TORSDOF 10
ENDMDL
MODEL 3
REMARK VINA RESULT:    -4.931      3.593      7.040
REMARK INTER + INTRA:          -8.310
REMARK INTER:                  -7.351
REMARK INTRA:                  -0.959
REMARK UNBOUND:                -0.497
REMARK SMILES CCCCCCCCCCCC(=O)[O-]
REMARK SMILES IDX 7 1 8 2 9 3 10 4 11 5 12 6 13 7 14 8 6 9 5 10 4 11 3 12 2 13
REMARK SMILES IDX 1 14
REMARK H PARENT
REMARK Flexibility Score: inf
ROOT
ATOM      1  C   UNL     1      78.531  56.640  10.536  1.00  0.00     0.000 C 
ENDROOT
BRANCH   1   2
ATOM      2  C   UNL     1      79.815  57.473  10.433  1.00  0.00     0.000 C 
BRANCH   2   3
ATOM      3  C   UNL     1      79.493  58.943  10.121  1.00  0.00     0.000 C 
BRANCH   3   4
ATOM      4  C   UNL     1      80.664  59.886  10.439  1.00  0.00     0.006 C 
BRANCH   4   5
ATOM      5  C   UNL     1      81.911  59.135  10.926  1.00  0.00     0.053 C 
BRANCH   5   6
ATOM      6  C   UNL     1      83.042  60.090  11.146  1.00  0.00     0.041 C 
ATOM      7  O   UNL     1      83.074  61.187  10.527  1.00  0.00    -0.550 OA
ATOM      8  O   UNL     1      84.085  59.749  11.996  1.00  0.00    -0.550 OA
ENDBRANCH   5   6
ENDBRANCH   4   5
ENDBRANCH   3   4
ENDBRANCH   2   3
ENDBRANCH   1   2
BRANCH   1   9
ATOM      9  C   UNL     1      77.637  56.852   9.309  1.00  0.00     0.000 C 
BRANCH   9  10
ATOM     10  C   UNL     1      78.186  56.094   8.091  1.00  0.00    -0.000 C 
BRANCH  10  11
ATOM     11  C   UNL     1      78.019  54.572   8.217  1.00  0.00    -0.000 C 
BRANCH  11  12
ATOM     12  C   UNL     1      79.273  53.800   7.773  1.00  0.00    -0.000 C 
BRANCH  12  13
ATOM     13  C   UNL     1      80.555  54.324   8.439  1.00  0.00    -0.003 C 
ATOM     14  C   UNL     1      80.778  53.735   9.832  1.00  0.00     0.004 C 
ENDBRANCH  12  13
ENDBRANCH  11  12
ENDBRANCH  10  11
ENDBRANCH   9  10
ENDBRANCH   1   9
TORSDOF 10
ENDMDL
MODEL 4
REMARK VINA RESULT:    -4.914      4.517      7.426
REMARK INTER + INTRA:          -8.284
REMARK INTER:                  -7.660
REMARK INTRA:                  -0.623
REMARK UNBOUND:                -0.497
REMARK SMILES CCCCCCCCCCCC(=O)[O-]
REMARK SMILES IDX 7 1 8 2 9 3 10 4 11 5 12 6 13 7 14 8 6 9 5 10 4 11 3 12 2 13
REMARK SMILES IDX 1 14
REMARK H PARENT
REMARK Flexibility Score: inf
ROOT
ATOM      1  C   UNL     1      80.373  59.745  10.172  1.00  0.00     0.000 C 
ENDROOT
BRANCH   1   2
ATOM      2  C   UNL     1      81.553  59.395  11.087  1.00  0.00     0.000 C 
BRANCH   2   3
ATOM      3  C   UNL     1      82.887  59.503  10.331  1.00  0.00     0.000 C 
BRANCH   3   4
ATOM      4  C   UNL     1      84.055  59.908  11.244  1.00  0.00     0.006 C 
BRANCH   4   5
ATOM      5  C   UNL     1      83.602  60.230  12.674  1.00  0.00     0.053 C 
BRANCH   5   6
ATOM      6  C   UNL     1      84.720  59.999  13.640  1.00  0.00     0.041 C 
ATOM      7  O   UNL     1      84.510  60.070  14.880  1.00  0.00    -0.550 OA
ATOM      8  O   UNL     1      86.005  59.756  13.173  1.00  0.00    -0.550 OA
ENDBRANCH   5   6
ENDBRANCH   4   5
ENDBRANCH   3   4
ENDBRANCH   2   3
ENDBRANCH   1   2
BRANCH   1   9
ATOM      9  C   UNL     1      79.331  58.621  10.164  1.00  0.00     0.000 C 
BRANCH   9  10
ATOM     10  C   UNL     1      79.990  57.257  10.421  1.00  0.00    -0.000 C 
BRANCH  10  11
ATOM     11  C   UNL     1      79.062  56.079  10.086  1.00  0.00    -0.000 C 
BRANCH  11  12
ATOM     12  C   UNL     1      77.837  56.508   9.261  1.00  0.00    -0.000 C 
BRANCH  12  13
ATOM     13  C   UNL     1      77.847  55.919   7.842  1.00  0.00    -0.003 C 
ATOM     14  C   UNL     1      77.987  56.990   6.760  1.00  0.00     0.004 C 
ENDBRANCH  12  13
ENDBRANCH  11  12
ENDBRANCH  10  11
ENDBRANCH   9  10
ENDBRANCH   1   9
TORSDOF 10
ENDMDL
MODEL 5
REMARK VINA RESULT:    -4.855      4.463      5.963
REMARK INTER + INTRA:          -8.189
REMARK INTER:                  -6.720
REMARK INTRA:                  -1.469
REMARK UNBOUND:                -0.497
REMARK SMILES CCCCCCCCCCCC(=O)[O-]
REMARK SMILES IDX 7 1 8 2 9 3 10 4 11 5 12 6 13 7 14 8 6 9 5 10 4 11 3 12 2 13
REMARK SMILES IDX 1 14
REMARK H PARENT
REMARK Flexibility Score: inf
ROOT
ATOM      1  C   UNL     1      77.693  56.821   8.012  1.00  0.00     0.000 C 
ENDROOT
BRANCH   1   2
ATOM      2  C   UNL     1      78.142  55.591   7.214  1.00  0.00     0.000 C 
BRANCH   2   3
ATOM      3  C   UNL     1      78.192  54.343   8.109  1.00  0.00     0.000 C 
BRANCH   3   4
ATOM      4  C   UNL     1      79.235  53.317   7.639  1.00  0.00     0.006 C 
BRANCH   4   5
ATOM      5  C   UNL     1      79.134  51.984   8.392  1.00  0.00     0.053 C 
BRANCH   5   6
ATOM      6  C   UNL     1      80.493  51.390   8.585  1.00  0.00     0.041 C 
ATOM      7  O   UNL     1      81.507  51.955   8.094  1.00  0.00    -0.550 OA
ATOM      8  O   UNL     1      80.637  50.187   9.263  1.00  0.00    -0.550 OA
ENDBRANCH   5   6
ENDBRANCH   4   5
ENDBRANCH   3   4
ENDBRANCH   2   3
ENDBRANCH   1   2
BRANCH   1   9
ATOM      9  C   UNL     1      77.877  56.599   9.518  1.00  0.00     0.000 C 
BRANCH   9  10
ATOM     10  C   UNL     1      78.847  57.631  10.112  1.00  0.00    -0.000 C 
BRANCH  10  11
ATOM     11  C   UNL     1      80.111  56.985  10.699  1.00  0.00    -0.000 C 
BRANCH  11  12
ATOM     12  C   UNL     1      79.854  55.567  11.238  1.00  0.00    -0.000 C 
BRANCH  12  13
ATOM     13  C   UNL     1      80.939  54.567  10.809  1.00  0.00    -0.003 C 
ATOM     14  C   UNL     1      81.790  55.083   9.648  1.00  0.00     0.004 C 
ENDBRANCH  12  13
ENDBRANCH  11  12
ENDBRANCH  10  11
ENDBRANCH   9  10
ENDBRANCH   1   9
TORSDOF 10
ENDMDL
MODEL 6
REMARK VINA RESULT:    -4.812      2.930      4.603
REMARK INTER + INTRA:          -8.122
REMARK INTER:                  -7.313
REMARK INTRA:                  -0.809
REMARK UNBOUND:                -0.497
REMARK SMILES CCCCCCCCCCCC(=O)[O-]
REMARK SMILES IDX 7 1 8 2 9 3 10 4 11 5 12 6 13 7 14 8 6 9 5 10 4 11 3 12 2 13
REMARK SMILES IDX 1 14
REMARK H PARENT
REMARK Flexibility Score: inf
ROOT
ATOM      1  C   UNL     1      77.734  56.768   8.931  1.00  0.00     0.000 C 
ENDROOT
BRANCH   1   2
ATOM      2  C   UNL     1      77.861  55.755   7.787  1.00  0.00     0.000 C 
BRANCH   2   3
ATOM      3  C   UNL     1      78.282  54.376   8.318  1.00  0.00     0.000 C 
BRANCH   3   4
ATOM      4  C   UNL     1      79.573  53.858   7.662  1.00  0.00     0.006 C 
BRANCH   4   5
ATOM      5  C   UNL     1      80.777  53.904   8.612  1.00  0.00     0.053 C 
BRANCH   5   6
ATOM      6  C   UNL     1      80.764  52.720   9.528  1.00  0.00     0.041 C 
ATOM      7  O   UNL     1      81.205  52.825  10.703  1.00  0.00    -0.550 OA
ATOM      8  O   UNL     1      80.314  51.490   9.069  1.00  0.00    -0.550 OA
ENDBRANCH   5   6
ENDBRANCH   4   5
ENDBRANCH   3   4
ENDBRANCH   2   3
ENDBRANCH   1   2
BRANCH   1   9
ATOM      9  C   UNL     1      78.466  56.277  10.185  1.00  0.00     0.000 C 
BRANCH   9  10
ATOM     10  C   UNL     1      79.468  57.329  10.685  1.00  0.00    -0.000 C 
BRANCH  10  11
ATOM     11  C   UNL     1      79.288  58.690   9.994  1.00  0.00    -0.000 C 
BRANCH  11  12
ATOM     12  C   UNL     1      80.437  59.666  10.302  1.00  0.00    -0.000 C 
BRANCH  12  13
ATOM     13  C   UNL     1      81.711  58.946  10.773  1.00  0.00    -0.003 C 
ATOM     14  C   UNL     1      82.649  59.862  11.560  1.00  0.00     0.004 C 
ENDBRANCH  12  13
ENDBRANCH  11  12
ENDBRANCH  10  11
ENDBRANCH   9  10
ENDBRANCH   1   9
TORSDOF 10
ENDMDL
MODEL 7
REMARK VINA RESULT:    -4.742      4.534      6.179
REMARK INTER + INTRA:          -8.011
REMARK INTER:                  -6.931
REMARK INTRA:                  -1.080
REMARK UNBOUND:                -0.497
REMARK SMILES CCCCCCCCCCCC(=O)[O-]
REMARK SMILES IDX 7 1 8 2 9 3 10 4 11 5 12 6 13 7 14 8 6 9 5 10 4 11 3 12 2 13
REMARK SMILES IDX 1 14
REMARK H PARENT
REMARK Flexibility Score: inf
ROOT
ATOM      1  C   UNL     1      80.389  55.018  11.408  1.00  0.00     0.000 C 
ENDROOT
BRANCH   1   2
ATOM      2  C   UNL     1      81.104  53.900  10.639  1.00  0.00     0.000 C 
BRANCH   2   3
ATOM      3  C   UNL     1      81.629  54.411   9.288  1.00  0.00     0.000 C 
BRANCH   3   4
ATOM      4  C   UNL     1      81.117  53.581   8.101  1.00  0.00     0.006 C 
BRANCH   4   5
ATOM      5  C   UNL     1      80.949  52.095   8.448  1.00  0.00     0.053 C 
BRANCH   5   6
ATOM      6  C   UNL     1      79.676  51.565   7.869  1.00  0.00     0.041 C 
ATOM      7  O   UNL     1      78.911  52.326   7.219  1.00  0.00    -0.550 OA
ATOM      8  O   UNL     1      79.309  50.244   8.088  1.00  0.00    -0.550 OA
ENDBRANCH   5   6
ENDBRANCH   4   5
ENDBRANCH   3   4
ENDBRANCH   2   3
ENDBRANCH   1   2
BRANCH   1   9
ATOM      9  C   UNL     1      80.214  56.265  10.533  1.00  0.00     0.000 C 
BRANCH   9  10
ATOM     10  C   UNL     1      78.828  56.894  10.743  1.00  0.00    -0.000 C 
BRANCH  10  11
ATOM     11  C   UNL     1      77.946  56.809   9.488  1.00  0.00    -0.000 C 
BRANCH  11  12
ATOM     12  C   UNL     1      78.104  55.473   8.742  1.00  0.00    -0.000 C 
BRANCH  12  13
ATOM     13  C   UNL     1      77.717  55.577   7.258  1.00  0.00    -0.003 C 
ATOM     14  C   UNL     1      77.855  56.998   6.711  1.00  0.00     0.004 C 
ENDBRANCH  12  13
ENDBRANCH  11  12
ENDBRANCH  10  11
ENDBRANCH   9  10
ENDBRANCH   1   9
TORSDOF 10
ENDMDL
MODEL 8
REMARK VINA RESULT:    -4.681      4.060      7.338
REMARK INTER + INTRA:          -7.914
REMARK INTER:                  -7.493
REMARK INTRA:                  -0.422
REMARK UNBOUND:                -0.497
REMARK SMILES CCCCCCCCCCCC(=O)[O-]
REMARK SMILES IDX 7 1 8 2 9 3 10 4 11 5 12 6 13 7 14 8 6 9 5 10 4 11 3 12 2 13
REMARK SMILES IDX 1 14
REMARK H PARENT
REMARK Flexibility Score: inf
ROOT
ATOM      1  C   UNL     1      81.115  58.887  10.573  1.00  0.00     0.000 C 
ENDROOT
BRANCH   1   2
ATOM      2  C   UNL     1      81.609  60.327  10.391  1.00  0.00     0.000 C 
BRANCH   2   3
ATOM      3  C   UNL     1      83.100  60.446  10.746  1.00  0.00     0.000 C 
BRANCH   3   4
ATOM      4  C   UNL     1      83.994  59.574   9.850  1.00  0.00     0.006 C 
BRANCH   4   5
ATOM      5  C   UNL     1      84.855  58.591  10.653  1.00  0.00     0.053 C 
BRANCH   5   6
ATOM      6  C   UNL     1      86.300  58.758  10.305  1.00  0.00     0.041 C 
ATOM      7  O   UNL     1      86.638  59.508   9.351  1.00  0.00    -0.550 OA
ATOM      8  O   UNL     1      87.270  58.048  10.999  1.00  0.00    -0.550 OA
ENDBRANCH   5   6
ENDBRANCH   4   5
ENDBRANCH   3   4
ENDBRANCH   2   3
ENDBRANCH   1   2
BRANCH   1   9
ATOM      9  C   UNL     1      79.595  58.800  10.394  1.00  0.00     0.000 C 
BRANCH   9  10
ATOM     10  C   UNL     1      79.094  57.367  10.636  1.00  0.00    -0.000 C 
BRANCH  10  11
ATOM     11  C   UNL     1      78.041  56.928   9.607  1.00  0.00    -0.000 C 
BRANCH  11  12
ATOM     12  C   UNL     1      78.354  55.555   8.989  1.00  0.00    -0.000 C 
BRANCH  12  13
ATOM     13  C   UNL     1      77.804  55.412   7.561  1.00  0.00    -0.003 C 
ATOM     14  C   UNL     1      77.823  56.730   6.788  1.00  0.00     0.004 C 
ENDBRANCH  12  13
ENDBRANCH  11  12
ENDBRANCH  10  11
ENDBRANCH   9  10
ENDBRANCH   1   9
TORSDOF 10
ENDMDL
MODEL 9
REMARK VINA RESULT:    -4.681      3.982      7.446
REMARK INTER + INTRA:          -7.913
REMARK INTER:                  -7.362
REMARK INTRA:                  -0.552
REMARK UNBOUND:                -0.497
REMARK SMILES CCCCCCCCCCCC(=O)[O-]
REMARK SMILES IDX 7 1 8 2 9 3 10 4 11 5 12 6 13 7 14 8 6 9 5 10 4 11 3 12 2 13
REMARK SMILES IDX 1 14
REMARK H PARENT
REMARK Flexibility Score: inf
ROOT
ATOM      1  C   UNL     1      81.089  60.115  10.355  1.00  0.00     0.000 C 
ENDROOT
BRANCH   1   2
ATOM      2  C   UNL     1      81.959  59.735  11.561  1.00  0.00     0.000 C 
BRANCH   2   3
ATOM      3  C   UNL     1      83.448  59.966  11.259  1.00  0.00     0.000 C 
BRANCH   3   4
ATOM      4  C   UNL     1      83.673  60.987  10.132  1.00  0.00     0.006 C 
BRANCH   4   5
ATOM      5  C   UNL     1      85.160  61.258   9.870  1.00  0.00     0.053 C 
BRANCH   5   6
ATOM      6  C   UNL     1      85.341  62.601   9.234  1.00  0.00     0.041 C 
ATOM      7  O   UNL     1      84.341  63.243   8.817  1.00  0.00    -0.550 OA
ATOM      8  O   UNL     1      86.616  63.120   9.055  1.00  0.00    -0.550 OA
ENDBRANCH   5   6
ENDBRANCH   4   5
ENDBRANCH   3   4
ENDBRANCH   2   3
ENDBRANCH   1   2
BRANCH   1   9
ATOM      9  C   UNL     1      79.875  59.187  10.238  1.00  0.00     0.000 C 
BRANCH   9  10
ATOM     10  C   UNL     1      80.254  57.739  10.584  1.00  0.00    -0.000 C 
BRANCH  10  11
ATOM     11  C   UNL     1      79.037  56.801  10.617  1.00  0.00    -0.000 C 
BRANCH  11  12
ATOM     12  C   UNL     1      77.997  57.144   9.536  1.00  0.00    -0.000 C 
BRANCH  12  13
ATOM     13  C   UNL     1      77.933  56.087   8.423  1.00  0.00    -0.003 C 
ATOM     14  C   UNL     1      77.771  56.702   7.034  1.00  0.00     0.004 C 
ENDBRANCH  12  13
ENDBRANCH  11  12
ENDBRANCH  10  11
ENDBRANCH   9  10
ENDBRANCH   1   9
TORSDOF 10
ENDMDL
