MODEL 1
REMARK VINA RESULT:    -2.391      0.000      0.000
REMARK INTER + INTRA:          -2.391
REMARK INTER:                  -2.391
REMARK INTRA:                   0.000
REMARK UNBOUND:                 0.000
REMARK SMILES CC(=O)[O-]
REMARK SMILES IDX 1 1 2 2 3 3 4 4
REMARK H PARENT
REMARK Flexibility Score: inf
ROOT
ATOM      1  C   UNL     1      38.571  26.704 -17.742  1.00  0.00     0.063 C 
ATOM      2  C   UNL     1      37.108  26.971 -17.647  1.00  0.00     0.038 C 
ATOM      3  O   UNL     1      36.632  27.527 -16.622  1.00  0.00    -0.550 OA
ATOM      4  O   UNL     1      36.257  26.560 -18.665  1.00  0.00    -0.550 OA
ENDROOT
TORSDOF 0
ENDMDL
MODEL 2
REMARK VINA RESULT:    -2.318      1.423      2.114
REMARK INTER + INTRA:          -2.318
REMARK INTER:                  -2.318
REMARK INTRA:                   0.000
REMARK UNBOUND:                 0.000
REMARK SMILES CC(=O)[O-]
REMARK SMILES IDX 1 1 2 2 3 3 4 4
REMARK H PARENT
REMARK Flexibility Score: inf
ROOT
ATOM      1  C   UNL     1      36.645  27.330 -16.454  1.00  0.00     0.063 C 
ATOM      2  C   UNL     1      37.308  26.876 -17.710  1.00  0.00     0.038 C 
ATOM      3  O   UNL     1      36.616  26.577 -18.718  1.00  0.00    -0.550 OA
ATOM      4  O   UNL     1      38.688  26.730 -17.755  1.00  0.00    -0.550 OA
ENDROOT
TORSDOF 0
ENDMDL
MODEL 3
REMARK VINA RESULT:    -2.244      9.348      9.511
REMARK INTER + INTRA:          -2.244
REMARK INTER:                  -2.244
REMARK INTRA:                   0.000
REMARK UNBOUND:                 0.000
REMARK SMILES CC(=O)[O-]
REMARK SMILES IDX 1 1 2 2 3 3 4 4
REMARK H PARENT
REMARK Flexibility Score: inf
ROOT
ATOM      1  C   UNL     1      38.541  21.994 -25.123  1.00  0.00     0.063 C 
ATOM      2  C   UNL     1      39.994  21.787 -24.862  1.00  0.00     0.038 C 
ATOM      3  O   UNL     1      40.399  20.707 -24.357  1.00  0.00    -0.550 OA
ATOM      4  O   UNL     1      40.900  22.807 -25.125  1.00  0.00    -0.550 OA
ENDROOT
TORSDOF 0
ENDMDL
MODEL 4
REMARK VINA RESULT:    -2.230      9.416      9.579
REMARK INTER + INTRA:          -2.230
REMARK INTER:                  -2.230
REMARK INTRA:                   0.000
REMARK UNBOUND:                 0.000
REMARK SMILES CC(=O)[O-]
REMARK SMILES IDX 1 1 2 2 3 3 4 4
REMARK H PARENT
REMARK Flexibility Score: inf
ROOT
ATOM      1  C   UNL     1      38.548  21.668 -25.100  1.00  0.00     0.063 C 
ATOM      2  C   UNL     1      40.007  21.626 -24.796  1.00  0.00     0.038 C 
ATOM      3  O   UNL     1      40.750  22.588 -25.124  1.00  0.00    -0.550 OA
ATOM      4  O   UNL     1      40.561  20.501 -24.197  1.00  0.00    -0.550 OA
ENDROOT
TORSDOF 0
ENDMDL
MODEL 5
REMARK VINA RESULT:    -2.144      1.343      2.133
REMARK INTER + INTRA:          -2.144
REMARK INTER:                  -2.144
REMARK INTRA:                   0.000
REMARK UNBOUND:                 0.000
REMARK SMILES CC(=O)[O-]
REMARK SMILES IDX 1 1 2 2 3 3 4 4
REMARK H PARENT
REMARK Flexibility Score: inf
ROOT
ATOM      1  C   UNL     1      36.047  26.442 -18.629  1.00  0.00     0.063 C 
ATOM      2  C   UNL     1      37.087  26.925 -17.677  1.00  0.00     0.038 C 
ATOM      3  O   UNL     1      38.297  26.629 -17.859  1.00  0.00    -0.550 OA
ATOM      4  O   UNL     1      36.718  27.658 -16.556  1.00  0.00    -0.550 OA
ENDROOT
TORSDOF 0
ENDMDL
MODEL 6
REMARK VINA RESULT:    -2.122     13.311     13.770
REMARK INTER + INTRA:          -2.122
REMARK INTER:                  -2.122
REMARK INTRA:                   0.000
REMARK UNBOUND:                 0.000
REMARK SMILES CC(=O)[O-]
REMARK SMILES IDX 1 1 2 2 3 3 4 4
REMARK H PARENT
REMARK Flexibility Score: inf
ROOT
ATOM      1  C   UNL     1      47.248  36.245 -17.340  1.00  0.00     0.063 C 
ATOM      2  C   UNL     1      47.936  35.170 -16.568  1.00  0.00     0.038 C 
ATOM      3  O   UNL     1      47.341  34.593 -15.620  1.00  0.00    -0.550 OA
ATOM      4  O   UNL     1      49.253  34.841 -16.858  1.00  0.00    -0.550 OA
ENDROOT
TORSDOF 0
ENDMDL
MODEL 7
REMARK VINA RESULT:    -2.074     14.328     14.728
REMARK INTER + INTRA:          -2.074
REMARK INTER:                  -2.074
REMARK INTRA:                   0.000
REMARK UNBOUND:                 0.000
REMARK SMILES CC(=O)[O-]
REMARK SMILES IDX 1 1 2 2 3 3 4 4
REMARK H PARENT
REMARK Flexibility Score: inf
ROOT
ATOM      1  C   UNL     1      47.986  34.749 -16.121  1.00  0.00     0.063 C 
ATOM      2  C   UNL     1      48.908  35.626 -16.898  1.00  0.00     0.038 C 
ATOM      3  O   UNL     1      48.528  36.766 -17.275  1.00  0.00    -0.550 OA
ATOM      4  O   UNL     1      50.169  35.168 -17.255  1.00  0.00    -0.550 OA
ENDROOT
TORSDOF 0
ENDMDL
MODEL 8
REMARK VINA RESULT:    -2.070     14.441     14.797
REMARK INTER + INTRA:          -2.070
REMARK INTER:                  -2.070
REMARK INTRA:                   0.000
REMARK UNBOUND:                 0.000
REMARK SMILES CC(=O)[O-]
REMARK SMILES IDX 1 1 2 2 3 3 4 4
REMARK H PARENT
REMARK Flexibility Score: inf
ROOT
ATOM      1  C   UNL     1      48.151  34.737 -16.005  1.00  0.00     0.063 C 
ATOM      2  C   UNL     1      49.019  35.553 -16.901  1.00  0.00     0.038 C 
ATOM      3  O   UNL     1      50.148  35.120 -17.253  1.00  0.00    -0.550 OA
ATOM      4  O   UNL     1      48.609  36.817 -17.305  1.00  0.00    -0.550 OA
ENDROOT
TORSDOF 0
ENDMDL
MODEL 9
REMARK VINA RESULT:    -2.047      8.232      8.601
REMARK INTER + INTRA:          -2.047
REMARK INTER:                  -2.047
REMARK INTRA:                   0.000
REMARK UNBOUND:                 0.000
REMARK SMILES CC(=O)[O-]
REMARK SMILES IDX 1 1 2 2 3 3 4 4
REMARK H PARENT
REMARK Flexibility Score: inf
ROOT
ATOM      1  C   UNL     1      40.051  23.209 -25.079  1.00  0.00     0.063 C 
ATOM      2  C   UNL     1      41.089  23.158 -24.009  1.00  0.00     0.038 C 
ATOM      3  O   UNL     1      41.600  24.223 -23.573  1.00  0.00    -0.550 OA
ATOM      4  O   UNL     1      41.535  21.934 -23.530  1.00  0.00    -0.550 OA
ENDROOT
TORSDOF 0
ENDMDL
