MODEL 1
REMARK VINA RESULT:    -3.873      0.000      0.000
REMARK INTER + INTRA:          -5.910
REMARK INTER:                  -5.911
REMARK INTRA:                   0.002
REMARK UNBOUND:                 0.002
REMARK SMILES CC1=CCC[C@@H](C)C(=O)C[C@@H](C(C)C)C(=O)C1
REMARK SMILES IDX 8 1 9 2 6 3 7 4 5 5 4 6 3 7 2 8 1 9 10 11 11 12 15 13 16 14
REMARK SMILES IDX 17 15 12 17 13 18 14 19
REMARK H PARENT
REMARK Flexibility Score: 70.00
ROOT
ATOM      1  C   UNL     1      19.290 205.213  14.080  1.00  0.00     0.136 C 
ATOM      2  O   UNL     1      18.805 204.447  13.259  1.00  0.00    -0.299 OA
ENDROOT
BRANCH   1   3
ATOM      3  C   UNL     1      19.991 204.614  15.289  1.00  0.00     0.053 C 
ATOM      4  C   UNL     1      19.222 205.002  16.559  1.00  0.00     0.016 C 
BRANCH   3   5
ATOM      5  C   UNL     1      21.462 205.095  15.393  1.00  0.00     0.015 C 
BRANCH   5   6
ATOM      6  C   UNL     1      21.650 206.433  16.133  1.00  0.00     0.028 C 
BRANCH   6   7
ATOM      7  C   UNL     1      22.760 207.259  15.532  1.00  0.00    -0.028 C 
ATOM      8  C   UNL     1      22.597 208.350  14.747  1.00  0.00    -0.070 CG0
ATOM      9  C   UNL     1      23.839 209.068  14.278  1.00  0.00     0.039 C 
ATOM     10  G   UNL     1      21.244 208.832  14.251  1.00  0.00     0.000 G0
ENDBRANCH   6   7
ENDBRANCH   5   6
ENDBRANCH   3   5
ENDBRANCH   1   3
BRANCH   1  11
ATOM     11  C   UNL     1      19.184 206.699  13.784  1.00  0.00     0.087 C 
BRANCH  11  12
ATOM     12  C   UNL     1      19.902 207.256  12.524  1.00  0.00     0.066 C 
BRANCH  12  13
ATOM     13  C   UNL     1      20.890 208.374  12.840  1.00  0.00     0.140 C 
ATOM     14  O   UNL     1      21.327 209.031  11.906  1.00  0.00    -0.299 OA
BRANCH  13  15
ATOM     15  C   UNL     1      21.238 208.821  14.244  1.00  0.00     0.106 CG0
ATOM     16  G   UNL     1      22.599 208.363  14.739  1.00  0.00     0.000 G0
ENDBRANCH  13  15
ENDBRANCH  12  13
BRANCH  12  17
ATOM     17  C   UNL     1      18.882 207.727  11.435  1.00  0.00    -0.006 C 
ATOM     18  C   UNL     1      18.028 206.555  10.914  1.00  0.00     0.008 C 
ATOM     19  C   UNL     1      17.940 208.831  11.952  1.00  0.00     0.008 C 
ENDBRANCH  12  17
ENDBRANCH  11  12
ENDBRANCH   1  11
TORSDOF 1
ENDMDL
MODEL 2
REMARK VINA RESULT:    -3.816      1.776      4.849
REMARK INTER + INTRA:          -5.822
REMARK INTER:                  -5.701
REMARK INTRA:                  -0.120
REMARK UNBOUND:                 0.002
REMARK SMILES CC1=CCC[C@@H](C)C(=O)C[C@@H](C(C)C)C(=O)C1
REMARK SMILES IDX 8 1 9 2 6 3 7 4 5 5 4 6 3 7 2 8 1 9 10 11 11 12 15 13 16 14
REMARK SMILES IDX 17 15 12 17 13 18 14 19
REMARK H PARENT
REMARK Flexibility Score: 70.00
ROOT
ATOM      1  C   UNL     1      22.506 207.469  15.428  1.00  0.00     0.136 C 
ATOM      2  O   UNL     1      22.380 208.418  16.190  1.00  0.00    -0.299 OA
ENDROOT
BRANCH   1   3
ATOM      3  C   UNL     1      23.507 207.594  14.291  1.00  0.00     0.053 C 
ATOM      4  C   UNL     1      24.358 208.852  14.507  1.00  0.00     0.016 C 
BRANCH   3   5
ATOM      5  C   UNL     1      22.800 207.664  12.913  1.00  0.00     0.015 C 
BRANCH   5   6
ATOM      6  C   UNL     1      21.752 208.786  12.783  1.00  0.00     0.028 C 
BRANCH   6   7
ATOM      7  C   UNL     1      20.574 208.364  11.940  1.00  0.00    -0.028 C 
ATOM      8  C   UNL     1      19.478 207.705  12.387  1.00  0.00    -0.070 CG0
ATOM      9  C   UNL     1      18.384 207.410  11.391  1.00  0.00     0.039 C 
ATOM     10  G   UNL     1      19.337 207.178  13.805  1.00  0.00     0.000 G0
ENDBRANCH   6   7
ENDBRANCH   5   6
ENDBRANCH   3   5
ENDBRANCH   1   3
BRANCH   1  11
ATOM     11  C   UNL     1      21.677 206.231  15.726  1.00  0.00     0.087 C 
BRANCH  11  12
ATOM     12  C   UNL     1      21.183 205.367  14.534  1.00  0.00     0.066 C 
BRANCH  12  13
ATOM     13  C   UNL     1      19.789 205.751  14.050  1.00  0.00     0.140 C 
ATOM     14  O   UNL     1      18.951 204.865  13.958  1.00  0.00    -0.299 OA
BRANCH  13  15
ATOM     15  C   UNL     1      19.334 207.180  13.831  1.00  0.00     0.106 CG0
ATOM     16  G   UNL     1      19.483 207.683  12.406  1.00  0.00     0.000 G0
ENDBRANCH  13  15
ENDBRANCH  12  13
BRANCH  12  17
ATOM     17  C   UNL     1      21.240 203.838  14.861  1.00  0.00    -0.006 C 
ATOM     18  C   UNL     1      22.475 203.169  14.228  1.00  0.00     0.008 C 
ATOM     19  C   UNL     1      21.253 203.563  16.377  1.00  0.00     0.008 C 
ENDBRANCH  12  17
ENDBRANCH  11  12
ENDBRANCH   1  11
TORSDOF 1
ENDMDL
MODEL 3
REMARK VINA RESULT:    -3.797      1.852      2.429
REMARK INTER + INTRA:          -5.793
REMARK INTER:                  -6.012
REMARK INTRA:                   0.220
REMARK UNBOUND:                 0.002
REMARK SMILES CC1=CCC[C@@H](C)C(=O)C[C@@H](C(C)C)C(=O)C1
REMARK SMILES IDX 8 1 9 2 6 3 7 4 5 5 4 6 3 7 2 8 1 9 10 11 11 12 15 13 16 14
REMARK SMILES IDX 17 15 12 17 13 18 14 19
REMARK H PARENT
REMARK Flexibility Score: 70.00
ROOT
ATOM      1  C   UNL     1      21.247 205.531  14.504  1.00  0.00     0.136 C 
ATOM      2  O   UNL     1      22.440 205.526  14.234  1.00  0.00    -0.299 OA
ENDROOT
BRANCH   1   3
ATOM      3  C   UNL     1      20.796 204.810  15.765  1.00  0.00     0.053 C 
ATOM      4  C   UNL     1      21.075 203.310  15.613  1.00  0.00     0.016 C 
BRANCH   3   5
ATOM      5  C   UNL     1      19.289 205.043  16.048  1.00  0.00     0.015 C 
BRANCH   5   6
ATOM      6  C   UNL     1      18.914 206.501  16.378  1.00  0.00     0.028 C 
BRANCH   6   7
ATOM      7  C   UNL     1      20.021 207.216  17.112  1.00  0.00    -0.028 C 
ATOM      8  C   UNL     1      20.616 208.367  16.717  1.00  0.00    -0.070 CG0
ATOM      9  C   UNL     1      21.679 208.950  17.615  1.00  0.00     0.039 C 
ATOM     10  G   UNL     1      20.330 209.045  15.388  1.00  0.00     0.000 G0
ENDBRANCH   6   7
ENDBRANCH   5   6
ENDBRANCH   3   5
ENDBRANCH   1   3
BRANCH   1  11
ATOM     11  C   UNL     1      20.332 206.304  13.570  1.00  0.00     0.087 C 
BRANCH  11  12
ATOM     12  C   UNL     1      20.778 207.714  13.095  1.00  0.00     0.066 C 
BRANCH  12  13
ATOM     13  C   UNL     1      21.226 208.619  14.238  1.00  0.00     0.140 C 
ATOM     14  O   UNL     1      22.338 209.124  14.165  1.00  0.00    -0.299 OA
BRANCH  13  15
ATOM     15  C   UNL     1      20.323 209.058  15.371  1.00  0.00     0.106 CG0
ATOM     16  G   UNL     1      20.611 208.394  16.707  1.00  0.00     0.000 G0
ENDBRANCH  13  15
ENDBRANCH  12  13
BRANCH  12  17
ATOM     17  C   UNL     1      19.669 208.420  12.248  1.00  0.00    -0.006 C 
ATOM     18  C   UNL     1      20.244 209.022  10.951  1.00  0.00     0.008 C 
ATOM     19  C   UNL     1      18.515 207.468  11.880  1.00  0.00     0.008 C 
ENDBRANCH  12  17
ENDBRANCH  11  12
ENDBRANCH   1  11
TORSDOF 1
ENDMDL
MODEL 4
REMARK VINA RESULT:    -3.579      1.736      4.081
REMARK INTER + INTRA:          -5.461
REMARK INTER:                  -5.765
REMARK INTRA:                   0.304
REMARK UNBOUND:                 0.002
REMARK SMILES CC1=CCC[C@@H](C)C(=O)C[C@@H](C(C)C)C(=O)C1
REMARK SMILES IDX 8 1 9 2 6 3 7 4 5 5 4 6 3 7 2 8 1 9 10 11 11 12 15 13 16 14
REMARK SMILES IDX 17 15 12 17 13 18 14 19
REMARK H PARENT
REMARK Flexibility Score: 70.00
ROOT
ATOM      1  C   UNL     1      19.084 206.413  12.646  1.00  0.00     0.136 C 
ATOM      2  O   UNL     1      18.259 206.427  11.742  1.00  0.00    -0.299 OA
ENDROOT
BRANCH   1   3
ATOM      3  C   UNL     1      19.790 207.714  12.990  1.00  0.00     0.053 C 
ATOM      4  C   UNL     1      19.171 208.853  12.170  1.00  0.00     0.016 C 
BRANCH   3   5
ATOM      5  C   UNL     1      21.313 207.628  12.712  1.00  0.00     0.015 C 
BRANCH   5   6
ATOM      6  C   UNL     1      22.204 207.758  13.962  1.00  0.00     0.028 C 
BRANCH   6   7
ATOM      7  C   UNL     1      21.425 208.235  15.163  1.00  0.00    -0.028 C 
ATOM      8  C   UNL     1      21.159 207.506  16.273  1.00  0.00    -0.070 CG0
ATOM      9  C   UNL     1      20.398 208.180  17.388  1.00  0.00     0.039 C 
ATOM     10  G   UNL     1      21.508 206.034  16.413  1.00  0.00     0.000 G0
ENDBRANCH   6   7
ENDBRANCH   5   6
ENDBRANCH   3   5
ENDBRANCH   1   3
BRANCH   1  11
ATOM     11  C   UNL     1      19.287 205.094  13.372  1.00  0.00     0.087 C 
BRANCH  11  12
ATOM     12  C   UNL     1      19.476 205.119  14.914  1.00  0.00     0.066 C 
BRANCH  12  13
ATOM     13  C   UNL     1      20.941 205.125  15.339  1.00  0.00     0.140 C 
ATOM     14  O   UNL     1      21.731 204.466  14.679  1.00  0.00    -0.299 OA
BRANCH  13  15
ATOM     15  C   UNL     1      21.501 206.020  16.425  1.00  0.00     0.106 CG0
ATOM     16  G   UNL     1      21.149 207.491  16.281  1.00  0.00     0.000 G0
ENDBRANCH  13  15
ENDBRANCH  12  13
BRANCH  12  17
ATOM     17  C   UNL     1      18.715 203.944  15.612  1.00  0.00    -0.006 C 
ATOM     18  C   UNL     1      19.002 202.595  14.924  1.00  0.00     0.008 C 
ATOM     19  C   UNL     1      19.069 203.820  17.106  1.00  0.00     0.008 C 
ENDBRANCH  12  17
ENDBRANCH  11  12
ENDBRANCH   1  11
TORSDOF 1
ENDMDL
MODEL 5
REMARK VINA RESULT:    -3.572      1.757      2.683
REMARK INTER + INTRA:          -5.450
REMARK INTER:                  -5.680
REMARK INTRA:                   0.230
REMARK UNBOUND:                 0.002
REMARK SMILES CC1=CCC[C@@H](C)C(=O)C[C@@H](C(C)C)C(=O)C1
REMARK SMILES IDX 8 1 9 2 6 3 7 4 5 5 4 6 3 7 2 8 1 9 10 11 11 12 15 13 16 14
REMARK SMILES IDX 17 15 12 17 13 18 14 19
REMARK H PARENT
REMARK Flexibility Score: 70.00
ROOT
ATOM      1  C   UNL     1      19.010 205.111  13.496  1.00  0.00     0.136 C 
ATOM      2  O   UNL     1      18.315 204.672  12.591  1.00  0.00    -0.299 OA
ENDROOT
BRANCH   1   3
ATOM      3  C   UNL     1      19.547 204.129  14.526  1.00  0.00     0.053 C 
ATOM      4  C   UNL     1      19.046 202.720  14.184  1.00  0.00     0.016 C 
BRANCH   3   5
ATOM      5  C   UNL     1      19.109 204.513  15.963  1.00  0.00     0.015 C 
BRANCH   5   6
ATOM      6  C   UNL     1      20.194 205.219  16.799  1.00  0.00     0.028 C 
BRANCH   6   7
ATOM      7  C   UNL     1      19.891 206.683  16.997  1.00  0.00    -0.028 C 
ATOM      8  C   UNL     1      20.570 207.713  16.439  1.00  0.00    -0.070 CG0
ATOM      9  C   UNL     1      20.082 209.112  16.726  1.00  0.00     0.039 C 
ATOM     10  G   UNL     1      21.837 207.536  15.618  1.00  0.00     0.000 G0
ENDBRANCH   6   7
ENDBRANCH   5   6
ENDBRANCH   3   5
ENDBRANCH   1   3
BRANCH   1  11
ATOM     11  C   UNL     1      19.311 206.600  13.475  1.00  0.00     0.087 C 
BRANCH  11  12
ATOM     12  C   UNL     1      20.771 207.057  13.208  1.00  0.00     0.066 C 
BRANCH  12  13
ATOM     13  C   UNL     1      21.723 206.730  14.353  1.00  0.00     0.140 C 
ATOM     14  O   UNL     1      22.525 205.821  14.188  1.00  0.00    -0.299 OA
BRANCH  13  15
ATOM     15  C   UNL     1      21.845 207.560  15.614  1.00  0.00     0.106 CG0
ATOM     16  G   UNL     1      20.556 207.708  16.405  1.00  0.00     0.000 G0
ENDBRANCH  13  15
ENDBRANCH  12  13
BRANCH  12  17
ATOM     17  C   UNL     1      20.849 208.580  12.859  1.00  0.00    -0.006 C 
ATOM     18  C   UNL     1      22.258 208.981  12.378  1.00  0.00     0.008 C 
ATOM     19  C   UNL     1      19.827 208.988  11.781  1.00  0.00     0.008 C 
ENDBRANCH  12  17
ENDBRANCH  11  12
ENDBRANCH   1  11
TORSDOF 1
ENDMDL
MODEL 6
REMARK VINA RESULT:    -3.552      1.880      3.931
REMARK INTER + INTRA:          -5.418
REMARK INTER:                  -6.452
REMARK INTRA:                   1.033
REMARK UNBOUND:                 0.002
REMARK SMILES CC1=CCC[C@@H](C)C(=O)C[C@@H](C(C)C)C(=O)C1
REMARK SMILES IDX 8 1 9 2 6 3 7 4 5 5 4 6 3 7 2 8 1 9 10 11 11 12 15 13 16 14
REMARK SMILES IDX 17 15 12 17 13 18 14 19
REMARK H PARENT
REMARK Flexibility Score: 70.00
ROOT
ATOM      1  C   UNL     1      20.019 207.597  16.755  1.00  0.00     0.136 C 
ATOM      2  O   UNL     1      19.368 208.631  16.707  1.00  0.00    -0.299 OA
ENDROOT
BRANCH   1   3
ATOM      3  C   UNL     1      21.455 207.677  17.248  1.00  0.00     0.053 C 
ATOM      4  C   UNL     1      21.724 209.089  17.782  1.00  0.00     0.016 C 
BRANCH   3   5
ATOM      5  C   UNL     1      22.466 207.336  16.122  1.00  0.00     0.015 C 
BRANCH   5   6
ATOM      6  C   UNL     1      22.900 208.538  15.261  1.00  0.00     0.028 C 
BRANCH   6   7
ATOM      7  C   UNL     1      21.761 209.080  14.434  1.00  0.00    -0.028 C 
ATOM      8  C   UNL     1      20.939 208.349  13.645  1.00  0.00    -0.070 CG0
ATOM      9  C   UNL     1      19.826 209.075  12.929  1.00  0.00     0.039 C 
ATOM     10  G   UNL     1      21.131 206.865  13.381  1.00  0.00     0.000 G0
ENDBRANCH   6   7
ENDBRANCH   5   6
ENDBRANCH   3   5
ENDBRANCH   1   3
BRANCH   1  11
ATOM     11  C   UNL     1      19.306 206.315  16.359  1.00  0.00     0.087 C 
BRANCH  11  12
ATOM     12  C   UNL     1      19.981 205.384  15.314  1.00  0.00     0.066 C 
BRANCH  12  13
ATOM     13  C   UNL     1      19.998 205.973  13.907  1.00  0.00     0.140 C 
ATOM     14  O   UNL     1      18.999 205.831  13.217  1.00  0.00    -0.299 OA
BRANCH  13  15
ATOM     15  C   UNL     1      21.108 206.855  13.375  1.00  0.00     0.106 CG0
ATOM     16  G   UNL     1      20.928 208.338  13.649  1.00  0.00     0.000 G0
ENDBRANCH  13  15
ENDBRANCH  12  13
BRANCH  12  17
ATOM     17  C   UNL     1      19.331 203.961  15.298  1.00  0.00    -0.006 C 
ATOM     18  C   UNL     1      20.224 202.939  14.567  1.00  0.00     0.008 C 
ATOM     19  C   UNL     1      19.037 203.434  16.715  1.00  0.00     0.008 C 
ENDBRANCH  12  17
ENDBRANCH  11  12
ENDBRANCH   1  11
TORSDOF 1
ENDMDL
MODEL 7
REMARK VINA RESULT:    -3.454      2.494      3.693
REMARK INTER + INTRA:          -5.269
REMARK INTER:                  -5.351
REMARK INTRA:                   0.082
REMARK UNBOUND:                 0.002
REMARK SMILES CC1=CCC[C@@H](C)C(=O)C[C@@H](C(C)C)C(=O)C1
REMARK SMILES IDX 8 1 9 2 6 3 7 4 5 5 4 6 3 7 2 8 1 9 10 11 11 12 15 13 16 14
REMARK SMILES IDX 17 15 12 17 13 18 14 19
REMARK H PARENT
REMARK Flexibility Score: 70.00
ROOT
ATOM      1  C   UNL     1      21.770 204.796  14.517  1.00  0.00     0.136 C 
ATOM      2  O   UNL     1      22.817 204.337  14.082  1.00  0.00    -0.299 OA
ENDROOT
BRANCH   1   3
ATOM      3  C   UNL     1      20.891 203.890  15.366  1.00  0.00     0.053 C 
ATOM      4  C   UNL     1      20.931 202.469  14.790  1.00  0.00     0.016 C 
BRANCH   3   5
ATOM      5  C   UNL     1      19.427 204.400  15.417  1.00  0.00     0.015 C 
BRANCH   5   6
ATOM      6  C   UNL     1      19.029 205.082  16.740  1.00  0.00     0.028 C 
BRANCH   6   7
ATOM      7  C   UNL     1      18.781 206.559  16.561  1.00  0.00    -0.028 C 
ATOM      8  C   UNL     1      19.722 207.532  16.616  1.00  0.00    -0.070 CG0
ATOM      9  C   UNL     1      19.277 208.952  16.366  1.00  0.00     0.039 C 
ATOM     10  G   UNL     1      21.169 207.277  16.999  1.00  0.00     0.000 G0
ENDBRANCH   6   7
ENDBRANCH   5   6
ENDBRANCH   3   5
ENDBRANCH   1   3
BRANCH   1  11
ATOM     11  C   UNL     1      21.472 206.252  14.204  1.00  0.00     0.087 C 
BRANCH  11  12
ATOM     12  C   UNL     1      22.489 207.332  14.663  1.00  0.00     0.066 C 
BRANCH  12  13
ATOM     13  C   UNL     1      22.207 207.867  16.063  1.00  0.00     0.140 C 
ATOM     14  O   UNL     1      22.751 208.911  16.396  1.00  0.00    -0.299 OA
BRANCH  13  15
ATOM     15  C   UNL     1      21.176 207.276  17.001  1.00  0.00     0.106 CG0
ATOM     16  G   UNL     1      19.733 207.519  16.595  1.00  0.00     0.000 G0
ENDBRANCH  13  15
ENDBRANCH  12  13
BRANCH  12  17
ATOM     17  C   UNL     1      22.585 208.512  13.641  1.00  0.00    -0.006 C 
ATOM     18  C   UNL     1      23.727 208.294  12.629  1.00  0.00     0.008 C 
ATOM     19  C   UNL     1      21.272 208.724  12.864  1.00  0.00     0.008 C 
ENDBRANCH  12  17
ENDBRANCH  11  12
ENDBRANCH   1  11
TORSDOF 1
ENDMDL
MODEL 8
REMARK VINA RESULT:    -3.241      2.333      4.220
REMARK INTER + INTRA:          -4.944
REMARK INTER:                  -5.254
REMARK INTRA:                   0.310
REMARK UNBOUND:                 0.002
REMARK SMILES CC1=CCC[C@@H](C)C(=O)C[C@@H](C(C)C)C(=O)C1
REMARK SMILES IDX 8 1 9 2 6 3 7 4 5 5 4 6 3 7 2 8 1 9 10 11 11 12 15 13 16 14
REMARK SMILES IDX 17 15 12 17 13 18 14 19
REMARK H PARENT
REMARK Flexibility Score: 70.00
ROOT
ATOM      1  C   UNL     1      21.765 206.845  13.703  1.00  0.00     0.136 C 
ATOM      2  O   UNL     1      22.551 205.960  13.393  1.00  0.00    -0.299 OA
ENDROOT
BRANCH   1   3
ATOM      3  C   UNL     1      22.330 208.211  14.057  1.00  0.00     0.053 C 
ATOM      4  C   UNL     1      23.179 208.722  12.886  1.00  0.00     0.016 C 
BRANCH   3   5
ATOM      5  C   UNL     1      23.187 208.158  15.348  1.00  0.00     0.015 C 
BRANCH   5   6
ATOM      6  C   UNL     1      22.466 208.649  16.619  1.00  0.00     0.028 C 
BRANCH   6   7
ATOM      7  C   UNL     1      21.065 209.125  16.325  1.00  0.00    -0.028 C 
ATOM      8  C   UNL     1      19.926 208.452  16.610  1.00  0.00    -0.070 CG0
ATOM      9  C   UNL     1      18.614 209.120  16.275  1.00  0.00     0.039 C 
ATOM     10  G   UNL     1      19.903 207.038  17.166  1.00  0.00     0.000 G0
ENDBRANCH   6   7
ENDBRANCH   5   6
ENDBRANCH   3   5
ENDBRANCH   1   3
BRANCH   1  11
ATOM     11  C   UNL     1      20.286 206.501  13.656  1.00  0.00     0.087 C 
BRANCH  11  12
ATOM     12  C   UNL     1      19.677 205.689  14.832  1.00  0.00     0.066 C 
BRANCH  12  13
ATOM     13  C   UNL     1      20.352 205.971  16.170  1.00  0.00     0.140 C 
ATOM     14  O   UNL     1      21.402 205.394  16.413  1.00  0.00    -0.299 OA
BRANCH  13  15
ATOM     15  C   UNL     1      19.889 207.036  17.142  1.00  0.00     0.106 CG0
ATOM     16  G   UNL     1      19.931 208.454  16.599  1.00  0.00     0.000 G0
ENDBRANCH  13  15
ENDBRANCH  12  13
BRANCH  12  17
ATOM     17  C   UNL     1      19.677 204.153  14.538  1.00  0.00    -0.006 C 
ATOM     18  C   UNL     1      19.143 203.346  15.739  1.00  0.00     0.008 C 
ATOM     19  C   UNL     1      18.842 203.793  13.294  1.00  0.00     0.008 C 
ENDBRANCH  12  17
ENDBRANCH  11  12
ENDBRANCH   1  11
TORSDOF 1
ENDMDL
MODEL 9
REMARK VINA RESULT:    -3.091      1.992      2.590
REMARK INTER + INTRA:          -4.716
REMARK INTER:                  -5.246
REMARK INTRA:                   0.530
REMARK UNBOUND:                 0.002
REMARK SMILES CC1=CCC[C@@H](C)C(=O)C[C@@H](C(C)C)C(=O)C1
REMARK SMILES IDX 8 1 9 2 6 3 7 4 5 5 4 6 3 7 2 8 1 9 10 11 11 12 15 13 16 14
REMARK SMILES IDX 17 15 12 17 13 18 14 19
REMARK H PARENT
REMARK Flexibility Score: 70.00
ROOT
ATOM      1  C   UNL     1      19.384 203.812  14.793  1.00  0.00     0.136 C 
ATOM      2  O   UNL     1      19.310 203.947  16.006  1.00  0.00    -0.299 OA
ENDROOT
BRANCH   1   3
ATOM      3  C   UNL     1      20.009 202.535  14.252  1.00  0.00     0.053 C 
ATOM      4  C   UNL     1      19.445 201.335  15.022  1.00  0.00     0.016 C 
BRANCH   3   5
ATOM      5  C   UNL     1      21.555 202.562  14.372  1.00  0.00     0.015 C 
BRANCH   5   6
ATOM      6  C   UNL     1      22.118 203.749  15.177  1.00  0.00     0.028 C 
BRANCH   6   7
ATOM      7  C   UNL     1      22.776 204.774  14.286  1.00  0.00    -0.028 C 
ATOM      8  C   UNL     1      22.607 206.115  14.366  1.00  0.00    -0.070 CG0
ATOM      9  C   UNL     1      23.391 206.978  13.408  1.00  0.00     0.039 C 
ATOM     10  G   UNL     1      21.615 206.781  15.304  1.00  0.00     0.000 G0
ENDBRANCH   6   7
ENDBRANCH   5   6
ENDBRANCH   3   5
ENDBRANCH   1   3
BRANCH   1  11
ATOM     11  C   UNL     1      18.794 204.921  13.938  1.00  0.00     0.087 C 
BRANCH  11  12
ATOM     12  C   UNL     1      19.701 206.121  13.552  1.00  0.00     0.066 C 
BRANCH  12  13
ATOM     13  C   UNL     1      20.213 206.900  14.759  1.00  0.00     0.140 C 
ATOM     14  O   UNL     1      19.405 207.557  15.400  1.00  0.00    -0.299 OA
BRANCH  13  15
ATOM     15  C   UNL     1      21.621 206.782  15.305  1.00  0.00     0.106 CG0
ATOM     16  G   UNL     1      22.613 206.119  14.366  1.00  0.00     0.000 G0
ENDBRANCH  13  15
ENDBRANCH  12  13
BRANCH  12  17
ATOM     17  C   UNL     1      18.991 207.086  12.547  1.00  0.00    -0.006 C 
ATOM     18  C   UNL     1      19.986 208.083  11.920  1.00  0.00     0.008 C 
ATOM     19  C   UNL     1      18.273 206.329  11.413  1.00  0.00     0.008 C 
ENDBRANCH  12  17
ENDBRANCH  11  12
ENDBRANCH   1  11
TORSDOF 1
ENDMDL
