MODEL 1
REMARK VINA RESULT:     1.389      0.000      0.000
REMARK INTER + INTRA:           2.012
REMARK INTER:                   1.674
REMARK INTRA:                   0.339
REMARK UNBOUND:                 0.339
REMARK SMILES Oc1cc(O)c2cc(O)c(-c3ccc(O)c(O)c3)[o+]c2c1.[Cl-]
REMARK SMILES IDX 10 1 19 2 20 3 21 4 2 5 3 6 4 7 6 8 7 9 8 10 11 11 12 12
REMARK SMILES IDX 13 13 14 14 18 15 16 16 15 17 17 19 9 21 1 23 5 25
REMARK H PARENT 15 18 17 20 9 22 1 24 5 26
REMARK Flexibility Score: inf
ROOT
ATOM      1  C   UNL     1      -8.891 -17.569  -1.761  1.00  0.00     0.402 A 
ATOM      2  O   UNL     1      -8.881 -16.602  -2.678  1.00  0.00    -0.202 OA
ATOM      3  C   UNL     1      -8.643 -15.327  -2.386  1.00  0.00     0.368 A 
ATOM      4  C   UNL     1      -8.647 -14.371  -3.407  1.00  0.00     0.162 A 
ATOM      5  C   UNL     1      -8.394 -13.025  -3.113  1.00  0.00     0.128 A 
ATOM      6  C   UNL     1      -8.138 -12.635  -1.795  1.00  0.00     0.093 A 
ATOM      7  C   UNL     1      -8.131 -13.582  -0.760  1.00  0.00     0.136 A 
ATOM      8  C   UNL     1      -8.385 -14.935  -1.055  1.00  0.00     0.125 A 
ATOM      9  C   UNL     1      -8.399 -15.921  -0.063  1.00  0.00     0.078 A 
ATOM     10  C   UNL     1      -8.664 -17.250  -0.408  1.00  0.00     0.223 A 
ENDROOT
BRANCH   1  11
ATOM     11  C   UNL     1      -9.160 -18.955  -2.210  1.00  0.00     0.087 A 
ATOM     12  C   UNL     1      -9.661 -19.177  -3.501  1.00  0.00     0.022 A 
ATOM     13  C   UNL     1      -9.904 -20.477  -3.953  1.00  0.00     0.051 A 
ATOM     14  C   UNL     1      -9.636 -21.573  -3.128  1.00  0.00     0.157 A 
ATOM     15  C   UNL     1      -8.871 -20.060  -1.390  1.00  0.00     0.068 A 
ATOM     16  C   UNL     1      -9.112 -21.366  -1.841  1.00  0.00     0.158 A 
BRANCH  14  17
ATOM     17  O   UNL     1      -9.890 -22.858  -3.605  1.00  0.00    -0.504 OA
ATOM     18  H   UNL     1     -10.801 -23.133  -3.952  1.00  0.00     0.293 HD
ENDBRANCH  14  17
BRANCH  16  19
ATOM     19  O   UNL     1      -8.829 -22.455  -1.019  1.00  0.00    -0.504 OA
ATOM     20  H   UNL     1      -9.534 -23.148  -0.794  1.00  0.00     0.293 HD
ENDBRANCH  16  19
ENDBRANCH   1  11
BRANCH  10  21
ATOM     21  O   UNL     1      -8.729 -18.229   0.583  1.00  0.00    -0.500 OA
ATOM     22  H   UNL     1      -8.297 -18.098   1.490  1.00  0.00     0.294 HD
ENDBRANCH  10  21
BRANCH   5  23
ATOM     23  O   UNL     1      -8.397 -12.066  -4.125  1.00  0.00    -0.507 OA
ATOM     24  H   UNL     1      -7.637 -11.403  -4.228  1.00  0.00     0.293 HD
ENDBRANCH   5  23
BRANCH   7  25
ATOM     25  O   UNL     1      -7.875 -13.179   0.551  1.00  0.00    -0.507 OA
ATOM     26  H   UNL     1      -8.496 -12.548   1.044  1.00  0.00     0.293 HD
ENDBRANCH   7  25
TORSDOF 6
ENDMDL
MODEL 2
REMARK VINA RESULT:     1.627      1.371      2.991
REMARK INTER + INTRA:           2.298
REMARK INTER:                   2.193
REMARK INTRA:                   0.106
REMARK UNBOUND:                 0.339
REMARK SMILES Oc1cc(O)c2cc(O)c(-c3ccc(O)c(O)c3)[o+]c2c1.[Cl-]
REMARK SMILES IDX 10 1 19 2 20 3 21 4 2 5 3 6 4 7 6 8 7 9 8 10 11 11 12 12
REMARK SMILES IDX 13 13 14 14 18 15 16 16 15 17 17 19 9 21 1 23 5 25
REMARK H PARENT 15 18 17 20 9 22 1 24 5 26
REMARK Flexibility Score: inf
ROOT
ATOM      1  C   UNL     1      -8.578 -17.818  -1.589  1.00  0.00     0.402 A 
ATOM      2  O   UNL     1      -8.399 -16.828  -0.714  1.00  0.00    -0.202 OA
ATOM      3  C   UNL     1      -8.328 -15.549  -1.069  1.00  0.00     0.368 A 
ATOM      4  C   UNL     1      -8.142 -14.569  -0.089  1.00  0.00     0.162 A 
ATOM      5  C   UNL     1      -8.069 -13.217  -0.450  1.00  0.00     0.128 A 
ATOM      6  C   UNL     1      -8.182 -12.846  -1.794  1.00  0.00     0.093 A 
ATOM      7  C   UNL     1      -8.367 -13.818  -2.788  1.00  0.00     0.136 A 
ATOM      8  C   UNL     1      -8.440 -15.177  -2.425  1.00  0.00     0.125 A 
ATOM      9  C   UNL     1      -8.617 -16.190  -3.375  1.00  0.00     0.078 A 
ATOM     10  C   UNL     1      -8.676 -17.525  -2.964  1.00  0.00     0.223 A 
ENDROOT
BRANCH   1  11
ATOM     11  C   UNL     1      -8.650 -19.204  -1.071  1.00  0.00     0.087 A 
ATOM     12  C   UNL     1      -7.876 -19.566   0.042  1.00  0.00     0.022 A 
ATOM     13  C   UNL     1      -7.943 -20.862   0.559  1.00  0.00     0.051 A 
ATOM     14  C   UNL     1      -8.793 -21.810  -0.017  1.00  0.00     0.157 A 
ATOM     15  C   UNL     1      -9.520 -20.153  -1.636  1.00  0.00     0.068 A 
ATOM     16  C   UNL     1      -9.590 -21.455  -1.118  1.00  0.00     0.158 A 
BRANCH  14  17
ATOM     17  O   UNL     1      -8.836 -23.096   0.519  1.00  0.00    -0.504 OA
ATOM     18  H   UNL     1      -8.685 -23.922  -0.048  1.00  0.00     0.293 HD
ENDBRANCH  14  17
BRANCH  16  19
ATOM     19  O   UNL     1     -10.450 -22.391  -1.689  1.00  0.00    -0.504 OA
ATOM     20  H   UNL     1     -10.632 -22.406  -2.685  1.00  0.00     0.293 HD
ENDBRANCH  16  19
ENDBRANCH   1  11
BRANCH  10  21
ATOM     21  O   UNL     1      -8.800 -18.543  -3.909  1.00  0.00    -0.500 OA
ATOM     22  H   UNL     1      -9.706 -18.864  -4.229  1.00  0.00     0.294 HD
ENDBRANCH  10  21
BRANCH   5  23
ATOM     23  O   UNL     1      -7.884 -12.234   0.520  1.00  0.00    -0.507 OA
ATOM     24  H   UNL     1      -7.808 -12.468   1.504  1.00  0.00     0.293 HD
ENDBRANCH   5  23
BRANCH   7  25
ATOM     25  O   UNL     1      -8.476 -13.436  -4.125  1.00  0.00    -0.507 OA
ATOM     26  H   UNL     1      -9.375 -13.235  -4.549  1.00  0.00     0.293 HD
ENDBRANCH   7  25
TORSDOF 6
ENDMDL
MODEL 3
REMARK VINA RESULT:     3.117     12.580     14.783
REMARK INTER + INTRA:           4.093
REMARK INTER:                   3.664
REMARK INTRA:                   0.429
REMARK UNBOUND:                 0.339
REMARK SMILES Oc1cc(O)c2cc(O)c(-c3ccc(O)c(O)c3)[o+]c2c1.[Cl-]
REMARK SMILES IDX 10 1 19 2 20 3 21 4 2 5 3 6 4 7 6 8 7 9 8 10 11 11 12 12
REMARK SMILES IDX 13 13 14 14 18 15 16 16 15 17 17 19 9 21 1 23 5 25
REMARK H PARENT 15 18 17 20 9 22 1 24 5 26
REMARK Flexibility Score: inf
ROOT
ATOM      1  C   UNL     1      -9.312 -19.640  11.288  1.00  0.00     0.402 A 
ATOM      2  O   UNL     1      -9.577 -20.707  12.041  1.00  0.00    -0.202 OA
ATOM      3  C   UNL     1      -9.917 -20.624  13.324  1.00  0.00     0.368 A 
ATOM      4  C   UNL     1     -10.184 -21.792  14.045  1.00  0.00     0.162 A 
ATOM      5  C   UNL     1     -10.546 -21.718  15.396  1.00  0.00     0.128 A 
ATOM      6  C   UNL     1     -10.642 -20.473  16.026  1.00  0.00     0.093 A 
ATOM      7  C   UNL     1     -10.376 -19.293  15.316  1.00  0.00     0.136 A 
ATOM      8  C   UNL     1     -10.012 -19.367  13.958  1.00  0.00     0.125 A 
ATOM      9  C   UNL     1      -9.729 -18.224  13.202  1.00  0.00     0.078 A 
ATOM     10  C   UNL     1      -9.364 -18.352  11.858  1.00  0.00     0.223 A 
ENDROOT
BRANCH   1  11
ATOM     11  C   UNL     1      -8.953 -19.858   9.868  1.00  0.00     0.087 A 
ATOM     12  C   UNL     1      -8.919 -18.766   8.988  1.00  0.00     0.022 A 
ATOM     13  C   UNL     1      -8.564 -18.946   7.649  1.00  0.00     0.051 A 
ATOM     14  C   UNL     1      -8.223 -20.215   7.172  1.00  0.00     0.157 A 
ATOM     15  C   UNL     1      -8.590 -21.131   9.391  1.00  0.00     0.068 A 
ATOM     16  C   UNL     1      -8.231 -21.314   8.048  1.00  0.00     0.158 A 
BRANCH  14  17
ATOM     17  O   UNL     1      -7.875 -20.364   5.831  1.00  0.00    -0.504 OA
ATOM     18  H   UNL     1      -7.611 -21.260   5.440  1.00  0.00     0.293 HD
ENDBRANCH  14  17
BRANCH  16  19
ATOM     19  O   UNL     1      -7.879 -22.579   7.582  1.00  0.00    -0.504 OA
ATOM     20  H   UNL     1      -7.976 -22.832   6.606  1.00  0.00     0.293 HD
ENDBRANCH  16  19
ENDBRANCH   1  11
BRANCH  10  21
ATOM     21  O   UNL     1      -9.031 -17.221  11.114  1.00  0.00    -0.500 OA
ATOM     22  H   UNL     1      -9.561 -16.361  11.187  1.00  0.00     0.294 HD
ENDBRANCH  10  21
BRANCH   5  23
ATOM     23  O   UNL     1     -10.814 -22.877  16.123  1.00  0.00    -0.507 OA
ATOM     24  H   UNL     1     -11.631 -22.953  16.718  1.00  0.00     0.293 HD
ENDBRANCH   5  23
BRANCH   7  25
ATOM     25  O   UNL     1     -10.473 -18.058  15.957  1.00  0.00    -0.507 OA
ATOM     26  H   UNL     1      -9.744 -17.720  16.574  1.00  0.00     0.293 HD
ENDBRANCH   7  25
TORSDOF 6
ENDMDL
