MODEL 1
REMARK VINA RESULT:    -5.781      0.000      0.000
REMARK INTER + INTRA:          -6.870
REMARK INTER:                  -6.626
REMARK INTRA:                  -0.244
REMARK UNBOUND:                -0.244
REMARK SMILES COC(=O)c1ccccc1O
REMARK SMILES IDX 5 1 6 2 7 3 8 4 9 5 10 6 3 7 4 8 2 9 1 10 11 11
REMARK H PARENT 11 12
REMARK Flexibility Score: inf
ROOT
ATOM      1  C   UNL     1     151.439 156.415 159.584  1.00  0.00     0.101 A 
ATOM      2  C   UNL     1     150.329 156.735 160.387  1.00  0.00     0.019 A 
ATOM      3  C   UNL     1     149.372 157.655 159.948  1.00  0.00     0.001 A 
ATOM      4  C   UNL     1     149.509 158.266 158.702  1.00  0.00     0.004 A 
ATOM      5  C   UNL     1     150.603 157.962 157.892  1.00  0.00     0.047 A 
ATOM      6  C   UNL     1     151.571 157.040 158.320  1.00  0.00     0.130 A 
ENDROOT
BRANCH   1   7
ATOM      7  C   UNL     1     152.435 155.432 160.084  1.00  0.00     0.341 C 
ATOM      8  O   UNL     1     153.162 154.787 159.279  1.00  0.00    -0.246 OA
BRANCH   7   9
ATOM      9  O   UNL     1     152.570 155.221 161.460  1.00  0.00    -0.465 OA
ATOM     10  C   UNL     1     153.373 154.180 162.004  1.00  0.00     0.282 C 
ENDBRANCH   7   9
ENDBRANCH   1   7
BRANCH   6  11
ATOM     11  O   UNL     1     152.656 156.753 157.491  1.00  0.00    -0.507 OA
ATOM     12  H   UNL     1     152.808 157.252 156.621  1.00  0.00     0.293 HD
ENDBRANCH   6  11
TORSDOF 3
ENDMDL
MODEL 2
REMARK VINA RESULT:    -5.780      1.898      2.730
REMARK INTER + INTRA:          -6.869
REMARK INTER:                  -6.693
REMARK INTRA:                  -0.176
REMARK UNBOUND:                -0.244
REMARK SMILES COC(=O)c1ccccc1O
REMARK SMILES IDX 5 1 6 2 7 3 8 4 9 5 10 6 3 7 4 8 2 9 1 10 11 11
REMARK H PARENT 11 12
REMARK Flexibility Score: inf
ROOT
ATOM      1  C   UNL     1     152.776 155.304 159.503  1.00  0.00     0.101 A 
ATOM      2  C   UNL     1     152.919 155.255 158.104  1.00  0.00     0.019 A 
ATOM      3  C   UNL     1     152.231 156.153 157.284  1.00  0.00     0.001 A 
ATOM      4  C   UNL     1     151.390 157.113 157.847  1.00  0.00     0.004 A 
ATOM      5  C   UNL     1     151.235 157.178 159.232  1.00  0.00     0.047 A 
ATOM      6  C   UNL     1     151.921 156.281 160.068  1.00  0.00     0.130 A 
ENDROOT
BRANCH   1   7
ATOM      7  C   UNL     1     153.524 154.334 160.343  1.00  0.00     0.341 C 
ATOM      8  O   UNL     1     152.936 153.344 160.860  1.00  0.00    -0.246 OA
BRANCH   7   9
ATOM      9  O   UNL     1     154.894 154.518 160.562  1.00  0.00    -0.465 OA
ATOM     10  C   UNL     1     155.538 154.132 161.770  1.00  0.00     0.282 C 
ENDBRANCH   7   9
ENDBRANCH   1   7
BRANCH   6  11
ATOM     11  O   UNL     1     151.747 156.367 161.449  1.00  0.00    -0.507 OA
ATOM     12  H   UNL     1     151.661 155.539 162.028  1.00  0.00     0.293 HD
ENDBRANCH   6  11
TORSDOF 3
ENDMDL
MODEL 3
REMARK VINA RESULT:    -5.729      1.505      1.890
REMARK INTER + INTRA:          -6.810
REMARK INTER:                  -6.618
REMARK INTRA:                  -0.192
REMARK UNBOUND:                -0.244
REMARK SMILES COC(=O)c1ccccc1O
REMARK SMILES IDX 5 1 6 2 7 3 8 4 9 5 10 6 3 7 4 8 2 9 1 10 11 11
REMARK H PARENT 11 12
REMARK Flexibility Score: inf
ROOT
ATOM      1  C   UNL     1     152.570 155.350 159.662  1.00  0.00     0.101 A 
ATOM      2  C   UNL     1     151.666 156.122 160.415  1.00  0.00     0.019 A 
ATOM      3  C   UNL     1     150.884 157.105 159.803  1.00  0.00     0.001 A 
ATOM      4  C   UNL     1     150.991 157.330 158.431  1.00  0.00     0.004 A 
ATOM      5  C   UNL     1     151.881 156.575 157.667  1.00  0.00     0.047 A 
ATOM      6  C   UNL     1     152.673 155.584 158.270  1.00  0.00     0.130 A 
ENDROOT
BRANCH   1   7
ATOM      7  C   UNL     1     153.385 154.314 160.348  1.00  0.00     0.341 C 
ATOM      8  O   UNL     1     152.848 153.258 160.784  1.00  0.00    -0.246 OA
BRANCH   7   9
ATOM      9  O   UNL     1     154.760 154.510 160.513  1.00  0.00    -0.465 OA
ATOM     10  C   UNL     1     155.457 154.119 161.689  1.00  0.00     0.282 C 
ENDBRANCH   7   9
ENDBRANCH   1   7
BRANCH   6  11
ATOM     11  O   UNL     1     153.555 154.843 157.483  1.00  0.00    -0.507 OA
ATOM     12  H   UNL     1     153.558 153.830 157.495  1.00  0.00     0.293 HD
ENDBRANCH   6  11
TORSDOF 3
ENDMDL
MODEL 4
REMARK VINA RESULT:    -5.539     15.337     16.119
REMARK INTER + INTRA:          -6.593
REMARK INTER:                  -6.308
REMARK INTRA:                  -0.285
REMARK UNBOUND:                -0.244
REMARK SMILES COC(=O)c1ccccc1O
REMARK SMILES IDX 5 1 6 2 7 3 8 4 9 5 10 6 3 7 4 8 2 9 1 10 11 11
REMARK H PARENT 11 12
REMARK Flexibility Score: inf
ROOT
ATOM      1  C   UNL     1     150.080 169.772 151.154  1.00  0.00     0.101 A 
ATOM      2  C   UNL     1     148.929 170.200 150.466  1.00  0.00     0.019 A 
ATOM      3  C   UNL     1     148.649 169.729 149.181  1.00  0.00     0.001 A 
ATOM      4  C   UNL     1     149.512 168.824 148.563  1.00  0.00     0.004 A 
ATOM      5  C   UNL     1     150.658 168.387 149.229  1.00  0.00     0.047 A 
ATOM      6  C   UNL     1     150.951 168.853 150.521  1.00  0.00     0.130 A 
ENDROOT
BRANCH   1   7
ATOM      7  C   UNL     1     150.344 170.294 152.519  1.00  0.00     0.341 C 
ATOM      8  O   UNL     1     149.449 170.254 153.407  1.00  0.00    -0.246 OA
BRANCH   7   9
ATOM      9  O   UNL     1     151.598 170.836 152.824  1.00  0.00    -0.465 OA
ATOM     10  C   UNL     1     151.758 172.125 153.402  1.00  0.00     0.282 C 
ENDBRANCH   7   9
ENDBRANCH   1   7
BRANCH   6  11
ATOM     11  O   UNL     1     152.104 168.401 151.163  1.00  0.00    -0.507 OA
ATOM     12  H   UNL     1     153.028 168.566 150.779  1.00  0.00     0.293 HD
ENDBRANCH   6  11
TORSDOF 3
ENDMDL
MODEL 5
REMARK VINA RESULT:    -5.539     14.564     15.474
REMARK INTER + INTRA:          -6.593
REMARK INTER:                  -6.306
REMARK INTRA:                  -0.287
REMARK UNBOUND:                -0.244
REMARK SMILES COC(=O)c1ccccc1O
REMARK SMILES IDX 5 1 6 2 7 3 8 4 9 5 10 6 3 7 4 8 2 9 1 10 11 11
REMARK H PARENT 11 12
REMARK Flexibility Score: inf
ROOT
ATOM      1  C   UNL     1     150.944 169.138 150.922  1.00  0.00     0.101 A 
ATOM      2  C   UNL     1     149.932 170.045 151.287  1.00  0.00     0.019 A 
ATOM      3  C   UNL     1     148.859 170.301 150.429  1.00  0.00     0.001 A 
ATOM      4  C   UNL     1     148.780 169.655 149.196  1.00  0.00     0.004 A 
ATOM      5  C   UNL     1     149.773 168.752 148.816  1.00  0.00     0.047 A 
ATOM      6  C   UNL     1     150.857 168.486 149.668  1.00  0.00     0.130 A 
ENDROOT
BRANCH   1   7
ATOM      7  C   UNL     1     152.069 168.891 151.860  1.00  0.00     0.341 C 
ATOM      8  O   UNL     1     151.868 168.834 153.105  1.00  0.00    -0.246 OA
BRANCH   7   9
ATOM      9  O   UNL     1     153.365 168.721 151.360  1.00  0.00    -0.465 OA
ATOM     10  C   UNL     1     154.493 168.515 152.201  1.00  0.00     0.282 C 
ENDBRANCH   7   9
ENDBRANCH   1   7
BRANCH   6  11
ATOM     11  O   UNL     1     151.836 167.579 149.264  1.00  0.00    -0.507 OA
ATOM     12  H   UNL     1     151.726 167.010 148.432  1.00  0.00     0.293 HD
ENDBRANCH   6  11
TORSDOF 3
ENDMDL
MODEL 6
REMARK VINA RESULT:    -5.524      1.569      4.180
REMARK INTER + INTRA:          -6.575
REMARK INTER:                  -6.282
REMARK INTRA:                  -0.293
REMARK UNBOUND:                -0.244
REMARK SMILES COC(=O)c1ccccc1O
REMARK SMILES IDX 5 1 6 2 7 3 8 4 9 5 10 6 3 7 4 8 2 9 1 10 11 11
REMARK H PARENT 11 12
REMARK Flexibility Score: inf
ROOT
ATOM      1  C   UNL     1     152.033 155.812 160.116  1.00  0.00     0.101 A 
ATOM      2  C   UNL     1     152.248 155.461 161.461  1.00  0.00     0.019 A 
ATOM      3  C   UNL     1     153.247 154.548 161.810  1.00  0.00     0.001 A 
ATOM      4  C   UNL     1     154.047 153.974 160.822  1.00  0.00     0.004 A 
ATOM      5  C   UNL     1     153.849 154.310 159.482  1.00  0.00     0.047 A 
ATOM      6  C   UNL     1     152.849 155.226 159.118  1.00  0.00     0.130 A 
ENDROOT
BRANCH   1   7
ATOM      7  C   UNL     1     150.961 156.786 159.784  1.00  0.00     0.341 C 
ATOM      8  O   UNL     1     149.885 156.808 160.443  1.00  0.00    -0.246 OA
BRANCH   7   9
ATOM      9  O   UNL     1     151.146 157.689 158.731  1.00  0.00    -0.465 OA
ATOM     10  C   UNL     1     150.081 158.448 158.173  1.00  0.00     0.282 C 
ENDBRANCH   7   9
ENDBRANCH   1   7
BRANCH   6  11
ATOM     11  O   UNL     1     152.672 155.544 157.772  1.00  0.00    -0.507 OA
ATOM     12  H   UNL     1     151.791 155.903 157.420  1.00  0.00     0.293 HD
ENDBRANCH   6  11
TORSDOF 3
ENDMDL
MODEL 7
REMARK VINA RESULT:    -5.345     14.114     15.871
REMARK INTER + INTRA:          -6.371
REMARK INTER:                  -6.017
REMARK INTRA:                  -0.354
REMARK UNBOUND:                -0.244
REMARK SMILES COC(=O)c1ccccc1O
REMARK SMILES IDX 5 1 6 2 7 3 8 4 9 5 10 6 3 7 4 8 2 9 1 10 11 11
REMARK H PARENT 11 12
REMARK Flexibility Score: inf
ROOT
ATOM      1  C   UNL     1     150.108 169.968 151.263  1.00  0.00     0.101 A 
ATOM      2  C   UNL     1     148.971 170.356 150.530  1.00  0.00     0.019 A 
ATOM      3  C   UNL     1     148.697 169.788 149.283  1.00  0.00     0.001 A 
ATOM      4  C   UNL     1     149.552 168.824 148.750  1.00  0.00     0.004 A 
ATOM      5  C   UNL     1     150.684 168.424 149.462  1.00  0.00     0.047 A 
ATOM      6  C   UNL     1     150.971 168.988 150.716  1.00  0.00     0.130 A 
ENDROOT
BRANCH   1   7
ATOM      7  C   UNL     1     150.366 170.594 152.585  1.00  0.00     0.341 C 
ATOM      8  O   UNL     1     150.414 171.849 152.704  1.00  0.00    -0.246 OA
BRANCH   7   9
ATOM      9  O   UNL     1     150.558 169.785 153.710  1.00  0.00    -0.465 OA
ATOM     10  C   UNL     1     149.544 168.932 154.227  1.00  0.00     0.282 C 
ENDBRANCH   7   9
ENDBRANCH   1   7
BRANCH   6  11
ATOM     11  O   UNL     1     152.109 168.572 151.406  1.00  0.00    -0.507 OA
ATOM     12  H   UNL     1     152.178 167.645 151.811  1.00  0.00     0.293 HD
ENDBRANCH   6  11
TORSDOF 3
ENDMDL
MODEL 8
REMARK VINA RESULT:    -5.327     14.931     16.115
REMARK INTER + INTRA:          -6.351
REMARK INTER:                  -6.050
REMARK INTRA:                  -0.301
REMARK UNBOUND:                -0.244
REMARK SMILES COC(=O)c1ccccc1O
REMARK SMILES IDX 5 1 6 2 7 3 8 4 9 5 10 6 3 7 4 8 2 9 1 10 11 11
REMARK H PARENT 11 12
REMARK Flexibility Score: inf
ROOT
ATOM      1  C   UNL     1     150.359 169.644 151.419  1.00  0.00     0.101 A 
ATOM      2  C   UNL     1     150.925 168.795 150.448  1.00  0.00     0.019 A 
ATOM      3  C   UNL     1     150.306 168.618 149.208  1.00  0.00     0.001 A 
ATOM      4  C   UNL     1     149.116 169.284 148.918  1.00  0.00     0.004 A 
ATOM      5  C   UNL     1     148.540 170.129 149.867  1.00  0.00     0.047 A 
ATOM      6  C   UNL     1     149.151 170.317 151.117  1.00  0.00     0.130 A 
ENDROOT
BRANCH   1   7
ATOM      7  C   UNL     1     151.046 169.808 152.726  1.00  0.00     0.341 C 
ATOM      8  O   UNL     1     151.797 168.899 153.176  1.00  0.00    -0.246 OA
BRANCH   7   9
ATOM      9  O   UNL     1     150.860 170.982 153.464  1.00  0.00    -0.465 OA
ATOM     10  C   UNL     1     151.809 172.042 153.477  1.00  0.00     0.282 C 
ENDBRANCH   7   9
ENDBRANCH   1   7
BRANCH   6  11
ATOM     11  O   UNL     1     148.554 171.167 152.048  1.00  0.00    -0.507 OA
ATOM     12  H   UNL     1     147.756 170.875 152.600  1.00  0.00     0.293 HD
ENDBRANCH   6  11
TORSDOF 3
ENDMDL
MODEL 9
REMARK VINA RESULT:    -5.250     10.280     11.776
REMARK INTER + INTRA:          -6.262
REMARK INTER:                  -5.970
REMARK INTRA:                  -0.292
REMARK UNBOUND:                -0.244
REMARK SMILES COC(=O)c1ccccc1O
REMARK SMILES IDX 5 1 6 2 7 3 8 4 9 5 10 6 3 7 4 8 2 9 1 10 11 11
REMARK H PARENT 11 12
REMARK Flexibility Score: inf
ROOT
ATOM      1  C   UNL     1     149.764 159.746 149.073  1.00  0.00     0.101 A 
ATOM      2  C   UNL     1     148.732 160.029 149.986  1.00  0.00     0.019 A 
ATOM      3  C   UNL     1     148.993 160.734 151.163  1.00  0.00     0.001 A 
ATOM      4  C   UNL     1     150.288 161.168 151.446  1.00  0.00     0.004 A 
ATOM      5  C   UNL     1     151.326 160.898 150.553  1.00  0.00     0.047 A 
ATOM      6  C   UNL     1     151.076 160.190 149.366  1.00  0.00     0.130 A 
ENDROOT
BRANCH   1   7
ATOM      7  C   UNL     1     149.447 158.993 147.831  1.00  0.00     0.341 C 
ATOM      8  O   UNL     1     150.282 158.186 147.338  1.00  0.00    -0.246 OA
BRANCH   7   9
ATOM      9  O   UNL     1     148.212 159.182 147.203  1.00  0.00    -0.465 OA
ATOM     10  C   UNL     1     147.995 160.184 146.217  1.00  0.00     0.282 C 
ENDBRANCH   7   9
ENDBRANCH   1   7
BRANCH   6  11
ATOM     11  O   UNL     1     152.131 159.932 148.491  1.00  0.00    -0.507 OA
ATOM     12  H   UNL     1     152.314 160.522 147.688  1.00  0.00     0.293 HD
ENDBRANCH   6  11
TORSDOF 3
ENDMDL
