MODEL 1
REMARK VINA RESULT:    -4.172      0.000      0.000
REMARK INTER + INTRA:          -5.169
REMARK INTER:                  -4.904
REMARK INTRA:                  -0.265
REMARK UNBOUND:                -0.265
REMARK SMILES O=c1cc(-c2ccc(O)c(O)c2)oc2cc(O)cc(O)c12
REMARK SMILES IDX 4 1 3 2 2 3 1 4 21 5 19 6 18 7 16 8 15 9 14 10 13 11 5 12
REMARK SMILES IDX 6 13 7 14 8 15 12 16 10 17 9 18 11 20 20 22 17 24
REMARK H PARENT 9 19 11 21 20 23 17 25
REMARK Flexibility Score: inf
ROOT
ATOM      1  C   UNL     1       0.105   3.893   9.968  1.00  0.00     0.138 A 
ATOM      2  C   UNL     1       1.161   4.817  10.023  1.00  0.00     0.100 A 
ATOM      3  C   UNL     1       0.971   6.107   9.525  1.00  0.00     0.197 A 
ATOM      4  O   UNL     1       1.925   6.929   9.577  1.00  0.00    -0.289 OA
ATOM      5  C   UNL     1      -0.275   6.463   8.972  1.00  0.00     0.107 A 
ATOM      6  C   UNL     1      -0.551   7.748   8.447  1.00  0.00     0.134 A 
ATOM      7  C   UNL     1      -1.818   8.020   7.909  1.00  0.00     0.093 A 
ATOM      8  C   UNL     1      -2.810   7.032   7.884  1.00  0.00     0.123 A 
ATOM      9  C   UNL     1      -2.541   5.764   8.401  1.00  0.00     0.094 A 
ATOM     10  C   UNL     1      -1.287   5.473   8.943  1.00  0.00     0.146 A 
ATOM     11  O   UNL     1      -1.056   4.257   9.430  1.00  0.00    -0.456 OA
ENDROOT
BRANCH   1  12
ATOM     12  C   UNL     1       0.251   2.507  10.481  1.00  0.00     0.021 A 
ATOM     13  C   UNL     1      -0.363   2.151  11.695  1.00  0.00     0.016 A 
ATOM     14  C   UNL     1      -0.235   0.856  12.202  1.00  0.00     0.051 A 
ATOM     15  C   UNL     1       0.516  -0.104  11.512  1.00  0.00     0.157 A 
ATOM     16  C   UNL     1       1.015   1.541   9.798  1.00  0.00     0.062 A 
ATOM     17  C   UNL     1       1.147   0.243  10.305  1.00  0.00     0.158 A 
BRANCH  15  18
ATOM     18  O   UNL     1       0.640  -1.396  12.020  1.00  0.00    -0.504 OA
ATOM     19  H   UNL     1       0.578  -1.584  13.014  1.00  0.00     0.293 HD
ENDBRANCH  15  18
BRANCH  17  20
ATOM     20  O   UNL     1       1.911  -0.686   9.599  1.00  0.00    -0.504 OA
ATOM     21  H   UNL     1       2.924  -0.681   9.626  1.00  0.00     0.293 HD
ENDBRANCH  17  20
ENDBRANCH   1  12
BRANCH   6  22
ATOM     22  O   UNL     1       0.418   8.751   8.457  1.00  0.00    -0.507 OA
ATOM     23  H   UNL     1       0.403   9.499   9.140  1.00  0.00     0.293 HD
ENDBRANCH   6  22
BRANCH   8  24
ATOM     24  O   UNL     1      -4.067   7.303   7.348  1.00  0.00    -0.508 OA
ATOM     25  H   UNL     1      -4.877   7.442   7.941  1.00  0.00     0.293 HD
ENDBRANCH   8  24
TORSDOF 5
ENDMDL
MODEL 2
REMARK VINA RESULT:    -4.008      1.140      2.669
REMARK INTER + INTRA:          -4.976
REMARK INTER:                  -4.706
REMARK INTRA:                  -0.269
REMARK UNBOUND:                -0.265
REMARK SMILES O=c1cc(-c2ccc(O)c(O)c2)oc2cc(O)cc(O)c12
REMARK SMILES IDX 4 1 3 2 2 3 1 4 21 5 19 6 18 7 16 8 15 9 14 10 13 11 5 12
REMARK SMILES IDX 6 13 7 14 8 15 12 16 10 17 9 18 11 20 20 22 17 24
REMARK H PARENT 9 19 11 21 20 23 17 25
REMARK Flexibility Score: inf
ROOT
ATOM      1  C   UNL     1      -0.391   4.077   9.807  1.00  0.00     0.138 A 
ATOM      2  C   UNL     1      -1.669   4.318   9.277  1.00  0.00     0.100 A 
ATOM      3  C   UNL     1      -1.952   5.558   8.704  1.00  0.00     0.197 A 
ATOM      4  O   UNL     1      -3.103   5.766   8.232  1.00  0.00    -0.289 OA
ATOM      5  C   UNL     1      -0.955   6.553   8.670  1.00  0.00     0.107 A 
ATOM      6  C   UNL     1      -1.158   7.836   8.108  1.00  0.00     0.134 A 
ATOM      7  C   UNL     1      -0.113   8.772   8.117  1.00  0.00     0.093 A 
ATOM      8  C   UNL     1       1.128   8.450   8.679  1.00  0.00     0.123 A 
ATOM      9  C   UNL     1       1.332   7.186   9.234  1.00  0.00     0.094 A 
ATOM     10  C   UNL     1       0.305   6.238   9.234  1.00  0.00     0.146 A 
ATOM     11  O   UNL     1       0.526   5.041   9.768  1.00  0.00    -0.456 OA
ENDROOT
BRANCH   1  12
ATOM     12  C   UNL     1      -0.033   2.777  10.429  1.00  0.00     0.021 A 
ATOM     13  C   UNL     1      -0.492   2.482  11.725  1.00  0.00     0.016 A 
ATOM     14  C   UNL     1      -0.163   1.269  12.335  1.00  0.00     0.051 A 
ATOM     15  C   UNL     1       0.638   0.334  11.668  1.00  0.00     0.157 A 
ATOM     16  C   UNL     1       0.783   1.839   9.768  1.00  0.00     0.062 A 
ATOM     17  C   UNL     1       1.115   0.624  10.378  1.00  0.00     0.158 A 
BRANCH  15  18
ATOM     18  O   UNL     1       0.962  -0.875  12.279  1.00  0.00    -0.504 OA
ATOM     19  H   UNL     1       1.167  -0.931  13.269  1.00  0.00     0.293 HD
ENDBRANCH  15  18
BRANCH  17  20
ATOM     20  O   UNL     1       1.924  -0.280   9.690  1.00  0.00    -0.504 OA
ATOM     21  H   UNL     1       1.547  -1.108   9.243  1.00  0.00     0.293 HD
ENDBRANCH  17  20
ENDBRANCH   1  12
BRANCH   6  22
ATOM     22  O   UNL     1      -2.385   8.185   7.542  1.00  0.00    -0.507 OA
ATOM     23  H   UNL     1      -3.144   7.519   7.461  1.00  0.00     0.293 HD
ENDBRANCH   6  22
BRANCH   8  24
ATOM     24  O   UNL     1       2.165   9.381   8.689  1.00  0.00    -0.508 OA
ATOM     25  H   UNL     1       2.089  10.264   8.200  1.00  0.00     0.293 HD
ENDBRANCH   8  24
TORSDOF 5
ENDMDL
MODEL 3
REMARK VINA RESULT:    -3.909      1.384      7.220
REMARK INTER + INTRA:          -4.859
REMARK INTER:                  -4.594
REMARK INTRA:                  -0.265
REMARK UNBOUND:                -0.265
REMARK SMILES O=c1cc(-c2ccc(O)c(O)c2)oc2cc(O)cc(O)c12
REMARK SMILES IDX 4 1 3 2 2 3 1 4 21 5 19 6 18 7 16 8 15 9 14 10 13 11 5 12
REMARK SMILES IDX 6 13 7 14 8 15 12 16 10 17 9 18 11 20 20 22 17 24
REMARK H PARENT 9 19 11 21 20 23 17 25
REMARK Flexibility Score: inf
ROOT
ATOM      1  C   UNL     1      -0.803   4.335  10.060  1.00  0.00     0.138 A 
ATOM      2  C   UNL     1      -1.470   4.053  11.263  1.00  0.00     0.100 A 
ATOM      3  C   UNL     1      -1.166   2.881  11.958  1.00  0.00     0.197 A 
ATOM      4  O   UNL     1      -1.771   2.636  13.037  1.00  0.00    -0.289 OA
ATOM      5  C   UNL     1      -0.199   1.997  11.441  1.00  0.00     0.107 A 
ATOM      6  C   UNL     1       0.169   0.790  12.082  1.00  0.00     0.134 A 
ATOM      7  C   UNL     1       1.139  -0.039  11.499  1.00  0.00     0.093 A 
ATOM      8  C   UNL     1       1.745   0.316  10.288  1.00  0.00     0.123 A 
ATOM      9  C   UNL     1       1.386   1.505   9.653  1.00  0.00     0.094 A 
ATOM     10  C   UNL     1       0.423   2.345  10.217  1.00  0.00     0.146 A 
ATOM     11  O   UNL     1       0.098   3.474   9.593  1.00  0.00    -0.456 OA
ENDROOT
BRANCH   1  12
ATOM     12  C   UNL     1      -1.086   5.565   9.277  1.00  0.00     0.021 A 
ATOM     13  C   UNL     1      -0.118   6.582   9.214  1.00  0.00     0.016 A 
ATOM     14  C   UNL     1      -0.364   7.752   8.491  1.00  0.00     0.051 A 
ATOM     15  C   UNL     1      -1.584   7.931   7.827  1.00  0.00     0.157 A 
ATOM     16  C   UNL     1      -2.316   5.756   8.618  1.00  0.00     0.062 A 
ATOM     17  C   UNL     1      -2.565   6.928   7.895  1.00  0.00     0.158 A 
BRANCH  15  18
ATOM     18  O   UNL     1      -1.824   9.098   7.105  1.00  0.00    -0.504 OA
ATOM     19  H   UNL     1      -1.188   9.886   7.141  1.00  0.00     0.293 HD
ENDBRANCH  15  18
BRANCH  17  20
ATOM     20  O   UNL     1      -3.795   7.080   7.254  1.00  0.00    -0.504 OA
ATOM     21  H   UNL     1      -3.903   6.937   6.256  1.00  0.00     0.293 HD
ENDBRANCH  17  20
ENDBRANCH   1  12
BRANCH   6  22
ATOM     22  O   UNL     1      -0.419   0.410  13.289  1.00  0.00    -0.507 OA
ATOM     23  H   UNL     1      -1.358   0.697  13.538  1.00  0.00     0.293 HD
ENDBRANCH   6  22
BRANCH   8  24
ATOM     24  O   UNL     1       2.708  -0.509   9.708  1.00  0.00    -0.508 OA
ATOM     25  H   UNL     1       3.181  -0.249   8.850  1.00  0.00     0.293 HD
ENDBRANCH   8  24
TORSDOF 5
ENDMDL
MODEL 4
REMARK VINA RESULT:    -3.823      1.574      2.887
REMARK INTER + INTRA:          -4.758
REMARK INTER:                  -4.486
REMARK INTRA:                  -0.273
REMARK UNBOUND:                -0.265
REMARK SMILES O=c1cc(-c2ccc(O)c(O)c2)oc2cc(O)cc(O)c12
REMARK SMILES IDX 4 1 3 2 2 3 1 4 21 5 19 6 18 7 16 8 15 9 14 10 13 11 5 12
REMARK SMILES IDX 6 13 7 14 8 15 12 16 10 17 9 18 11 20 20 22 17 24
REMARK H PARENT 9 19 11 21 20 23 17 25
REMARK Flexibility Score: inf
ROOT
ATOM      1  C   UNL     1       0.008   4.360   9.728  1.00  0.00     0.138 A 
ATOM      2  C   UNL     1      -1.320   4.018   9.424  1.00  0.00     0.100 A 
ATOM      3  C   UNL     1      -2.160   4.972   8.849  1.00  0.00     0.197 A 
ATOM      4  O   UNL     1      -3.351   4.655   8.581  1.00  0.00    -0.289 OA
ATOM      5  C   UNL     1      -1.668   6.265   8.586  1.00  0.00     0.107 A 
ATOM      6  C   UNL     1      -2.452   7.289   8.004  1.00  0.00     0.134 A 
ATOM      7  C   UNL     1      -1.887   8.554   7.778  1.00  0.00     0.093 A 
ATOM      8  C   UNL     1      -0.555   8.811   8.124  1.00  0.00     0.123 A 
ATOM      9  C   UNL     1       0.222   7.803   8.698  1.00  0.00     0.094 A 
ATOM     10  C   UNL     1      -0.322   6.537   8.930  1.00  0.00     0.146 A 
ATOM     11  O   UNL     1       0.440   5.594   9.476  1.00  0.00    -0.456 OA
ENDROOT
BRANCH   1  12
ATOM     12  C   UNL     1       0.947   3.387  10.342  1.00  0.00     0.021 A 
ATOM     13  C   UNL     1       1.636   3.739  11.516  1.00  0.00     0.016 A 
ATOM     14  C   UNL     1       2.531   2.844  12.108  1.00  0.00     0.051 A 
ATOM     15  C   UNL     1       2.760   1.587  11.535  1.00  0.00     0.157 A 
ATOM     16  C   UNL     1       1.191   2.127   9.763  1.00  0.00     0.062 A 
ATOM     17  C   UNL     1       2.088   1.230  10.353  1.00  0.00     0.158 A 
BRANCH  15  18
ATOM     18  O   UNL     1       3.652   0.697  12.129  1.00  0.00    -0.504 OA
ATOM     19  H   UNL     1       4.355   1.010  12.787  1.00  0.00     0.293 HD
ENDBRANCH  15  18
BRANCH  17  20
ATOM     20  O   UNL     1       2.302  -0.010   9.751  1.00  0.00    -0.504 OA
ATOM     21  H   UNL     1       2.151  -0.160   8.760  1.00  0.00     0.293 HD
ENDBRANCH  17  20
ENDBRANCH   1  12
BRANCH   6  22
ATOM     22  O   UNL     1      -3.782   7.062   7.650  1.00  0.00    -0.507 OA
ATOM     23  H   UNL     1      -4.368   6.416   8.165  1.00  0.00     0.293 HD
ENDBRANCH   6  22
BRANCH   8  24
ATOM     24  O   UNL     1       0.006  10.067   7.901  1.00  0.00    -0.508 OA
ATOM     25  H   UNL     1       0.945  10.171   7.536  1.00  0.00     0.293 HD
ENDBRANCH   8  24
TORSDOF 5
ENDMDL
MODEL 5
REMARK VINA RESULT:    -3.711      1.391      7.193
REMARK INTER + INTRA:          -4.626
REMARK INTER:                  -4.355
REMARK INTRA:                  -0.271
REMARK UNBOUND:                -0.265
REMARK SMILES O=c1cc(-c2ccc(O)c(O)c2)oc2cc(O)cc(O)c12
REMARK SMILES IDX 4 1 3 2 2 3 1 4 21 5 19 6 18 7 16 8 15 9 14 10 13 11 5 12
REMARK SMILES IDX 6 13 7 14 8 15 12 16 10 17 9 18 11 20 20 22 17 24
REMARK H PARENT 9 19 11 21 20 23 17 25
REMARK Flexibility Score: inf
ROOT
ATOM      1  C   UNL     1      -0.786   4.066  10.117  1.00  0.00     0.138 A 
ATOM      2  C   UNL     1      -1.415   3.747  11.332  1.00  0.00     0.100 A 
ATOM      3  C   UNL     1      -1.046   2.585  12.011  1.00  0.00     0.197 A 
ATOM      4  O   UNL     1      -1.617   2.306  13.100  1.00  0.00    -0.289 OA
ATOM      5  C   UNL     1      -0.052   1.748  11.468  1.00  0.00     0.107 A 
ATOM      6  C   UNL     1       0.382   0.554  12.092  1.00  0.00     0.134 A 
ATOM      7  C   UNL     1       1.375  -0.228  11.483  1.00  0.00     0.093 A 
ATOM      8  C   UNL     1       1.940   0.162  10.262  1.00  0.00     0.123 A 
ATOM      9  C   UNL     1       1.515   1.339   9.644  1.00  0.00     0.094 A 
ATOM     10  C   UNL     1       0.528   2.132  10.235  1.00  0.00     0.146 A 
ATOM     11  O   UNL     1       0.142   3.249   9.625  1.00  0.00    -0.456 OA
ENDROOT
BRANCH   1  12
ATOM     12  C   UNL     1      -1.140   5.288   9.350  1.00  0.00     0.021 A 
ATOM     13  C   UNL     1      -2.400   5.376   8.733  1.00  0.00     0.016 A 
ATOM     14  C   UNL     1      -2.753   6.511   7.999  1.00  0.00     0.051 A 
ATOM     15  C   UNL     1      -1.851   7.573   7.860  1.00  0.00     0.157 A 
ATOM     16  C   UNL     1      -0.232   6.353   9.195  1.00  0.00     0.062 A 
ATOM     17  C   UNL     1      -0.583   7.491   8.459  1.00  0.00     0.158 A 
BRANCH  15  18
ATOM     18  O   UNL     1      -2.208   8.705   7.129  1.00  0.00    -0.504 OA
ATOM     19  H   UNL     1      -3.069   9.205   7.312  1.00  0.00     0.293 HD
ENDBRANCH  15  18
BRANCH  17  20
ATOM     20  O   UNL     1       0.342   8.527   8.330  1.00  0.00    -0.504 OA
ATOM     21  H   UNL     1       0.728   9.007   9.135  1.00  0.00     0.293 HD
ENDBRANCH  17  20
ENDBRANCH   1  12
BRANCH   6  22
ATOM     22  O   UNL     1      -0.164   0.141  13.308  1.00  0.00    -0.507 OA
ATOM     23  H   UNL     1       0.184   0.489  14.194  1.00  0.00     0.293 HD
ENDBRANCH   6  22
BRANCH   8  24
ATOM     24  O   UNL     1       2.925  -0.616   9.657  1.00  0.00    -0.508 OA
ATOM     25  H   UNL     1       3.115  -0.551   8.664  1.00  0.00     0.293 HD
ENDBRANCH   8  24
TORSDOF 5
ENDMDL
MODEL 6
REMARK VINA RESULT:    -3.676      1.978      6.659
REMARK INTER + INTRA:          -4.586
REMARK INTER:                  -4.275
REMARK INTRA:                  -0.310
REMARK UNBOUND:                -0.265
REMARK SMILES O=c1cc(-c2ccc(O)c(O)c2)oc2cc(O)cc(O)c12
REMARK SMILES IDX 4 1 3 2 2 3 1 4 21 5 19 6 18 7 16 8 15 9 14 10 13 11 5 12
REMARK SMILES IDX 6 13 7 14 8 15 12 16 10 17 9 18 11 20 20 22 17 24
REMARK H PARENT 9 19 11 21 20 23 17 25
REMARK Flexibility Score: inf
ROOT
ATOM      1  C   UNL     1       0.426   4.152   9.736  1.00  0.00     0.138 A 
ATOM      2  C   UNL     1       1.650   4.797   9.974  1.00  0.00     0.100 A 
ATOM      3  C   UNL     1       2.785   4.034  10.252  1.00  0.00     0.197 A 
ATOM      4  O   UNL     1       3.880   4.622  10.466  1.00  0.00    -0.289 OA
ATOM      5  C   UNL     1       2.686   2.629  10.293  1.00  0.00     0.107 A 
ATOM      6  C   UNL     1       3.787   1.783  10.565  1.00  0.00     0.134 A 
ATOM      7  C   UNL     1       3.604   0.392  10.592  1.00  0.00     0.093 A 
ATOM      8  C   UNL     1       2.342  -0.166  10.354  1.00  0.00     0.123 A 
ATOM      9  C   UNL     1       1.254   0.666  10.085  1.00  0.00     0.094 A 
ATOM     10  C   UNL     1       1.415   2.053  10.052  1.00  0.00     0.146 A 
ATOM     11  O   UNL     1       0.363   2.824   9.792  1.00  0.00    -0.456 OA
ENDROOT
BRANCH   1  12
ATOM     12  C   UNL     1      -0.815   4.912   9.438  1.00  0.00     0.021 A 
ATOM     13  C   UNL     1      -0.719   6.206   8.895  1.00  0.00     0.016 A 
ATOM     14  C   UNL     1      -1.871   6.944   8.613  1.00  0.00     0.051 A 
ATOM     15  C   UNL     1      -3.138   6.409   8.877  1.00  0.00     0.157 A 
ATOM     16  C   UNL     1      -2.091   4.385   9.713  1.00  0.00     0.062 A 
ATOM     17  C   UNL     1      -3.247   5.123   9.433  1.00  0.00     0.158 A 
BRANCH  15  18
ATOM     18  O   UNL     1      -4.284   7.148   8.592  1.00  0.00    -0.504 OA
ATOM     19  H   UNL     1      -5.209   6.740   8.662  1.00  0.00     0.293 HD
ENDBRANCH  15  18
BRANCH  17  20
ATOM     20  O   UNL     1      -4.493   4.566   9.718  1.00  0.00    -0.504 OA
ATOM     21  H   UNL     1      -5.220   4.487   9.017  1.00  0.00     0.293 HD
ENDBRANCH  17  20
ENDBRANCH   1  12
BRANCH   6  22
ATOM     22  O   UNL     1       5.056   2.310  10.807  1.00  0.00    -0.507 OA
ATOM     23  H   UNL     1       5.488   2.262  11.722  1.00  0.00     0.293 HD
ENDBRANCH   6  22
BRANCH   8  24
ATOM     24  O   UNL     1       2.160  -1.547  10.382  1.00  0.00    -0.508 OA
ATOM     25  H   UNL     1       1.246  -1.958  10.530  1.00  0.00     0.293 HD
ENDBRANCH   8  24
TORSDOF 5
ENDMDL
MODEL 7
REMARK VINA RESULT:    -3.628      2.883      4.472
REMARK INTER + INTRA:          -4.528
REMARK INTER:                  -4.249
REMARK INTRA:                  -0.279
REMARK UNBOUND:                -0.265
REMARK SMILES O=c1cc(-c2ccc(O)c(O)c2)oc2cc(O)cc(O)c12
REMARK SMILES IDX 4 1 3 2 2 3 1 4 21 5 19 6 18 7 16 8 15 9 14 10 13 11 5 12
REMARK SMILES IDX 6 13 7 14 8 15 12 16 10 17 9 18 11 20 20 22 17 24
REMARK H PARENT 9 19 11 21 20 23 17 25
REMARK Flexibility Score: inf
ROOT
ATOM      1  C   UNL     1      -0.981   3.903  10.046  1.00  0.00     0.138 A 
ATOM      2  C   UNL     1      -1.570   4.740   9.085  1.00  0.00     0.100 A 
ATOM      3  C   UNL     1      -2.891   5.155   9.255  1.00  0.00     0.197 A 
ATOM      4  O   UNL     1      -3.412   5.906   8.386  1.00  0.00    -0.289 OA
ATOM      5  C   UNL     1      -3.617   4.725  10.383  1.00  0.00     0.107 A 
ATOM      6  C   UNL     1      -4.959   5.100  10.630  1.00  0.00     0.134 A 
ATOM      7  C   UNL     1      -5.613   4.624  11.777  1.00  0.00     0.093 A 
ATOM      8  C   UNL     1      -4.951   3.781  12.677  1.00  0.00     0.123 A 
ATOM      9  C   UNL     1      -3.627   3.410  12.437  1.00  0.00     0.094 A 
ATOM     10  C   UNL     1      -2.957   3.873  11.302  1.00  0.00     0.146 A 
ATOM     11  O   UNL     1      -1.696   3.505  11.096  1.00  0.00    -0.456 OA
ENDROOT
BRANCH   1  12
ATOM     12  C   UNL     1       0.421   3.428   9.918  1.00  0.00     0.021 A 
ATOM     13  C   UNL     1       1.463   4.367   9.833  1.00  0.00     0.016 A 
ATOM     14  C   UNL     1       2.789   3.947   9.704  1.00  0.00     0.051 A 
ATOM     15  C   UNL     1       3.097   2.582   9.647  1.00  0.00     0.157 A 
ATOM     16  C   UNL     1       0.735   2.057   9.846  1.00  0.00     0.062 A 
ATOM     17  C   UNL     1       2.062   1.633   9.715  1.00  0.00     0.158 A 
BRANCH  15  18
ATOM     18  O   UNL     1       4.420   2.166   9.520  1.00  0.00    -0.504 OA
ATOM     19  H   UNL     1       5.148   2.798   9.209  1.00  0.00     0.293 HD
ENDBRANCH  15  18
BRANCH  17  20
ATOM     20  O   UNL     1       2.334   0.267   9.650  1.00  0.00    -0.504 OA
ATOM     21  H   UNL     1       1.596  -0.428   9.616  1.00  0.00     0.293 HD
ENDBRANCH  17  20
ENDBRANCH   1  12
BRANCH   6  22
ATOM     22  O   UNL     1      -5.644   5.939   9.751  1.00  0.00    -0.507 OA
ATOM     23  H   UNL     1      -5.943   5.622   8.836  1.00  0.00     0.293 HD
ENDBRANCH   6  22
BRANCH   8  24
ATOM     24  O   UNL     1      -5.601   3.308  13.815  1.00  0.00    -0.508 OA
ATOM     25  H   UNL     1      -5.087   2.910  14.592  1.00  0.00     0.293 HD
ENDBRANCH   8  24
TORSDOF 5
ENDMDL
MODEL 8
REMARK VINA RESULT:    -3.580      1.975      6.950
REMARK INTER + INTRA:          -4.472
REMARK INTER:                  -4.180
REMARK INTRA:                  -0.292
REMARK UNBOUND:                -0.265
REMARK SMILES O=c1cc(-c2ccc(O)c(O)c2)oc2cc(O)cc(O)c12
REMARK SMILES IDX 4 1 3 2 2 3 1 4 21 5 19 6 18 7 16 8 15 9 14 10 13 11 5 12
REMARK SMILES IDX 6 13 7 14 8 15 12 16 10 17 9 18 11 20 20 22 17 24
REMARK H PARENT 9 19 11 21 20 23 17 25
REMARK Flexibility Score: inf
ROOT
ATOM      1  C   UNL     1      -1.049   4.977   9.721  1.00  0.00     0.138 A 
ATOM      2  C   UNL     1       0.234   4.408   9.683  1.00  0.00     0.100 A 
ATOM      3  C   UNL     1       0.527   3.323  10.510  1.00  0.00     0.197 A 
ATOM      4  O   UNL     1       1.683   2.819  10.470  1.00  0.00    -0.289 OA
ATOM      5  C   UNL     1      -0.465   2.816  11.372  1.00  0.00     0.107 A 
ATOM      6  C   UNL     1      -0.250   1.720  12.241  1.00  0.00     0.134 A 
ATOM      7  C   UNL     1      -1.291   1.279  13.073  1.00  0.00     0.093 A 
ATOM      8  C   UNL     1      -2.538   1.915  13.053  1.00  0.00     0.123 A 
ATOM      9  C   UNL     1      -2.753   2.997  12.198  1.00  0.00     0.094 A 
ATOM     10  C   UNL     1      -1.731   3.450  11.360  1.00  0.00     0.146 A 
ATOM     11  O   UNL     1      -1.962   4.482  10.554  1.00  0.00    -0.456 OA
ENDROOT
BRANCH   1  12
ATOM     12  C   UNL     1      -1.418   6.134   8.865  1.00  0.00     0.021 A 
ATOM     13  C   UNL     1      -0.544   7.231   8.772  1.00  0.00     0.016 A 
ATOM     14  C   UNL     1      -0.872   8.335   7.981  1.00  0.00     0.051 A 
ATOM     15  C   UNL     1      -2.081   8.367   7.276  1.00  0.00     0.157 A 
ATOM     16  C   UNL     1      -2.639   6.178   8.165  1.00  0.00     0.062 A 
ATOM     17  C   UNL     1      -2.971   7.283   7.373  1.00  0.00     0.158 A 
BRANCH  15  18
ATOM     18  O   UNL     1      -2.404   9.468   6.486  1.00  0.00    -0.504 OA
ATOM     19  H   UNL     1      -3.339   9.858   6.475  1.00  0.00     0.293 HD
ENDBRANCH  15  18
BRANCH  17  20
ATOM     20  O   UNL     1      -4.188   7.289   6.693  1.00  0.00    -0.504 OA
ATOM     21  H   UNL     1      -5.059   7.036   7.146  1.00  0.00     0.293 HD
ENDBRANCH  17  20
ENDBRANCH   1  12
BRANCH   6  22
ATOM     22  O   UNL     1       0.982   1.067  12.282  1.00  0.00    -0.507 OA
ATOM     23  H   UNL     1       1.065   0.074  12.103  1.00  0.00     0.293 HD
ENDBRANCH   6  22
BRANCH   8  24
ATOM     24  O   UNL     1      -3.570   1.478  13.881  1.00  0.00    -0.508 OA
ATOM     25  H   UNL     1      -3.405   1.233  14.850  1.00  0.00     0.293 HD
ENDBRANCH   8  24
TORSDOF 5
ENDMDL
MODEL 9
REMARK VINA RESULT:    -3.534      1.673      7.359
REMARK INTER + INTRA:          -4.418
REMARK INTER:                  -4.143
REMARK INTRA:                  -0.275
REMARK UNBOUND:                -0.265
REMARK SMILES O=c1cc(-c2ccc(O)c(O)c2)oc2cc(O)cc(O)c12
REMARK SMILES IDX 4 1 3 2 2 3 1 4 21 5 19 6 18 7 16 8 15 9 14 10 13 11 5 12
REMARK SMILES IDX 6 13 7 14 8 15 12 16 10 17 9 18 11 20 20 22 17 24
REMARK H PARENT 9 19 11 21 20 23 17 25
REMARK Flexibility Score: inf
ROOT
ATOM      1  C   UNL     1       0.280   3.439  10.064  1.00  0.00     0.138 A 
ATOM      2  C   UNL     1      -0.427   2.692  11.020  1.00  0.00     0.100 A 
ATOM      3  C   UNL     1       0.107   1.488  11.482  1.00  0.00     0.197 A 
ATOM      4  O   UNL     1      -0.536   0.823  12.339  1.00  0.00    -0.289 OA
ATOM      5  C   UNL     1       1.343   1.036  10.980  1.00  0.00     0.107 A 
ATOM      6  C   UNL     1       1.954  -0.171  11.395  1.00  0.00     0.134 A 
ATOM      7  C   UNL     1       3.186  -0.552  10.842  1.00  0.00     0.093 A 
ATOM      8  C   UNL     1       3.816   0.251   9.882  1.00  0.00     0.123 A 
ATOM      9  C   UNL     1       3.217   1.442   9.471  1.00  0.00     0.094 A 
ATOM     10  C   UNL     1       1.991   1.840  10.010  1.00  0.00     0.146 A 
ATOM     11  O   UNL     1       1.441   2.980   9.602  1.00  0.00    -0.456 OA
ENDROOT
BRANCH   1  12
ATOM     12  C   UNL     1      -0.239   4.726   9.536  1.00  0.00     0.021 A 
ATOM     13  C   UNL     1       0.596   5.857   9.527  1.00  0.00     0.016 A 
ATOM     14  C   UNL     1       0.129   7.081   9.042  1.00  0.00     0.051 A 
ATOM     15  C   UNL     1      -1.183   7.200   8.567  1.00  0.00     0.157 A 
ATOM     16  C   UNL     1      -1.561   4.855   9.069  1.00  0.00     0.062 A 
ATOM     17  C   UNL     1      -2.033   6.081   8.585  1.00  0.00     0.158 A 
BRANCH  15  18
ATOM     18  O   UNL     1      -1.645   8.422   8.083  1.00  0.00    -0.504 OA
ATOM     19  H   UNL     1      -1.147   8.930   7.361  1.00  0.00     0.293 HD
ENDBRANCH  15  18
BRANCH  17  20
ATOM     20  O   UNL     1      -3.348   6.169   8.129  1.00  0.00    -0.504 OA
ATOM     21  H   UNL     1      -3.888   7.024   8.205  1.00  0.00     0.293 HD
ENDBRANCH  17  20
ENDBRANCH   1  12
BRANCH   6  22
ATOM     22  O   UNL     1       1.350  -0.990  12.348  1.00  0.00    -0.507 OA
ATOM     23  H   UNL     1       1.840  -1.770  12.769  1.00  0.00     0.293 HD
ENDBRANCH   6  22
BRANCH   8  24
ATOM     24  O   UNL     1       5.039  -0.129   9.333  1.00  0.00    -0.508 OA
ATOM     25  H   UNL     1       5.868  -0.233   9.905  1.00  0.00     0.293 HD
ENDBRANCH   8  24
TORSDOF 5
ENDMDL
