MODEL 1
REMARK VINA RESULT:    -3.870      0.000      0.000
REMARK INTER + INTRA:          -5.928
REMARK INTER:                  -5.340
REMARK INTRA:                  -0.587
REMARK UNBOUND:                -0.587
REMARK SMILES OC[C@@H](O)C(O)[C@H](O)CO
REMARK SMILES IDX 5 1 7 2 9 3 10 4 8 6 3 8 2 9 1 10 4 12 6 14
REMARK H PARENT 10 5 8 7 1 11 4 13 6 15
REMARK Flexibility Score: inf
ROOT
ATOM      1  C   UNL     1      38.312 -15.922  31.275  1.00  0.00     0.176 C 
ENDROOT
BRANCH   1   2
ATOM      2  C   UNL     1      39.463 -16.450  32.185  1.00  0.00     0.171 C 
BRANCH   2   3
ATOM      3  C   UNL     1      40.135 -15.317  32.988  1.00  0.00     0.190 C 
BRANCH   3   4
ATOM      4  O   UNL     1      39.668 -15.283  34.310  1.00  0.00    -0.394 OA
ATOM      5  H   UNL     1      38.825 -15.808  34.328  1.00  0.00     0.210 HD
ENDBRANCH   3   4
ENDBRANCH   2   3
BRANCH   2   6
ATOM      6  O   UNL     1      38.990 -17.435  33.070  1.00  0.00    -0.388 OA
ATOM      7  H   UNL     1      39.694 -17.584  33.755  1.00  0.00     0.211 HD
ENDBRANCH   2   6
ENDBRANCH   1   2
BRANCH   1   8
ATOM      8  C   UNL     1      37.184 -15.156  32.022  1.00  0.00     0.171 C 
BRANCH   8   9
ATOM      9  C   UNL     1      35.949 -14.827  31.160  1.00  0.00     0.190 C 
BRANCH   9  10
ATOM     10  O   UNL     1      35.083 -15.927  31.089  1.00  0.00    -0.394 OA
ATOM     11  H   UNL     1      34.483 -15.756  30.317  1.00  0.00     0.210 HD
ENDBRANCH   9  10
ENDBRANCH   8   9
BRANCH   8  12
ATOM     12  O   UNL     1      36.799 -15.875  33.167  1.00  0.00    -0.388 OA
ATOM     13  H   UNL     1      37.575 -15.869  33.787  1.00  0.00     0.211 HD
ENDBRANCH   8  12
ENDBRANCH   1   8
BRANCH   1  14
ATOM     14  O   UNL     1      37.761 -16.953  30.492  1.00  0.00    -0.388 OA
ATOM     15  H   UNL     1      38.373 -17.122  29.731  1.00  0.00     0.211 HD
ENDBRANCH   1  14
TORSDOF 9
ENDMDL
MODEL 2
REMARK VINA RESULT:    -3.843     20.635     21.396
REMARK INTER + INTRA:          -5.891
REMARK INTER:                  -5.568
REMARK INTRA:                  -0.322
REMARK UNBOUND:                -0.587
REMARK SMILES OC[C@@H](O)C(O)[C@H](O)CO
REMARK SMILES IDX 5 1 7 2 9 3 10 4 8 6 3 8 2 9 1 10 4 12 6 14
REMARK H PARENT 10 5 8 7 1 11 4 13 6 15
REMARK Flexibility Score: inf
ROOT
ATOM      1  C   UNL     1      48.878  -2.681  20.031  1.00  0.00     0.176 C 
ENDROOT
BRANCH   1   2
ATOM      2  C   UNL     1      47.532  -3.467  20.023  1.00  0.00     0.171 C 
BRANCH   2   3
ATOM      3  C   UNL     1      46.310  -2.525  20.013  1.00  0.00     0.190 C 
BRANCH   3   4
ATOM      4  O   UNL     1      46.241  -1.792  18.819  1.00  0.00    -0.394 OA
ATOM      5  H   UNL     1      45.892  -2.411  18.126  1.00  0.00     0.210 HD
ENDBRANCH   3   4
ENDBRANCH   2   3
BRANCH   2   6
ATOM      6  O   UNL     1      47.464  -4.334  18.918  1.00  0.00    -0.388 OA
ATOM      7  H   UNL     1      47.877  -5.196  19.189  1.00  0.00     0.211 HD
ENDBRANCH   2   6
ENDBRANCH   1   2
BRANCH   1   8
ATOM      8  C   UNL     1      48.905  -1.435  20.960  1.00  0.00     0.171 C 
BRANCH   8   9
ATOM      9  C   UNL     1      49.760  -1.597  22.233  1.00  0.00     0.190 C 
BRANCH   9  10
ATOM     10  O   UNL     1      50.877  -0.752  22.196  1.00  0.00    -0.394 OA
ATOM     11  H   UNL     1      51.479  -1.119  21.498  1.00  0.00     0.210 HD
ENDBRANCH   9  10
ENDBRANCH   8   9
BRANCH   8  12
ATOM     12  O   UNL     1      49.329  -0.309  20.233  1.00  0.00    -0.388 OA
ATOM     13  H   UNL     1      49.294   0.466  20.853  1.00  0.00     0.211 HD
ENDBRANCH   8  12
ENDBRANCH   1   8
BRANCH   1  14
ATOM     14  O   UNL     1      49.274  -2.323  18.729  1.00  0.00    -0.388 OA
ATOM     15  H   UNL     1      49.517  -1.361  18.735  1.00  0.00     0.211 HD
ENDBRANCH   1  14
TORSDOF 9
ENDMDL
MODEL 3
REMARK VINA RESULT:    -3.828     20.775     21.387
REMARK INTER + INTRA:          -5.870
REMARK INTER:                  -5.529
REMARK INTRA:                  -0.341
REMARK UNBOUND:                -0.587
REMARK SMILES OC[C@@H](O)C(O)[C@H](O)CO
REMARK SMILES IDX 5 1 7 2 9 3 10 4 8 6 3 8 2 9 1 10 4 12 6 14
REMARK H PARENT 10 5 8 7 1 11 4 13 6 15
REMARK Flexibility Score: inf
ROOT
ATOM      1  C   UNL     1      47.265  -0.614  21.017  1.00  0.00     0.176 C 
ENDROOT
BRANCH   1   2
ATOM      2  C   UNL     1      46.655  -0.779  22.443  1.00  0.00     0.171 C 
BRANCH   2   3
ATOM      3  C   UNL     1      47.718  -0.626  23.550  1.00  0.00     0.190 C 
BRANCH   3   4
ATOM      4  O   UNL     1      48.242   0.675  23.578  1.00  0.00    -0.394 OA
ATOM      5  H   UNL     1      47.466   1.294  23.612  1.00  0.00     0.210 HD
ENDBRANCH   3   4
ENDBRANCH   2   3
BRANCH   2   6
ATOM      6  O   UNL     1      45.620   0.148  22.655  1.00  0.00    -0.388 OA
ATOM      7  H   UNL     1      45.330   0.061  23.602  1.00  0.00     0.211 HD
ENDBRANCH   2   6
ENDBRANCH   1   2
BRANCH   1   8
ATOM      8  C   UNL     1      48.614  -1.353  20.791  1.00  0.00     0.171 C 
BRANCH   8   9
ATOM      9  C   UNL     1      48.538  -2.555  19.829  1.00  0.00     0.190 C 
BRANCH   9  10
ATOM     10  O   UNL     1      49.290  -2.316  18.671  1.00  0.00    -0.394 OA
ATOM     11  H   UNL     1      49.877  -3.108  18.554  1.00  0.00     0.210 HD
ENDBRANCH   9  10
ENDBRANCH   8   9
BRANCH   8  12
ATOM     12  O   UNL     1      49.588  -0.440  20.349  1.00  0.00    -0.388 OA
ATOM     13  H   UNL     1      49.911  -0.765  19.468  1.00  0.00     0.211 HD
ENDBRANCH   8  12
ENDBRANCH   1   8
BRANCH   1  14
ATOM     14  O   UNL     1      47.391   0.743  20.665  1.00  0.00    -0.388 OA
ATOM     15  H   UNL     1      48.356   0.946  20.563  1.00  0.00     0.211 HD
ENDBRANCH   1  14
TORSDOF 9
ENDMDL
MODEL 4
REMARK VINA RESULT:    -3.817     20.756     21.496
REMARK INTER + INTRA:          -5.855
REMARK INTER:                  -5.572
REMARK INTRA:                  -0.284
REMARK UNBOUND:                -0.587
REMARK SMILES OC[C@@H](O)C(O)[C@H](O)CO
REMARK SMILES IDX 5 1 7 2 9 3 10 4 8 6 3 8 2 9 1 10 4 12 6 14
REMARK H PARENT 10 5 8 7 1 11 4 13 6 15
REMARK Flexibility Score: inf
ROOT
ATOM      1  C   UNL     1      48.608  -1.534  20.967  1.00  0.00     0.176 C 
ENDROOT
BRANCH   1   2
ATOM      2  C   UNL     1      47.452  -0.540  21.291  1.00  0.00     0.171 C 
BRANCH   2   3
ATOM      3  C   UNL     1      47.242  -0.368  22.809  1.00  0.00     0.190 C 
BRANCH   3   4
ATOM      4  O   UNL     1      48.068   0.639  23.328  1.00  0.00    -0.394 OA
ATOM      5  H   UNL     1      47.470   1.307  23.753  1.00  0.00     0.210 HD
ENDBRANCH   3   4
ENDBRANCH   2   3
BRANCH   2   6
ATOM      6  O   UNL     1      47.692   0.715  20.706  1.00  0.00    -0.388 OA
ATOM      7  H   UNL     1      47.277   1.403  21.291  1.00  0.00     0.211 HD
ENDBRANCH   2   6
ENDBRANCH   1   2
BRANCH   1   8
ATOM      8  C   UNL     1      49.576  -1.823  22.149  1.00  0.00     0.171 C 
BRANCH   8   9
ATOM      9  C   UNL     1      50.141  -3.257  22.185  1.00  0.00     0.190 C 
BRANCH   9  10
ATOM     10  O   UNL     1      50.913  -3.518  21.044  1.00  0.00    -0.394 OA
ATOM     11  H   UNL     1      50.322  -3.348  20.266  1.00  0.00     0.210 HD
ENDBRANCH   9  10
ENDBRANCH   8   9
BRANCH   8  12
ATOM     12  O   UNL     1      50.626  -0.889  22.144  1.00  0.00    -0.388 OA
ATOM     13  H   UNL     1      50.632  -0.456  23.037  1.00  0.00     0.211 HD
ENDBRANCH   8  12
ENDBRANCH   1   8
BRANCH   1  14
ATOM     14  O   UNL     1      49.337  -1.125  19.834  1.00  0.00    -0.388 OA
ATOM     15  H   UNL     1      49.608  -0.181  19.968  1.00  0.00     0.211 HD
ENDBRANCH   1  14
TORSDOF 9
ENDMDL
MODEL 5
REMARK VINA RESULT:    -3.814      1.849      3.417
REMARK INTER + INTRA:          -5.850
REMARK INTER:                  -5.523
REMARK INTRA:                  -0.327
REMARK UNBOUND:                -0.587
REMARK SMILES OC[C@@H](O)C(O)[C@H](O)CO
REMARK SMILES IDX 5 1 7 2 9 3 10 4 8 6 3 8 2 9 1 10 4 12 6 14
REMARK H PARENT 10 5 8 7 1 11 4 13 6 15
REMARK Flexibility Score: inf
ROOT
ATOM      1  C   UNL     1      36.359 -15.026  31.351  1.00  0.00     0.176 C 
ENDROOT
BRANCH   1   2
ATOM      2  C   UNL     1      37.231 -15.002  30.059  1.00  0.00     0.171 C 
BRANCH   2   3
ATOM      3  C   UNL     1      38.386 -16.023  30.118  1.00  0.00     0.190 C 
BRANCH   3   4
ATOM      4  O   UNL     1      37.904 -17.340  30.094  1.00  0.00    -0.394 OA
ATOM      5  H   UNL     1      37.933 -17.636  29.146  1.00  0.00     0.210 HD
ENDBRANCH   3   4
ENDBRANCH   2   3
BRANCH   2   6
ATOM      6  O   UNL     1      36.444 -15.249  28.920  1.00  0.00    -0.388 OA
ATOM      7  H   UNL     1      36.643 -16.173  28.613  1.00  0.00     0.211 HD
ENDBRANCH   2   6
ENDBRANCH   1   2
BRANCH   1   8
ATOM      8  C   UNL     1      37.157 -15.168  32.678  1.00  0.00     0.171 C 
BRANCH   8   9
ATOM      9  C   UNL     1      37.072 -13.946  33.615  1.00  0.00     0.190 C 
BRANCH   9  10
ATOM     10  O   UNL     1      36.574 -14.314  34.872  1.00  0.00    -0.394 OA
ATOM     11  H   UNL     1      35.644 -14.626  34.721  1.00  0.00     0.210 HD
ENDBRANCH   9  10
ENDBRANCH   8   9
BRANCH   8  12
ATOM     12  O   UNL     1      36.747 -16.328  33.358  1.00  0.00    -0.388 OA
ATOM     13  H   UNL     1      37.411 -17.036  33.146  1.00  0.00     0.211 HD
ENDBRANCH   8  12
ENDBRANCH   1   8
BRANCH   1  14
ATOM     14  O   UNL     1      35.359 -16.015  31.280  1.00  0.00    -0.388 OA
ATOM     15  H   UNL     1      34.730 -15.763  30.555  1.00  0.00     0.211 HD
ENDBRANCH   1  14
TORSDOF 9
ENDMDL
MODEL 6
REMARK VINA RESULT:    -3.792     20.837     21.497
REMARK INTER + INTRA:          -5.821
REMARK INTER:                  -5.748
REMARK INTRA:                  -0.073
REMARK UNBOUND:                -0.587
REMARK SMILES OC[C@@H](O)C(O)[C@H](O)CO
REMARK SMILES IDX 5 1 7 2 9 3 10 4 8 6 3 8 2 9 1 10 4 12 6 14
REMARK H PARENT 10 5 8 7 1 11 4 13 6 15
REMARK Flexibility Score: inf
ROOT
ATOM      1  C   UNL     1      48.703  -1.300  20.906  1.00  0.00     0.176 C 
ENDROOT
BRANCH   1   2
ATOM      2  C   UNL     1      48.349  -2.536  20.024  1.00  0.00     0.171 C 
BRANCH   2   3
ATOM      3  C   UNL     1      46.825  -2.727  19.876  1.00  0.00     0.190 C 
BRANCH   3   4
ATOM      4  O   UNL     1      46.316  -1.963  18.816  1.00  0.00    -0.394 OA
ATOM      5  H   UNL     1      47.055  -1.376  18.508  1.00  0.00     0.210 HD
ENDBRANCH   3   4
ENDBRANCH   2   3
BRANCH   2   6
ATOM      6  O   UNL     1      48.933  -2.427  18.750  1.00  0.00    -0.388 OA
ATOM      7  H   UNL     1      49.694  -3.065  18.713  1.00  0.00     0.211 HD
ENDBRANCH   2   6
ENDBRANCH   1   2
BRANCH   1   8
ATOM      8  C   UNL     1      47.480  -0.510  21.449  1.00  0.00     0.171 C 
BRANCH   8   9
ATOM      9  C   UNL     1      47.421  -0.388  22.985  1.00  0.00     0.190 C 
BRANCH   9  10
ATOM     10  O   UNL     1      48.270   0.631  23.438  1.00  0.00    -0.394 OA
ATOM     11  H   UNL     1      48.295   0.551  24.427  1.00  0.00     0.210 HD
ENDBRANCH   9  10
ENDBRANCH   8   9
BRANCH   8  12
ATOM     12  O   UNL     1      47.439   0.766  20.860  1.00  0.00    -0.388 OA
ATOM     13  H   UNL     1      46.988   0.665  19.981  1.00  0.00     0.211 HD
ENDBRANCH   8  12
ENDBRANCH   1   8
BRANCH   1  14
ATOM     14  O   UNL     1      49.586  -0.429  20.241  1.00  0.00    -0.388 OA
ATOM     15  H   UNL     1      49.156  -0.142  19.395  1.00  0.00     0.211 HD
ENDBRANCH   1  14
TORSDOF 9
ENDMDL
MODEL 7
REMARK VINA RESULT:    -3.776      2.236      4.223
REMARK INTER + INTRA:          -5.798
REMARK INTER:                  -5.461
REMARK INTRA:                  -0.337
REMARK UNBOUND:                -0.587
REMARK SMILES OC[C@@H](O)C(O)[C@H](O)CO
REMARK SMILES IDX 5 1 7 2 9 3 10 4 8 6 3 8 2 9 1 10 4 12 6 14
REMARK H PARENT 10 5 8 7 1 11 4 13 6 15
REMARK Flexibility Score: inf
ROOT
ATOM      1  C   UNL     1      37.547 -14.130  33.735  1.00  0.00     0.176 C 
ENDROOT
BRANCH   1   2
ATOM      2  C   UNL     1      37.364 -12.762  33.012  1.00  0.00     0.171 C 
BRANCH   2   3
ATOM      3  C   UNL     1      36.266 -12.819  31.930  1.00  0.00     0.190 C 
BRANCH   3   4
ATOM      4  O   UNL     1      35.010 -13.092  32.491  1.00  0.00    -0.394 OA
ATOM      5  H   UNL     1      34.947 -12.553  33.323  1.00  0.00     0.210 HD
ENDBRANCH   3   4
ENDBRANCH   2   3
BRANCH   2   6
ATOM      6  O   UNL     1      37.061 -11.744  33.934  1.00  0.00    -0.388 OA
ATOM      7  H   UNL     1      36.564 -11.036  33.445  1.00  0.00     0.211 HD
ENDBRANCH   2   6
ENDBRANCH   1   2
BRANCH   1   8
ATOM      8  C   UNL     1      37.574 -15.370  32.797  1.00  0.00     0.171 C 
BRANCH   8   9
ATOM      9  C   UNL     1      38.948 -16.058  32.676  1.00  0.00     0.190 C 
BRANCH   9  10
ATOM     10  O   UNL     1      38.874 -17.397  33.081  1.00  0.00    -0.394 OA
ATOM     11  H   UNL     1      37.942 -17.688  32.903  1.00  0.00     0.210 HD
ENDBRANCH   9  10
ENDBRANCH   8   9
BRANCH   8  12
ATOM     12  O   UNL     1      36.602 -16.299  33.209  1.00  0.00    -0.388 OA
ATOM     13  H   UNL     1      37.089 -17.090  33.560  1.00  0.00     0.211 HD
ENDBRANCH   8  12
ENDBRANCH   1   8
BRANCH   1  14
ATOM     14  O   UNL     1      36.586 -14.310  34.748  1.00  0.00    -0.388 OA
ATOM     15  H   UNL     1      35.702 -14.052  34.382  1.00  0.00     0.211 HD
ENDBRANCH   1  14
TORSDOF 9
ENDMDL
MODEL 8
REMARK VINA RESULT:    -3.706     20.716     21.330
REMARK INTER + INTRA:          -5.701
REMARK INTER:                  -5.249
REMARK INTRA:                  -0.452
REMARK UNBOUND:                -0.587
REMARK SMILES OC[C@@H](O)C(O)[C@H](O)CO
REMARK SMILES IDX 5 1 7 2 9 3 10 4 8 6 3 8 2 9 1 10 4 12 6 14
REMARK H PARENT 10 5 8 7 1 11 4 13 6 15
REMARK Flexibility Score: inf
ROOT
ATOM      1  C   UNL     1      48.562  -1.112  22.749  1.00  0.00     0.176 C 
ENDROOT
BRANCH   1   2
ATOM      2  C   UNL     1      49.998  -1.700  22.910  1.00  0.00     0.171 C 
BRANCH   2   3
ATOM      3  C   UNL     1      50.080  -3.169  22.446  1.00  0.00     0.190 C 
BRANCH   3   4
ATOM      4  O   UNL     1      50.830  -3.290  21.268  1.00  0.00    -0.394 OA
ATOM      5  H   UNL     1      50.361  -2.754  20.576  1.00  0.00     0.210 HD
ENDBRANCH   3   4
ENDBRANCH   2   3
BRANCH   2   6
ATOM      6  O   UNL     1      50.936  -0.931  22.199  1.00  0.00    -0.388 OA
ATOM      7  H   UNL     1      50.687  -0.969  21.237  1.00  0.00     0.211 HD
ENDBRANCH   2   6
ENDBRANCH   1   2
BRANCH   1   8
ATOM      8  C   UNL     1      47.973  -1.205  21.313  1.00  0.00     0.171 C 
BRANCH   8   9
ATOM      9  C   UNL     1      46.891  -0.154  20.992  1.00  0.00     0.190 C 
BRANCH   9  10
ATOM     10  O   UNL     1      47.473   1.072  20.643  1.00  0.00    -0.394 OA
ATOM     11  H   UNL     1      47.446   1.633  21.461  1.00  0.00     0.210 HD
ENDBRANCH   9  10
ENDBRANCH   8   9
BRANCH   8  12
ATOM     12  O   UNL     1      49.011  -1.136  20.368  1.00  0.00    -0.388 OA
ATOM     13  H   UNL     1      48.804  -1.805  19.663  1.00  0.00     0.211 HD
ENDBRANCH   8  12
ENDBRANCH   1   8
BRANCH   1  14
ATOM     14  O   UNL     1      48.493   0.213  23.217  1.00  0.00    -0.388 OA
ATOM     15  H   UNL     1      47.732   0.276  23.850  1.00  0.00     0.211 HD
ENDBRANCH   1  14
TORSDOF 9
ENDMDL
MODEL 9
REMARK VINA RESULT:    -3.642      2.318      5.099
REMARK INTER + INTRA:          -5.613
REMARK INTER:                  -4.875
REMARK INTRA:                  -0.738
REMARK UNBOUND:                -0.587
REMARK SMILES OC[C@@H](O)C(O)[C@H](O)CO
REMARK SMILES IDX 5 1 7 2 9 3 10 4 8 6 3 8 2 9 1 10 4 12 6 14
REMARK H PARENT 10 5 8 7 1 11 4 13 6 15
REMARK Flexibility Score: inf
ROOT
ATOM      1  C   UNL     1      35.829 -13.553  31.310  1.00  0.00     0.176 C 
ENDROOT
BRANCH   1   2
ATOM      2  C   UNL     1      34.767 -13.095  30.265  1.00  0.00     0.171 C 
BRANCH   2   3
ATOM      3  C   UNL     1      33.390 -12.837  30.911  1.00  0.00     0.190 C 
BRANCH   3   4
ATOM      4  O   UNL     1      32.875 -14.002  31.497  1.00  0.00    -0.394 OA
ATOM      5  H   UNL     1      33.475 -14.228  32.255  1.00  0.00     0.210 HD
ENDBRANCH   3   4
ENDBRANCH   2   3
BRANCH   2   6
ATOM      6  O   UNL     1      35.194 -11.937  29.592  1.00  0.00    -0.388 OA
ATOM      7  H   UNL     1      34.557 -11.771  28.847  1.00  0.00     0.211 HD
ENDBRANCH   2   6
ENDBRANCH   1   2
BRANCH   1   8
ATOM      8  C   UNL     1      36.274 -15.038  31.186  1.00  0.00     0.171 C 
BRANCH   8   9
ATOM      9  C   UNL     1      37.291 -15.497  32.250  1.00  0.00     0.190 C 
BRANCH   9  10
ATOM     10  O   UNL     1      36.637 -16.004  33.381  1.00  0.00    -0.394 OA
ATOM     11  H   UNL     1      36.180 -16.835  33.087  1.00  0.00     0.210 HD
ENDBRANCH   9  10
ENDBRANCH   8   9
BRANCH   8  12
ATOM     12  O   UNL     1      35.144 -15.875  31.202  1.00  0.00    -0.388 OA
ATOM     13  H   UNL     1      34.403 -15.369  30.777  1.00  0.00     0.211 HD
ENDBRANCH   8  12
ENDBRANCH   1   8
BRANCH   1  14
ATOM     14  O   UNL     1      35.408 -13.282  32.626  1.00  0.00    -0.388 OA
ATOM     15  H   UNL     1      35.111 -12.337  32.665  1.00  0.00     0.211 HD
ENDBRANCH   1  14
TORSDOF 9
ENDMDL
