MODEL 1
REMARK VINA RESULT:    -5.068      0.000      0.000
REMARK INTER + INTRA:          -6.439
REMARK INTER:                  -6.254
REMARK INTRA:                  -0.185
REMARK UNBOUND:                -0.185
REMARK SMILES [NH3+][C@H](Cc1ccc(O)cc1)C(=O)[O-]
REMARK SMILES IDX 3 1 2 2 1 3 11 7 12 8 13 9 4 10 5 11 10 12 6 13 9 14 7 15
REMARK SMILES IDX 8 16
REMARK H PARENT 1 4 1 5 1 6 8 17
REMARK Flexibility Score: inf
ROOT
ATOM      1  C   UNL     1      23.084 -13.512  29.939  1.00  0.00     0.107 C 
ENDROOT
BRANCH   1   2
ATOM      2  C   UNL     1      22.141 -12.446  29.343  1.00  0.00     0.232 C 
BRANCH   2   3
ATOM      3  N   UNL     1      21.808 -12.775  27.952  1.00  0.00    -0.350 N 
ATOM      4  H   UNL     1      22.062 -13.771  27.753  1.00  0.00     0.345 HD
ATOM      5  H   UNL     1      22.353 -12.164  27.301  1.00  0.00     0.345 HD
ATOM      6  H   UNL     1      20.785 -12.642  27.773  1.00  0.00     0.345 HD
ENDBRANCH   2   3
BRANCH   2   7
ATOM      7  C   UNL     1      20.884 -12.315  30.163  1.00  0.00     0.099 C 
ATOM      8  O   UNL     1      19.883 -13.043  29.923  1.00  0.00    -0.544 OA
ATOM      9  O   UNL     1      20.830 -11.403  31.209  1.00  0.00    -0.544 OA
ENDBRANCH   2   7
ENDBRANCH   1   2
BRANCH   1  10
ATOM     10  C   UNL     1      24.306 -12.888  30.567  1.00  0.00    -0.041 A 
ATOM     11  C   UNL     1      24.191 -12.156  31.760  1.00  0.00     0.008 A 
ATOM     12  C   UNL     1      25.575 -13.072  29.991  1.00  0.00     0.008 A 
ATOM     13  C   UNL     1      25.328 -11.604  32.359  1.00  0.00     0.046 A 
ATOM     14  C   UNL     1      26.708 -12.518  30.593  1.00  0.00     0.046 A 
ATOM     15  C   UNL     1      26.589 -11.783  31.776  1.00  0.00     0.115 A 
BRANCH  15  16
ATOM     16  O   UNL     1      27.728 -11.237  32.364  1.00  0.00    -0.508 OA
ATOM     17  H   UNL     1      28.180 -11.682  33.154  1.00  0.00     0.293 HD
ENDBRANCH  15  16
ENDBRANCH   1  10
TORSDOF 5
ENDMDL
MODEL 2
REMARK VINA RESULT:    -4.882      2.681      5.433
REMARK INTER + INTRA:          -6.208
REMARK INTER:                  -6.097
REMARK INTRA:                  -0.111
REMARK UNBOUND:                -0.185
REMARK SMILES [NH3+][C@H](Cc1ccc(O)cc1)C(=O)[O-]
REMARK SMILES IDX 3 1 2 2 1 3 11 7 12 8 13 9 4 10 5 11 10 12 6 13 9 14 7 15
REMARK SMILES IDX 8 16
REMARK H PARENT 1 4 1 5 1 6 8 17
REMARK Flexibility Score: inf
ROOT
ATOM      1  C   UNL     1      25.423 -11.904  32.349  1.00  0.00     0.107 C 
ENDROOT
BRANCH   1   2
ATOM      2  C   UNL     1      26.864 -12.172  31.865  1.00  0.00     0.232 C 
BRANCH   2   3
ATOM      3  N   UNL     1      27.773 -11.129  32.356  1.00  0.00    -0.350 N 
ATOM      4  H   UNL     1      28.653 -11.566  32.713  1.00  0.00     0.345 HD
ATOM      5  H   UNL     1      27.323 -10.608  33.144  1.00  0.00     0.345 HD
ATOM      6  H   UNL     1      28.012 -10.456  31.590  1.00  0.00     0.345 HD
ENDBRANCH   2   3
BRANCH   2   7
ATOM      7  C   UNL     1      27.341 -13.530  32.311  1.00  0.00     0.099 C 
ATOM      8  O   UNL     1      27.409 -13.815  33.536  1.00  0.00    -0.544 OA
ATOM      9  O   UNL     1      27.687 -14.488  31.366  1.00  0.00    -0.544 OA
ENDBRANCH   2   7
ENDBRANCH   1   2
BRANCH   1  10
ATOM     10  C   UNL     1      24.414 -12.133  31.251  1.00  0.00    -0.041 A 
ATOM     11  C   UNL     1      23.146 -11.534  31.321  1.00  0.00     0.008 A 
ATOM     12  C   UNL     1      24.748 -12.909  30.127  1.00  0.00     0.008 A 
ATOM     13  C   UNL     1      22.220 -11.721  30.289  1.00  0.00     0.046 A 
ATOM     14  C   UNL     1      23.820 -13.094  29.098  1.00  0.00     0.046 A 
ATOM     15  C   UNL     1      22.555 -12.503  29.176  1.00  0.00     0.115 A 
BRANCH  15  16
ATOM     16  O   UNL     1      21.641 -12.695  28.143  1.00  0.00    -0.508 OA
ATOM     17  H   UNL     1      21.243 -13.608  27.951  1.00  0.00     0.293 HD
ENDBRANCH  15  16
ENDBRANCH   1  10
TORSDOF 5
ENDMDL
MODEL 3
REMARK VINA RESULT:    -4.811      2.627      5.484
REMARK INTER + INTRA:          -6.121
REMARK INTER:                  -5.907
REMARK INTRA:                  -0.214
REMARK UNBOUND:                -0.185
REMARK SMILES [NH3+][C@H](Cc1ccc(O)cc1)C(=O)[O-]
REMARK SMILES IDX 3 1 2 2 1 3 11 7 12 8 13 9 4 10 5 11 10 12 6 13 9 14 7 15
REMARK SMILES IDX 8 16
REMARK H PARENT 1 4 1 5 1 6 8 17
REMARK Flexibility Score: inf
ROOT
ATOM      1  C   UNL     1      25.009 -11.777  32.260  1.00  0.00     0.107 C 
ENDROOT
BRANCH   1   2
ATOM      2  C   UNL     1      26.412 -12.341  31.950  1.00  0.00     0.232 C 
BRANCH   2   3
ATOM      3  N   UNL     1      27.437 -11.312  32.163  1.00  0.00    -0.350 N 
ATOM      4  H   UNL     1      28.326 -11.760  32.485  1.00  0.00     0.345 HD
ATOM      5  H   UNL     1      27.122 -10.644  32.904  1.00  0.00     0.345 HD
ATOM      6  H   UNL     1      27.622 -10.784  31.279  1.00  0.00     0.345 HD
ENDBRANCH   2   3
BRANCH   2   7
ATOM      7  C   UNL     1      26.706 -13.554  32.793  1.00  0.00     0.099 C 
ATOM      8  O   UNL     1      27.817 -13.675  33.375  1.00  0.00    -0.544 OA
ATOM      9  O   UNL     1      25.739 -14.538  32.954  1.00  0.00    -0.544 OA
ENDBRANCH   2   7
ENDBRANCH   1   2
BRANCH   1  10
ATOM     10  C   UNL     1      24.035 -12.055  31.141  1.00  0.00    -0.041 A 
ATOM     11  C   UNL     1      24.427 -12.835  30.041  1.00  0.00     0.008 A 
ATOM     12  C   UNL     1      22.716 -11.575  31.211  1.00  0.00     0.008 A 
ATOM     13  C   UNL     1      23.515 -13.118  29.019  1.00  0.00     0.046 A 
ATOM     14  C   UNL     1      21.808 -11.860  30.186  1.00  0.00     0.046 A 
ATOM     15  C   UNL     1      22.204 -12.630  29.089  1.00  0.00     0.115 A 
BRANCH  15  16
ATOM     16  O   UNL     1      21.288 -12.906  28.076  1.00  0.00    -0.508 OA
ATOM     17  H   UNL     1      20.837 -12.164  27.554  1.00  0.00     0.293 HD
ENDBRANCH  15  16
ENDBRANCH   1  10
TORSDOF 5
ENDMDL
MODEL 4
REMARK VINA RESULT:    -4.680      1.812      2.405
REMARK INTER + INTRA:          -5.959
REMARK INTER:                  -5.741
REMARK INTRA:                  -0.218
REMARK UNBOUND:                -0.185
REMARK SMILES [NH3+][C@H](Cc1ccc(O)cc1)C(=O)[O-]
REMARK SMILES IDX 3 1 2 2 1 3 11 7 12 8 13 9 4 10 5 11 10 12 6 13 9 14 7 15
REMARK SMILES IDX 8 16
REMARK H PARENT 1 4 1 5 1 6 8 17
REMARK Flexibility Score: inf
ROOT
ATOM      1  C   UNL     1      22.001 -11.313  30.606  1.00  0.00     0.107 C 
ENDROOT
BRANCH   1   2
ATOM      2  C   UNL     1      20.955 -12.200  31.312  1.00  0.00     0.232 C 
BRANCH   2   3
ATOM      3  N   UNL     1      19.876 -11.377  31.870  1.00  0.00    -0.350 N 
ATOM      4  H   UNL     1      20.106 -10.363  31.751  1.00  0.00     0.345 HD
ATOM      5  H   UNL     1      19.774 -11.570  32.893  1.00  0.00     0.345 HD
ATOM      6  H   UNL     1      18.968 -11.579  31.389  1.00  0.00     0.345 HD
ENDBRANCH   2   3
BRANCH   2   7
ATOM      7  C   UNL     1      20.391 -13.229  30.367  1.00  0.00     0.099 C 
ATOM      8  O   UNL     1      19.877 -14.291  30.808  1.00  0.00    -0.544 OA
ATOM      9  O   UNL     1      20.413 -12.998  28.997  1.00  0.00    -0.544 OA
ENDBRANCH   2   7
ENDBRANCH   1   2
BRANCH   1  10
ATOM     10  C   UNL     1      23.410 -11.752  30.919  1.00  0.00    -0.041 A 
ATOM     11  C   UNL     1      24.139 -12.505  29.985  1.00  0.00     0.008 A 
ATOM     12  C   UNL     1      24.021 -11.374  32.127  1.00  0.00     0.008 A 
ATOM     13  C   UNL     1      25.456 -12.887  30.263  1.00  0.00     0.046 A 
ATOM     14  C   UNL     1      25.337 -11.758  32.401  1.00  0.00     0.046 A 
ATOM     15  C   UNL     1      26.058 -12.515  31.472  1.00  0.00     0.115 A 
BRANCH  15  16
ATOM     16  O   UNL     1      27.368 -12.890  31.758  1.00  0.00    -0.508 OA
ATOM     17  H   UNL     1      27.940 -12.362  32.408  1.00  0.00     0.293 HD
ENDBRANCH  15  16
ENDBRANCH   1  10
TORSDOF 5
ENDMDL
MODEL 5
REMARK VINA RESULT:    -4.652      2.660      5.354
REMARK INTER + INTRA:          -5.924
REMARK INTER:                  -5.690
REMARK INTRA:                  -0.234
REMARK UNBOUND:                -0.185
REMARK SMILES [NH3+][C@H](Cc1ccc(O)cc1)C(=O)[O-]
REMARK SMILES IDX 3 1 2 2 1 3 11 7 12 8 13 9 4 10 5 11 10 12 6 13 9 14 7 15
REMARK SMILES IDX 8 16
REMARK H PARENT 1 4 1 5 1 6 8 17
REMARK Flexibility Score: inf
ROOT
ATOM      1  C   UNL     1      25.269 -12.680  32.441  1.00  0.00     0.107 C 
ENDROOT
BRANCH   1   2
ATOM      2  C   UNL     1      26.283 -12.010  31.491  1.00  0.00     0.232 C 
BRANCH   2   3
ATOM      3  N   UNL     1      27.375 -11.396  32.255  1.00  0.00    -0.350 N 
ATOM      4  H   UNL     1      27.884 -12.131  32.799  1.00  0.00     0.345 HD
ATOM      5  H   UNL     1      26.987 -10.700  32.933  1.00  0.00     0.345 HD
ATOM      6  H   UNL     1      28.052 -10.916  31.617  1.00  0.00     0.345 HD
ENDBRANCH   2   3
BRANCH   2   7
ATOM      7  C   UNL     1      26.834 -13.002  30.500  1.00  0.00     0.099 C 
ATOM      8  O   UNL     1      27.533 -13.975  30.889  1.00  0.00    -0.544 OA
ATOM      9  O   UNL     1      26.552 -12.861  29.147  1.00  0.00    -0.544 OA
ENDBRANCH   2   7
ENDBRANCH   1   2
BRANCH   1  10
ATOM     10  C   UNL     1      23.850 -12.501  31.960  1.00  0.00    -0.041 A 
ATOM     11  C   UNL     1      23.507 -11.393  31.169  1.00  0.00     0.008 A 
ATOM     12  C   UNL     1      22.871 -13.464  32.259  1.00  0.00     0.008 A 
ATOM     13  C   UNL     1      22.198 -11.242  30.698  1.00  0.00     0.046 A 
ATOM     14  C   UNL     1      21.564 -13.310  31.787  1.00  0.00     0.046 A 
ATOM     15  C   UNL     1      21.224 -12.201  31.006  1.00  0.00     0.115 A 
BRANCH  15  16
ATOM     16  O   UNL     1      19.918 -12.061  30.542  1.00  0.00    -0.508 OA
ATOM     17  H   UNL     1      19.686 -12.198  29.565  1.00  0.00     0.293 HD
ENDBRANCH  15  16
ENDBRANCH   1  10
TORSDOF 5
ENDMDL
MODEL 6
REMARK VINA RESULT:    -4.565      2.654      5.338
REMARK INTER + INTRA:          -5.818
REMARK INTER:                  -5.567
REMARK INTRA:                  -0.251
REMARK UNBOUND:                -0.185
REMARK SMILES [NH3+][C@H](Cc1ccc(O)cc1)C(=O)[O-]
REMARK SMILES IDX 3 1 2 2 1 3 11 7 12 8 13 9 4 10 5 11 10 12 6 13 9 14 7 15
REMARK SMILES IDX 8 16
REMARK H PARENT 1 4 1 5 1 6 8 17
REMARK Flexibility Score: inf
ROOT
ATOM      1  C   UNL     1      25.452 -12.311  32.643  1.00  0.00     0.107 C 
ENDROOT
BRANCH   1   2
ATOM      2  C   UNL     1      26.497 -11.839  31.610  1.00  0.00     0.232 C 
BRANCH   2   3
ATOM      3  N   UNL     1      27.665 -11.265  32.288  1.00  0.00    -0.350 N 
ATOM      4  H   UNL     1      28.192 -12.019  32.786  1.00  0.00     0.345 HD
ATOM      5  H   UNL     1      27.355 -10.561  32.997  1.00  0.00     0.345 HD
ATOM      6  H   UNL     1      28.303 -10.802  31.599  1.00  0.00     0.345 HD
ENDBRANCH   2   3
BRANCH   2   7
ATOM      7  C   UNL     1      26.920 -12.973  30.712  1.00  0.00     0.099 C 
ATOM      8  O   UNL     1      26.695 -12.927  29.473  1.00  0.00    -0.544 OA
ATOM      9  O   UNL     1      27.586 -14.069  31.246  1.00  0.00    -0.544 OA
ENDBRANCH   2   7
ENDBRANCH   1   2
BRANCH   1  10
ATOM     10  C   UNL     1      24.070 -12.395  32.042  1.00  0.00    -0.041 A 
ATOM     11  C   UNL     1      23.232 -13.478  32.348  1.00  0.00     0.008 A 
ATOM     12  C   UNL     1      23.594 -11.369  31.207  1.00  0.00     0.008 A 
ATOM     13  C   UNL     1      21.940 -13.541  31.815  1.00  0.00     0.046 A 
ATOM     14  C   UNL     1      22.303 -11.437  30.676  1.00  0.00     0.046 A 
ATOM     15  C   UNL     1      21.473 -12.521  30.977  1.00  0.00     0.115 A 
BRANCH  15  16
ATOM     16  O   UNL     1      20.189 -12.574  30.441  1.00  0.00    -0.508 OA
ATOM     17  H   UNL     1      19.585 -13.374  30.591  1.00  0.00     0.293 HD
ENDBRANCH  15  16
ENDBRANCH   1  10
TORSDOF 5
ENDMDL
MODEL 7
REMARK VINA RESULT:    -4.410      2.671      5.448
REMARK INTER + INTRA:          -5.626
REMARK INTER:                  -5.409
REMARK INTRA:                  -0.217
REMARK UNBOUND:                -0.185
REMARK SMILES [NH3+][C@H](Cc1ccc(O)cc1)C(=O)[O-]
REMARK SMILES IDX 3 1 2 2 1 3 11 7 12 8 13 9 4 10 5 11 10 12 6 13 9 14 7 15
REMARK SMILES IDX 8 16
REMARK H PARENT 1 4 1 5 1 6 8 17
REMARK Flexibility Score: inf
ROOT
ATOM      1  C   UNL     1      26.607 -12.881  29.721  1.00  0.00     0.107 C 
ENDROOT
BRANCH   1   2
ATOM      2  C   UNL     1      26.917 -13.867  30.867  1.00  0.00     0.232 C 
BRANCH   2   3
ATOM      3  N   UNL     1      28.106 -14.666  30.550  1.00  0.00    -0.350 N 
ATOM      4  H   UNL     1      27.930 -15.239  29.692  1.00  0.00     0.345 HD
ATOM      5  H   UNL     1      28.318 -15.318  31.340  1.00  0.00     0.345 HD
ATOM      6  H   UNL     1      28.934 -14.048  30.382  1.00  0.00     0.345 HD
ENDBRANCH   2   3
BRANCH   2   7
ATOM      7  C   UNL     1      27.111 -13.138  32.171  1.00  0.00     0.099 C 
ATOM      8  O   UNL     1      27.598 -13.731  33.170  1.00  0.00    -0.544 OA
ATOM      9  O   UNL     1      26.775 -11.794  32.271  1.00  0.00    -0.544 OA
ENDBRANCH   2   7
ENDBRANCH   1   2
BRANCH   1  10
ATOM     10  C   UNL     1      25.192 -13.034  29.219  1.00  0.00    -0.041 A 
ATOM     11  C   UNL     1      24.115 -12.569  29.990  1.00  0.00     0.008 A 
ATOM     12  C   UNL     1      24.942 -13.601  27.958  1.00  0.00     0.008 A 
ATOM     13  C   UNL     1      22.805 -12.683  29.512  1.00  0.00     0.046 A 
ATOM     14  C   UNL     1      23.632 -13.714  27.484  1.00  0.00     0.046 A 
ATOM     15  C   UNL     1      22.561 -13.257  28.257  1.00  0.00     0.115 A 
BRANCH  15  16
ATOM     16  O   UNL     1      21.261 -13.376  27.771  1.00  0.00    -0.508 OA
ATOM     17  H   UNL     1      20.504 -13.704  28.360  1.00  0.00     0.293 HD
ENDBRANCH  15  16
ENDBRANCH   1  10
TORSDOF 5
ENDMDL
MODEL 8
REMARK VINA RESULT:    -4.381      3.036      4.950
REMARK INTER + INTRA:          -5.590
REMARK INTER:                  -5.372
REMARK INTRA:                  -0.218
REMARK UNBOUND:                -0.185
REMARK SMILES [NH3+][C@H](Cc1ccc(O)cc1)C(=O)[O-]
REMARK SMILES IDX 3 1 2 2 1 3 11 7 12 8 13 9 4 10 5 11 10 12 6 13 9 14 7 15
REMARK SMILES IDX 8 16
REMARK H PARENT 1 4 1 5 1 6 8 17
REMARK Flexibility Score: inf
ROOT
ATOM      1  C   UNL     1      25.240 -13.585  30.871  1.00  0.00     0.107 C 
ENDROOT
BRANCH   1   2
ATOM      2  C   UNL     1      25.970 -12.850  29.727  1.00  0.00     0.232 C 
BRANCH   2   3
ATOM      3  N   UNL     1      27.333 -12.491  30.135  1.00  0.00    -0.350 N 
ATOM      4  H   UNL     1      27.348 -11.508  30.493  1.00  0.00     0.345 HD
ATOM      5  H   UNL     1      27.977 -12.547  29.312  1.00  0.00     0.345 HD
ATOM      6  H   UNL     1      27.677 -13.133  30.886  1.00  0.00     0.345 HD
ENDBRANCH   2   3
BRANCH   2   7
ATOM      7  C   UNL     1      26.003 -13.690  28.477  1.00  0.00     0.099 C 
ATOM      8  O   UNL     1      26.604 -14.798  28.466  1.00  0.00    -0.544 OA
ATOM      9  O   UNL     1      25.348 -13.256  27.332  1.00  0.00    -0.544 OA
ENDBRANCH   2   7
ENDBRANCH   1   2
BRANCH   1  10
ATOM     10  C   UNL     1      23.827 -13.085  31.046  1.00  0.00    -0.041 A 
ATOM     11  C   UNL     1      22.861 -13.899  31.656  1.00  0.00     0.008 A 
ATOM     12  C   UNL     1      23.477 -11.785  30.641  1.00  0.00     0.008 A 
ATOM     13  C   UNL     1      21.558 -13.425  31.846  1.00  0.00     0.046 A 
ATOM     14  C   UNL     1      22.175 -11.315  30.832  1.00  0.00     0.046 A 
ATOM     15  C   UNL     1      21.213 -12.131  31.434  1.00  0.00     0.115 A 
BRANCH  15  16
ATOM     16  O   UNL     1      19.919 -11.649  31.618  1.00  0.00    -0.508 OA
ATOM     17  H   UNL     1      19.728 -10.655  31.677  1.00  0.00     0.293 HD
ENDBRANCH  15  16
ENDBRANCH   1  10
TORSDOF 5
ENDMDL
MODEL 9
REMARK VINA RESULT:    -4.346      2.737      5.391
REMARK INTER + INTRA:          -5.547
REMARK INTER:                  -5.368
REMARK INTRA:                  -0.179
REMARK UNBOUND:                -0.185
REMARK SMILES [NH3+][C@H](Cc1ccc(O)cc1)C(=O)[O-]
REMARK SMILES IDX 3 1 2 2 1 3 11 7 12 8 13 9 4 10 5 11 10 12 6 13 9 14 7 15
REMARK SMILES IDX 8 16
REMARK H PARENT 1 4 1 5 1 6 8 17
REMARK Flexibility Score: inf
ROOT
ATOM      1  C   UNL     1      26.848 -12.911  30.844  1.00  0.00     0.107 C 
ENDROOT
BRANCH   1   2
ATOM      2  C   UNL     1      27.017 -14.317  31.457  1.00  0.00     0.232 C 
BRANCH   2   3
ATOM      3  N   UNL     1      28.132 -15.026  30.817  1.00  0.00    -0.350 N 
ATOM      4  H   UNL     1      28.174 -16.010  31.168  1.00  0.00     0.345 HD
ATOM      5  H   UNL     1      29.036 -14.556  31.056  1.00  0.00     0.345 HD
ATOM      6  H   UNL     1      28.015 -15.039  29.777  1.00  0.00     0.345 HD
ENDBRANCH   2   3
BRANCH   2   7
ATOM      7  C   UNL     1      27.237 -14.236  32.945  1.00  0.00     0.099 C 
ATOM      8  O   UNL     1      28.018 -13.376  33.432  1.00  0.00    -0.544 OA
ATOM      9  O   UNL     1      26.556 -15.100  33.794  1.00  0.00    -0.544 OA
ENDBRANCH   2   7
ENDBRANCH   1   2
BRANCH   1  10
ATOM     10  C   UNL     1      25.412 -12.452  30.886  1.00  0.00    -0.041 A 
ATOM     11  C   UNL     1      24.525 -12.813  29.859  1.00  0.00     0.008 A 
ATOM     12  C   UNL     1      24.936 -11.699  31.973  1.00  0.00     0.008 A 
ATOM     13  C   UNL     1      23.185 -12.414  29.912  1.00  0.00     0.046 A 
ATOM     14  C   UNL     1      23.597 -11.301  32.022  1.00  0.00     0.046 A 
ATOM     15  C   UNL     1      22.719 -11.656  30.994  1.00  0.00     0.115 A 
BRANCH  15  16
ATOM     16  O   UNL     1      21.387 -11.253  31.057  1.00  0.00    -0.508 OA
ATOM     17  H   UNL     1      20.800 -11.488  31.849  1.00  0.00     0.293 HD
ENDBRANCH  15  16
ENDBRANCH   1  10
TORSDOF 5
ENDMDL
