MODEL 1
REMARK VINA RESULT:    -5.133      0.000      0.000
REMARK INTER + INTRA:          -7.726
REMARK INTER:                  -7.833
REMARK INTRA:                   0.107
REMARK UNBOUND:                 0.107
REMARK SMILES CC1=CCC[C@H](C)C(=O)C[C@H](C(C)C)C(=O)C1
REMARK SMILES IDX 8 1 9 2 6 3 7 4 5 5 4 6 3 7 2 8 1 9 10 11 11 12 15 13 16 14
REMARK SMILES IDX 17 15 12 17 13 18 14 19
REMARK H PARENT
REMARK Flexibility Score: 70.00
ROOT
ATOM      1  C   UNL     1      -4.561 -13.711  27.960  1.00  0.00     0.136 C 
ATOM      2  O   UNL     1      -5.391 -14.461  27.467  1.00  0.00    -0.299 OA
ENDROOT
BRANCH   1   3
ATOM      3  C   UNL     1      -3.211 -13.537  27.280  1.00  0.00     0.053 C 
ATOM      4  C   UNL     1      -2.958 -12.080  26.854  1.00  0.00     0.016 C 
BRANCH   3   5
ATOM      5  C   UNL     1      -2.063 -14.045  28.185  1.00  0.00     0.015 C 
BRANCH   5   6
ATOM      6  C   UNL     1      -0.945 -12.993  28.359  1.00  0.00     0.028 C 
BRANCH   6   7
ATOM      7  C   UNL     1      -0.500 -12.861  29.795  1.00  0.00    -0.028 C 
ATOM      8  C   UNL     1      -1.075 -12.050  30.714  1.00  0.00    -0.070 CG0
ATOM      9  C   UNL     1      -0.505 -12.044  32.110  1.00  0.00     0.039 C 
ATOM     10  G   UNL     1      -2.240 -11.125  30.402  1.00  0.00     0.000 G0
ENDBRANCH   6   7
ENDBRANCH   5   6
ENDBRANCH   3   5
ENDBRANCH   1   3
BRANCH   1  11
ATOM     11  C   UNL     1      -4.970 -12.905  29.181  1.00  0.00     0.087 C 
BRANCH  11  12
ATOM     12  C   UNL     1      -4.041 -13.068  30.426  1.00  0.00     0.066 C 
BRANCH  12  13
ATOM     13  C   UNL     1      -3.570 -11.693  30.885  1.00  0.00     0.140 C 
ATOM     14  O   UNL     1      -4.232 -11.081  31.711  1.00  0.00    -0.299 OA
BRANCH  13  15
ATOM     15  C   UNL     1      -2.255 -11.115  30.415  1.00  0.00     0.106 CG0
ATOM     16  G   UNL     1      -1.089 -12.044  30.711  1.00  0.00     0.000 G0
ENDBRANCH  13  15
ENDBRANCH  12  13
BRANCH  12  17
ATOM     17  C   UNL     1      -4.754 -13.836  31.590  1.00  0.00    -0.006 C 
ATOM     18  C   UNL     1      -3.753 -14.583  32.496  1.00  0.00     0.008 C 
ATOM     19  C   UNL     1      -5.770 -14.862  31.051  1.00  0.00     0.008 C 
ENDBRANCH  12  17
ENDBRANCH  11  12
ENDBRANCH   1  11
TORSDOF 1
ENDMDL
MODEL 2
REMARK VINA RESULT:    -4.715      1.539      3.693
REMARK INTER + INTRA:          -7.088
REMARK INTER:                  -7.225
REMARK INTRA:                   0.137
REMARK UNBOUND:                 0.107
REMARK SMILES CC1=CCC[C@H](C)C(=O)C[C@H](C(C)C)C(=O)C1
REMARK SMILES IDX 8 1 9 2 6 3 7 4 5 5 4 6 3 7 2 8 1 9 10 11 11 12 15 13 16 14
REMARK SMILES IDX 17 15 12 17 13 18 14 19
REMARK H PARENT
REMARK Flexibility Score: 70.00
ROOT
ATOM      1  C   UNL     1      -4.078 -12.604  31.759  1.00  0.00     0.136 C 
ATOM      2  O   UNL     1      -4.578 -12.863  32.845  1.00  0.00    -0.299 OA
ENDROOT
BRANCH   1   3
ATOM      3  C   UNL     1      -3.565 -11.198  31.485  1.00  0.00     0.053 C 
ATOM      4  C   UNL     1      -4.289 -10.140  32.337  1.00  0.00     0.016 C 
BRANCH   3   5
ATOM      5  C   UNL     1      -2.035 -11.113  31.699  1.00  0.00     0.015 C 
BRANCH   5   6
ATOM      6  C   UNL     1      -1.270 -10.886  30.376  1.00  0.00     0.028 C 
BRANCH   6   7
ATOM      7  C   UNL     1      -0.774 -12.178  29.773  1.00  0.00    -0.028 C 
ATOM      8  C   UNL     1      -1.404 -12.872  28.796  1.00  0.00    -0.070 CG0
ATOM      9  C   UNL     1      -0.765 -14.146  28.304  1.00  0.00     0.039 C 
ATOM     10  G   UNL     1      -2.736 -12.450  28.196  1.00  0.00     0.000 G0
ENDBRANCH   6   7
ENDBRANCH   5   6
ENDBRANCH   3   5
ENDBRANCH   1   3
BRANCH   1  11
ATOM     11  C   UNL     1      -3.900 -13.745  30.772  1.00  0.00     0.087 C 
BRANCH  11  12
ATOM     12  C   UNL     1      -4.735 -13.622  29.457  1.00  0.00     0.066 C 
BRANCH  12  13
ATOM     13  C   UNL     1      -3.788 -13.524  28.267  1.00  0.00     0.140 C 
ATOM     14  O   UNL     1      -3.936 -14.287  27.323  1.00  0.00    -0.299 OA
BRANCH  13  15
ATOM     15  C   UNL     1      -2.736 -12.442  28.186  1.00  0.00     0.106 CG0
ATOM     16  G   UNL     1      -1.415 -12.888  28.792  1.00  0.00     0.000 G0
ENDBRANCH  13  15
ENDBRANCH  12  13
BRANCH  12  17
ATOM     17  C   UNL     1      -5.733 -14.817  29.285  1.00  0.00    -0.006 C 
ATOM     18  C   UNL     1      -6.989 -14.419  28.484  1.00  0.00     0.008 C 
ATOM     19  C   UNL     1      -6.191 -15.372  30.649  1.00  0.00     0.008 C 
ENDBRANCH  12  17
ENDBRANCH  11  12
ENDBRANCH   1  11
TORSDOF 1
ENDMDL
MODEL 3
REMARK VINA RESULT:    -4.596      1.986      4.570
REMARK INTER + INTRA:          -6.907
REMARK INTER:                  -7.051
REMARK INTRA:                   0.144
REMARK UNBOUND:                 0.107
REMARK SMILES CC1=CCC[C@H](C)C(=O)C[C@H](C(C)C)C(=O)C1
REMARK SMILES IDX 8 1 9 2 6 3 7 4 5 5 4 6 3 7 2 8 1 9 10 11 11 12 15 13 16 14
REMARK SMILES IDX 17 15 12 17 13 18 14 19
REMARK H PARENT
REMARK Flexibility Score: 70.00
ROOT
ATOM      1  C   UNL     1      -4.161 -13.218  31.258  1.00  0.00     0.136 C 
ATOM      2  O   UNL     1      -4.294 -12.840  32.414  1.00  0.00    -0.299 OA
ENDROOT
BRANCH   1   3
ATOM      3  C   UNL     1      -4.948 -14.424  30.769  1.00  0.00     0.053 C 
ATOM      4  C   UNL     1      -5.739 -15.101  31.902  1.00  0.00     0.016 C 
BRANCH   3   5
ATOM      5  C   UNL     1      -5.893 -14.037  29.605  1.00  0.00     0.015 C 
BRANCH   5   6
ATOM      6  C   UNL     1      -5.404 -14.586  28.247  1.00  0.00     0.028 C 
BRANCH   6   7
ATOM      7  C   UNL     1      -4.776 -13.514  27.388  1.00  0.00    -0.028 C 
ATOM      8  C   UNL     1      -3.446 -13.300  27.262  1.00  0.00    -0.070 CG0
ATOM      9  C   UNL     1      -2.989 -12.185  26.356  1.00  0.00     0.039 C 
ATOM     10  G   UNL     1      -2.395 -14.103  28.011  1.00  0.00     0.000 G0
ENDBRANCH   6   7
ENDBRANCH   5   6
ENDBRANCH   3   5
ENDBRANCH   1   3
BRANCH   1  11
ATOM     11  C   UNL     1      -3.285 -12.386  30.337  1.00  0.00     0.087 C 
BRANCH  11  12
ATOM     12  C   UNL     1      -1.789 -12.830  30.264  1.00  0.00     0.066 C 
BRANCH  12  13
ATOM     13  C   UNL     1      -1.456 -13.239  28.834  1.00  0.00     0.140 C 
ATOM     14  O   UNL     1      -0.372 -12.924  28.361  1.00  0.00    -0.299 OA
BRANCH  13  15
ATOM     15  C   UNL     1      -2.392 -14.107  28.025  1.00  0.00     0.106 CG0
ATOM     16  G   UNL     1      -3.430 -13.282  27.282  1.00  0.00     0.000 G0
ENDBRANCH  13  15
ENDBRANCH  12  13
BRANCH  12  17
ATOM     17  C   UNL     1      -0.821 -11.707  30.768  1.00  0.00    -0.006 C 
ATOM     18  C   UNL     1       0.242 -12.248  31.747  1.00  0.00     0.008 C 
ATOM     19  C   UNL     1      -1.590 -10.573  31.475  1.00  0.00     0.008 C 
ENDBRANCH  12  17
ENDBRANCH  11  12
ENDBRANCH   1  11
TORSDOF 1
ENDMDL
MODEL 4
REMARK VINA RESULT:    -4.543      1.768      2.978
REMARK INTER + INTRA:          -6.825
REMARK INTER:                  -7.198
REMARK INTRA:                   0.373
REMARK UNBOUND:                 0.107
REMARK SMILES CC1=CCC[C@H](C)C(=O)C[C@H](C(C)C)C(=O)C1
REMARK SMILES IDX 8 1 9 2 6 3 7 4 5 5 4 6 3 7 2 8 1 9 10 11 11 12 15 13 16 14
REMARK SMILES IDX 17 15 12 17 13 18 14 19
REMARK H PARENT
REMARK Flexibility Score: 70.00
ROOT
ATOM      1  C   UNL     1      -1.978 -12.865  28.147  1.00  0.00     0.136 C 
ATOM      2  O   UNL     1      -1.745 -11.778  27.638  1.00  0.00    -0.299 OA
ENDROOT
BRANCH   1   3
ATOM      3  C   UNL     1      -0.961 -13.484  29.094  1.00  0.00     0.053 C 
ATOM      4  C   UNL     1       0.035 -14.398  28.360  1.00  0.00     0.016 C 
BRANCH   3   5
ATOM      5  C   UNL     1      -0.209 -12.392  29.893  1.00  0.00     0.015 C 
BRANCH   5   6
ATOM      6  C   UNL     1      -0.965 -11.980  31.176  1.00  0.00     0.028 C 
BRANCH   6   7
ATOM      7  C   UNL     1      -1.780 -13.113  31.748  1.00  0.00    -0.028 C 
ATOM      8  C   UNL     1      -3.133 -13.158  31.780  1.00  0.00    -0.070 CG0
ATOM      9  C   UNL     1      -3.789 -14.372  32.388  1.00  0.00     0.039 C 
ATOM     10  G   UNL     1      -4.019 -12.035  31.266  1.00  0.00     0.000 G0
ENDBRANCH   6   7
ENDBRANCH   5   6
ENDBRANCH   3   5
ENDBRANCH   1   3
BRANCH   1  11
ATOM     11  C   UNL     1      -3.336 -13.494  27.883  1.00  0.00     0.087 C 
BRANCH  11  12
ATOM     12  C   UNL     1      -4.285 -13.571  29.122  1.00  0.00     0.066 C 
BRANCH  12  13
ATOM     13  C   UNL     1      -4.336 -12.207  29.800  1.00  0.00     0.140 C 
ATOM     14  O   UNL     1      -4.709 -11.235  29.157  1.00  0.00    -0.299 OA
BRANCH  13  15
ATOM     15  C   UNL     1      -4.032 -12.047  31.272  1.00  0.00     0.106 CG0
ATOM     16  G   UNL     1      -3.136 -13.160  31.790  1.00  0.00     0.000 G0
ENDBRANCH  13  15
ENDBRANCH  12  13
BRANCH  12  17
ATOM     17  C   UNL     1      -5.720 -14.058  28.730  1.00  0.00    -0.006 C 
ATOM     18  C   UNL     1      -6.265 -15.119  29.709  1.00  0.00     0.008 C 
ATOM     19  C   UNL     1      -5.744 -14.661  27.311  1.00  0.00     0.008 C 
ENDBRANCH  12  17
ENDBRANCH  11  12
ENDBRANCH   1  11
TORSDOF 1
ENDMDL
MODEL 5
REMARK VINA RESULT:    -4.482      1.894      4.364
REMARK INTER + INTRA:          -6.732
REMARK INTER:                  -7.758
REMARK INTRA:                   1.025
REMARK UNBOUND:                 0.107
REMARK SMILES CC1=CCC[C@H](C)C(=O)C[C@H](C(C)C)C(=O)C1
REMARK SMILES IDX 8 1 9 2 6 3 7 4 5 5 4 6 3 7 2 8 1 9 10 11 11 12 15 13 16 14
REMARK SMILES IDX 17 15 12 17 13 18 14 19
REMARK H PARENT
REMARK Flexibility Score: 70.00
ROOT
ATOM      1  C   UNL     1      -3.690 -12.931  31.842  1.00  0.00     0.136 C 
ATOM      2  O   UNL     1      -4.421 -12.014  32.188  1.00  0.00    -0.299 OA
ENDROOT
BRANCH   1   3
ATOM      3  C   UNL     1      -4.292 -14.294  31.535  1.00  0.00     0.053 C 
ATOM      4  C   UNL     1      -5.314 -14.731  32.600  1.00  0.00     0.016 C 
BRANCH   3   5
ATOM      5  C   UNL     1      -4.933 -14.315  30.126  1.00  0.00     0.015 C 
BRANCH   5   6
ATOM      6  C   UNL     1      -5.146 -12.894  29.559  1.00  0.00     0.028 C 
BRANCH   6   7
ATOM      7  C   UNL     1      -4.424 -12.686  28.250  1.00  0.00    -0.028 C 
ATOM      8  C   UNL     1      -3.621 -11.634  27.965  1.00  0.00    -0.070 CG0
ATOM      9  C   UNL     1      -2.972 -11.584  26.605  1.00  0.00     0.039 C 
ATOM     10  G   UNL     1      -3.369 -10.488  28.931  1.00  0.00     0.000 G0
ENDBRANCH   6   7
ENDBRANCH   5   6
ENDBRANCH   3   5
ENDBRANCH   1   3
BRANCH   1  11
ATOM     11  C   UNL     1      -2.217 -12.624  31.634  1.00  0.00     0.087 C 
BRANCH  11  12
ATOM     12  C   UNL     1      -1.820 -12.228  30.175  1.00  0.00     0.066 C 
BRANCH  12  13
ATOM     13  C   UNL     1      -2.256 -10.792  29.909  1.00  0.00     0.140 C 
ATOM     14  O   UNL     1      -1.644  -9.875  30.439  1.00  0.00    -0.299 OA
BRANCH  13  15
ATOM     15  C   UNL     1      -3.361 -10.474  28.928  1.00  0.00     0.106 CG0
ATOM     16  G   UNL     1      -3.624 -11.629  27.975  1.00  0.00     0.000 G0
ENDBRANCH  13  15
ENDBRANCH  12  13
BRANCH  12  17
ATOM     17  C   UNL     1      -0.286 -12.408  29.918  1.00  0.00    -0.006 C 
ATOM     18  C   UNL     1       0.012 -13.584  28.965  1.00  0.00     0.008 C 
ATOM     19  C   UNL     1       0.483 -12.650  31.231  1.00  0.00     0.008 C 
ENDBRANCH  12  17
ENDBRANCH  11  12
ENDBRANCH   1  11
TORSDOF 1
ENDMDL
MODEL 6
REMARK VINA RESULT:    -4.268      1.791      3.426
REMARK INTER + INTRA:          -6.406
REMARK INTER:                  -7.659
REMARK INTRA:                   1.254
REMARK UNBOUND:                 0.107
REMARK SMILES CC1=CCC[C@H](C)C(=O)C[C@H](C(C)C)C(=O)C1
REMARK SMILES IDX 8 1 9 2 6 3 7 4 5 5 4 6 3 7 2 8 1 9 10 11 11 12 15 13 16 14
REMARK SMILES IDX 17 15 12 17 13 18 14 19
REMARK H PARENT
REMARK Flexibility Score: 70.00
ROOT
ATOM      1  C   UNL     1      -3.883 -10.770  29.281  1.00  0.00     0.136 C 
ATOM      2  O   UNL     1      -3.476 -10.313  28.222  1.00  0.00    -0.299 OA
ENDROOT
BRANCH   1   3
ATOM      3  C   UNL     1      -3.366 -10.198  30.592  1.00  0.00     0.053 C 
ATOM      4  C   UNL     1      -3.876 -10.986  31.811  1.00  0.00     0.016 C 
BRANCH   3   5
ATOM      5  C   UNL     1      -1.819 -10.131  30.598  1.00  0.00     0.015 C 
BRANCH   5   6
ATOM      6  C   UNL     1      -1.183 -11.337  31.323  1.00  0.00     0.028 C 
BRANCH   6   7
ATOM      7  C   UNL     1      -0.384 -12.212  30.388  1.00  0.00    -0.028 C 
ATOM      8  C   UNL     1      -0.893 -13.223  29.646  1.00  0.00    -0.070 CG0
ATOM      9  C   UNL     1       0.049 -13.996  28.758  1.00  0.00     0.039 C 
ATOM     10  G   UNL     1      -2.355 -13.638  29.688  1.00  0.00     0.000 G0
ENDBRANCH   6   7
ENDBRANCH   5   6
ENDBRANCH   3   5
ENDBRANCH   1   3
BRANCH   1  11
ATOM     11  C   UNL     1      -4.975 -11.825  29.224  1.00  0.00     0.087 C 
BRANCH  11  12
ATOM     12  C   UNL     1      -4.616 -13.109  28.411  1.00  0.00     0.066 C 
BRANCH  12  13
ATOM     13  C   UNL     1      -3.104 -13.300  28.414  1.00  0.00     0.140 C 
ATOM     14  O   UNL     1      -2.474 -13.086  27.387  1.00  0.00    -0.299 OA
BRANCH  13  15
ATOM     15  C   UNL     1      -2.357 -13.650  29.680  1.00  0.00     0.106 CG0
ATOM     16  G   UNL     1      -0.902 -13.213  29.620  1.00  0.00     0.000 G0
ENDBRANCH  13  15
ENDBRANCH  12  13
BRANCH  12  17
ATOM     17  C   UNL     1      -5.344 -14.378  28.970  1.00  0.00    -0.006 C 
ATOM     18  C   UNL     1      -6.794 -14.493  28.457  1.00  0.00     0.008 C 
ATOM     19  C   UNL     1      -5.380 -14.375  30.511  1.00  0.00     0.008 C 
ENDBRANCH  12  17
ENDBRANCH  11  12
ENDBRANCH   1  11
TORSDOF 1
ENDMDL
MODEL 7
REMARK VINA RESULT:    -4.140      1.737      3.513
REMARK INTER + INTRA:          -6.210
REMARK INTER:                  -7.527
REMARK INTRA:                   1.317
REMARK UNBOUND:                 0.107
REMARK SMILES CC1=CCC[C@H](C)C(=O)C[C@H](C(C)C)C(=O)C1
REMARK SMILES IDX 8 1 9 2 6 3 7 4 5 5 4 6 3 7 2 8 1 9 10 11 11 12 15 13 16 14
REMARK SMILES IDX 17 15 12 17 13 18 14 19
REMARK H PARENT
REMARK Flexibility Score: 70.00
ROOT
ATOM      1  C   UNL     1      -4.232 -13.821  31.234  1.00  0.00     0.136 C 
ATOM      2  O   UNL     1      -5.022 -13.680  32.158  1.00  0.00    -0.299 OA
ENDROOT
BRANCH   1   3
ATOM      3  C   UNL     1      -4.753 -14.192  29.853  1.00  0.00     0.053 C 
ATOM      4  C   UNL     1      -6.122 -14.892  29.917  1.00  0.00     0.016 C 
BRANCH   3   5
ATOM      5  C   UNL     1      -4.820 -12.950  28.932  1.00  0.00     0.015 C 
BRANCH   5   6
ATOM      6  C   UNL     1      -4.042 -13.156  27.614  1.00  0.00     0.028 C 
BRANCH   6   7
ATOM      7  C   UNL     1      -2.713 -13.838  27.834  1.00  0.00    -0.028 C 
ATOM      8  C   UNL     1      -1.639 -13.271  28.433  1.00  0.00    -0.070 CG0
ATOM      9  C   UNL     1      -0.387 -14.099  28.575  1.00  0.00     0.039 C 
ATOM     10  G   UNL     1      -1.622 -11.836  28.936  1.00  0.00     0.000 G0
ENDBRANCH   6   7
ENDBRANCH   5   6
ENDBRANCH   3   5
ENDBRANCH   1   3
BRANCH   1  11
ATOM     11  C   UNL     1      -2.769 -13.509  31.498  1.00  0.00     0.087 C 
BRANCH  11  12
ATOM     12  C   UNL     1      -2.399 -11.991  31.475  1.00  0.00     0.066 C 
BRANCH  12  13
ATOM     13  C   UNL     1      -1.318 -11.754  30.428  1.00  0.00     0.140 C 
ATOM     14  O   UNL     1      -0.164 -11.576  30.792  1.00  0.00    -0.299 OA
BRANCH  13  15
ATOM     15  C   UNL     1      -1.623 -11.832  28.949  1.00  0.00     0.106 CG0
ATOM     16  G   UNL     1      -1.637 -13.268  28.449  1.00  0.00     0.000 G0
ENDBRANCH  13  15
ENDBRANCH  12  13
BRANCH  12  17
ATOM     17  C   UNL     1      -3.651 -11.088  31.206  1.00  0.00    -0.006 C 
ATOM     18  C   UNL     1      -3.340  -9.936  30.228  1.00  0.00     0.008 C 
ATOM     19  C   UNL     1      -4.196 -10.476  32.511  1.00  0.00     0.008 C 
ENDBRANCH  12  17
ENDBRANCH  11  12
ENDBRANCH   1  11
TORSDOF 1
ENDMDL
MODEL 8
REMARK VINA RESULT:    -4.140      1.672      3.606
REMARK INTER + INTRA:          -6.210
REMARK INTER:                  -6.729
REMARK INTRA:                   0.519
REMARK UNBOUND:                 0.107
REMARK SMILES CC1=CCC[C@H](C)C(=O)C[C@H](C(C)C)C(=O)C1
REMARK SMILES IDX 8 1 9 2 6 3 7 4 5 5 4 6 3 7 2 8 1 9 10 11 11 12 15 13 16 14
REMARK SMILES IDX 17 15 12 17 13 18 14 19
REMARK H PARENT
REMARK Flexibility Score: 70.00
ROOT
ATOM      1  C   UNL     1      -2.903 -12.248  31.059  1.00  0.00     0.136 C 
ATOM      2  O   UNL     1      -3.403 -11.293  31.637  1.00  0.00    -0.299 OA
ENDROOT
BRANCH   1   3
ATOM      3  C   UNL     1      -1.459 -12.164  30.584  1.00  0.00     0.053 C 
ATOM      4  C   UNL     1      -0.560 -11.420  31.587  1.00  0.00     0.016 C 
BRANCH   3   5
ATOM      5  C   UNL     1      -0.890 -13.572  30.285  1.00  0.00     0.015 C 
BRANCH   5   6
ATOM      6  C   UNL     1      -1.174 -14.023  28.835  1.00  0.00     0.028 C 
BRANCH   6   7
ATOM      7  C   UNL     1      -1.413 -12.855  27.909  1.00  0.00    -0.028 C 
ATOM      8  C   UNL     1      -2.616 -12.504  27.396  1.00  0.00    -0.070 CG0
ATOM      9  C   UNL     1      -2.677 -11.302  26.488  1.00  0.00     0.039 C 
ATOM     10  G   UNL     1      -3.897 -13.277  27.664  1.00  0.00     0.000 G0
ENDBRANCH   6   7
ENDBRANCH   5   6
ENDBRANCH   3   5
ENDBRANCH   1   3
BRANCH   1  11
ATOM     11  C   UNL     1      -3.729 -13.517  30.941  1.00  0.00     0.087 C 
BRANCH  11  12
ATOM     12  C   UNL     1      -5.024 -13.389  30.076  1.00  0.00     0.066 C 
BRANCH  12  13
ATOM     13  C   UNL     1      -4.703 -12.614  28.803  1.00  0.00     0.140 C 
ATOM     14  O   UNL     1      -5.014 -11.433  28.730  1.00  0.00    -0.299 OA
BRANCH  13  15
ATOM     15  C   UNL     1      -3.922 -13.245  27.673  1.00  0.00     0.106 CG0
ATOM     16  G   UNL     1      -2.618 -12.511  27.406  1.00  0.00     0.000 G0
ENDBRANCH  13  15
ENDBRANCH  12  13
BRANCH  12  17
ATOM     17  C   UNL     1      -5.644 -14.787  29.742  1.00  0.00    -0.006 C 
ATOM     18  C   UNL     1      -6.846 -14.678  28.780  1.00  0.00     0.008 C 
ATOM     19  C   UNL     1      -6.116 -15.515  31.017  1.00  0.00     0.008 C 
ENDBRANCH  12  17
ENDBRANCH  11  12
ENDBRANCH   1  11
TORSDOF 1
ENDMDL
MODEL 9
REMARK VINA RESULT:    -3.916      1.502      2.216
REMARK INTER + INTRA:          -5.869
REMARK INTER:                  -7.057
REMARK INTRA:                   1.188
REMARK UNBOUND:                 0.107
REMARK SMILES CC1=CCC[C@H](C)C(=O)C[C@H](C(C)C)C(=O)C1
REMARK SMILES IDX 8 1 9 2 6 3 7 4 5 5 4 6 3 7 2 8 1 9 10 11 11 12 15 13 16 14
REMARK SMILES IDX 17 15 12 17 13 18 14 19
REMARK H PARENT
REMARK Flexibility Score: 70.00
ROOT
ATOM      1  C   UNL     1      -3.940 -12.705  28.035  1.00  0.00     0.136 C 
ATOM      2  O   UNL     1      -4.190 -13.524  27.162  1.00  0.00    -0.299 OA
ENDROOT
BRANCH   1   3
ATOM      3  C   UNL     1      -2.996 -11.551  27.731  1.00  0.00     0.053 C 
ATOM      4  C   UNL     1      -2.814 -11.332  26.218  1.00  0.00     0.016 C 
BRANCH   3   5
ATOM      5  C   UNL     1      -3.473 -10.247  28.415  1.00  0.00     0.015 C 
BRANCH   5   6
ATOM      6  C   UNL     1      -2.655  -9.917  29.683  1.00  0.00     0.028 C 
BRANCH   6   7
ATOM      7  C   UNL     1      -1.642 -10.989  30.005  1.00  0.00    -0.028 C 
ATOM      8  C   UNL     1      -1.837 -12.003  30.881  1.00  0.00    -0.070 CG0
ATOM      9  C   UNL     1      -0.717 -12.992  31.082  1.00  0.00     0.039 C 
ATOM     10  G   UNL     1      -3.110 -12.174  31.693  1.00  0.00     0.000 G0
ENDBRANCH   6   7
ENDBRANCH   5   6
ENDBRANCH   3   5
ENDBRANCH   1   3
BRANCH   1  11
ATOM     11  C   UNL     1      -4.677 -12.830  29.357  1.00  0.00     0.087 C 
BRANCH  11  12
ATOM     12  C   UNL     1      -4.277 -14.064  30.227  1.00  0.00     0.066 C 
BRANCH  12  13
ATOM     13  C   UNL     1      -3.692 -13.578  31.548  1.00  0.00     0.140 C 
ATOM     14  O   UNL     1      -3.615 -14.357  32.488  1.00  0.00    -0.299 OA
BRANCH  13  15
ATOM     15  C   UNL     1      -3.117 -12.188  31.691  1.00  0.00     0.106 CG0
ATOM     16  G   UNL     1      -1.848 -12.012  30.872  1.00  0.00     0.000 G0
ENDBRANCH  13  15
ENDBRANCH  12  13
BRANCH  12  17
ATOM     17  C   UNL     1      -5.488 -15.027  30.468  1.00  0.00    -0.006 C 
ATOM     18  C   UNL     1      -6.598 -14.845  29.411  1.00  0.00     0.008 C 
ATOM     19  C   UNL     1      -6.114 -14.811  31.860  1.00  0.00     0.008 C 
ENDBRANCH  12  17
ENDBRANCH  11  12
ENDBRANCH   1  11
TORSDOF 1
ENDMDL
