MODEL 1
REMARK VINA RESULT:    -4.791      0.000      0.000
REMARK INTER + INTRA:          -6.087
REMARK INTER:                  -5.911
REMARK INTRA:                  -0.175
REMARK UNBOUND:                -0.175
REMARK SMILES CCCCC=CC(C)=O
REMARK SMILES IDX 4 1 3 2 2 3 1 4 5 5 6 6 7 7 9 8 8 9
REMARK H PARENT
REMARK Flexibility Score: inf
ROOT
ATOM      1  C   UNL     1      24.963  57.072 139.372  1.00  0.00     0.027 C 
ENDROOT
BRANCH   1   2
ATOM      2  C   UNL     1      25.151  56.327 140.706  1.00  0.00     0.004 C 
BRANCH   2   3
ATOM      3  C   UNL     1      26.209  56.954 141.631  1.00  0.00    -0.003 C 
ATOM      4  C   UNL     1      25.904  56.742 143.113  1.00  0.00     0.004 C 
ENDBRANCH   2   3
ENDBRANCH   1   2
BRANCH   1   5
ATOM      5  C   UNL     1      26.002  58.135 139.154  1.00  0.00    -0.023 C 
ATOM      6  C   UNL     1      26.906  58.039 138.171  1.00  0.00     0.042 C 
BRANCH   6   7
ATOM      7  C   UNL     1      27.944  59.059 137.920  1.00  0.00     0.152 C 
ATOM      8  O   UNL     1      28.871  59.197 138.763  1.00  0.00    -0.295 OA
ATOM      9  C   UNL     1      27.934  59.933 136.702  1.00  0.00     0.093 C 
ENDBRANCH   6   7
ENDBRANCH   1   5
TORSDOF 4
ENDMDL
MODEL 2
REMARK VINA RESULT:    -4.717      2.174      3.949
REMARK INTER + INTRA:          -5.995
REMARK INTER:                  -5.771
REMARK INTRA:                  -0.224
REMARK UNBOUND:                -0.175
REMARK SMILES CCCCC=CC(C)=O
REMARK SMILES IDX 4 1 3 2 2 3 1 4 5 5 6 6 7 7 9 8 8 9
REMARK H PARENT
REMARK Flexibility Score: inf
ROOT
ATOM      1  C   UNL     1      26.334  58.501 139.235  1.00  0.00     0.027 C 
ENDROOT
BRANCH   1   2
ATOM      2  C   UNL     1      25.448  57.383 138.658  1.00  0.00     0.004 C 
BRANCH   2   3
ATOM      3  C   UNL     1      24.812  56.474 139.725  1.00  0.00    -0.003 C 
ATOM      4  C   UNL     1      23.361  56.114 139.411  1.00  0.00     0.004 C 
ENDBRANCH   2   3
ENDBRANCH   1   2
BRANCH   1   5
ATOM      5  C   UNL     1      26.729  58.247 140.662  1.00  0.00    -0.023 C 
ATOM      6  C   UNL     1      27.996  57.977 140.999  1.00  0.00     0.042 C 
BRANCH   6   7
ATOM      7  C   UNL     1      28.430  57.720 142.388  1.00  0.00     0.152 C 
ATOM      8  O   UNL     1      29.630  57.944 142.697  1.00  0.00    -0.295 OA
ATOM      9  C   UNL     1      27.493  57.204 143.439  1.00  0.00     0.093 C 
ENDBRANCH   6   7
ENDBRANCH   1   5
TORSDOF 4
ENDMDL
MODEL 3
REMARK VINA RESULT:    -4.695      2.389      4.334
REMARK INTER + INTRA:          -5.968
REMARK INTER:                  -5.768
REMARK INTRA:                  -0.200
REMARK UNBOUND:                -0.175
REMARK SMILES CCCCC=CC(C)=O
REMARK SMILES IDX 4 1 3 2 2 3 1 4 5 5 6 6 7 7 9 8 8 9
REMARK H PARENT
REMARK Flexibility Score: inf
ROOT
ATOM      1  C   UNL     1      25.173  56.294 140.278  1.00  0.00     0.027 C 
ENDROOT
BRANCH   1   2
ATOM      2  C   UNL     1      24.895  57.229 139.087  1.00  0.00     0.004 C 
BRANCH   2   3
ATOM      3  C   UNL     1      26.089  58.116 138.694  1.00  0.00    -0.003 C 
ATOM      4  C   UNL     1      26.898  57.544 137.531  1.00  0.00     0.004 C 
ENDBRANCH   2   3
ENDBRANCH   1   2
BRANCH   1   5
ATOM      5  C   UNL     1      25.932  56.975 141.381  1.00  0.00    -0.023 C 
ATOM      6  C   UNL     1      27.159  56.575 141.736  1.00  0.00     0.042 C 
BRANCH   6   7
ATOM      7  C   UNL     1      27.942  57.214 142.814  1.00  0.00     0.152 C 
ATOM      8  O   UNL     1      27.599  57.012 144.009  1.00  0.00    -0.295 OA
ATOM      9  C   UNL     1      29.125  58.092 142.535  1.00  0.00     0.093 C 
ENDBRANCH   6   7
ENDBRANCH   1   5
TORSDOF 4
ENDMDL
MODEL 4
REMARK VINA RESULT:    -4.694      2.612      3.636
REMARK INTER + INTRA:          -5.966
REMARK INTER:                  -5.736
REMARK INTRA:                  -0.231
REMARK UNBOUND:                -0.175
REMARK SMILES CCCCC=CC(C)=O
REMARK SMILES IDX 4 1 3 2 2 3 1 4 5 5 6 6 7 7 9 8 8 9
REMARK H PARENT
REMARK Flexibility Score: inf
ROOT
ATOM      1  C   UNL     1      26.722  55.485 139.242  1.00  0.00     0.027 C 
ENDROOT
BRANCH   1   2
ATOM      2  C   UNL     1      26.164  56.694 138.470  1.00  0.00     0.004 C 
BRANCH   2   3
ATOM      3  C   UNL     1      24.870  57.275 139.065  1.00  0.00    -0.003 C 
ATOM      4  C   UNL     1      23.874  56.197 139.490  1.00  0.00     0.004 C 
ENDBRANCH   2   3
ENDBRANCH   1   2
BRANCH   1   5
ATOM      5  C   UNL     1      27.777  55.873 140.238  1.00  0.00    -0.023 C 
ATOM      6  C   UNL     1      28.414  57.048 140.161  1.00  0.00     0.042 C 
BRANCH   6   7
ATOM      7  C   UNL     1      29.457  57.470 141.117  1.00  0.00     0.152 C 
ATOM      8  O   UNL     1      30.660  57.463 140.741  1.00  0.00    -0.295 OA
ATOM      9  C   UNL     1      29.136  57.906 142.516  1.00  0.00     0.093 C 
ENDBRANCH   6   7
ENDBRANCH   1   5
TORSDOF 4
ENDMDL
MODEL 5
REMARK VINA RESULT:    -4.663      2.724      3.424
REMARK INTER + INTRA:          -5.929
REMARK INTER:                  -5.780
REMARK INTRA:                  -0.149
REMARK UNBOUND:                -0.175
REMARK SMILES CCCCC=CC(C)=O
REMARK SMILES IDX 4 1 3 2 2 3 1 4 5 5 6 6 7 7 9 8 8 9
REMARK H PARENT
REMARK Flexibility Score: inf
ROOT
ATOM      1  C   UNL     1      26.725  56.205 140.582  1.00  0.00     0.027 C 
ENDROOT
BRANCH   1   2
ATOM      2  C   UNL     1      25.808  57.378 140.195  1.00  0.00     0.004 C 
BRANCH   2   3
ATOM      3  C   UNL     1      24.861  57.073 139.021  1.00  0.00    -0.003 C 
ATOM      4  C   UNL     1      23.669  56.209 139.427  1.00  0.00     0.004 C 
ENDBRANCH   2   3
ENDBRANCH   1   2
BRANCH   1   5
ATOM      5  C   UNL     1      28.175  56.493 140.314  1.00  0.00    -0.023 C 
ATOM      6  C   UNL     1      28.820  57.480 140.948  1.00  0.00     0.042 C 
BRANCH   6   7
ATOM      7  C   UNL     1      30.244  57.800 140.716  1.00  0.00     0.152 C 
ATOM      8  O   UNL     1      30.881  58.406 141.618  1.00  0.00    -0.295 OA
ATOM      9  C   UNL     1      30.954  57.430 139.448  1.00  0.00     0.093 C 
ENDBRANCH   6   7
ENDBRANCH   1   5
TORSDOF 4
ENDMDL
MODEL 6
REMARK VINA RESULT:    -4.608      1.740      4.421
REMARK INTER + INTRA:          -5.861
REMARK INTER:                  -5.641
REMARK INTRA:                  -0.220
REMARK UNBOUND:                -0.175
REMARK SMILES CCCCC=CC(C)=O
REMARK SMILES IDX 4 1 3 2 2 3 1 4 5 5 6 6 7 7 9 8 8 9
REMARK H PARENT
REMARK Flexibility Score: inf
ROOT
ATOM      1  C   UNL     1      25.188  56.793 139.959  1.00  0.00     0.027 C 
ENDROOT
BRANCH   1   2
ATOM      2  C   UNL     1      25.627  57.892 138.974  1.00  0.00     0.004 C 
BRANCH   2   3
ATOM      3  C   UNL     1      26.343  57.360 137.720  1.00  0.00    -0.003 C 
ATOM      4  C   UNL     1      27.391  58.330 137.177  1.00  0.00     0.004 C 
ENDBRANCH   2   3
ENDBRANCH   1   2
BRANCH   1   5
ATOM      5  C   UNL     1      26.026  56.768 141.205  1.00  0.00    -0.023 C 
ATOM      6  C   UNL     1      27.174  57.451 141.290  1.00  0.00     0.042 C 
BRANCH   6   7
ATOM      7  C   UNL     1      28.029  57.455 142.495  1.00  0.00     0.152 C 
ATOM      8  O   UNL     1      29.238  57.791 142.376  1.00  0.00    -0.295 OA
ATOM      9  C   UNL     1      27.511  57.074 143.849  1.00  0.00     0.093 C 
ENDBRANCH   6   7
ENDBRANCH   1   5
TORSDOF 4
ENDMDL
MODEL 7
REMARK VINA RESULT:    -4.594      3.199      4.366
REMARK INTER + INTRA:          -5.843
REMARK INTER:                  -5.582
REMARK INTRA:                  -0.262
REMARK UNBOUND:                -0.175
REMARK SMILES CCCCC=CC(C)=O
REMARK SMILES IDX 4 1 3 2 2 3 1 4 5 5 6 6 7 7 9 8 8 9
REMARK H PARENT
REMARK Flexibility Score: inf
ROOT
ATOM      1  C   UNL     1      26.519  57.312 143.388  1.00  0.00     0.027 C 
ENDROOT
BRANCH   1   2
ATOM      2  C   UNL     1      27.516  58.344 142.833  1.00  0.00     0.004 C 
BRANCH   2   3
ATOM      3  C   UNL     1      28.979  57.869 142.840  1.00  0.00    -0.003 C 
ATOM      4  C   UNL     1      29.569  57.739 141.436  1.00  0.00     0.004 C 
ENDBRANCH   2   3
ENDBRANCH   1   2
BRANCH   1   5
ATOM      5  C   UNL     1      25.955  56.420 142.318  1.00  0.00    -0.023 C 
ATOM      6  C   UNL     1      25.659  56.891 141.101  1.00  0.00     0.042 C 
BRANCH   6   7
ATOM      7  C   UNL     1      25.104  56.052 140.019  1.00  0.00     0.152 C 
ATOM      8  O   UNL     1      25.835  55.163 139.509  1.00  0.00    -0.295 OA
ATOM      9  C   UNL     1      23.704  56.222 139.509  1.00  0.00     0.093 C 
ENDBRANCH   6   7
ENDBRANCH   1   5
TORSDOF 4
ENDMDL
MODEL 8
REMARK VINA RESULT:    -4.493      2.744      3.059
REMARK INTER + INTRA:          -5.719
REMARK INTER:                  -5.455
REMARK INTRA:                  -0.265
REMARK UNBOUND:                -0.175
REMARK SMILES CCCCC=CC(C)=O
REMARK SMILES IDX 4 1 3 2 2 3 1 4 5 5 6 6 7 7 9 8 8 9
REMARK H PARENT
REMARK Flexibility Score: inf
ROOT
ATOM      1  C   UNL     1      26.891  56.064 140.631  1.00  0.00     0.027 C 
ENDROOT
BRANCH   1   2
ATOM      2  C   UNL     1      26.042  57.009 141.501  1.00  0.00     0.004 C 
BRANCH   2   3
ATOM      3  C   UNL     1      25.903  56.556 142.965  1.00  0.00    -0.003 C 
ATOM      4  C   UNL     1      26.553  57.525 143.952  1.00  0.00     0.004 C 
ENDBRANCH   2   3
ENDBRANCH   1   2
BRANCH   1   5
ATOM      5  C   UNL     1      28.184  56.690 140.191  1.00  0.00    -0.023 C 
ATOM      6  C   UNL     1      29.091  57.117 141.078  1.00  0.00     0.042 C 
BRANCH   6   7
ATOM      7  C   UNL     1      30.374  57.739 140.691  1.00  0.00     0.152 C 
ATOM      8  O   UNL     1      30.943  58.509 141.510  1.00  0.00    -0.295 OA
ATOM      9  C   UNL     1      31.021  57.485 139.362  1.00  0.00     0.093 C 
ENDBRANCH   6   7
ENDBRANCH   1   5
TORSDOF 4
ENDMDL
MODEL 9
REMARK VINA RESULT:    -4.292      2.815      3.791
REMARK INTER + INTRA:          -5.471
REMARK INTER:                  -5.252
REMARK INTRA:                  -0.219
REMARK UNBOUND:                -0.175
REMARK SMILES CCCCC=CC(C)=O
REMARK SMILES IDX 4 1 3 2 2 3 1 4 5 5 6 6 7 7 9 8 8 9
REMARK H PARENT
REMARK Flexibility Score: inf
ROOT
ATOM      1  C   UNL     1      29.623  57.319 140.851  1.00  0.00     0.027 C 
ENDROOT
BRANCH   1   2
ATOM      2  C   UNL     1      29.416  58.125 142.147  1.00  0.00     0.004 C 
BRANCH   2   3
ATOM      3  C   UNL     1      28.377  57.516 143.104  1.00  0.00    -0.003 C 
ATOM      4  C   UNL     1      27.200  58.451 143.377  1.00  0.00     0.004 C 
ENDBRANCH   2   3
ENDBRANCH   1   2
BRANCH   1   5
ATOM      5  C   UNL     1      28.397  56.552 140.447  1.00  0.00    -0.023 C 
ATOM      6  C   UNL     1      27.493  57.070 139.606  1.00  0.00     0.042 C 
BRANCH   6   7
ATOM      7  C   UNL     1      26.274  56.352 139.181  1.00  0.00     0.152 C 
ATOM      8  O   UNL     1      26.321  55.098 139.064  1.00  0.00    -0.295 OA
ATOM      9  C   UNL     1      24.987  57.061 138.884  1.00  0.00     0.093 C 
ENDBRANCH   6   7
ENDBRANCH   1   5
TORSDOF 4
ENDMDL
