MODEL 1
REMARK VINA RESULT:    -6.737      0.000      0.000
REMARK INTER + INTRA:          -8.355
REMARK INTER:                  -8.115
REMARK INTRA:                  -0.240
REMARK UNBOUND:                -0.240
REMARK SMILES O=c1c(O)c(-c2ccc(O)c(O)c2)oc2cc(O)cc(O)c12
REMARK SMILES IDX 5 1 3 2 2 3 1 4 22 5 20 6 19 7 17 8 16 9 15 10 14 11 6 12
REMARK SMILES IDX 7 13 8 14 9 15 13 16 11 17 10 18 12 20 4 22 21 24 18 26
REMARK H PARENT 10 19 12 21 4 23 21 25 18 27
REMARK Flexibility Score: inf
ROOT
ATOM      1  C   UNL     1     -35.280  -5.657   6.174  1.00  0.00     0.180 A 
ATOM      2  C   UNL     1     -35.543  -6.976   6.581  1.00  0.00     0.208 A 
ATOM      3  C   UNL     1     -35.249  -8.031   5.703  1.00  0.00     0.238 A 
ATOM      4  O   UNL     1     -35.538  -9.206   6.052  1.00  0.00    -0.285 OA
ATOM      5  C   UNL     1     -34.682  -7.757   4.436  1.00  0.00     0.111 A 
ATOM      6  C   UNL     1     -34.307  -8.751   3.483  1.00  0.00     0.134 A 
ATOM      7  C   UNL     1     -33.875  -8.359   2.210  1.00  0.00     0.093 A 
ATOM      8  C   UNL     1     -33.742  -7.012   1.877  1.00  0.00     0.123 A 
ATOM      9  C   UNL     1     -34.049  -6.031   2.821  1.00  0.00     0.094 A 
ATOM     10  C   UNL     1     -34.517  -6.390   4.088  1.00  0.00     0.146 A 
ATOM     11  O   UNL     1     -34.808  -5.427   4.953  1.00  0.00    -0.452 OA
ENDROOT
BRANCH   1  12
ATOM     12  C   UNL     1     -35.539  -4.493   7.052  1.00  0.00     0.025 A 
ATOM     13  C   UNL     1     -36.859  -4.068   7.264  1.00  0.00     0.016 A 
ATOM     14  C   UNL     1     -37.125  -2.960   8.073  1.00  0.00     0.051 A 
ATOM     15  C   UNL     1     -36.074  -2.252   8.669  1.00  0.00     0.157 A 
ATOM     16  C   UNL     1     -34.485  -3.768   7.635  1.00  0.00     0.062 A 
ATOM     17  C   UNL     1     -34.747  -2.656   8.444  1.00  0.00     0.158 A 
BRANCH  15  18
ATOM     18  O   UNL     1     -36.341  -1.148   9.478  1.00  0.00    -0.504 OA
ATOM     19  H   UNL     1     -35.599  -0.546   9.816  1.00  0.00     0.293 HD
ENDBRANCH  15  18
BRANCH  17  20
ATOM     20  O   UNL     1     -33.678  -1.963   9.011  1.00  0.00    -0.504 OA
ATOM     21  H   UNL     1     -33.565  -0.962   8.902  1.00  0.00     0.293 HD
ENDBRANCH  17  20
ENDBRANCH   1  12
BRANCH   2  22
ATOM     22  O   UNL     1     -36.125  -7.223   7.828  1.00  0.00    -0.502 OA
ATOM     23  H   UNL     1     -36.451  -8.142   8.103  1.00  0.00     0.293 HD
ENDBRANCH   2  22
BRANCH   6  24
ATOM     24  O   UNL     1     -34.313 -10.125   3.744  1.00  0.00    -0.507 OA
ATOM     25  H   UNL     1     -34.633 -10.831   3.099  1.00  0.00     0.293 HD
ENDBRANCH   6  24
BRANCH   8  26
ATOM     26  O   UNL     1     -33.295  -6.658   0.606  1.00  0.00    -0.508 OA
ATOM     27  H   UNL     1     -33.887  -6.155  -0.044  1.00  0.00     0.293 HD
ENDBRANCH   8  26
TORSDOF 6
ENDMDL
MODEL 2
REMARK VINA RESULT:    -6.074      2.702      7.687
REMARK INTER + INTRA:          -7.556
REMARK INTER:                  -7.222
REMARK INTRA:                  -0.334
REMARK UNBOUND:                -0.240
REMARK SMILES O=c1c(O)c(-c2ccc(O)c(O)c2)oc2cc(O)cc(O)c12
REMARK SMILES IDX 5 1 3 2 2 3 1 4 22 5 20 6 19 7 17 8 16 9 15 10 14 11 6 12
REMARK SMILES IDX 7 13 8 14 9 15 13 16 11 17 10 18 12 20 4 22 21 24 18 26
REMARK H PARENT 10 19 12 21 4 23 21 25 18 27
REMARK Flexibility Score: inf
ROOT
ATOM      1  C   UNL     1     -34.617  -8.042   3.012  1.00  0.00     0.180 A 
ATOM      2  C   UNL     1     -34.377  -6.704   3.368  1.00  0.00     0.208 A 
ATOM      3  C   UNL     1     -34.677  -6.282   4.672  1.00  0.00     0.238 A 
ATOM      4  O   UNL     1     -34.511  -5.069   4.969  1.00  0.00    -0.285 OA
ATOM      5  C   UNL     1     -35.199  -7.205   5.610  1.00  0.00     0.111 A 
ATOM      6  C   UNL     1     -35.501  -6.896   6.970  1.00  0.00     0.134 A 
ATOM      7  C   UNL     1     -36.135  -7.853   7.771  1.00  0.00     0.093 A 
ATOM      8  C   UNL     1     -36.417  -9.128   7.284  1.00  0.00     0.123 A 
ATOM      9  C   UNL     1     -36.073  -9.461   5.973  1.00  0.00     0.094 A 
ATOM     10  C   UNL     1     -35.472  -8.516   5.137  1.00  0.00     0.146 A 
ATOM     11  O   UNL     1     -35.169  -8.869   3.895  1.00  0.00    -0.452 OA
ENDROOT
BRANCH   1  12
ATOM     12  C   UNL     1     -34.303  -8.569   1.664  1.00  0.00     0.025 A 
ATOM     13  C   UNL     1     -35.306  -8.598   0.683  1.00  0.00     0.016 A 
ATOM     14  C   UNL     1     -35.037  -9.109  -0.589  1.00  0.00     0.051 A 
ATOM     15  C   UNL     1     -33.767  -9.614  -0.894  1.00  0.00     0.157 A 
ATOM     16  C   UNL     1     -33.035  -9.095   1.362  1.00  0.00     0.062 A 
ATOM     17  C   UNL     1     -32.762  -9.611   0.089  1.00  0.00     0.158 A 
BRANCH  15  18
ATOM     18  O   UNL     1     -33.500 -10.122  -2.165  1.00  0.00    -0.504 OA
ATOM     19  H   UNL     1     -34.243 -10.317  -2.825  1.00  0.00     0.293 HD
ENDBRANCH  15  18
BRANCH  17  20
ATOM     20  O   UNL     1     -31.492 -10.119  -0.178  1.00  0.00    -0.504 OA
ATOM     21  H   UNL     1     -31.254 -10.534  -1.071  1.00  0.00     0.293 HD
ENDBRANCH  17  20
ENDBRANCH   1  12
BRANCH   2  22
ATOM     22  O   UNL     1     -33.883  -5.803   2.420  1.00  0.00    -0.502 OA
ATOM     23  H   UNL     1     -33.826  -6.027   1.435  1.00  0.00     0.293 HD
ENDBRANCH   2  22
BRANCH   6  24
ATOM     24  O   UNL     1     -35.178  -5.683   7.586  1.00  0.00    -0.507 OA
ATOM     25  H   UNL     1     -35.845  -5.063   8.020  1.00  0.00     0.293 HD
ENDBRANCH   6  24
BRANCH   8  26
ATOM     26  O   UNL     1     -37.035 -10.062   8.113  1.00  0.00    -0.508 OA
ATOM     27  H   UNL     1     -37.305  -9.831   9.062  1.00  0.00     0.293 HD
ENDBRANCH   8  26
TORSDOF 6
ENDMDL
MODEL 3
REMARK VINA RESULT:    -3.836      2.576      7.414
REMARK INTER + INTRA:          -4.861
REMARK INTER:                  -4.793
REMARK INTRA:                  -0.068
REMARK UNBOUND:                -0.240
REMARK SMILES O=c1c(O)c(-c2ccc(O)c(O)c2)oc2cc(O)cc(O)c12
REMARK SMILES IDX 5 1 3 2 2 3 1 4 22 5 20 6 19 7 17 8 16 9 15 10 14 11 6 12
REMARK SMILES IDX 7 13 8 14 9 15 13 16 11 17 10 18 12 20 4 22 21 24 18 26
REMARK H PARENT 10 19 12 21 4 23 21 25 18 27
REMARK Flexibility Score: inf
ROOT
ATOM      1  C   UNL     1     -34.642  -7.855   4.149  1.00  0.00     0.180 A 
ATOM      2  C   UNL     1     -34.915  -6.490   4.338  1.00  0.00     0.208 A 
ATOM      3  C   UNL     1     -35.558  -6.081   5.518  1.00  0.00     0.238 A 
ATOM      4  O   UNL     1     -35.849  -4.864   5.657  1.00  0.00    -0.285 OA
ATOM      5  C   UNL     1     -35.905  -7.039   6.500  1.00  0.00     0.111 A 
ATOM      6  C   UNL     1     -36.522  -6.733   7.750  1.00  0.00     0.134 A 
ATOM      7  C   UNL     1     -36.938  -7.774   8.589  1.00  0.00     0.093 A 
ATOM      8  C   UNL     1     -36.700  -9.106   8.255  1.00  0.00     0.123 A 
ATOM      9  C   UNL     1     -36.045  -9.416   7.062  1.00  0.00     0.094 A 
ATOM     10  C   UNL     1     -35.650  -8.401   6.188  1.00  0.00     0.146 A 
ATOM     11  O   UNL     1     -35.038  -8.738   5.059  1.00  0.00    -0.452 OA
ENDROOT
BRANCH   1  12
ATOM     12  C   UNL     1     -33.946  -8.360   2.943  1.00  0.00     0.025 A 
ATOM     13  C   UNL     1     -32.734  -9.053   3.085  1.00  0.00     0.016 A 
ATOM     14  C   UNL     1     -32.050  -9.521   1.959  1.00  0.00     0.051 A 
ATOM     15  C   UNL     1     -32.560  -9.288   0.676  1.00  0.00     0.157 A 
ATOM     16  C   UNL     1     -34.444  -8.109   1.652  1.00  0.00     0.062 A 
ATOM     17  C   UNL     1     -33.761  -8.574   0.523  1.00  0.00     0.158 A 
BRANCH  15  18
ATOM     18  O   UNL     1     -31.877  -9.757  -0.446  1.00  0.00    -0.504 OA
ATOM     19  H   UNL     1     -31.503 -10.697  -0.484  1.00  0.00     0.293 HD
ENDBRANCH  15  18
BRANCH  17  20
ATOM     20  O   UNL     1     -34.286  -8.313  -0.742  1.00  0.00    -0.504 OA
ATOM     21  H   UNL     1     -35.223  -7.949  -0.872  1.00  0.00     0.293 HD
ENDBRANCH  17  20
ENDBRANCH   1  12
BRANCH   2  22
ATOM     22  O   UNL     1     -34.586  -5.562   3.346  1.00  0.00    -0.502 OA
ATOM     23  H   UNL     1     -34.482  -4.573   3.538  1.00  0.00     0.293 HD
ENDBRANCH   2  22
BRANCH   6  24
ATOM     24  O   UNL     1     -36.722  -5.432   8.223  1.00  0.00    -0.507 OA
ATOM     25  H   UNL     1     -36.676  -4.600   7.655  1.00  0.00     0.293 HD
ENDBRANCH   6  24
BRANCH   8  26
ATOM     26  O   UNL     1     -37.114 -10.117   9.120  1.00  0.00    -0.508 OA
ATOM     27  H   UNL     1     -37.151  -9.975  10.123  1.00  0.00     0.293 HD
ENDBRANCH   8  26
TORSDOF 6
ENDMDL
