MODEL 1
REMARK VINA RESULT:    -4.589      0.000      0.000
REMARK INTER + INTRA:          -5.809
REMARK INTER:                  -5.662
REMARK INTRA:                  -0.147
REMARK UNBOUND:                -0.147
REMARK SMILES CCCCC=CC(C)=O
REMARK SMILES IDX 4 1 3 2 2 3 1 4 5 5 6 6 7 7 9 8 8 9
REMARK H PARENT
REMARK Flexibility Score: inf
ROOT
ATOM      1  C   UNL     1      16.344  18.696  30.404  1.00  0.00     0.027 C 
ENDROOT
BRANCH   1   2
ATOM      2  C   UNL     1      15.357  19.243  29.365  1.00  0.00     0.004 C 
BRANCH   2   3
ATOM      3  C   UNL     1      15.109  20.740  29.578  1.00  0.00    -0.003 C 
ATOM      4  C   UNL     1      15.352  21.137  31.030  1.00  0.00     0.004 C 
ENDBRANCH   2   3
ENDBRANCH   1   2
BRANCH   1   5
ATOM      5  C   UNL     1      16.462  17.202  30.309  1.00  0.00    -0.023 C 
ATOM      6  C   UNL     1      17.179  16.499  31.192  1.00  0.00     0.042 C 
BRANCH   6   7
ATOM      7  C   UNL     1      17.318  15.034  31.109  1.00  0.00     0.152 C 
ATOM      8  O   UNL     1      16.394  14.273  31.505  1.00  0.00    -0.295 OA
ATOM      9  C   UNL     1      18.571  14.440  30.548  1.00  0.00     0.093 C 
ENDBRANCH   6   7
ENDBRANCH   1   5
TORSDOF 4
ENDMDL
MODEL 2
REMARK VINA RESULT:    -3.684      9.266     10.536
REMARK INTER + INTRA:          -4.693
REMARK INTER:                  -4.478
REMARK INTRA:                  -0.214
REMARK UNBOUND:                -0.147
REMARK SMILES CCCCC=CC(C)=O
REMARK SMILES IDX 4 1 3 2 2 3 1 4 5 5 6 6 7 7 9 8 8 9
REMARK H PARENT
REMARK Flexibility Score: inf
ROOT
ATOM      1  C   UNL     1      21.995  23.275  23.254  1.00  0.00     0.027 C 
ENDROOT
BRANCH   1   2
ATOM      2  C   UNL     1      20.730  22.634  22.671  1.00  0.00     0.004 C 
BRANCH   2   3
ATOM      3  C   UNL     1      21.084  21.463  21.748  1.00  0.00    -0.003 C 
ATOM      4  C   UNL     1      22.596  21.299  21.621  1.00  0.00     0.004 C 
ENDBRANCH   2   3
ENDBRANCH   1   2
BRANCH   1   5
ATOM      5  C   UNL     1      21.694  24.012  24.527  1.00  0.00    -0.023 C 
ATOM      6  C   UNL     1      20.893  23.492  25.464  1.00  0.00     0.042 C 
BRANCH   6   7
ATOM      7  C   UNL     1      20.574  24.205  26.714  1.00  0.00     0.152 C 
ATOM      8  O   UNL     1      19.393  24.564  26.970  1.00  0.00    -0.295 OA
ATOM      9  C   UNL     1      21.663  24.508  27.692  1.00  0.00     0.093 C 
ENDBRANCH   6   7
ENDBRANCH   1   5
TORSDOF 4
ENDMDL
MODEL 3
REMARK VINA RESULT:    -3.607     10.166     11.596
REMARK INTER + INTRA:          -4.597
REMARK INTER:                  -4.375
REMARK INTRA:                  -0.223
REMARK UNBOUND:                -0.147
REMARK SMILES CCCCC=CC(C)=O
REMARK SMILES IDX 4 1 3 2 2 3 1 4 5 5 6 6 7 7 9 8 8 9
REMARK H PARENT
REMARK Flexibility Score: inf
ROOT
ATOM      1  C   UNL     1      21.015  25.480  29.023  1.00  0.00     0.027 C 
ENDROOT
BRANCH   1   2
ATOM      2  C   UNL     1      20.044  25.466  27.836  1.00  0.00     0.004 C 
BRANCH   2   3
ATOM      3  C   UNL     1      18.686  26.056  28.230  1.00  0.00    -0.003 C 
ATOM      4  C   UNL     1      18.464  27.416  27.574  1.00  0.00     0.004 C 
ENDBRANCH   2   3
ENDBRANCH   1   2
BRANCH   1   5
ATOM      5  C   UNL     1      22.387  25.919  28.599  1.00  0.00    -0.023 C 
ATOM      6  C   UNL     1      22.678  27.209  28.396  1.00  0.00     0.042 C 
BRANCH   6   7
ATOM      7  C   UNL     1      24.014  27.659  27.967  1.00  0.00     0.152 C 
ATOM      8  O   UNL     1      24.181  28.211  26.846  1.00  0.00    -0.295 OA
ATOM      9  C   UNL     1      25.188  27.458  28.871  1.00  0.00     0.093 C 
ENDBRANCH   6   7
ENDBRANCH   1   5
TORSDOF 4
ENDMDL
MODEL 4
REMARK VINA RESULT:    -3.599      9.326     10.525
REMARK INTER + INTRA:          -4.587
REMARK INTER:                  -4.488
REMARK INTRA:                  -0.099
REMARK UNBOUND:                -0.147
REMARK SMILES CCCCC=CC(C)=O
REMARK SMILES IDX 4 1 3 2 2 3 1 4 5 5 6 6 7 7 9 8 8 9
REMARK H PARENT
REMARK Flexibility Score: inf
ROOT
ATOM      1  C   UNL     1      20.779  23.695  25.655  1.00  0.00     0.027 C 
ENDROOT
BRANCH   1   2
ATOM      2  C   UNL     1      21.644  24.241  24.513  1.00  0.00     0.004 C 
BRANCH   2   3
ATOM      3  C   UNL     1      21.724  23.238  23.357  1.00  0.00    -0.003 C 
ATOM      4  C   UNL     1      23.173  22.907  23.013  1.00  0.00     0.004 C 
ENDBRANCH   2   3
ENDBRANCH   1   2
BRANCH   1   5
ATOM      5  C   UNL     1      21.138  24.337  26.964  1.00  0.00    -0.023 C 
ATOM      6  C   UNL     1      20.278  25.128  27.615  1.00  0.00     0.042 C 
BRANCH   6   7
ATOM      7  C   UNL     1      20.616  25.778  28.894  1.00  0.00     0.152 C 
ATOM      8  O   UNL     1      21.299  25.174  29.765  1.00  0.00    -0.295 OA
ATOM      9  C   UNL     1      20.143  27.170  29.165  1.00  0.00     0.093 C 
ENDBRANCH   6   7
ENDBRANCH   1   5
TORSDOF 4
ENDMDL
MODEL 5
REMARK VINA RESULT:    -3.566     10.110     11.721
REMARK INTER + INTRA:          -4.547
REMARK INTER:                  -4.337
REMARK INTRA:                  -0.210
REMARK UNBOUND:                -0.147
REMARK SMILES CCCCC=CC(C)=O
REMARK SMILES IDX 4 1 3 2 2 3 1 4 5 5 6 6 7 7 9 8 8 9
REMARK H PARENT
REMARK Flexibility Score: inf
ROOT
ATOM      1  C   UNL     1      21.115  25.168  28.793  1.00  0.00     0.027 C 
ENDROOT
BRANCH   1   2
ATOM      2  C   UNL     1      20.205  25.239  27.560  1.00  0.00     0.004 C 
BRANCH   2   3
ATOM      3  C   UNL     1      20.225  23.917  26.786  1.00  0.00    -0.003 C 
ATOM      4  C   UNL     1      21.203  23.977  25.617  1.00  0.00     0.004 C 
ENDBRANCH   2   3
ENDBRANCH   1   2
BRANCH   1   5
ATOM      5  C   UNL     1      22.392  25.927  28.571  1.00  0.00    -0.023 C 
ATOM      6  C   UNL     1      22.403  27.259  28.451  1.00  0.00     0.042 C 
BRANCH   6   7
ATOM      7  C   UNL     1      23.643  28.021  28.220  1.00  0.00     0.152 C 
ATOM      8  O   UNL     1      24.148  28.100  27.068  1.00  0.00    -0.295 OA
ATOM      9  C   UNL     1      24.315  28.708  29.366  1.00  0.00     0.093 C 
ENDBRANCH   6   7
ENDBRANCH   1   5
TORSDOF 4
ENDMDL
MODEL 6
REMARK VINA RESULT:    -3.519      9.236     10.097
REMARK INTER + INTRA:          -4.489
REMARK INTER:                  -4.337
REMARK INTRA:                  -0.152
REMARK UNBOUND:                -0.147
REMARK SMILES CCCCC=CC(C)=O
REMARK SMILES IDX 4 1 3 2 2 3 1 4 5 5 6 6 7 7 9 8 8 9
REMARK H PARENT
REMARK Flexibility Score: inf
ROOT
ATOM      1  C   UNL     1      19.990  23.871  26.502  1.00  0.00     0.027 C 
ENDROOT
BRANCH   1   2
ATOM      2  C   UNL     1      21.062  24.695  27.226  1.00  0.00     0.004 C 
BRANCH   2   3
ATOM      3  C   UNL     1      20.548  25.198  28.578  1.00  0.00    -0.003 C 
ATOM      4  C   UNL     1      21.648  25.916  29.354  1.00  0.00     0.004 C 
ENDBRANCH   2   3
ENDBRANCH   1   2
BRANCH   1   5
ATOM      5  C   UNL     1      20.537  23.243  25.253  1.00  0.00    -0.023 C 
ATOM      6  C   UNL     1      21.600  23.754  24.620  1.00  0.00     0.042 C 
BRANCH   6   7
ATOM      7  C   UNL     1      22.144  23.161  23.386  1.00  0.00     0.152 C 
ATOM      8  O   UNL     1      23.374  23.239  23.120  1.00  0.00    -0.295 OA
ATOM      9  C   UNL     1      21.228  22.458  22.436  1.00  0.00     0.093 C 
ENDBRANCH   6   7
ENDBRANCH   1   5
TORSDOF 4
ENDMDL
MODEL 7
REMARK VINA RESULT:    -3.485      8.166      9.113
REMARK INTER + INTRA:          -4.447
REMARK INTER:                  -4.164
REMARK INTRA:                  -0.283
REMARK UNBOUND:                -0.147
REMARK SMILES CCCCC=CC(C)=O
REMARK SMILES IDX 4 1 3 2 2 3 1 4 5 5 6 6 7 7 9 8 8 9
REMARK H PARENT
REMARK Flexibility Score: inf
ROOT
ATOM      1  C   UNL     1      17.508  26.773  27.919  1.00  0.00     0.027 C 
ENDROOT
BRANCH   1   2
ATOM      2  C   UNL     1      16.721  25.565  28.442  1.00  0.00     0.004 C 
BRANCH   2   3
ATOM      3  C   UNL     1      15.652  25.129  27.435  1.00  0.00    -0.003 C 
ATOM      4  C   UNL     1      16.017  23.798  26.785  1.00  0.00     0.004 C 
ENDBRANCH   2   3
ENDBRANCH   1   2
BRANCH   1   5
ATOM      5  C   UNL     1      18.912  26.390  27.551  1.00  0.00    -0.023 C 
ATOM      6  C   UNL     1      19.372  25.148  27.742  1.00  0.00     0.042 C 
BRANCH   6   7
ATOM      7  C   UNL     1      20.751  24.755  27.401  1.00  0.00     0.152 C 
ATOM      8  O   UNL     1      21.704  24.986  28.193  1.00  0.00    -0.295 OA
ATOM      9  C   UNL     1      21.025  24.075  26.098  1.00  0.00     0.093 C 
ENDBRANCH   6   7
ENDBRANCH   1   5
TORSDOF 4
ENDMDL
MODEL 8
REMARK VINA RESULT:    -3.420     11.219     13.431
REMARK INTER + INTRA:          -4.367
REMARK INTER:                  -4.117
REMARK INTRA:                  -0.250
REMARK UNBOUND:                -0.147
REMARK SMILES CCCCC=CC(C)=O
REMARK SMILES IDX 4 1 3 2 2 3 1 4 5 5 6 6 7 7 9 8 8 9
REMARK H PARENT
REMARK Flexibility Score: inf
ROOT
ATOM      1  C   UNL     1      18.472  31.986  29.861  1.00  0.00     0.027 C 
ENDROOT
BRANCH   1   2
ATOM      2  C   UNL     1      17.737  32.865  28.841  1.00  0.00     0.004 C 
BRANCH   2   3
ATOM      3  C   UNL     1      16.336  33.232  29.340  1.00  0.00    -0.003 C 
ATOM      4  C   UNL     1      15.722  32.090  30.145  1.00  0.00     0.004 C 
ENDBRANCH   2   3
ENDBRANCH   1   2
BRANCH   1   5
ATOM      5  C   UNL     1      19.154  30.829  29.190  1.00  0.00    -0.023 C 
ATOM      6  C   UNL     1      18.520  29.671  28.975  1.00  0.00     0.042 C 
BRANCH   6   7
ATOM      7  C   UNL     1      19.175  28.519  28.330  1.00  0.00     0.152 C 
ATOM      8  O   UNL     1      20.410  28.311  28.480  1.00  0.00    -0.295 OA
ATOM      9  C   UNL     1      18.369  27.586  27.486  1.00  0.00     0.093 C 
ENDBRANCH   6   7
ENDBRANCH   1   5
TORSDOF 4
ENDMDL
MODEL 9
REMARK VINA RESULT:    -3.265      9.689     11.201
REMARK INTER + INTRA:          -4.175
REMARK INTER:                  -3.940
REMARK INTRA:                  -0.235
REMARK UNBOUND:                -0.147
REMARK SMILES CCCCC=CC(C)=O
REMARK SMILES IDX 4 1 3 2 2 3 1 4 5 5 6 6 7 7 9 8 8 9
REMARK H PARENT
REMARK Flexibility Score: inf
ROOT
ATOM      1  C   UNL     1      21.902  27.725  29.654  1.00  0.00     0.027 C 
ENDROOT
BRANCH   1   2
ATOM      2  C   UNL     1      22.802  28.769  28.980  1.00  0.00     0.004 C 
BRANCH   2   3
ATOM      3  C   UNL     1      23.769  28.105  27.995  1.00  0.00    -0.003 C 
ATOM      4  C   UNL     1      24.919  27.420  28.728  1.00  0.00     0.004 C 
ENDBRANCH   2   3
ENDBRANCH   1   2
BRANCH   1   5
ATOM      5  C   UNL     1      21.027  27.032  28.650  1.00  0.00    -0.023 C 
ATOM      6  C   UNL     1      21.019  25.699  28.530  1.00  0.00     0.042 C 
BRANCH   6   7
ATOM      7  C   UNL     1      20.178  25.001  27.542  1.00  0.00     0.152 C 
ATOM      8  O   UNL     1      18.931  25.185  27.510  1.00  0.00    -0.295 OA
ATOM      9  C   UNL     1      20.808  24.059  26.567  1.00  0.00     0.093 C 
ENDBRANCH   6   7
ENDBRANCH   1   5
TORSDOF 4
ENDMDL
