MODEL 1
REMARK VINA RESULT:    -0.566      0.000      0.000
REMARK INTER + INTRA:          -2.230
REMARK INTER:                  -1.295
REMARK INTRA:                  -0.935
REMARK UNBOUND:                -0.935
REMARK SMILES CCCCCCCCCCCCCCCCCCCCCCCC(=O)[O-]
REMARK SMILES IDX 13 1 14 2 15 3 16 4 17 5 18 6 19 7 20 8 21 9 22 10 23 11
REMARK SMILES IDX 24 12 25 13 26 14 12 15 11 16 10 17 9 18 8 19 7 20 6 21 5 22
REMARK SMILES IDX 4 23 3 24 2 25 1 26
REMARK H PARENT
REMARK Flexibility Score: inf
ROOT
ATOM      1  C   UNL     1     -11.458  36.239  -3.407  1.00  0.00     0.000 C 
ENDROOT
BRANCH   1   2
ATOM      2  C   UNL     1     -11.743  36.205  -1.892  1.00  0.00     0.000 C 
BRANCH   2   3
ATOM      3  C   UNL     1     -10.519  36.456  -0.990  1.00  0.00     0.000 C 
BRANCH   3   4
ATOM      4  C   UNL     1      -9.422  37.340  -1.612  1.00  0.00     0.000 C 
BRANCH   4   5
ATOM      5  C   UNL     1      -8.423  37.937  -0.602  1.00  0.00     0.000 C 
BRANCH   5   6
ATOM      6  C   UNL     1      -6.949  37.833  -1.053  1.00  0.00     0.000 C 
BRANCH   6   7
ATOM      7  C   UNL     1      -5.966  37.981   0.120  1.00  0.00     0.000 C 
BRANCH   7   8
ATOM      8  C   UNL     1      -6.140  36.889   1.192  1.00  0.00     0.000 C 
BRANCH   8   9
ATOM      9  C   UNL     1      -4.972  35.891   1.296  1.00  0.00     0.000 C 
BRANCH   9  10
ATOM     10  C   UNL     1      -5.206  34.608   0.480  1.00  0.00     0.006 C 
BRANCH  10  11
ATOM     11  C   UNL     1      -5.760  33.467   1.344  1.00  0.00     0.053 C 
BRANCH  11  12
ATOM     12  C   UNL     1      -7.199  33.187   1.037  1.00  0.00     0.041 C 
ATOM     13  O   UNL     1      -7.728  32.106   1.408  1.00  0.00    -0.550 OA
ATOM     14  O   UNL     1      -7.964  34.134   0.367  1.00  0.00    -0.550 OA
ENDBRANCH  11  12
ENDBRANCH  10  11
ENDBRANCH   9  10
ENDBRANCH   8   9
ENDBRANCH   7   8
ENDBRANCH   6   7
ENDBRANCH   5   6
ENDBRANCH   4   5
ENDBRANCH   3   4
ENDBRANCH   2   3
ENDBRANCH   1   2
BRANCH   1  15
ATOM     15  C   UNL     1     -12.690  36.036  -4.309  1.00  0.00     0.000 C 
BRANCH  15  16
ATOM     16  C   UNL     1     -12.389  35.968  -5.820  1.00  0.00     0.000 C 
BRANCH  16  17
ATOM     17  C   UNL     1     -13.597  36.240  -6.737  1.00  0.00     0.000 C 
BRANCH  17  18
ATOM     18  C   UNL     1     -13.833  35.181  -7.830  1.00  0.00    -0.000 C 
BRANCH  18  19
ATOM     19  C   UNL     1     -13.041  35.439  -9.129  1.00  0.00    -0.000 C 
BRANCH  19  20
ATOM     20  C   UNL     1     -13.855  35.113 -10.394  1.00  0.00    -0.000 C 
BRANCH  20  21
ATOM     21  C   UNL     1     -15.081  34.226 -10.088  1.00  0.00    -0.000 C 
BRANCH  21  22
ATOM     22  C   UNL     1     -15.354  33.154 -11.162  1.00  0.00    -0.000 C 
BRANCH  22  23
ATOM     23  C   UNL     1     -16.253  33.616 -12.320  1.00  0.00    -0.000 C 
BRANCH  23  24
ATOM     24  C   UNL     1     -17.734  33.710 -11.923  1.00  0.00    -0.000 C 
BRANCH  24  25
ATOM     25  C   UNL     1     -18.014  32.893 -10.656  1.00  0.00    -0.003 C 
ATOM     26  C   UNL     1     -18.588  33.771  -9.548  1.00  0.00     0.004 C 
ENDBRANCH  24  25
ENDBRANCH  23  24
ENDBRANCH  22  23
ENDBRANCH  21  22
ENDBRANCH  20  21
ENDBRANCH  19  20
ENDBRANCH  18  19
ENDBRANCH  17  18
ENDBRANCH  16  17
ENDBRANCH  15  16
ENDBRANCH   1  15
TORSDOF 22
ENDMDL
MODEL 2
REMARK VINA RESULT:     0.116      1.252      2.499
REMARK INTER + INTRA:          -0.670
REMARK INTER:                   0.320
REMARK INTRA:                  -0.990
REMARK UNBOUND:                -0.935
REMARK SMILES CCCCCCCCCCCCCCCCCCCCCCCC(=O)[O-]
REMARK SMILES IDX 13 1 14 2 15 3 16 4 17 5 18 6 19 7 20 8 21 9 22 10 23 11
REMARK SMILES IDX 24 12 25 13 26 14 12 15 11 16 10 17 9 18 8 19 7 20 6 21 5 22
REMARK SMILES IDX 4 23 3 24 2 25 1 26
REMARK H PARENT
REMARK Flexibility Score: inf
ROOT
ATOM      1  C   UNL     1     -10.520  36.287  -1.237  1.00  0.00     0.000 C 
ENDROOT
BRANCH   1   2
ATOM      2  C   UNL     1      -9.480  37.386  -1.532  1.00  0.00     0.000 C 
BRANCH   2   3
ATOM      3  C   UNL     1      -8.327  37.485  -0.513  1.00  0.00     0.000 C 
BRANCH   3   4
ATOM      4  C   UNL     1      -7.005  38.038  -1.077  1.00  0.00     0.000 C 
BRANCH   4   5
ATOM      5  C   UNL     1      -5.734  37.488  -0.404  1.00  0.00     0.000 C 
BRANCH   5   6
ATOM      6  C   UNL     1      -5.882  37.273   1.118  1.00  0.00     0.000 C 
BRANCH   6   7
ATOM      7  C   UNL     1      -5.071  36.066   1.621  1.00  0.00     0.000 C 
BRANCH   7   8
ATOM      8  C   UNL     1      -5.933  34.806   1.826  1.00  0.00     0.000 C 
BRANCH   8   9
ATOM      9  C   UNL     1      -6.573  34.244   0.543  1.00  0.00     0.000 C 
BRANCH   9  10
ATOM     10  C   UNL     1      -7.528  33.068   0.815  1.00  0.00     0.006 C 
BRANCH  10  11
ATOM     11  C   UNL     1      -6.956  32.086   1.845  1.00  0.00     0.053 C 
BRANCH  11  12
ATOM     12  C   UNL     1      -7.402  30.681   1.577  1.00  0.00     0.041 C 
ATOM     13  O   UNL     1      -7.712  30.325   0.410  1.00  0.00    -0.550 OA
ATOM     14  O   UNL     1      -7.447  29.756   2.614  1.00  0.00    -0.550 OA
ENDBRANCH  11  12
ENDBRANCH  10  11
ENDBRANCH   9  10
ENDBRANCH   8   9
ENDBRANCH   7   8
ENDBRANCH   6   7
ENDBRANCH   5   6
ENDBRANCH   4   5
ENDBRANCH   3   4
ENDBRANCH   2   3
ENDBRANCH   1   2
BRANCH   1  15
ATOM     15  C   UNL     1     -11.809  36.364  -2.077  1.00  0.00     0.000 C 
BRANCH  15  16
ATOM     16  C   UNL     1     -11.601  36.258  -3.602  1.00  0.00     0.000 C 
BRANCH  16  17
ATOM     17  C   UNL     1     -12.895  36.280  -4.438  1.00  0.00     0.000 C 
BRANCH  17  18
ATOM     18  C   UNL     1     -12.807  35.549  -5.791  1.00  0.00    -0.000 C 
BRANCH  18  19
ATOM     19  C   UNL     1     -13.181  36.432  -7.001  1.00  0.00    -0.000 C 
BRANCH  19  20
ATOM     20  C   UNL     1     -13.262  35.633  -8.314  1.00  0.00    -0.000 C 
BRANCH  20  21
ATOM     21  C   UNL     1     -14.623  34.922  -8.482  1.00  0.00    -0.000 C 
BRANCH  21  22
ATOM     22  C   UNL     1     -14.699  34.015  -9.726  1.00  0.00    -0.000 C 
BRANCH  22  23
ATOM     23  C   UNL     1     -16.124  33.700 -10.210  1.00  0.00    -0.000 C 
BRANCH  23  24
ATOM     24  C   UNL     1     -16.270  33.803 -11.736  1.00  0.00    -0.000 C 
BRANCH  24  25
ATOM     25  C   UNL     1     -17.586  33.173 -12.204  1.00  0.00    -0.003 C 
ATOM     26  C   UNL     1     -18.518  34.222 -12.804  1.00  0.00     0.004 C 
ENDBRANCH  24  25
ENDBRANCH  23  24
ENDBRANCH  22  23
ENDBRANCH  21  22
ENDBRANCH  20  21
ENDBRANCH  19  20
ENDBRANCH  18  19
ENDBRANCH  17  18
ENDBRANCH  16  17
ENDBRANCH  15  16
ENDBRANCH   1  15
TORSDOF 22
ENDMDL
MODEL 3
REMARK VINA RESULT:     0.150      0.848      1.761
REMARK INTER + INTRA:          -0.593
REMARK INTER:                   0.233
REMARK INTRA:                  -0.825
REMARK UNBOUND:                -0.935
REMARK SMILES CCCCCCCCCCCCCCCCCCCCCCCC(=O)[O-]
REMARK SMILES IDX 13 1 14 2 15 3 16 4 17 5 18 6 19 7 20 8 21 9 22 10 23 11
REMARK SMILES IDX 24 12 25 13 26 14 12 15 11 16 10 17 9 18 8 19 7 20 6 21 5 22
REMARK SMILES IDX 4 23 3 24 2 25 1 26
REMARK H PARENT
REMARK Flexibility Score: inf
ROOT
ATOM      1  C   UNL     1     -11.434  36.266  -1.781  1.00  0.00     0.000 C 
ENDROOT
BRANCH   1   2
ATOM      2  C   UNL     1     -10.614  37.445  -1.220  1.00  0.00     0.000 C 
BRANCH   2   3
ATOM      3  C   UNL     1      -9.118  37.435  -1.590  1.00  0.00     0.000 C 
BRANCH   3   4
ATOM      4  C   UNL     1      -8.188  38.108  -0.562  1.00  0.00     0.000 C 
BRANCH   4   5
ATOM      5  C   UNL     1      -6.921  37.305  -0.213  1.00  0.00     0.000 C 
BRANCH   5   6
ATOM      6  C   UNL     1      -5.607  38.022  -0.595  1.00  0.00     0.000 C 
BRANCH   6   7
ATOM      7  C   UNL     1      -4.379  37.106  -0.460  1.00  0.00     0.000 C 
BRANCH   7   8
ATOM      8  C   UNL     1      -4.134  36.640   0.987  1.00  0.00     0.000 C 
BRANCH   8   9
ATOM      9  C   UNL     1      -4.255  35.120   1.208  1.00  0.00     0.000 C 
BRANCH   9  10
ATOM     10  C   UNL     1      -5.711  34.655   1.383  1.00  0.00     0.006 C 
BRANCH  10  11
ATOM     11  C   UNL     1      -5.829  33.126   1.415  1.00  0.00     0.053 C 
BRANCH  11  12
ATOM     12  C   UNL     1      -7.244  32.674   1.224  1.00  0.00     0.041 C 
ATOM     13  O   UNL     1      -8.180  33.516   1.200  1.00  0.00    -0.550 OA
ATOM     14  O   UNL     1      -7.527  31.325   1.044  1.00  0.00    -0.550 OA
ENDBRANCH  11  12
ENDBRANCH  10  11
ENDBRANCH   9  10
ENDBRANCH   8   9
ENDBRANCH   7   8
ENDBRANCH   6   7
ENDBRANCH   5   6
ENDBRANCH   4   5
ENDBRANCH   3   4
ENDBRANCH   2   3
ENDBRANCH   1   2
BRANCH   1  15
ATOM     15  C   UNL     1     -11.288  36.031  -3.297  1.00  0.00     0.000 C 
BRANCH  15  16
ATOM     16  C   UNL     1     -12.553  36.326  -4.128  1.00  0.00     0.000 C 
BRANCH  16  17
ATOM     17  C   UNL     1     -12.555  35.724  -5.546  1.00  0.00     0.000 C 
BRANCH  17  18
ATOM     18  C   UNL     1     -13.632  36.290  -6.491  1.00  0.00    -0.000 C 
BRANCH  18  19
ATOM     19  C   UNL     1     -13.974  35.360  -7.674  1.00  0.00    -0.000 C 
BRANCH  19  20
ATOM     20  C   UNL     1     -13.038  35.566  -8.878  1.00  0.00    -0.000 C 
BRANCH  20  21
ATOM     21  C   UNL     1     -13.704  35.164 -10.212  1.00  0.00    -0.000 C 
BRANCH  21  22
ATOM     22  C   UNL     1     -15.008  34.361 -10.037  1.00  0.00    -0.000 C 
BRANCH  22  23
ATOM     23  C   UNL     1     -15.178  33.186 -11.013  1.00  0.00    -0.000 C 
BRANCH  23  24
ATOM     24  C   UNL     1     -16.115  33.517 -12.185  1.00  0.00    -0.000 C 
BRANCH  24  25
ATOM     25  C   UNL     1     -17.579  33.524 -11.731  1.00  0.00    -0.003 C 
ATOM     26  C   UNL     1     -18.508  33.940 -12.867  1.00  0.00     0.004 C 
ENDBRANCH  24  25
ENDBRANCH  23  24
ENDBRANCH  22  23
ENDBRANCH  21  22
ENDBRANCH  20  21
ENDBRANCH  19  20
ENDBRANCH  18  19
ENDBRANCH  17  18
ENDBRANCH  16  17
ENDBRANCH  15  16
ENDBRANCH   1  15
TORSDOF 22
ENDMDL
MODEL 4
REMARK VINA RESULT:     0.195      0.758      1.426
REMARK INTER + INTRA:          -0.488
REMARK INTER:                   0.625
REMARK INTRA:                  -1.113
REMARK UNBOUND:                -0.935
REMARK SMILES CCCCCCCCCCCCCCCCCCCCCCCC(=O)[O-]
REMARK SMILES IDX 13 1 14 2 15 3 16 4 17 5 18 6 19 7 20 8 21 9 22 10 23 11
REMARK SMILES IDX 24 12 25 13 26 14 12 15 11 16 10 17 9 18 8 19 7 20 6 21 5 22
REMARK SMILES IDX 4 23 3 24 2 25 1 26
REMARK H PARENT
REMARK Flexibility Score: inf
ROOT
ATOM      1  C   UNL     1     -12.453  35.806  -3.990  1.00  0.00     0.000 C 
ENDROOT
BRANCH   1   2
ATOM      2  C   UNL     1     -11.391  36.591  -3.194  1.00  0.00     0.000 C 
BRANCH   2   3
ATOM      3  C   UNL     1     -11.334  36.270  -1.687  1.00  0.00     0.000 C 
BRANCH   3   4
ATOM      4  C   UNL     1      -9.931  36.347  -1.057  1.00  0.00     0.000 C 
BRANCH   4   5
ATOM      5  C   UNL     1      -9.191  37.678  -1.287  1.00  0.00     0.000 C 
BRANCH   5   6
ATOM      6  C   UNL     1      -8.094  37.966  -0.238  1.00  0.00     0.000 C 
BRANCH   6   7
ATOM      7  C   UNL     1      -6.681  37.679  -0.774  1.00  0.00     0.000 C 
BRANCH   7   8
ATOM      8  C   UNL     1      -5.754  37.049   0.282  1.00  0.00     0.000 C 
BRANCH   8   9
ATOM      9  C   UNL     1      -5.241  35.639  -0.064  1.00  0.00     0.000 C 
BRANCH   9  10
ATOM     10  C   UNL     1      -5.275  34.677   1.136  1.00  0.00     0.006 C 
BRANCH  10  11
ATOM     11  C   UNL     1      -6.676  34.573   1.753  1.00  0.00     0.053 C 
BRANCH  11  12
ATOM     12  C   UNL     1      -7.518  33.555   1.048  1.00  0.00     0.041 C 
ATOM     13  O   UNL     1      -8.247  33.895   0.080  1.00  0.00    -0.550 OA
ATOM     14  O   UNL     1      -7.475  32.223   1.443  1.00  0.00    -0.550 OA
ENDBRANCH  11  12
ENDBRANCH  10  11
ENDBRANCH   9  10
ENDBRANCH   8   9
ENDBRANCH   7   8
ENDBRANCH   6   7
ENDBRANCH   5   6
ENDBRANCH   4   5
ENDBRANCH   3   4
ENDBRANCH   2   3
ENDBRANCH   1   2
BRANCH   1  15
ATOM     15  C   UNL     1     -12.275  35.835  -5.520  1.00  0.00     0.000 C 
BRANCH  15  16
ATOM     16  C   UNL     1     -13.545  36.196  -6.318  1.00  0.00     0.000 C 
BRANCH  16  17
ATOM     17  C   UNL     1     -13.415  36.055  -7.846  1.00  0.00     0.000 C 
BRANCH  17  18
ATOM     18  C   UNL     1     -14.054  34.784  -8.438  1.00  0.00    -0.000 C 
BRANCH  18  19
ATOM     19  C   UNL     1     -14.116  34.779  -9.980  1.00  0.00    -0.000 C 
BRANCH  19  20
ATOM     20  C   UNL     1     -15.197  33.829 -10.526  1.00  0.00    -0.000 C 
BRANCH  20  21
ATOM     21  C   UNL     1     -15.068  33.608 -12.048  1.00  0.00    -0.000 C 
BRANCH  21  22
ATOM     22  C   UNL     1     -16.403  33.277 -12.743  1.00  0.00    -0.000 C 
BRANCH  22  23
ATOM     23  C   UNL     1     -17.579  33.012 -11.788  1.00  0.00    -0.000 C 
BRANCH  23  24
ATOM     24  C   UNL     1     -18.530  34.213 -11.669  1.00  0.00    -0.000 C 
BRANCH  24  25
ATOM     25  C   UNL     1     -18.913  34.466 -10.207  1.00  0.00    -0.003 C 
ATOM     26  C   UNL     1     -18.588  33.258  -9.333  1.00  0.00     0.004 C 
ENDBRANCH  24  25
ENDBRANCH  23  24
ENDBRANCH  22  23
ENDBRANCH  21  22
ENDBRANCH  20  21
ENDBRANCH  19  20
ENDBRANCH  18  19
ENDBRANCH  17  18
ENDBRANCH  16  17
ENDBRANCH  15  16
ENDBRANCH   1  15
TORSDOF 22
ENDMDL
MODEL 5
REMARK VINA RESULT:     0.266      1.298      3.369
REMARK INTER + INTRA:          -0.326
REMARK INTER:                   0.517
REMARK INTRA:                  -0.843
REMARK UNBOUND:                -0.935
REMARK SMILES CCCCCCCCCCCCCCCCCCCCCCCC(=O)[O-]
REMARK SMILES IDX 13 1 14 2 15 3 16 4 17 5 18 6 19 7 20 8 21 9 22 10 23 11
REMARK SMILES IDX 24 12 25 13 26 14 12 15 11 16 10 17 9 18 8 19 7 20 6 21 5 22
REMARK SMILES IDX 4 23 3 24 2 25 1 26
REMARK H PARENT
REMARK Flexibility Score: inf
ROOT
ATOM      1  C   UNL     1      -9.477  37.774  -1.341  1.00  0.00     0.000 C 
ENDROOT
BRANCH   1   2
ATOM      2  C   UNL     1      -7.941  37.705  -1.239  1.00  0.00     0.000 C 
BRANCH   2   3
ATOM      3  C   UNL     1      -7.368  37.945   0.172  1.00  0.00     0.000 C 
BRANCH   3   4
ATOM      4  C   UNL     1      -5.870  37.624   0.331  1.00  0.00     0.000 C 
BRANCH   4   5
ATOM      5  C   UNL     1      -5.371  36.433  -0.509  1.00  0.00     0.000 C 
BRANCH   5   6
ATOM      6  C   UNL     1      -4.127  35.734   0.083  1.00  0.00     0.000 C 
BRANCH   6   7
ATOM      7  C   UNL     1      -4.467  34.380   0.729  1.00  0.00     0.000 C 
BRANCH   7   8
ATOM      8  C   UNL     1      -5.753  34.424   1.576  1.00  0.00     0.000 C 
BRANCH   8   9
ATOM      9  C   UNL     1      -7.045  34.084   0.810  1.00  0.00     0.000 C 
BRANCH   9  10
ATOM     10  C   UNL     1      -7.247  32.571   0.619  1.00  0.00     0.006 C 
BRANCH  10  11
ATOM     11  C   UNL     1      -7.348  31.828   1.957  1.00  0.00     0.053 C 
BRANCH  11  12
ATOM     12  C   UNL     1      -7.498  30.350   1.761  1.00  0.00     0.041 C 
ATOM     13  O   UNL     1      -7.438  29.570   2.747  1.00  0.00    -0.550 OA
ATOM     14  O   UNL     1      -7.734  29.837   0.491  1.00  0.00    -0.550 OA
ENDBRANCH  11  12
ENDBRANCH  10  11
ENDBRANCH   9  10
ENDBRANCH   8   9
ENDBRANCH   7   8
ENDBRANCH   6   7
ENDBRANCH   5   6
ENDBRANCH   4   5
ENDBRANCH   3   4
ENDBRANCH   2   3
ENDBRANCH   1   2
BRANCH   1  15
ATOM     15  C   UNL     1     -10.209  36.440  -1.102  1.00  0.00     0.000 C 
BRANCH  15  16
ATOM     16  C   UNL     1     -11.511  36.255  -1.907  1.00  0.00     0.000 C 
BRANCH  16  17
ATOM     17  C   UNL     1     -11.342  36.307  -3.438  1.00  0.00     0.000 C 
BRANCH  17  18
ATOM     18  C   UNL     1     -12.606  35.953  -4.244  1.00  0.00    -0.000 C 
BRANCH  18  19
ATOM     19  C   UNL     1     -12.410  36.021  -5.773  1.00  0.00    -0.000 C 
BRANCH  19  20
ATOM     20  C   UNL     1     -13.663  35.583  -6.551  1.00  0.00    -0.000 C 
BRANCH  20  21
ATOM     21  C   UNL     1     -13.632  36.052  -8.022  1.00  0.00    -0.000 C 
BRANCH  21  22
ATOM     22  C   UNL     1     -13.675  34.897  -9.042  1.00  0.00    -0.000 C 
BRANCH  22  23
ATOM     23  C   UNL     1     -15.087  34.408  -9.404  1.00  0.00    -0.000 C 
BRANCH  23  24
ATOM     24  C   UNL     1     -15.157  33.777 -10.803  1.00  0.00    -0.000 C 
BRANCH  24  25
ATOM     25  C   UNL     1     -16.600  33.409 -11.166  1.00  0.00    -0.003 C 
ATOM     26  C   UNL     1     -17.570  33.818 -10.062  1.00  0.00     0.004 C 
ENDBRANCH  24  25
ENDBRANCH  23  24
ENDBRANCH  22  23
ENDBRANCH  21  22
ENDBRANCH  20  21
ENDBRANCH  19  20
ENDBRANCH  18  19
ENDBRANCH  17  18
ENDBRANCH  16  17
ENDBRANCH  15  16
ENDBRANCH   1  15
TORSDOF 22
ENDMDL
MODEL 6
REMARK VINA RESULT:     0.781      4.276     13.112
REMARK INTER + INTRA:           0.851
REMARK INTER:                   1.583
REMARK INTRA:                  -0.732
REMARK UNBOUND:                -0.935
REMARK SMILES CCCCCCCCCCCCCCCCCCCCCCCC(=O)[O-]
REMARK SMILES IDX 13 1 14 2 15 3 16 4 17 5 18 6 19 7 20 8 21 9 22 10 23 11
REMARK SMILES IDX 24 12 25 13 26 14 12 15 11 16 10 17 9 18 8 19 7 20 6 21 5 22
REMARK SMILES IDX 4 23 3 24 2 25 1 26
REMARK H PARENT
REMARK Flexibility Score: inf
ROOT
ATOM      1  C   UNL     1     -12.081  36.347  -4.172  1.00  0.00     0.000 C 
ENDROOT
BRANCH   1   2
ATOM      2  C   UNL     1     -12.657  35.448  -5.285  1.00  0.00     0.000 C 
BRANCH   2   3
ATOM      3  C   UNL     1     -13.211  36.200  -6.511  1.00  0.00     0.000 C 
BRANCH   3   4
ATOM      4  C   UNL     1     -14.486  35.593  -7.126  1.00  0.00     0.000 C 
BRANCH   4   5
ATOM      5  C   UNL     1     -14.240  34.587  -8.266  1.00  0.00     0.000 C 
BRANCH   5   6
ATOM      6  C   UNL     1     -13.457  35.181  -9.458  1.00  0.00     0.000 C 
BRANCH   6   7
ATOM      7  C   UNL     1     -14.060  34.778 -10.814  1.00  0.00     0.000 C 
BRANCH   7   8
ATOM      8  C   UNL     1     -15.312  33.892 -10.675  1.00  0.00     0.000 C 
BRANCH   8   9
ATOM      9  C   UNL     1     -15.817  33.273 -11.992  1.00  0.00     0.000 C 
BRANCH   9  10
ATOM     10  C   UNL     1     -17.352  33.211 -12.076  1.00  0.00     0.006 C 
BRANCH  10  11
ATOM     11  C   UNL     1     -18.019  34.352 -11.297  1.00  0.00     0.053 C 
BRANCH  11  12
ATOM     12  C   UNL     1     -18.667  33.860 -10.040  1.00  0.00     0.041 C 
ATOM     13  O   UNL     1     -19.305  34.656  -9.302  1.00  0.00    -0.550 OA
ATOM     14  O   UNL     1     -18.591  32.515  -9.698  1.00  0.00    -0.550 OA
ENDBRANCH  11  12
ENDBRANCH  10  11
ENDBRANCH   9  10
ENDBRANCH   8   9
ENDBRANCH   7   8
ENDBRANCH   6   7
ENDBRANCH   5   6
ENDBRANCH   4   5
ENDBRANCH   3   4
ENDBRANCH   2   3
ENDBRANCH   1   2
BRANCH   1  15
ATOM     15  C   UNL     1     -12.461  35.934  -2.737  1.00  0.00     0.000 C 
BRANCH  15  16
ATOM     16  C   UNL     1     -11.451  36.353  -1.649  1.00  0.00     0.000 C 
BRANCH  16  17
ATOM     17  C   UNL     1     -10.123  36.925  -2.179  1.00  0.00     0.000 C 
BRANCH  17  18
ATOM     18  C   UNL     1      -9.332  37.777  -1.168  1.00  0.00    -0.000 C 
BRANCH  18  19
ATOM     19  C   UNL     1      -7.803  37.728  -1.372  1.00  0.00    -0.000 C 
BRANCH  19  20
ATOM     20  C   UNL     1      -7.039  37.462  -0.063  1.00  0.00    -0.000 C 
BRANCH  20  21
ATOM     21  C   UNL     1      -5.522  37.295  -0.295  1.00  0.00    -0.000 C 
BRANCH  21  22
ATOM     22  C   UNL     1      -4.679  37.434   0.988  1.00  0.00    -0.000 C 
BRANCH  22  23
ATOM     23  C   UNL     1      -4.497  36.131   1.784  1.00  0.00    -0.000 C 
BRANCH  23  24
ATOM     24  C   UNL     1      -5.810  35.353   1.959  1.00  0.00    -0.000 C 
BRANCH  24  25
ATOM     25  C   UNL     1      -5.838  34.114   1.056  1.00  0.00    -0.003 C 
ATOM     26  C   UNL     1      -7.252  33.557   0.927  1.00  0.00     0.004 C 
ENDBRANCH  24  25
ENDBRANCH  23  24
ENDBRANCH  22  23
ENDBRANCH  21  22
ENDBRANCH  20  21
ENDBRANCH  19  20
ENDBRANCH  18  19
ENDBRANCH  17  18
ENDBRANCH  16  17
ENDBRANCH  15  16
ENDBRANCH   1  15
TORSDOF 22
ENDMDL
MODEL 7
REMARK VINA RESULT:     0.827      4.555     13.396
REMARK INTER + INTRA:           0.957
REMARK INTER:                   1.936
REMARK INTRA:                  -0.979
REMARK UNBOUND:                -0.935
REMARK SMILES CCCCCCCCCCCCCCCCCCCCCCCC(=O)[O-]
REMARK SMILES IDX 13 1 14 2 15 3 16 4 17 5 18 6 19 7 20 8 21 9 22 10 23 11
REMARK SMILES IDX 24 12 25 13 26 14 12 15 11 16 10 17 9 18 8 19 7 20 6 21 5 22
REMARK SMILES IDX 4 23 3 24 2 25 1 26
REMARK H PARENT
REMARK Flexibility Score: inf
ROOT
ATOM      1  C   UNL     1     -13.018  36.252  -6.184  1.00  0.00     0.000 C 
ENDROOT
BRANCH   1   2
ATOM      2  C   UNL     1     -14.095  35.423  -6.911  1.00  0.00     0.000 C 
BRANCH   2   3
ATOM      3  C   UNL     1     -13.897  35.288  -8.434  1.00  0.00     0.000 C 
BRANCH   3   4
ATOM      4  C   UNL     1     -14.866  34.315  -9.133  1.00  0.00     0.000 C 
BRANCH   4   5
ATOM      5  C   UNL     1     -14.787  34.316 -10.671  1.00  0.00     0.000 C 
BRANCH   5   6
ATOM      6  C   UNL     1     -15.629  33.205 -11.336  1.00  0.00     0.000 C 
BRANCH   6   7
ATOM      7  C   UNL     1     -16.720  33.771 -12.261  1.00  0.00     0.000 C 
BRANCH   7   8
ATOM      8  C   UNL     1     -18.103  33.839 -11.588  1.00  0.00     0.000 C 
BRANCH   8   9
ATOM      9  C   UNL     1     -18.155  33.273 -10.157  1.00  0.00     0.000 C 
BRANCH   9  10
ATOM     10  C   UNL     1     -18.989  34.142  -9.199  1.00  0.00     0.006 C 
BRANCH  10  11
ATOM     11  C   UNL     1     -19.924  33.301  -8.322  1.00  0.00     0.053 C 
BRANCH  11  12
ATOM     12  C   UNL     1     -21.087  34.104  -7.823  1.00  0.00     0.041 C 
ATOM     13  O   UNL     1     -21.115  35.351  -7.990  1.00  0.00    -0.550 OA
ATOM     14  O   UNL     1     -22.154  33.469  -7.198  1.00  0.00    -0.550 OA
ENDBRANCH  11  12
ENDBRANCH  10  11
ENDBRANCH   9  10
ENDBRANCH   8   9
ENDBRANCH   7   8
ENDBRANCH   6   7
ENDBRANCH   5   6
ENDBRANCH   4   5
ENDBRANCH   3   4
ENDBRANCH   2   3
ENDBRANCH   1   2
BRANCH   1  15
ATOM     15  C   UNL     1     -12.288  35.518  -5.043  1.00  0.00     0.000 C 
BRANCH  15  16
ATOM     16  C   UNL     1     -12.239  36.280  -3.702  1.00  0.00     0.000 C 
BRANCH  16  17
ATOM     17  C   UNL     1     -10.832  36.430  -3.091  1.00  0.00     0.000 C 
BRANCH  17  18
ATOM     18  C   UNL     1     -10.808  36.683  -1.572  1.00  0.00    -0.000 C 
BRANCH  18  19
ATOM     19  C   UNL     1      -9.870  37.833  -1.147  1.00  0.00    -0.000 C 
BRANCH  19  20
ATOM     20  C   UNL     1      -8.382  37.456  -1.262  1.00  0.00    -0.000 C 
BRANCH  20  21
ATOM     21  C   UNL     1      -7.554  37.973  -0.066  1.00  0.00    -0.000 C 
BRANCH  21  22
ATOM     22  C   UNL     1      -6.030  37.862  -0.273  1.00  0.00    -0.000 C 
BRANCH  22  23
ATOM     23  C   UNL     1      -5.405  36.548   0.225  1.00  0.00    -0.000 C 
BRANCH  23  24
ATOM     24  C   UNL     1      -6.250  35.861   1.309  1.00  0.00    -0.000 C 
BRANCH  24  25
ATOM     25  C   UNL     1      -5.964  34.356   1.355  1.00  0.00    -0.003 C 
ATOM     26  C   UNL     1      -7.204  33.546   0.992  1.00  0.00     0.004 C 
ENDBRANCH  24  25
ENDBRANCH  23  24
ENDBRANCH  22  23
ENDBRANCH  21  22
ENDBRANCH  20  21
ENDBRANCH  19  20
ENDBRANCH  18  19
ENDBRANCH  17  18
ENDBRANCH  16  17
ENDBRANCH  15  16
ENDBRANCH   1  15
TORSDOF 22
ENDMDL
MODEL 8
REMARK VINA RESULT:     0.860      2.181      5.200
REMARK INTER + INTRA:           1.032
REMARK INTER:                   1.937
REMARK INTRA:                  -0.905
REMARK UNBOUND:                -0.935
REMARK SMILES CCCCCCCCCCCCCCCCCCCCCCCC(=O)[O-]
REMARK SMILES IDX 13 1 14 2 15 3 16 4 17 5 18 6 19 7 20 8 21 9 22 10 23 11
REMARK SMILES IDX 24 12 25 13 26 14 12 15 11 16 10 17 9 18 8 19 7 20 6 21 5 22
REMARK SMILES IDX 4 23 3 24 2 25 1 26
REMARK H PARENT
REMARK Flexibility Score: inf
ROOT
ATOM      1  C   UNL     1     -12.979  35.820  -8.777  1.00  0.00     0.000 C 
ENDROOT
BRANCH   1   2
ATOM      2  C   UNL     1     -13.598  35.531  -7.395  1.00  0.00     0.000 C 
BRANCH   2   3
ATOM      3  C   UNL     1     -13.072  36.414  -6.246  1.00  0.00     0.000 C 
BRANCH   3   4
ATOM      4  C   UNL     1     -12.499  35.643  -5.042  1.00  0.00     0.000 C 
BRANCH   4   5
ATOM      5  C   UNL     1     -12.282  36.491  -3.775  1.00  0.00     0.000 C 
BRANCH   5   6
ATOM      6  C   UNL     1     -12.029  35.652  -2.503  1.00  0.00     0.000 C 
BRANCH   6   7
ATOM      7  C   UNL     1     -11.461  36.495  -1.348  1.00  0.00     0.000 C 
BRANCH   7   8
ATOM      8  C   UNL     1      -9.927  36.405  -1.237  1.00  0.00     0.000 C 
BRANCH   8   9
ATOM      9  C   UNL     1      -9.182  37.732  -1.470  1.00  0.00     0.000 C 
BRANCH   9  10
ATOM     10  C   UNL     1      -7.784  37.755  -0.828  1.00  0.00     0.006 C 
BRANCH  10  11
ATOM     11  C   UNL     1      -7.527  36.519   0.042  1.00  0.00     0.053 C 
BRANCH  11  12
ATOM     12  C   UNL     1      -6.320  36.693   0.912  1.00  0.00     0.041 C 
ATOM     13  O   UNL     1      -6.138  35.939   1.904  1.00  0.00    -0.550 OA
ATOM     14  O   UNL     1      -5.379  37.671   0.608  1.00  0.00    -0.550 OA
ENDBRANCH  11  12
ENDBRANCH  10  11
ENDBRANCH   9  10
ENDBRANCH   8   9
ENDBRANCH   7   8
ENDBRANCH   6   7
ENDBRANCH   5   6
ENDBRANCH   4   5
ENDBRANCH   3   4
ENDBRANCH   2   3
ENDBRANCH   1   2
BRANCH   1  15
ATOM     15  C   UNL     1     -13.678  35.129  -9.964  1.00  0.00     0.000 C 
BRANCH  15  16
ATOM     16  C   UNL     1     -14.962  34.354  -9.603  1.00  0.00     0.000 C 
BRANCH  16  17
ATOM     17  C   UNL     1     -15.382  33.281 -10.625  1.00  0.00     0.000 C 
BRANCH  17  18
ATOM     18  C   UNL     1     -16.191  33.808 -11.826  1.00  0.00    -0.000 C 
BRANCH  18  19
ATOM     19  C   UNL     1     -17.702  33.950 -11.545  1.00  0.00    -0.000 C 
BRANCH  19  20
ATOM     20  C   UNL     1     -18.183  33.027 -10.411  1.00  0.00    -0.000 C 
BRANCH  20  21
ATOM     21  C   UNL     1     -18.627  33.819  -9.162  1.00  0.00    -0.000 C 
BRANCH  21  22
ATOM     22  C   UNL     1     -19.932  33.297  -8.529  1.00  0.00    -0.000 C 
BRANCH  22  23
ATOM     23  C   UNL     1     -20.836  34.384  -7.923  1.00  0.00    -0.000 C 
BRANCH  23  24
ATOM     24  C   UNL     1     -21.862  33.818  -6.930  1.00  0.00    -0.000 C 
BRANCH  24  25
ATOM     25  C   UNL     1     -23.198  33.533  -7.626  1.00  0.00    -0.003 C 
ATOM     26  C   UNL     1     -23.916  34.827  -7.995  1.00  0.00     0.004 C 
ENDBRANCH  24  25
ENDBRANCH  23  24
ENDBRANCH  22  23
ENDBRANCH  21  22
ENDBRANCH  20  21
ENDBRANCH  19  20
ENDBRANCH  18  19
ENDBRANCH  17  18
ENDBRANCH  16  17
ENDBRANCH  15  16
ENDBRANCH   1  15
TORSDOF 22
ENDMDL
MODEL 9
REMARK VINA RESULT:     0.963      4.773     13.193
REMARK INTER + INTRA:           1.268
REMARK INTER:                   2.125
REMARK INTRA:                  -0.857
REMARK UNBOUND:                -0.935
REMARK SMILES CCCCCCCCCCCCCCCCCCCCCCCC(=O)[O-]
REMARK SMILES IDX 13 1 14 2 15 3 16 4 17 5 18 6 19 7 20 8 21 9 22 10 23 11
REMARK SMILES IDX 24 12 25 13 26 14 12 15 11 16 10 17 9 18 8 19 7 20 6 21 5 22
REMARK SMILES IDX 4 23 3 24 2 25 1 26
REMARK H PARENT
REMARK Flexibility Score: inf
ROOT
ATOM      1  C   UNL     1     -11.656  35.931  -2.201  1.00  0.00     0.000 C 
ENDROOT
BRANCH   1   2
ATOM      2  C   UNL     1     -11.519  36.261  -3.701  1.00  0.00     0.000 C 
BRANCH   2   3
ATOM      3  C   UNL     1     -12.847  36.326  -4.480  1.00  0.00     0.000 C 
BRANCH   3   4
ATOM      4  C   UNL     1     -12.867  35.533  -5.800  1.00  0.00     0.000 C 
BRANCH   4   5
ATOM      5  C   UNL     1     -13.390  36.317  -7.019  1.00  0.00     0.000 C 
BRANCH   5   6
ATOM      6  C   UNL     1     -13.295  35.535  -8.347  1.00  0.00     0.000 C 
BRANCH   6   7
ATOM      7  C   UNL     1     -14.641  34.916  -8.760  1.00  0.00     0.000 C 
BRANCH   7   8
ATOM      8  C   UNL     1     -14.531  34.016 -10.005  1.00  0.00     0.000 C 
BRANCH   8   9
ATOM      9  C   UNL     1     -15.769  34.026 -10.922  1.00  0.00     0.000 C 
BRANCH   9  10
ATOM     10  C   UNL     1     -17.036  33.503 -10.224  1.00  0.00     0.006 C 
BRANCH  10  11
ATOM     11  C   UNL     1     -18.318  34.008 -10.898  1.00  0.00     0.053 C 
BRANCH  11  12
ATOM     12  C   UNL     1     -18.306  33.752 -12.374  1.00  0.00     0.041 C 
ATOM     13  O   UNL     1     -19.040  34.429 -13.141  1.00  0.00    -0.550 OA
ATOM     14  O   UNL     1     -17.462  32.784 -12.906  1.00  0.00    -0.550 OA
ENDBRANCH  11  12
ENDBRANCH  10  11
ENDBRANCH   9  10
ENDBRANCH   8   9
ENDBRANCH   7   8
ENDBRANCH   6   7
ENDBRANCH   5   6
ENDBRANCH   4   5
ENDBRANCH   3   4
ENDBRANCH   2   3
ENDBRANCH   1   2
BRANCH   1  15
ATOM     15  C   UNL     1     -10.913  36.889  -1.251  1.00  0.00     0.000 C 
BRANCH  15  16
ATOM     16  C   UNL     1      -9.589  37.459  -1.801  1.00  0.00     0.000 C 
BRANCH  16  17
ATOM     17  C   UNL     1      -8.647  38.056  -0.739  1.00  0.00     0.000 C 
BRANCH  17  18
ATOM     18  C   UNL     1      -7.224  37.467  -0.728  1.00  0.00    -0.000 C 
BRANCH  18  19
ATOM     19  C   UNL     1      -6.287  38.121   0.310  1.00  0.00    -0.000 C 
BRANCH  19  20
ATOM     20  C   UNL     1      -4.799  37.877   0.001  1.00  0.00    -0.000 C 
BRANCH  20  21
ATOM     21  C   UNL     1      -4.465  36.374  -0.115  1.00  0.00    -0.000 C 
BRANCH  21  22
ATOM     22  C   UNL     1      -4.117  35.711   1.232  1.00  0.00    -0.000 C 
BRANCH  22  23
ATOM     23  C   UNL     1      -4.988  34.497   1.599  1.00  0.00    -0.000 C 
BRANCH  23  24
ATOM     24  C   UNL     1      -6.461  34.870   1.827  1.00  0.00    -0.000 C 
BRANCH  24  25
ATOM     25  C   UNL     1      -7.389  33.957   1.018  1.00  0.00    -0.003 C 
ATOM     26  C   UNL     1      -7.025  32.488   1.213  1.00  0.00     0.004 C 
ENDBRANCH  24  25
ENDBRANCH  23  24
ENDBRANCH  22  23
ENDBRANCH  21  22
ENDBRANCH  20  21
ENDBRANCH  19  20
ENDBRANCH  18  19
ENDBRANCH  17  18
ENDBRANCH  16  17
ENDBRANCH  15  16
ENDBRANCH   1  15
TORSDOF 22
ENDMDL
