MODEL 1
REMARK VINA RESULT:    -1.910      0.000      0.000
REMARK INTER + INTRA:          -1.910
REMARK INTER:                  -1.910
REMARK INTRA:                   0.000
REMARK UNBOUND:                 0.000
REMARK SMILES CC(=O)[O-]
REMARK SMILES IDX 1 1 2 2 3 3 4 4
REMARK H PARENT
REMARK Flexibility Score: inf
ROOT
ATOM      1  C   UNL     1     113.944 139.441  97.422  1.00  0.00     0.063 C 
ATOM      2  C   UNL     1     114.610 139.489  96.089  1.00  0.00     0.038 C 
ATOM      3  O   UNL     1     114.995 138.426  95.537  1.00  0.00    -0.550 OA
ATOM      4  O   UNL     1     114.759 140.703  95.429  1.00  0.00    -0.550 OA
ENDROOT
TORSDOF 0
ENDMDL
MODEL 2
REMARK VINA RESULT:    -1.903      0.078      1.620
REMARK INTER + INTRA:          -1.903
REMARK INTER:                  -1.903
REMARK INTRA:                   0.000
REMARK UNBOUND:                 0.000
REMARK SMILES CC(=O)[O-]
REMARK SMILES IDX 1 1 2 2 3 3 4 4
REMARK H PARENT
REMARK Flexibility Score: inf
ROOT
ATOM      1  C   UNL     1     113.980 139.495  97.434  1.00  0.00     0.063 C 
ATOM      2  C   UNL     1     114.594 139.549  96.077  1.00  0.00     0.038 C 
ATOM      3  O   UNL     1     114.757 140.656  95.501  1.00  0.00    -0.550 OA
ATOM      4  O   UNL     1     115.037 138.382  95.466  1.00  0.00    -0.550 OA
ENDROOT
TORSDOF 0
ENDMDL
MODEL 3
REMARK VINA RESULT:    -1.880     18.114     18.647
REMARK INTER + INTRA:          -1.880
REMARK INTER:                  -1.880
REMARK INTRA:                   0.000
REMARK UNBOUND:                 0.000
REMARK SMILES CC(=O)[O-]
REMARK SMILES IDX 1 1 2 2 3 3 4 4
REMARK H PARENT
REMARK Flexibility Score: inf
ROOT
ATOM      1  C   UNL     1     113.605 149.238 110.386  1.00  0.00     0.063 C 
ATOM      2  C   UNL     1     114.043 149.403 111.801  1.00  0.00     0.038 C 
ATOM      3  O   UNL     1     114.387 150.535 112.228  1.00  0.00    -0.550 OA
ATOM      4  O   UNL     1     114.022 148.316 112.667  1.00  0.00    -0.550 OA
ENDROOT
TORSDOF 0
ENDMDL
MODEL 4
REMARK VINA RESULT:    -1.871     18.075     18.581
REMARK INTER + INTRA:          -1.871
REMARK INTER:                  -1.871
REMARK INTRA:                   0.000
REMARK UNBOUND:                 0.000
REMARK SMILES CC(=O)[O-]
REMARK SMILES IDX 1 1 2 2 3 3 4 4
REMARK H PARENT
REMARK Flexibility Score: inf
ROOT
ATOM      1  C   UNL     1     113.628 149.229 110.370  1.00  0.00     0.063 C 
ATOM      2  C   UNL     1     114.029 149.387 111.798  1.00  0.00     0.038 C 
ATOM      3  O   UNL     1     114.034 148.391 112.566  1.00  0.00    -0.550 OA
ATOM      4  O   UNL     1     114.447 150.625 112.270  1.00  0.00    -0.550 OA
ENDROOT
TORSDOF 0
ENDMDL
MODEL 5
REMARK VINA RESULT:    -1.868      9.429      9.879
REMARK INTER + INTRA:          -1.868
REMARK INTER:                  -1.868
REMARK INTRA:                   0.000
REMARK UNBOUND:                 0.000
REMARK SMILES CC(=O)[O-]
REMARK SMILES IDX 1 1 2 2 3 3 4 4
REMARK H PARENT
REMARK Flexibility Score: inf
ROOT
ATOM      1  C   UNL     1     115.825 145.438 105.087  1.00  0.00     0.063 C 
ATOM      2  C   UNL     1     116.591 144.420 104.312  1.00  0.00     0.038 C 
ATOM      3  O   UNL     1     117.831 144.296 104.488  1.00  0.00    -0.550 OA
ATOM      4  O   UNL     1     115.930 143.571 103.434  1.00  0.00    -0.550 OA
ENDROOT
TORSDOF 0
ENDMDL
MODEL 6
REMARK VINA RESULT:    -1.838      1.319      1.421
REMARK INTER + INTRA:          -1.838
REMARK INTER:                  -1.838
REMARK INTRA:                   0.000
REMARK UNBOUND:                 0.000
REMARK SMILES CC(=O)[O-]
REMARK SMILES IDX 1 1 2 2 3 3 4 4
REMARK H PARENT
REMARK Flexibility Score: inf
ROOT
ATOM      1  C   UNL     1     113.967 139.936  98.257  1.00  0.00     0.063 C 
ATOM      2  C   UNL     1     113.985 139.109  97.018  1.00  0.00     0.038 C 
ATOM      3  O   UNL     1     113.677 137.890  97.067  1.00  0.00    -0.550 OA
ATOM      4  O   UNL     1     114.292 139.693  95.795  1.00  0.00    -0.550 OA
ENDROOT
TORSDOF 0
ENDMDL
MODEL 7
REMARK VINA RESULT:    -1.830     17.630     18.238
REMARK INTER + INTRA:          -1.830
REMARK INTER:                  -1.830
REMARK INTRA:                   0.000
REMARK UNBOUND:                 0.000
REMARK SMILES CC(=O)[O-]
REMARK SMILES IDX 1 1 2 2 3 3 4 4
REMARK H PARENT
REMARK Flexibility Score: inf
ROOT
ATOM      1  C   UNL     1     113.990 149.041 112.468  1.00  0.00     0.063 C 
ATOM      2  C   UNL     1     113.565 149.636 111.169  1.00  0.00     0.038 C 
ATOM      3  O   UNL     1     113.304 150.865 111.093  1.00  0.00    -0.550 OA
ATOM      4  O   UNL     1     113.509 148.847 110.027  1.00  0.00    -0.550 OA
ENDROOT
TORSDOF 0
ENDMDL
MODEL 8
REMARK VINA RESULT:    -1.789      1.839      2.008
REMARK INTER + INTRA:          -1.789
REMARK INTER:                  -1.789
REMARK INTRA:                   0.000
REMARK UNBOUND:                 0.000
REMARK SMILES CC(=O)[O-]
REMARK SMILES IDX 1 1 2 2 3 3 4 4
REMARK H PARENT
REMARK Flexibility Score: inf
ROOT
ATOM      1  C   UNL     1     113.960 137.621  97.262  1.00  0.00     0.063 C 
ATOM      2  C   UNL     1     113.977 139.096  97.052  1.00  0.00     0.038 C 
ATOM      3  O   UNL     1     113.792 139.874  98.024  1.00  0.00    -0.550 OA
ATOM      4  O   UNL     1     114.249 139.617  95.793  1.00  0.00    -0.550 OA
ENDROOT
TORSDOF 0
ENDMDL
MODEL 9
REMARK VINA RESULT:    -1.777      3.374      3.814
REMARK INTER + INTRA:          -1.777
REMARK INTER:                  -1.777
REMARK INTRA:                   0.000
REMARK UNBOUND:                 0.000
REMARK SMILES CC(=O)[O-]
REMARK SMILES IDX 1 1 2 2 3 3 4 4
REMARK H PARENT
REMARK Flexibility Score: inf
ROOT
ATOM      1  C   UNL     1     113.956 139.792  98.174  1.00  0.00     0.063 C 
ATOM      2  C   UNL     1     114.128 140.946  99.103  1.00  0.00     0.038 C 
ATOM      3  O   UNL     1     113.137 141.408  99.725  1.00  0.00    -0.550 OA
ATOM      4  O   UNL     1     115.392 141.479  99.324  1.00  0.00    -0.550 OA
ENDROOT
TORSDOF 0
ENDMDL
