MODEL 1
REMARK VINA RESULT:    -3.753      0.000      0.000
REMARK INTER + INTRA:          -4.461
REMARK INTER:                  -4.412
REMARK INTRA:                  -0.049
REMARK UNBOUND:                -0.049
REMARK SMILES CCCCC(=O)[O-]
REMARK SMILES IDX 4 1 5 2 6 3 7 4 3 5 2 6 1 7
REMARK H PARENT
REMARK Flexibility Score: inf
ROOT
ATOM      1  C   UNL     1     -27.767 -11.862  16.732  1.00  0.00     0.053 C 
ENDROOT
BRANCH   1   2
ATOM      2  C   UNL     1     -28.976 -11.293  17.410  1.00  0.00     0.041 C 
ATOM      3  O   UNL     1     -29.020 -10.070  17.710  1.00  0.00    -0.550 OA
ATOM      4  O   UNL     1     -30.068 -12.107  17.684  1.00  0.00    -0.550 OA
ENDBRANCH   1   2
BRANCH   1   5
ATOM      5  C   UNL     1     -26.469 -11.130  17.118  1.00  0.00     0.006 C 
BRANCH   5   6
ATOM      6  C   UNL     1     -25.288 -12.071  17.415  1.00  0.00    -0.003 C 
ATOM      7  C   UNL     1     -25.725 -13.481  17.809  1.00  0.00     0.004 C 
ENDBRANCH   5   6
ENDBRANCH   1   5
TORSDOF 3
ENDMDL
MODEL 2
REMARK VINA RESULT:    -3.562      1.578      2.073
REMARK INTER + INTRA:          -4.235
REMARK INTER:                  -4.186
REMARK INTRA:                  -0.049
REMARK UNBOUND:                -0.049
REMARK SMILES CCCCC(=O)[O-]
REMARK SMILES IDX 4 1 5 2 6 3 7 4 3 5 2 6 1 7
REMARK H PARENT
REMARK Flexibility Score: inf
ROOT
ATOM      1  C   UNL     1     -29.261 -11.292  17.337  1.00  0.00     0.053 C 
ENDROOT
BRANCH   1   2
ATOM      2  C   UNL     1     -30.018 -12.560  17.091  1.00  0.00     0.041 C 
ATOM      3  O   UNL     1     -30.896 -12.946  17.908  1.00  0.00    -0.550 OA
ATOM      4  O   UNL     1     -29.776 -13.304  15.942  1.00  0.00    -0.550 OA
ENDBRANCH   1   2
BRANCH   1   5
ATOM      5  C   UNL     1     -27.828 -11.543  17.840  1.00  0.00     0.006 C 
BRANCH   5   6
ATOM      6  C   UNL     1     -26.758 -11.471  16.737  1.00  0.00    -0.003 C 
ATOM      7  C   UNL     1     -25.421 -12.084  17.154  1.00  0.00     0.004 C 
ENDBRANCH   5   6
ENDBRANCH   1   5
TORSDOF 3
ENDMDL
MODEL 3
REMARK VINA RESULT:    -3.537      1.556      1.981
REMARK INTER + INTRA:          -4.206
REMARK INTER:                  -4.167
REMARK INTRA:                  -0.039
REMARK UNBOUND:                -0.049
REMARK SMILES CCCCC(=O)[O-]
REMARK SMILES IDX 4 1 5 2 6 3 7 4 3 5 2 6 1 7
REMARK H PARENT
REMARK Flexibility Score: inf
ROOT
ATOM      1  C   UNL     1     -29.072 -11.411  17.195  1.00  0.00     0.053 C 
ENDROOT
BRANCH   1   2
ATOM      2  C   UNL     1     -29.961 -12.595  16.968  1.00  0.00     0.041 C 
ATOM      3  O   UNL     1     -29.824 -13.306  15.938  1.00  0.00    -0.550 OA
ATOM      4  O   UNL     1     -30.925 -12.931  17.912  1.00  0.00    -0.550 OA
ENDBRANCH   1   2
BRANCH   1   5
ATOM      5  C   UNL     1     -27.706 -11.799  17.789  1.00  0.00     0.006 C 
BRANCH   5   6
ATOM      6  C   UNL     1     -26.516 -11.505  16.860  1.00  0.00    -0.003 C 
ATOM      7  C   UNL     1     -25.218 -12.174  17.314  1.00  0.00     0.004 C 
ENDBRANCH   5   6
ENDBRANCH   1   5
TORSDOF 3
ENDMDL
MODEL 4
REMARK VINA RESULT:    -3.432      2.593      3.604
REMARK INTER + INTRA:          -4.083
REMARK INTER:                  -3.994
REMARK INTRA:                  -0.089
REMARK UNBOUND:                -0.049
REMARK SMILES CCCCC(=O)[O-]
REMARK SMILES IDX 4 1 5 2 6 3 7 4 3 5 2 6 1 7
REMARK H PARENT
REMARK Flexibility Score: inf
ROOT
ATOM      1  C   UNL     1     -26.845 -11.562  16.643  1.00  0.00     0.053 C 
ENDROOT
BRANCH   1   2
ATOM      2  C   UNL     1     -25.817 -12.516  17.169  1.00  0.00     0.041 C 
ATOM      3  O   UNL     1     -24.637 -12.128  17.380  1.00  0.00    -0.550 OA
ATOM      4  O   UNL     1     -26.170 -13.829  17.456  1.00  0.00    -0.550 OA
ENDBRANCH   1   2
BRANCH   1   5
ATOM      5  C   UNL     1     -27.839 -11.102  17.725  1.00  0.00     0.006 C 
BRANCH   5   6
ATOM      6  C   UNL     1     -29.315 -11.248  17.318  1.00  0.00    -0.003 C 
ATOM      7  C   UNL     1     -29.604 -12.537  16.550  1.00  0.00     0.004 C 
ENDBRANCH   5   6
ENDBRANCH   1   5
TORSDOF 3
ENDMDL
MODEL 5
REMARK VINA RESULT:    -3.224      1.166      1.810
REMARK INTER + INTRA:          -3.838
REMARK INTER:                  -3.805
REMARK INTRA:                  -0.033
REMARK UNBOUND:                -0.049
REMARK SMILES CCCCC(=O)[O-]
REMARK SMILES IDX 4 1 5 2 6 3 7 4 3 5 2 6 1 7
REMARK H PARENT
REMARK Flexibility Score: inf
ROOT
ATOM      1  C   UNL     1     -27.778 -12.475  17.343  1.00  0.00     0.053 C 
ENDROOT
BRANCH   1   2
ATOM      2  C   UNL     1     -28.317 -11.083  17.465  1.00  0.00     0.041 C 
ATOM      3  O   UNL     1     -29.530 -10.893  17.748  1.00  0.00    -0.550 OA
ATOM      4  O   UNL     1     -27.473  -9.992  17.295  1.00  0.00    -0.550 OA
ENDBRANCH   1   2
BRANCH   1   5
ATOM      5  C   UNL     1     -26.247 -12.534  17.493  1.00  0.00     0.006 C 
BRANCH   5   6
ATOM      6  C   UNL     1     -25.729 -13.859  18.079  1.00  0.00    -0.003 C 
ATOM      7  C   UNL     1     -26.794 -14.955  18.125  1.00  0.00     0.004 C 
ENDBRANCH   5   6
ENDBRANCH   1   5
TORSDOF 3
ENDMDL
MODEL 6
REMARK VINA RESULT:    -3.163      2.446      3.704
REMARK INTER + INTRA:          -3.767
REMARK INTER:                  -3.746
REMARK INTRA:                  -0.021
REMARK UNBOUND:                -0.049
REMARK SMILES CCCCC(=O)[O-]
REMARK SMILES IDX 4 1 5 2 6 3 7 4 3 5 2 6 1 7
REMARK H PARENT
REMARK Flexibility Score: inf
ROOT
ATOM      1  C   UNL     1     -27.519 -12.459  17.590  1.00  0.00     0.053 C 
ENDROOT
BRANCH   1   2
ATOM      2  C   UNL     1     -26.248 -11.752  17.232  1.00  0.00     0.041 C 
ATOM      3  O   UNL     1     -26.215 -10.495  17.171  1.00  0.00    -0.550 OA
ATOM      4  O   UNL     1     -25.090 -12.482  16.993  1.00  0.00    -0.550 OA
ENDBRANCH   1   2
BRANCH   1   5
ATOM      5  C   UNL     1     -28.775 -11.665  17.189  1.00  0.00     0.006 C 
BRANCH   5   6
ATOM      6  C   UNL     1     -29.896 -12.531  16.589  1.00  0.00    -0.003 C 
ATOM      7  C   UNL     1     -30.788 -13.180  17.647  1.00  0.00     0.004 C 
ENDBRANCH   5   6
ENDBRANCH   1   5
TORSDOF 3
ENDMDL
MODEL 7
REMARK VINA RESULT:    -3.113      2.040      2.905
REMARK INTER + INTRA:          -3.708
REMARK INTER:                  -3.670
REMARK INTRA:                  -0.038
REMARK UNBOUND:                -0.049
REMARK SMILES CCCCC(=O)[O-]
REMARK SMILES IDX 4 1 5 2 6 3 7 4 3 5 2 6 1 7
REMARK H PARENT
REMARK Flexibility Score: inf
ROOT
ATOM      1  C   UNL     1     -29.577 -12.947  16.516  1.00  0.00     0.053 C 
ENDROOT
BRANCH   1   2
ATOM      2  C   UNL     1     -30.937 -13.421  16.926  1.00  0.00     0.041 C 
ATOM      3  O   UNL     1     -31.326 -13.282  18.116  1.00  0.00    -0.550 OA
ATOM      4  O   UNL     1     -31.787 -13.991  15.987  1.00  0.00    -0.550 OA
ENDBRANCH   1   2
BRANCH   1   5
ATOM      5  C   UNL     1     -29.243 -11.549  17.065  1.00  0.00     0.006 C 
BRANCH   5   6
ATOM      6  C   UNL     1     -27.876 -11.463  17.766  1.00  0.00    -0.003 C 
ATOM      7  C   UNL     1     -26.697 -11.543  16.797  1.00  0.00     0.004 C 
ENDBRANCH   5   6
ENDBRANCH   1   5
TORSDOF 3
ENDMDL
MODEL 8
REMARK VINA RESULT:    -3.110      2.245      3.756
REMARK INTER + INTRA:          -3.705
REMARK INTER:                  -3.684
REMARK INTRA:                  -0.021
REMARK UNBOUND:                -0.049
REMARK SMILES CCCCC(=O)[O-]
REMARK SMILES IDX 4 1 5 2 6 3 7 4 3 5 2 6 1 7
REMARK H PARENT
REMARK Flexibility Score: inf
ROOT
ATOM      1  C   UNL     1     -28.104 -12.407  17.348  1.00  0.00     0.053 C 
ENDROOT
BRANCH   1   2
ATOM      2  C   UNL     1     -27.250 -11.206  17.076  1.00  0.00     0.041 C 
ATOM      3  O   UNL     1     -27.686 -10.049  17.314  1.00  0.00    -0.550 OA
ATOM      4  O   UNL     1     -25.960 -11.367  16.586  1.00  0.00    -0.550 OA
ENDBRANCH   1   2
BRANCH   1   5
ATOM      5  C   UNL     1     -29.602 -12.065  17.425  1.00  0.00     0.006 C 
BRANCH   5   6
ATOM      6  C   UNL     1     -30.527 -13.213  16.985  1.00  0.00    -0.003 C 
ATOM      7  C   UNL     1     -31.600 -13.553  18.019  1.00  0.00     0.004 C 
ENDBRANCH   5   6
ENDBRANCH   1   5
TORSDOF 3
ENDMDL
