MODEL 1
REMARK VINA RESULT:    -3.408      0.000      0.000
REMARK INTER + INTRA:          -3.408
REMARK INTER:                  -3.408
REMARK INTRA:                   0.000
REMARK UNBOUND:                 0.000
REMARK SMILES CC1(C)[C@H]2CC[C@]1(C)C(=O)C2
REMARK SMILES IDX 1 1 2 2 4 3 5 4 6 5 7 6 9 7 10 8 11 9 8 10 3 11
REMARK H PARENT
REMARK Flexibility Score: inf
ROOT
ATOM      1  C   UNL     1       7.575   5.927  -7.308  1.00  0.00     0.012 C 
ATOM      2  C   UNL     1       7.558   4.410  -7.667  1.00  0.00    -0.020 C 
ATOM      3  C   UNL     1       7.142   4.117  -9.128  1.00  0.00     0.003 C 
ATOM      4  C   UNL     1       8.289   4.771  -9.947  1.00  0.00     0.005 C 
ATOM      5  C   UNL     1       9.537   4.512  -9.065  1.00  0.00     0.015 C 
ATOM      6  C   UNL     1       8.944   3.756  -7.853  1.00  0.00     0.032 C 
ATOM      7  C   UNL     1       8.546   2.407  -8.398  1.00  0.00     0.139 C 
ATOM      8  O   UNL     1       9.154   1.360  -8.240  1.00  0.00    -0.299 OA
ATOM      9  C   UNL     1       7.332   2.580  -9.259  1.00  0.00     0.080 C 
ATOM     10  C   UNL     1       9.851   3.713  -6.617  1.00  0.00     0.020 C 
ATOM     11  C   UNL     1       6.648   3.716  -6.607  1.00  0.00     0.012 C 
ENDROOT
TORSDOF 0
ENDMDL
MODEL 2
REMARK VINA RESULT:    -3.399      1.057      2.818
REMARK INTER + INTRA:          -3.399
REMARK INTER:                  -3.399
REMARK INTRA:                   0.000
REMARK UNBOUND:                 0.000
REMARK SMILES CC1(C)[C@H]2CC[C@]1(C)C(=O)C2
REMARK SMILES IDX 1 1 2 2 4 3 5 4 6 5 7 6 9 7 10 8 11 9 8 10 3 11
REMARK H PARENT
REMARK Flexibility Score: inf
ROOT
ATOM      1  C   UNL     1       7.522   5.986  -9.157  1.00  0.00     0.012 C 
ATOM      2  C   UNL     1       8.540   4.911  -8.668  1.00  0.00    -0.020 C 
ATOM      3  C   UNL     1       8.710   4.864  -7.130  1.00  0.00     0.003 C 
ATOM      4  C   UNL     1       7.303   4.420  -6.645  1.00  0.00     0.005 C 
ATOM      5  C   UNL     1       6.849   3.435  -7.751  1.00  0.00     0.015 C 
ATOM      6  C   UNL     1       8.046   3.450  -8.731  1.00  0.00     0.032 C 
ATOM      7  C   UNL     1       9.157   2.747  -7.993  1.00  0.00     0.139 C 
ATOM      8  O   UNL     1       9.536   1.603  -8.184  1.00  0.00    -0.299 OA
ATOM      9  C   UNL     1       9.655   3.651  -6.906  1.00  0.00     0.080 C 
ATOM     10  C   UNL     1       7.741   2.892 -10.126  1.00  0.00     0.020 C 
ATOM     11  C   UNL     1       9.871   5.183  -9.436  1.00  0.00     0.012 C 
ENDROOT
TORSDOF 0
ENDMDL
MODEL 3
REMARK VINA RESULT:    -3.260      1.360      2.686
REMARK INTER + INTRA:          -3.260
REMARK INTER:                  -3.260
REMARK INTRA:                   0.000
REMARK UNBOUND:                 0.000
REMARK SMILES CC1(C)[C@H]2CC[C@]1(C)C(=O)C2
REMARK SMILES IDX 1 1 2 2 4 3 5 4 6 5 7 6 9 7 10 8 11 9 8 10 3 11
REMARK H PARENT
REMARK Flexibility Score: inf
ROOT
ATOM      1  C   UNL     1       6.976   3.963  -6.587  1.00  0.00     0.012 C 
ATOM      2  C   UNL     1       7.655   4.258  -7.959  1.00  0.00    -0.020 C 
ATOM      3  C   UNL     1       9.078   4.852  -7.837  1.00  0.00     0.003 C 
ATOM      4  C   UNL     1       9.874   3.697  -7.169  1.00  0.00     0.005 C 
ATOM      5  C   UNL     1       9.240   2.430  -7.796  1.00  0.00     0.015 C 
ATOM      6  C   UNL     1       8.158   3.021  -8.732  1.00  0.00     0.032 C 
ATOM      7  C   UNL     1       8.931   3.682  -9.845  1.00  0.00     0.139 C 
ATOM      8  O   UNL     1       9.088   3.239 -10.972  1.00  0.00    -0.299 OA
ATOM      9  C   UNL     1       9.568   4.927  -9.310  1.00  0.00     0.080 C 
ATOM     10  C   UNL     1       7.090   2.021  -9.190  1.00  0.00     0.020 C 
ATOM     11  C   UNL     1       6.666   5.165  -8.754  1.00  0.00     0.012 C 
ENDROOT
TORSDOF 0
ENDMDL
MODEL 4
REMARK VINA RESULT:    -3.127      1.905      3.145
REMARK INTER + INTRA:          -3.127
REMARK INTER:                  -3.127
REMARK INTRA:                   0.000
REMARK UNBOUND:                 0.000
REMARK SMILES CC1(C)[C@H]2CC[C@]1(C)C(=O)C2
REMARK SMILES IDX 1 1 2 2 4 3 5 4 6 5 7 6 9 7 10 8 11 9 8 10 3 11
REMARK H PARENT
REMARK Flexibility Score: inf
ROOT
ATOM      1  C   UNL     1       7.845   2.219  -8.502  1.00  0.00     0.012 C 
ATOM      2  C   UNL     1       8.689   3.519  -8.329  1.00  0.00    -0.020 C 
ATOM      3  C   UNL     1       9.164   4.139  -9.665  1.00  0.00     0.003 C 
ATOM      4  C   UNL     1       7.828   4.545 -10.347  1.00  0.00     0.005 C 
ATOM      5  C   UNL     1       6.951   4.997  -9.151  1.00  0.00     0.015 C 
ATOM      6  C   UNL     1       7.892   4.782  -7.941  1.00  0.00     0.032 C 
ATOM      7  C   UNL     1       8.956   5.841  -8.088  1.00  0.00     0.139 C 
ATOM      8  O   UNL     1       9.031   6.877  -7.448  1.00  0.00    -0.299 OA
ATOM      9  C   UNL     1       9.852   5.462  -9.227  1.00  0.00     0.080 C 
ATOM     10  C   UNL     1       7.189   4.756  -6.579  1.00  0.00     0.020 C 
ATOM     11  C   UNL     1       9.856   3.161  -7.357  1.00  0.00     0.012 C 
ENDROOT
TORSDOF 0
ENDMDL
MODEL 5
REMARK VINA RESULT:    -3.019      1.680      3.090
REMARK INTER + INTRA:          -3.019
REMARK INTER:                  -3.019
REMARK INTRA:                   0.000
REMARK UNBOUND:                 0.000
REMARK SMILES CC1(C)[C@H]2CC[C@]1(C)C(=O)C2
REMARK SMILES IDX 1 1 2 2 4 3 5 4 6 5 7 6 9 7 10 8 11 9 8 10 3 11
REMARK H PARENT
REMARK Flexibility Score: inf
ROOT
ATOM      1  C   UNL     1       8.362   3.303 -10.649  1.00  0.00     0.012 C 
ATOM      2  C   UNL     1       8.315   3.345  -9.091  1.00  0.00    -0.020 C 
ATOM      3  C   UNL     1       9.602   3.907  -8.442  1.00  0.00     0.003 C 
ATOM      4  C   UNL     1       9.622   5.378  -8.941  1.00  0.00     0.005 C 
ATOM      5  C   UNL     1       8.119   5.758  -8.961  1.00  0.00     0.015 C 
ATOM      6  C   UNL     1       7.434   4.456  -8.482  1.00  0.00     0.032 C 
ATOM      7  C   UNL     1       7.805   4.339  -7.025  1.00  0.00     0.139 C 
ATOM      8  O   UNL     1       7.079   4.592  -6.077  1.00  0.00    -0.299 OA
ATOM      9  C   UNL     1       9.251   3.963  -6.929  1.00  0.00     0.080 C 
ATOM     10  C   UNL     1       5.932   4.375  -8.777  1.00  0.00     0.020 C 
ATOM     11  C   UNL     1       7.959   1.900  -8.621  1.00  0.00     0.012 C 
ENDROOT
TORSDOF 0
ENDMDL
MODEL 6
REMARK VINA RESULT:    -3.007      1.391      2.978
REMARK INTER + INTRA:          -3.007
REMARK INTER:                  -3.007
REMARK INTRA:                   0.000
REMARK UNBOUND:                 0.000
REMARK SMILES CC1(C)[C@H]2CC[C@]1(C)C(=O)C2
REMARK SMILES IDX 1 1 2 2 4 3 5 4 6 5 7 6 9 7 10 8 11 9 8 10 3 11
REMARK H PARENT
REMARK Flexibility Score: inf
ROOT
ATOM      1  C   UNL     1       9.870   5.585  -9.243  1.00  0.00     0.012 C 
ATOM      2  C   UNL     1       8.995   4.294  -9.221  1.00  0.00    -0.020 C 
ATOM      3  C   UNL     1       9.520   3.200  -8.261  1.00  0.00     0.003 C 
ATOM      4  C   UNL     1       9.382   3.873  -6.867  1.00  0.00     0.005 C 
ATOM      5  C   UNL     1       8.085   4.708  -7.011  1.00  0.00     0.015 C 
ATOM      6  C   UNL     1       7.653   4.415  -8.468  1.00  0.00     0.032 C 
ATOM      7  C   UNL     1       7.210   2.973  -8.455  1.00  0.00     0.139 C 
ATOM      8  O   UNL     1       6.055   2.577  -8.461  1.00  0.00    -0.299 OA
ATOM      9  C   UNL     1       8.421   2.102  -8.327  1.00  0.00     0.080 C 
ATOM     10  C   UNL     1       6.632   5.401  -9.046  1.00  0.00     0.020 C 
ATOM     11  C   UNL     1       8.871   3.819 -10.702  1.00  0.00     0.012 C 
ENDROOT
TORSDOF 0
ENDMDL
MODEL 7
REMARK VINA RESULT:    -2.931      1.720      2.815
REMARK INTER + INTRA:          -2.931
REMARK INTER:                  -2.931
REMARK INTRA:                   0.000
REMARK UNBOUND:                 0.000
REMARK SMILES CC1(C)[C@H]2CC[C@]1(C)C(=O)C2
REMARK SMILES IDX 1 1 2 2 4 3 5 4 6 5 7 6 9 7 10 8 11 9 8 10 3 11
REMARK H PARENT
REMARK Flexibility Score: inf
ROOT
ATOM      1  C   UNL     1       9.131   4.443 -10.380  1.00  0.00     0.012 C 
ATOM      2  C   UNL     1       8.039   4.358  -9.270  1.00  0.00    -0.020 C 
ATOM      3  C   UNL     1       7.758   2.918  -8.778  1.00  0.00     0.003 C 
ATOM      4  C   UNL     1       9.108   2.511  -8.126  1.00  0.00     0.005 C 
ATOM      5  C   UNL     1       9.601   3.835  -7.490  1.00  0.00     0.015 C 
ATOM      6  C   UNL     1       8.478   4.831  -7.868  1.00  0.00     0.032 C 
ATOM      7  C   UNL     1       7.290   4.401  -7.044  1.00  0.00     0.139 C 
ATOM      8  O   UNL     1       6.881   4.949  -6.033  1.00  0.00    -0.299 OA
ATOM      9  C   UNL     1       6.753   3.123  -7.611  1.00  0.00     0.080 C 
ATOM     10  C   UNL     1       8.859   6.309  -7.733  1.00  0.00     0.020 C 
ATOM     11  C   UNL     1       6.778   5.082  -9.837  1.00  0.00     0.012 C 
ENDROOT
TORSDOF 0
ENDMDL
MODEL 8
REMARK VINA RESULT:    -2.826      1.897      3.070
REMARK INTER + INTRA:          -2.826
REMARK INTER:                  -2.826
REMARK INTRA:                   0.000
REMARK UNBOUND:                 0.000
REMARK SMILES CC1(C)[C@H]2CC[C@]1(C)C(=O)C2
REMARK SMILES IDX 1 1 2 2 4 3 5 4 6 5 7 6 9 7 10 8 11 9 8 10 3 11
REMARK H PARENT
REMARK Flexibility Score: inf
ROOT
ATOM      1  C   UNL     1       9.854   3.590  -6.904  1.00  0.00     0.012 C 
ATOM      2  C   UNL     1       8.967   4.445  -7.859  1.00  0.00    -0.020 C 
ATOM      3  C   UNL     1       8.907   3.907  -9.308  1.00  0.00     0.003 C 
ATOM      4  C   UNL     1       8.203   2.533  -9.133  1.00  0.00     0.005 C 
ATOM      5  C   UNL     1       7.184   2.807  -7.998  1.00  0.00     0.015 C 
ATOM      6  C   UNL     1       7.443   4.295  -7.662  1.00  0.00     0.032 C 
ATOM      7  C   UNL     1       6.931   5.055  -8.860  1.00  0.00     0.139 C 
ATOM      8  O   UNL     1       5.879   5.671  -8.924  1.00  0.00    -0.299 OA
ATOM      9  C   UNL     1       7.877   4.842 -10.001  1.00  0.00     0.080 C 
ATOM     10  C   UNL     1       6.879   4.756  -6.313  1.00  0.00     0.020 C 
ATOM     11  C   UNL     1       9.495   5.910  -7.757  1.00  0.00     0.012 C 
ENDROOT
TORSDOF 0
ENDMDL
MODEL 9
REMARK VINA RESULT:    -2.816      1.840      2.929
REMARK INTER + INTRA:          -2.816
REMARK INTER:                  -2.816
REMARK INTRA:                   0.000
REMARK UNBOUND:                 0.000
REMARK SMILES CC1(C)[C@H]2CC[C@]1(C)C(=O)C2
REMARK SMILES IDX 1 1 2 2 4 3 5 4 6 5 7 6 9 7 10 8 11 9 8 10 3 11
REMARK H PARENT
REMARK Flexibility Score: inf
ROOT
ATOM      1  C   UNL     1       9.775   3.631  -7.090  1.00  0.00     0.012 C 
ATOM      2  C   UNL     1       8.529   4.423  -7.591  1.00  0.00    -0.020 C 
ATOM      3  C   UNL     1       8.793   5.932  -7.809  1.00  0.00     0.003 C 
ATOM      4  C   UNL     1       9.834   5.933  -8.963  1.00  0.00     0.005 C 
ATOM      5  C   UNL     1       9.381   4.738  -9.839  1.00  0.00     0.015 C 
ATOM      6  C   UNL     1       8.150   4.201  -9.070  1.00  0.00     0.032 C 
ATOM      7  C   UNL     1       7.092   5.259  -9.250  1.00  0.00     0.139 C 
ATOM      8  O   UNL     1       6.138   5.200 -10.009  1.00  0.00    -0.299 OA
ATOM      9  C   UNL     1       7.461   6.450  -8.419  1.00  0.00     0.080 C 
ATOM     10  C   UNL     1       7.720   2.782  -9.459  1.00  0.00     0.020 C 
ATOM     11  C   UNL     1       7.383   4.131  -6.574  1.00  0.00     0.012 C 
ENDROOT
TORSDOF 0
ENDMDL
