MODEL 1
REMARK VINA RESULT:    -4.112      0.000      0.000
REMARK INTER + INTRA:          -5.943
REMARK INTER:                  -5.795
REMARK INTRA:                  -0.148
REMARK UNBOUND:                -0.148
REMARK SMILES C=CCCCCCCC(=O)[O-]
REMARK SMILES IDX 6 1 7 2 8 3 9 4 10 5 11 6 5 7 4 8 3 9 2 10 1 11
REMARK H PARENT
REMARK Flexibility Score: inf
ROOT
ATOM      1  C   UNL     1      57.895  33.059  78.479  1.00  0.00     0.000 C 
ENDROOT
BRANCH   1   2
ATOM      2  C   UNL     1      58.894  33.843  79.344  1.00  0.00     0.006 C 
BRANCH   2   3
ATOM      3  C   UNL     1      58.641  35.356  79.297  1.00  0.00     0.053 C 
BRANCH   3   4
ATOM      4  C   UNL     1      58.638  35.963  80.666  1.00  0.00     0.041 C 
ATOM      5  O   UNL     1      59.106  35.322  81.643  1.00  0.00    -0.550 OA
ATOM      6  O   UNL     1      58.150  37.250  80.857  1.00  0.00    -0.550 OA
ENDBRANCH   3   4
ENDBRANCH   2   3
ENDBRANCH   1   2
BRANCH   1   7
ATOM      7  C   UNL     1      58.623  32.069  77.561  1.00  0.00     0.000 C 
BRANCH   7   8
ATOM      8  C   UNL     1      57.930  31.975  76.194  1.00  0.00     0.004 C 
BRANCH   8   9
ATOM      9  C   UNL     1      57.640  30.522  75.789  1.00  0.00     0.027 C 
BRANCH   9  10
ATOM     10  C   UNL     1      56.853  30.430  74.509  1.00  0.00    -0.035 C 
ATOM     11  C   UNL     1      55.767  29.657  74.405  1.00  0.00     0.004 C 
ENDBRANCH   9  10
ENDBRANCH   8   9
ENDBRANCH   7   8
ENDBRANCH   1   7
TORSDOF 7
ENDMDL
MODEL 2
REMARK VINA RESULT:    -4.075      1.053      1.447
REMARK INTER + INTRA:          -5.890
REMARK INTER:                  -5.493
REMARK INTRA:                  -0.397
REMARK UNBOUND:                -0.148
REMARK SMILES C=CCCCCCCC(=O)[O-]
REMARK SMILES IDX 6 1 7 2 8 3 9 4 10 5 11 6 5 7 4 8 3 9 2 10 1 11
REMARK H PARENT
REMARK Flexibility Score: inf
ROOT
ATOM      1  C   UNL     1      57.971  33.214  78.870  1.00  0.00     0.000 C 
ENDROOT
BRANCH   1   2
ATOM      2  C   UNL     1      59.149  33.840  79.632  1.00  0.00     0.006 C 
BRANCH   2   3
ATOM      3  C   UNL     1      58.682  34.748  80.778  1.00  0.00     0.053 C 
BRANCH   3   4
ATOM      4  C   UNL     1      58.737  36.196  80.400  1.00  0.00     0.041 C 
ATOM      5  O   UNL     1      59.341  36.554  79.355  1.00  0.00    -0.550 OA
ATOM      6  O   UNL     1      58.094  37.146  81.183  1.00  0.00    -0.550 OA
ENDBRANCH   3   4
ENDBRANCH   2   3
ENDBRANCH   1   2
BRANCH   1   7
ATOM      7  C   UNL     1      57.789  33.878  77.500  1.00  0.00     0.000 C 
BRANCH   7   8
ATOM      8  C   UNL     1      57.930  32.851  76.367  1.00  0.00     0.004 C 
BRANCH   8   9
ATOM      9  C   UNL     1      58.210  31.437  76.897  1.00  0.00     0.027 C 
BRANCH   9  10
ATOM     10  C   UNL     1      57.710  30.366  75.965  1.00  0.00    -0.035 C 
ATOM     11  C   UNL     1      57.137  30.662  74.794  1.00  0.00     0.004 C 
ENDBRANCH   9  10
ENDBRANCH   8   9
ENDBRANCH   7   8
ENDBRANCH   1   7
TORSDOF 7
ENDMDL
MODEL 3
REMARK VINA RESULT:    -4.069      3.264      5.465
REMARK INTER + INTRA:          -5.882
REMARK INTER:                  -5.207
REMARK INTRA:                  -0.675
REMARK UNBOUND:                -0.148
REMARK SMILES C=CCCCCCCC(=O)[O-]
REMARK SMILES IDX 6 1 7 2 8 3 9 4 10 5 11 6 5 7 4 8 3 9 2 10 1 11
REMARK H PARENT
REMARK Flexibility Score: inf
ROOT
ATOM      1  C   UNL     1      58.736  34.900  80.696  1.00  0.00     0.000 C 
ENDROOT
BRANCH   1   2
ATOM      2  C   UNL     1      59.095  33.896  79.591  1.00  0.00     0.006 C 
BRANCH   2   3
ATOM      3  C   UNL     1      57.851  33.238  78.978  1.00  0.00     0.053 C 
BRANCH   3   4
ATOM      4  C   UNL     1      58.125  32.700  77.607  1.00  0.00     0.041 C 
ATOM      5  O   UNL     1      58.135  31.457  77.405  1.00  0.00    -0.550 OA
ATOM      6  O   UNL     1      58.333  33.571  76.545  1.00  0.00    -0.550 OA
ENDBRANCH   3   4
ENDBRANCH   2   3
ENDBRANCH   1   2
BRANCH   1   7
ATOM      7  C   UNL     1      58.707  36.332  80.149  1.00  0.00     0.000 C 
BRANCH   7   8
ATOM      8  C   UNL     1      57.282  36.904  80.176  1.00  0.00     0.004 C 
BRANCH   8   9
ATOM      9  C   UNL     1      56.932  37.650  78.880  1.00  0.00     0.027 C 
BRANCH   9  10
ATOM     10  C   UNL     1      57.143  36.802  77.654  1.00  0.00    -0.035 C 
ATOM     11  C   UNL     1      56.117  36.332  76.938  1.00  0.00     0.004 C 
ENDBRANCH   9  10
ENDBRANCH   8   9
ENDBRANCH   7   8
ENDBRANCH   1   7
TORSDOF 7
ENDMDL
MODEL 4
REMARK VINA RESULT:    -4.050      3.336      5.977
REMARK INTER + INTRA:          -5.855
REMARK INTER:                  -5.132
REMARK INTRA:                  -0.723
REMARK UNBOUND:                -0.148
REMARK SMILES C=CCCCCCCC(=O)[O-]
REMARK SMILES IDX 6 1 7 2 8 3 9 4 10 5 11 6 5 7 4 8 3 9 2 10 1 11
REMARK H PARENT
REMARK Flexibility Score: inf
ROOT
ATOM      1  C   UNL     1      59.132  33.850  79.648  1.00  0.00     0.000 C 
ENDROOT
BRANCH   1   2
ATOM      2  C   UNL     1      57.869  33.346  78.935  1.00  0.00     0.006 C 
BRANCH   2   3
ATOM      3  C   UNL     1      57.895  33.639  77.428  1.00  0.00     0.053 C 
BRANCH   3   4
ATOM      4  C   UNL     1      57.946  32.381  76.617  1.00  0.00     0.041 C 
ATOM      5  O   UNL     1      57.550  32.383  75.421  1.00  0.00    -0.550 OA
ATOM      6  O   UNL     1      58.463  31.216  77.168  1.00  0.00    -0.550 OA
ENDBRANCH   3   4
ENDBRANCH   2   3
ENDBRANCH   1   2
BRANCH   1   7
ATOM      7  C   UNL     1      58.778  34.871  80.736  1.00  0.00     0.000 C 
BRANCH   7   8
ATOM      8  C   UNL     1      58.778  36.299  80.172  1.00  0.00     0.004 C 
BRANCH   8   9
ATOM      9  C   UNL     1      57.376  36.925  80.177  1.00  0.00     0.027 C 
BRANCH   9  10
ATOM     10  C   UNL     1      56.837  37.135  78.787  1.00  0.00    -0.035 C 
ATOM     11  C   UNL     1      57.640  37.400  77.753  1.00  0.00     0.004 C 
ENDBRANCH   9  10
ENDBRANCH   8   9
ENDBRANCH   7   8
ENDBRANCH   1   7
TORSDOF 7
ENDMDL
MODEL 5
REMARK VINA RESULT:    -4.046      2.573      3.640
REMARK INTER + INTRA:          -5.849
REMARK INTER:                  -5.121
REMARK INTRA:                  -0.728
REMARK UNBOUND:                -0.148
REMARK SMILES C=CCCCCCCC(=O)[O-]
REMARK SMILES IDX 6 1 7 2 8 3 9 4 10 5 11 6 5 7 4 8 3 9 2 10 1 11
REMARK H PARENT
REMARK Flexibility Score: inf
ROOT
ATOM      1  C   UNL     1      58.997  33.849  79.322  1.00  0.00     0.000 C 
ENDROOT
BRANCH   1   2
ATOM      2  C   UNL     1      58.449  34.196  80.714  1.00  0.00     0.006 C 
BRANCH   2   3
ATOM      3  C   UNL     1      58.919  35.576  81.196  1.00  0.00     0.053 C 
BRANCH   3   4
ATOM      4  C   UNL     1      58.343  36.681  80.365  1.00  0.00     0.041 C 
ATOM      5  O   UNL     1      59.082  37.335  79.582  1.00  0.00    -0.550 OA
ATOM      6  O   UNL     1      56.986  36.967  80.429  1.00  0.00    -0.550 OA
ENDBRANCH   3   4
ENDBRANCH   2   3
ENDBRANCH   1   2
BRANCH   1   7
ATOM      7  C   UNL     1      58.027  32.936  78.562  1.00  0.00     0.000 C 
BRANCH   7   8
ATOM      8  C   UNL     1      57.700  33.512  77.177  1.00  0.00     0.004 C 
BRANCH   8   9
ATOM      9  C   UNL     1      57.993  35.017  77.090  1.00  0.00     0.027 C 
BRANCH   9  10
ATOM     10  C   UNL     1      56.736  35.844  77.032  1.00  0.00    -0.035 C 
ATOM     11  C   UNL     1      56.773  37.168  76.858  1.00  0.00     0.004 C 
ENDBRANCH   9  10
ENDBRANCH   8   9
ENDBRANCH   7   8
ENDBRANCH   1   7
TORSDOF 7
ENDMDL
MODEL 6
REMARK VINA RESULT:    -3.978      3.358      4.667
REMARK INTER + INTRA:          -5.754
REMARK INTER:                  -5.076
REMARK INTRA:                  -0.678
REMARK UNBOUND:                -0.148
REMARK SMILES C=CCCCCCCC(=O)[O-]
REMARK SMILES IDX 6 1 7 2 8 3 9 4 10 5 11 6 5 7 4 8 3 9 2 10 1 11
REMARK H PARENT
REMARK Flexibility Score: inf
ROOT
ATOM      1  C   UNL     1      58.555  36.654  79.712  1.00  0.00     0.000 C 
ENDROOT
BRANCH   1   2
ATOM      2  C   UNL     1      57.098  37.126  79.594  1.00  0.00     0.006 C 
BRANCH   2   3
ATOM      3  C   UNL     1      56.616  37.164  78.137  1.00  0.00     0.053 C 
BRANCH   3   4
ATOM      4  C   UNL     1      57.404  38.137  77.315  1.00  0.00     0.041 C 
ATOM      5  O   UNL     1      58.034  37.742  76.298  1.00  0.00    -0.550 OA
ATOM      6  O   UNL     1      57.415  39.485  77.651  1.00  0.00    -0.550 OA
ENDBRANCH   3   4
ENDBRANCH   2   3
ENDBRANCH   1   2
BRANCH   1   7
ATOM      7  C   UNL     1      58.750  35.783  80.959  1.00  0.00     0.000 C 
BRANCH   7   8
ATOM      8  C   UNL     1      59.081  34.334  80.571  1.00  0.00     0.004 C 
BRANCH   8   9
ATOM      9  C   UNL     1      57.886  33.618  79.925  1.00  0.00     0.027 C 
BRANCH   9  10
ATOM     10  C   UNL     1      58.215  33.066  78.564  1.00  0.00    -0.035 C 
ATOM     11  C   UNL     1      57.824  33.679  77.443  1.00  0.00     0.004 C 
ENDBRANCH   9  10
ENDBRANCH   8   9
ENDBRANCH   7   8
ENDBRANCH   1   7
TORSDOF 7
ENDMDL
MODEL 7
REMARK VINA RESULT:    -3.915      3.631      5.392
REMARK INTER + INTRA:          -5.665
REMARK INTER:                  -4.944
REMARK INTRA:                  -0.721
REMARK UNBOUND:                -0.148
REMARK SMILES C=CCCCCCCC(=O)[O-]
REMARK SMILES IDX 6 1 7 2 8 3 9 4 10 5 11 6 5 7 4 8 3 9 2 10 1 11
REMARK H PARENT
REMARK Flexibility Score: inf
ROOT
ATOM      1  C   UNL     1      58.300  37.544  79.267  1.00  0.00     0.000 C 
ENDROOT
BRANCH   1   2
ATOM      2  C   UNL     1      57.373  37.785  78.066  1.00  0.00     0.006 C 
BRANCH   2   3
ATOM      3  C   UNL     1      56.493  36.566  77.758  1.00  0.00     0.053 C 
BRANCH   3   4
ATOM      4  C   UNL     1      56.927  35.868  76.506  1.00  0.00     0.041 C 
ATOM      5  O   UNL     1      56.073  35.506  75.654  1.00  0.00    -0.550 OA
ATOM      6  O   UNL     1      58.277  35.647  76.263  1.00  0.00    -0.550 OA
ENDBRANCH   3   4
ENDBRANCH   2   3
ENDBRANCH   1   2
BRANCH   1   7
ATOM      7  C   UNL     1      57.719  36.478  80.204  1.00  0.00     0.000 C 
BRANCH   7   8
ATOM      8  C   UNL     1      58.828  35.800  81.021  1.00  0.00     0.004 C 
BRANCH   8   9
ATOM      9  C   UNL     1      58.975  34.310  80.676  1.00  0.00     0.027 C 
BRANCH   9  10
ATOM     10  C   UNL     1      57.867  33.815  79.786  1.00  0.00    -0.035 C 
ATOM     11  C   UNL     1      58.114  33.090  78.691  1.00  0.00     0.004 C 
ENDBRANCH   9  10
ENDBRANCH   8   9
ENDBRANCH   7   8
ENDBRANCH   1   7
TORSDOF 7
ENDMDL
MODEL 8
REMARK VINA RESULT:    -3.900      2.171      3.266
REMARK INTER + INTRA:          -5.644
REMARK INTER:                  -5.233
REMARK INTRA:                  -0.411
REMARK UNBOUND:                -0.148
REMARK SMILES C=CCCCCCCC(=O)[O-]
REMARK SMILES IDX 6 1 7 2 8 3 9 4 10 5 11 6 5 7 4 8 3 9 2 10 1 11
REMARK H PARENT
REMARK Flexibility Score: inf
ROOT
ATOM      1  C   UNL     1      58.785  34.923  80.759  1.00  0.00     0.000 C 
ENDROOT
BRANCH   1   2
ATOM      2  C   UNL     1      58.731  36.333  80.153  1.00  0.00     0.006 C 
BRANCH   2   3
ATOM      3  C   UNL     1      57.291  36.837  79.982  1.00  0.00     0.053 C 
BRANCH   3   4
ATOM      4  C   UNL     1      57.002  37.226  78.565  1.00  0.00     0.041 C 
ATOM      5  O   UNL     1      57.256  38.393  78.165  1.00  0.00    -0.550 OA
ATOM      6  O   UNL     1      56.485  36.292  77.677  1.00  0.00    -0.550 OA
ENDBRANCH   3   4
ENDBRANCH   2   3
ENDBRANCH   1   2
BRANCH   1   7
ATOM      7  C   UNL     1      59.111  33.876  79.687  1.00  0.00     0.000 C 
BRANCH   7   8
ATOM      8  C   UNL     1      57.828  33.292  79.079  1.00  0.00     0.004 C 
BRANCH   8   9
ATOM      9  C   UNL     1      57.971  33.020  77.574  1.00  0.00     0.027 C 
BRANCH   9  10
ATOM     10  C   UNL     1      58.440  31.618  77.287  1.00  0.00    -0.035 C 
ATOM     11  C   UNL     1      57.960  30.912  76.258  1.00  0.00     0.004 C 
ENDBRANCH   9  10
ENDBRANCH   8   9
ENDBRANCH   7   8
ENDBRANCH   1   7
TORSDOF 7
ENDMDL
MODEL 9
REMARK VINA RESULT:    -3.894      1.894      2.737
REMARK INTER + INTRA:          -5.635
REMARK INTER:                  -4.961
REMARK INTRA:                  -0.674
REMARK UNBOUND:                -0.148
REMARK SMILES C=CCCCCCCC(=O)[O-]
REMARK SMILES IDX 6 1 7 2 8 3 9 4 10 5 11 6 5 7 4 8 3 9 2 10 1 11
REMARK H PARENT
REMARK Flexibility Score: inf
ROOT
ATOM      1  C   UNL     1      58.798  33.929  79.738  1.00  0.00     0.000 C 
ENDROOT
BRANCH   1   2
ATOM      2  C   UNL     1      58.897  35.406  79.328  1.00  0.00     0.006 C 
BRANCH   2   3
ATOM      3  C   UNL     1      57.520  36.025  79.051  1.00  0.00     0.053 C 
BRANCH   3   4
ATOM      4  C   UNL     1      57.151  37.046  80.083  1.00  0.00     0.041 C 
ATOM      5  O   UNL     1      57.956  37.328  81.010  1.00  0.00    -0.550 OA
ATOM      6  O   UNL     1      55.934  37.710  80.003  1.00  0.00    -0.550 OA
ENDBRANCH   3   4
ENDBRANCH   2   3
ENDBRANCH   1   2
BRANCH   1   7
ATOM      7  C   UNL     1      57.821  33.171  78.831  1.00  0.00     0.000 C 
BRANCH   7   8
ATOM      8  C   UNL     1      58.573  32.378  77.753  1.00  0.00     0.004 C 
BRANCH   8   9
ATOM      9  C   UNL     1      57.946  32.551  76.361  1.00  0.00     0.027 C 
BRANCH   9  10
ATOM     10  C   UNL     1      57.569  33.980  76.076  1.00  0.00    -0.035 C 
ATOM     11  C   UNL     1      58.299  34.753  75.266  1.00  0.00     0.004 C 
ENDBRANCH   9  10
ENDBRANCH   8   9
ENDBRANCH   7   8
ENDBRANCH   1   7
TORSDOF 7
ENDMDL
