MODEL 1
REMARK VINA RESULT:    -7.672      0.000      0.000
REMARK INTER + INTRA:          -9.295
REMARK INTER:                  -9.018
REMARK INTRA:                  -0.278
REMARK UNBOUND:                -0.278
REMARK SMILES O=c1cc(-c2ccc(O)c(O)c2)oc2cc(O)cc(O)c12
REMARK SMILES IDX 4 1 3 2 2 3 1 4 21 5 19 6 18 7 16 8 15 9 14 10 13 11 5 12
REMARK SMILES IDX 6 13 7 14 8 15 12 16 10 17 9 18 11 20 20 22 17 24
REMARK H PARENT 9 19 11 21 20 23 17 25
REMARK Flexibility Score: inf
ROOT
ATOM      1  C   UNL     1      15.222  15.644  61.987  1.00  0.00     0.138 A 
ATOM      2  C   UNL     1      14.879  15.362  60.658  1.00  0.00     0.100 A 
ATOM      3  C   UNL     1      15.831  15.519  59.651  1.00  0.00     0.197 A 
ATOM      4  O   UNL     1      15.509  15.203  58.476  1.00  0.00    -0.289 OA
ATOM      5  C   UNL     1      17.125  15.996  59.972  1.00  0.00     0.107 A 
ATOM      6  C   UNL     1      18.167  16.227  59.024  1.00  0.00     0.134 A 
ATOM      7  C   UNL     1      19.437  16.607  59.474  1.00  0.00     0.093 A 
ATOM      8  C   UNL     1      19.689  16.820  60.829  1.00  0.00     0.123 A 
ATOM      9  C   UNL     1      18.664  16.645  61.760  1.00  0.00     0.094 A 
ATOM     10  C   UNL     1      17.396  16.233  61.347  1.00  0.00     0.146 A 
ATOM     11  O   UNL     1      16.453  16.061  62.268  1.00  0.00    -0.456 OA
ENDROOT
BRANCH   1  12
ATOM     12  C   UNL     1      14.248  15.498  63.099  1.00  0.00     0.021 A 
ATOM     13  C   UNL     1      14.639  14.839  64.275  1.00  0.00     0.016 A 
ATOM     14  C   UNL     1      13.740  14.683  65.333  1.00  0.00     0.051 A 
ATOM     15  C   UNL     1      12.434  15.171  65.236  1.00  0.00     0.157 A 
ATOM     16  C   UNL     1      12.930  15.977  62.996  1.00  0.00     0.062 A 
ATOM     17  C   UNL     1      12.020  15.821  64.051  1.00  0.00     0.158 A 
BRANCH  15  18
ATOM     18  O   UNL     1      11.587  14.988  66.333  1.00  0.00    -0.504 OA
ATOM     19  H   UNL     1      10.966  15.698  66.691  1.00  0.00     0.293 HD
ENDBRANCH  15  18
BRANCH  17  20
ATOM     20  O   UNL     1      10.727  16.319  63.875  1.00  0.00    -0.504 OA
ATOM     21  H   UNL     1      10.244  16.886  64.557  1.00  0.00     0.293 HD
ENDBRANCH  17  20
ENDBRANCH   1  12
BRANCH   6  22
ATOM     22  O   UNL     1      18.004  16.122  57.639  1.00  0.00    -0.507 OA
ATOM     23  H   UNL     1      18.554  15.531  57.034  1.00  0.00     0.293 HD
ENDBRANCH   6  22
BRANCH   8  24
ATOM     24  O   UNL     1      20.962  17.213  61.238  1.00  0.00    -0.508 OA
ATOM     25  H   UNL     1      21.521  17.853  60.687  1.00  0.00     0.293 HD
ENDBRANCH   8  24
TORSDOF 5
ENDMDL
MODEL 2
REMARK VINA RESULT:    -7.156      2.022      2.973
REMARK INTER + INTRA:          -8.689
REMARK INTER:                  -8.374
REMARK INTRA:                  -0.314
REMARK UNBOUND:                -0.278
REMARK SMILES O=c1cc(-c2ccc(O)c(O)c2)oc2cc(O)cc(O)c12
REMARK SMILES IDX 4 1 3 2 2 3 1 4 21 5 19 6 18 7 16 8 15 9 14 10 13 11 5 12
REMARK SMILES IDX 6 13 7 14 8 15 12 16 10 17 9 18 11 20 20 22 17 24
REMARK H PARENT 9 19 11 21 20 23 17 25
REMARK Flexibility Score: inf
ROOT
ATOM      1  C   UNL     1      15.467  15.353  61.287  1.00  0.00     0.138 A 
ATOM      2  C   UNL     1      15.852  16.592  60.756  1.00  0.00     0.100 A 
ATOM      3  C   UNL     1      16.717  16.636  59.662  1.00  0.00     0.197 A 
ATOM      4  O   UNL     1      16.999  17.760  59.175  1.00  0.00    -0.289 OA
ATOM      5  C   UNL     1      17.225  15.432  59.118  1.00  0.00     0.107 A 
ATOM      6  C   UNL     1      18.140  15.355  58.024  1.00  0.00     0.134 A 
ATOM      7  C   UNL     1      18.497  14.102  57.511  1.00  0.00     0.093 A 
ATOM      8  C   UNL     1      18.020  12.924  58.084  1.00  0.00     0.123 A 
ATOM      9  C   UNL     1      17.165  12.987  59.186  1.00  0.00     0.094 A 
ATOM     10  C   UNL     1      16.763  14.221  59.700  1.00  0.00     0.146 A 
ATOM     11  O   UNL     1      15.934  14.236  60.739  1.00  0.00    -0.456 OA
ENDROOT
BRANCH   1  12
ATOM     12  C   UNL     1      14.552  15.247  62.452  1.00  0.00     0.021 A 
ATOM     13  C   UNL     1      13.796  16.365  62.839  1.00  0.00     0.016 A 
ATOM     14  C   UNL     1      12.933  16.293  63.934  1.00  0.00     0.051 A 
ATOM     15  C   UNL     1      12.813  15.111  64.672  1.00  0.00     0.157 A 
ATOM     16  C   UNL     1      14.442  14.062  63.202  1.00  0.00     0.062 A 
ATOM     17  C   UNL     1      13.581  13.983  64.305  1.00  0.00     0.158 A 
BRANCH  15  18
ATOM     18  O   UNL     1      11.927  15.104  65.752  1.00  0.00    -0.504 OA
ATOM     19  H   UNL     1      11.211  15.800  65.899  1.00  0.00     0.293 HD
ENDBRANCH  15  18
BRANCH  17  20
ATOM     20  O   UNL     1      13.527  12.774  65.003  1.00  0.00    -0.504 OA
ATOM     21  H   UNL     1      12.670  12.286  65.220  1.00  0.00     0.293 HD
ENDBRANCH  17  20
ENDBRANCH   1  12
BRANCH   6  22
ATOM     22  O   UNL     1      18.740  16.466  57.425  1.00  0.00    -0.507 OA
ATOM     23  H   UNL     1      19.246  16.452  56.552  1.00  0.00     0.293 HD
ENDBRANCH   6  22
BRANCH   8  24
ATOM     24  O   UNL     1      18.409  11.695  57.556  1.00  0.00    -0.508 OA
ATOM     25  H   UNL     1      18.301  11.484  56.570  1.00  0.00     0.293 HD
ENDBRANCH   8  24
TORSDOF 5
ENDMDL
MODEL 3
REMARK VINA RESULT:    -6.610      2.003      7.049
REMARK INTER + INTRA:          -8.047
REMARK INTER:                  -7.776
REMARK INTRA:                  -0.271
REMARK UNBOUND:                -0.278
REMARK SMILES O=c1cc(-c2ccc(O)c(O)c2)oc2cc(O)cc(O)c12
REMARK SMILES IDX 4 1 3 2 2 3 1 4 21 5 19 6 18 7 16 8 15 9 14 10 13 11 5 12
REMARK SMILES IDX 6 13 7 14 8 15 12 16 10 17 9 18 11 20 20 22 17 24
REMARK H PARENT 9 19 11 21 20 23 17 25
REMARK Flexibility Score: inf
ROOT
ATOM      1  C   UNL     1      15.838  16.754  62.447  1.00  0.00     0.138 A 
ATOM      2  C   UNL     1      15.205  15.537  62.731  1.00  0.00     0.100 A 
ATOM      3  C   UNL     1      13.876  15.531  63.155  1.00  0.00     0.197 A 
ATOM      4  O   UNL     1      13.320  14.419  63.348  1.00  0.00    -0.289 OA
ATOM      5  C   UNL     1      13.187  16.756  63.330  1.00  0.00     0.107 A 
ATOM      6  C   UNL     1      11.841  16.875  63.790  1.00  0.00     0.134 A 
ATOM      7  C   UNL     1      11.235  18.137  63.829  1.00  0.00     0.093 A 
ATOM      8  C   UNL     1      11.940  19.288  63.480  1.00  0.00     0.123 A 
ATOM      9  C   UNL     1      13.273  19.188  63.077  1.00  0.00     0.094 A 
ATOM     10  C   UNL     1      13.895  17.941  62.994  1.00  0.00     0.146 A 
ATOM     11  O   UNL     1      15.160  17.889  62.589  1.00  0.00    -0.456 OA
ENDROOT
BRANCH   1  12
ATOM     12  C   UNL     1      17.251  16.820  61.995  1.00  0.00     0.021 A 
ATOM     13  C   UNL     1      18.164  17.616  62.702  1.00  0.00     0.016 A 
ATOM     14  C   UNL     1      19.498  17.699  62.295  1.00  0.00     0.051 A 
ATOM     15  C   UNL     1      19.945  16.999  61.170  1.00  0.00     0.157 A 
ATOM     16  C   UNL     1      17.697  16.126  60.856  1.00  0.00     0.062 A 
ATOM     17  C   UNL     1      19.032  16.206  60.437  1.00  0.00     0.158 A 
BRANCH  15  18
ATOM     18  O   UNL     1      21.292  17.120  60.820  1.00  0.00    -0.504 OA
ATOM     19  H   UNL     1      21.722  16.625  60.053  1.00  0.00     0.293 HD
ENDBRANCH  15  18
BRANCH  17  20
ATOM     20  O   UNL     1      19.401  15.492  59.295  1.00  0.00    -0.504 OA
ATOM     21  H   UNL     1      18.762  14.933  58.749  1.00  0.00     0.293 HD
ENDBRANCH  17  20
ENDBRANCH   1  12
BRANCH   6  22
ATOM     22  O   UNL     1      11.068  15.800  64.238  1.00  0.00    -0.507 OA
ATOM     23  H   UNL     1      10.926  14.938  63.734  1.00  0.00     0.293 HD
ENDBRANCH   6  22
BRANCH   8  24
ATOM     24  O   UNL     1      11.308  20.528  63.546  1.00  0.00    -0.508 OA
ATOM     25  H   UNL     1      11.392  21.122  64.363  1.00  0.00     0.293 HD
ENDBRANCH   8  24
TORSDOF 5
ENDMDL
MODEL 4
REMARK VINA RESULT:    -6.524      1.440      7.293
REMARK INTER + INTRA:          -7.945
REMARK INTER:                  -7.682
REMARK INTRA:                  -0.264
REMARK UNBOUND:                -0.278
REMARK SMILES O=c1cc(-c2ccc(O)c(O)c2)oc2cc(O)cc(O)c12
REMARK SMILES IDX 4 1 3 2 2 3 1 4 21 5 19 6 18 7 16 8 15 9 14 10 13 11 5 12
REMARK SMILES IDX 6 13 7 14 8 15 12 16 10 17 9 18 11 20 20 22 17 24
REMARK H PARENT 9 19 11 21 20 23 17 25
REMARK Flexibility Score: inf
ROOT
ATOM      1  C   UNL     1      15.167  15.569  61.912  1.00  0.00     0.138 A 
ATOM      2  C   UNL     1      15.298  14.515  62.826  1.00  0.00     0.100 A 
ATOM      3  C   UNL     1      14.383  14.390  63.872  1.00  0.00     0.197 A 
ATOM      4  O   UNL     1      14.495  13.402  64.642  1.00  0.00    -0.289 OA
ATOM      5  C   UNL     1      13.352  15.348  64.024  1.00  0.00     0.107 A 
ATOM      6  C   UNL     1      12.383  15.342  65.073  1.00  0.00     0.134 A 
ATOM      7  C   UNL     1      11.351  16.288  65.062  1.00  0.00     0.093 A 
ATOM      8  C   UNL     1      11.283  17.273  64.078  1.00  0.00     0.123 A 
ATOM      9  C   UNL     1      12.255  17.319  63.076  1.00  0.00     0.094 A 
ATOM     10  C   UNL     1      13.277  16.369  63.039  1.00  0.00     0.146 A 
ATOM     11  O   UNL     1      14.172  16.438  62.058  1.00  0.00    -0.456 OA
ENDROOT
BRANCH   1  12
ATOM     12  C   UNL     1      16.113  15.751  60.781  1.00  0.00     0.021 A 
ATOM     13  C   UNL     1      15.716  15.388  59.485  1.00  0.00     0.016 A 
ATOM     14  C   UNL     1      16.588  15.544  58.406  1.00  0.00     0.051 A 
ATOM     15  C   UNL     1      17.876  16.055  58.598  1.00  0.00     0.157 A 
ATOM     16  C   UNL     1      17.412  16.252  60.977  1.00  0.00     0.062 A 
ATOM     17  C   UNL     1      18.296  16.409  59.900  1.00  0.00     0.158 A 
BRANCH  15  18
ATOM     18  O   UNL     1      18.697  16.192  57.475  1.00  0.00    -0.504 OA
ATOM     19  H   UNL     1      18.361  16.453  56.560  1.00  0.00     0.293 HD
ENDBRANCH  15  18
BRANCH  17  20
ATOM     20  O   UNL     1      19.571  16.910  60.172  1.00  0.00    -0.504 OA
ATOM     21  H   UNL     1      19.748  17.836  60.533  1.00  0.00     0.293 HD
ENDBRANCH  17  20
ENDBRANCH   1  12
BRANCH   6  22
ATOM     22  O   UNL     1      12.400  14.453  66.151  1.00  0.00    -0.507 OA
ATOM     23  H   UNL     1      11.607  13.920  66.475  1.00  0.00     0.293 HD
ENDBRANCH   6  22
BRANCH   8  24
ATOM     24  O   UNL     1      10.250  18.207  64.108  1.00  0.00    -0.508 OA
ATOM     25  H   UNL     1       9.515  18.207  63.410  1.00  0.00     0.293 HD
ENDBRANCH   8  24
TORSDOF 5
ENDMDL
MODEL 5
REMARK VINA RESULT:    -6.493      1.235      2.680
REMARK INTER + INTRA:          -7.909
REMARK INTER:                  -7.638
REMARK INTRA:                  -0.271
REMARK UNBOUND:                -0.278
REMARK SMILES O=c1cc(-c2ccc(O)c(O)c2)oc2cc(O)cc(O)c12
REMARK SMILES IDX 4 1 3 2 2 3 1 4 21 5 19 6 18 7 16 8 15 9 14 10 13 11 5 12
REMARK SMILES IDX 6 13 7 14 8 15 12 16 10 17 9 18 11 20 20 22 17 24
REMARK H PARENT 9 19 11 21 20 23 17 25
REMARK Flexibility Score: inf
ROOT
ATOM      1  C   UNL     1      15.267  16.303  62.394  1.00  0.00     0.138 A 
ATOM      2  C   UNL     1      16.450  16.886  62.867  1.00  0.00     0.100 A 
ATOM      3  C   UNL     1      17.534  17.046  62.004  1.00  0.00     0.197 A 
ATOM      4  O   UNL     1      18.562  17.624  62.443  1.00  0.00    -0.289 OA
ATOM      5  C   UNL     1      17.444  16.588  60.667  1.00  0.00     0.107 A 
ATOM      6  C   UNL     1      18.497  16.667  59.706  1.00  0.00     0.134 A 
ATOM      7  C   UNL     1      18.256  16.268  58.385  1.00  0.00     0.093 A 
ATOM      8  C   UNL     1      17.023  15.741  58.004  1.00  0.00     0.123 A 
ATOM      9  C   UNL     1      16.003  15.612  58.948  1.00  0.00     0.094 A 
ATOM     10  C   UNL     1      16.200  16.033  60.264  1.00  0.00     0.146 A 
ATOM     11  O   UNL     1      15.196  15.909  61.127  1.00  0.00    -0.456 OA
ENDROOT
BRANCH   1  12
ATOM     12  C   UNL     1      14.083  16.105  63.270  1.00  0.00     0.021 A 
ATOM     13  C   UNL     1      14.152  15.181  64.323  1.00  0.00     0.016 A 
ATOM     14  C   UNL     1      13.052  14.972  65.157  1.00  0.00     0.051 A 
ATOM     15  C   UNL     1      11.859  15.671  64.953  1.00  0.00     0.157 A 
ATOM     16  C   UNL     1      12.879  16.799  63.055  1.00  0.00     0.062 A 
ATOM     17  C   UNL     1      11.768  16.593  63.884  1.00  0.00     0.158 A 
BRANCH  15  18
ATOM     18  O   UNL     1      10.798  15.420  65.826  1.00  0.00    -0.504 OA
ATOM     19  H   UNL     1      10.588  15.985  66.636  1.00  0.00     0.293 HD
ENDBRANCH  15  18
BRANCH  17  20
ATOM     20  O   UNL     1      10.605  17.316  63.608  1.00  0.00    -0.504 OA
ATOM     21  H   UNL     1       9.733  17.189  64.100  1.00  0.00     0.293 HD
ENDBRANCH  17  20
ENDBRANCH   1  12
BRANCH   6  22
ATOM     22  O   UNL     1      19.793  17.104  59.997  1.00  0.00    -0.507 OA
ATOM     23  H   UNL     1      20.231  17.055  60.903  1.00  0.00     0.293 HD
ENDBRANCH   6  22
BRANCH   8  24
ATOM     24  O   UNL     1      16.825  15.341  56.684  1.00  0.00    -0.508 OA
ATOM     25  H   UNL     1      16.717  14.364  56.437  1.00  0.00     0.293 HD
ENDBRANCH   8  24
TORSDOF 5
ENDMDL
MODEL 6
REMARK VINA RESULT:    -6.480      3.508      7.018
REMARK INTER + INTRA:          -7.894
REMARK INTER:                  -7.630
REMARK INTRA:                  -0.264
REMARK UNBOUND:                -0.278
REMARK SMILES O=c1cc(-c2ccc(O)c(O)c2)oc2cc(O)cc(O)c12
REMARK SMILES IDX 4 1 3 2 2 3 1 4 21 5 19 6 18 7 16 8 15 9 14 10 13 11 5 12
REMARK SMILES IDX 6 13 7 14 8 15 12 16 10 17 9 18 11 20 20 22 17 24
REMARK H PARENT 9 19 11 21 20 23 17 25
REMARK Flexibility Score: inf
ROOT
ATOM      1  C   UNL     1      14.982  12.510  61.397  1.00  0.00     0.138 A 
ATOM      2  C   UNL     1      14.478  11.803  62.498  1.00  0.00     0.100 A 
ATOM      3  C   UNL     1      14.024  12.500  63.617  1.00  0.00     0.197 A 
ATOM      4  O   UNL     1      13.525  11.840  64.565  1.00  0.00    -0.289 OA
ATOM      5  C   UNL     1      14.108  13.913  63.649  1.00  0.00     0.107 A 
ATOM      6  C   UNL     1      13.707  14.729  64.751  1.00  0.00     0.134 A 
ATOM      7  C   UNL     1      13.746  16.123  64.627  1.00  0.00     0.093 A 
ATOM      8  C   UNL     1      14.225  16.732  63.468  1.00  0.00     0.123 A 
ATOM      9  C   UNL     1      14.667  15.943  62.404  1.00  0.00     0.094 A 
ATOM     10  C   UNL     1      14.607  14.551  62.482  1.00  0.00     0.146 A 
ATOM     11  O   UNL     1      15.022  13.838  61.440  1.00  0.00    -0.456 OA
ENDROOT
BRANCH   1  12
ATOM     12  C   UNL     1      15.482  11.820  60.181  1.00  0.00     0.021 A 
ATOM     13  C   UNL     1      16.839  11.476  60.092  1.00  0.00     0.016 A 
ATOM     14  C   UNL     1      17.335  10.832  58.957  1.00  0.00     0.051 A 
ATOM     15  C   UNL     1      16.492  10.526  57.885  1.00  0.00     0.157 A 
ATOM     16  C   UNL     1      14.635  11.525  59.097  1.00  0.00     0.062 A 
ATOM     17  C   UNL     1      15.126  10.882  57.952  1.00  0.00     0.158 A 
BRANCH  15  18
ATOM     18  O   UNL     1      17.050   9.875  56.781  1.00  0.00    -0.504 OA
ATOM     19  H   UNL     1      16.661   9.045  56.360  1.00  0.00     0.293 HD
ENDBRANCH  15  18
BRANCH  17  20
ATOM     20  O   UNL     1      14.227  10.625  56.914  1.00  0.00    -0.504 OA
ATOM     21  H   UNL     1      13.223  10.660  57.016  1.00  0.00     0.293 HD
ENDBRANCH  17  20
ENDBRANCH   1  12
BRANCH   6  22
ATOM     22  O   UNL     1      13.286  14.226  65.986  1.00  0.00    -0.507 OA
ATOM     23  H   UNL     1      13.445  14.671  66.877  1.00  0.00     0.293 HD
ENDBRANCH   6  22
BRANCH   8  24
ATOM     24  O   UNL     1      14.264  18.122  63.387  1.00  0.00    -0.508 OA
ATOM     25  H   UNL     1      15.103  18.642  63.613  1.00  0.00     0.293 HD
ENDBRANCH   8  24
TORSDOF 5
ENDMDL
MODEL 7
REMARK VINA RESULT:    -6.434      3.474      5.044
REMARK INTER + INTRA:          -7.840
REMARK INTER:                  -7.538
REMARK INTRA:                  -0.302
REMARK UNBOUND:                -0.278
REMARK SMILES O=c1cc(-c2ccc(O)c(O)c2)oc2cc(O)cc(O)c12
REMARK SMILES IDX 4 1 3 2 2 3 1 4 21 5 19 6 18 7 16 8 15 9 14 10 13 11 5 12
REMARK SMILES IDX 6 13 7 14 8 15 12 16 10 17 9 18 11 20 20 22 17 24
REMARK H PARENT 9 19 11 21 20 23 17 25
REMARK Flexibility Score: inf
ROOT
ATOM      1  C   UNL     1      13.693  14.884  63.100  1.00  0.00     0.138 A 
ATOM      2  C   UNL     1      13.363  13.854  63.992  1.00  0.00     0.100 A 
ATOM      3  C   UNL     1      13.898  12.580  63.805  1.00  0.00     0.197 A 
ATOM      4  O   UNL     1      13.627  11.693  64.654  1.00  0.00    -0.289 OA
ATOM      5  C   UNL     1      14.742  12.326  62.696  1.00  0.00     0.107 A 
ATOM      6  C   UNL     1      15.318  11.057  62.385  1.00  0.00     0.134 A 
ATOM      7  C   UNL     1      16.217  10.952  61.316  1.00  0.00     0.093 A 
ATOM      8  C   UNL     1      16.515  12.052  60.513  1.00  0.00     0.123 A 
ATOM      9  C   UNL     1      15.918  13.285  60.777  1.00  0.00     0.094 A 
ATOM     10  C   UNL     1      15.045  13.431  61.857  1.00  0.00     0.146 A 
ATOM     11  O   UNL     1      14.511  14.628  62.085  1.00  0.00    -0.456 OA
ENDROOT
BRANCH   1  12
ATOM     12  C   UNL     1      13.149  16.258  63.249  1.00  0.00     0.021 A 
ATOM     13  C   UNL     1      11.834  16.433  63.704  1.00  0.00     0.016 A 
ATOM     14  C   UNL     1      11.298  17.715  63.847  1.00  0.00     0.051 A 
ATOM     15  C   UNL     1      12.057  18.845  63.531  1.00  0.00     0.157 A 
ATOM     16  C   UNL     1      13.909  17.394  62.917  1.00  0.00     0.062 A 
ATOM     17  C   UNL     1      13.378  18.684  63.054  1.00  0.00     0.158 A 
BRANCH  15  18
ATOM     18  O   UNL     1      11.463  20.098  63.703  1.00  0.00    -0.504 OA
ATOM     19  H   UNL     1      10.812  20.317  64.442  1.00  0.00     0.293 HD
ENDBRANCH  15  18
BRANCH  17  20
ATOM     20  O   UNL     1      14.190  19.764  62.703  1.00  0.00    -0.504 OA
ATOM     21  H   UNL     1      14.712  19.820  61.840  1.00  0.00     0.293 HD
ENDBRANCH  17  20
ENDBRANCH   1  12
BRANCH   6  22
ATOM     22  O   UNL     1      15.029   9.875  63.073  1.00  0.00    -0.507 OA
ATOM     23  H   UNL     1      14.311   9.215  62.815  1.00  0.00     0.293 HD
ENDBRANCH   6  22
BRANCH   8  24
ATOM     24  O   UNL     1      17.402  11.905  59.449  1.00  0.00    -0.508 OA
ATOM     25  H   UNL     1      18.131  11.202  59.459  1.00  0.00     0.293 HD
ENDBRANCH   8  24
TORSDOF 5
ENDMDL
MODEL 8
REMARK VINA RESULT:    -6.381      4.768      6.761
REMARK INTER + INTRA:          -7.778
REMARK INTER:                  -7.508
REMARK INTRA:                  -0.270
REMARK UNBOUND:                -0.278
REMARK SMILES O=c1cc(-c2ccc(O)c(O)c2)oc2cc(O)cc(O)c12
REMARK SMILES IDX 4 1 3 2 2 3 1 4 21 5 19 6 18 7 16 8 15 9 14 10 13 11 5 12
REMARK SMILES IDX 6 13 7 14 8 15 12 16 10 17 9 18 11 20 20 22 17 24
REMARK H PARENT 9 19 11 21 20 23 17 25
REMARK Flexibility Score: inf
ROOT
ATOM      1  C   UNL     1      12.232  19.599  63.508  1.00  0.00     0.138 A 
ATOM      2  C   UNL     1      11.203  18.673  63.726  1.00  0.00     0.100 A 
ATOM      3  C   UNL     1      11.471  17.307  63.635  1.00  0.00     0.197 A 
ATOM      4  O   UNL     1      10.539  16.502  63.891  1.00  0.00    -0.289 OA
ATOM      5  C   UNL     1      12.772  16.867  63.291  1.00  0.00     0.107 A 
ATOM      6  C   UNL     1      13.154  15.500  63.136  1.00  0.00     0.134 A 
ATOM      7  C   UNL     1      14.496  15.183  62.889  1.00  0.00     0.093 A 
ATOM      8  C   UNL     1      15.456  16.181  62.734  1.00  0.00     0.123 A 
ATOM      9  C   UNL     1      15.084  17.523  62.832  1.00  0.00     0.094 A 
ATOM     10  C   UNL     1      13.761  17.870  63.113  1.00  0.00     0.146 A 
ATOM     11  O   UNL     1      13.452  19.159  63.216  1.00  0.00    -0.456 OA
ENDROOT
BRANCH   1  12
ATOM     12  C   UNL     1      12.002  21.064  63.588  1.00  0.00     0.021 A 
ATOM     13  C   UNL     1      11.308  21.710  62.554  1.00  0.00     0.016 A 
ATOM     14  C   UNL     1      11.084  23.088  62.603  1.00  0.00     0.051 A 
ATOM     15  C   UNL     1      11.555  23.850  63.676  1.00  0.00     0.157 A 
ATOM     16  C   UNL     1      12.489  21.832  64.662  1.00  0.00     0.062 A 
ATOM     17  C   UNL     1      12.271  23.216  64.717  1.00  0.00     0.158 A 
BRANCH  15  18
ATOM     18  O   UNL     1      11.291  25.222  63.667  1.00  0.00    -0.504 OA
ATOM     19  H   UNL     1      11.763  25.891  64.257  1.00  0.00     0.293 HD
ENDBRANCH  15  18
BRANCH  17  20
ATOM     20  O   UNL     1      12.786  23.913  65.812  1.00  0.00    -0.504 OA
ATOM     21  H   UNL     1      12.216  24.394  66.493  1.00  0.00     0.293 HD
ENDBRANCH  17  20
ENDBRANCH   1  12
BRANCH   6  22
ATOM     22  O   UNL     1      12.262  14.425  63.193  1.00  0.00    -0.507 OA
ATOM     23  H   UNL     1      11.378  14.379  62.710  1.00  0.00     0.293 HD
ENDBRANCH   6  22
BRANCH   8  24
ATOM     24  O   UNL     1      16.779  15.828  62.473  1.00  0.00    -0.508 OA
ATOM     25  H   UNL     1      17.011  14.985  61.962  1.00  0.00     0.293 HD
ENDBRANCH   8  24
TORSDOF 5
ENDMDL
MODEL 9
REMARK VINA RESULT:    -6.331      5.011      7.091
REMARK INTER + INTRA:          -7.719
REMARK INTER:                  -7.401
REMARK INTRA:                  -0.317
REMARK UNBOUND:                -0.278
REMARK SMILES O=c1cc(-c2ccc(O)c(O)c2)oc2cc(O)cc(O)c12
REMARK SMILES IDX 4 1 3 2 2 3 1 4 21 5 19 6 18 7 16 8 15 9 14 10 13 11 5 12
REMARK SMILES IDX 6 13 7 14 8 15 12 16 10 17 9 18 11 20 20 22 17 24
REMARK H PARENT 9 19 11 21 20 23 17 25
REMARK Flexibility Score: inf
ROOT
ATOM      1  C   UNL     1      12.669  19.107  63.139  1.00  0.00     0.138 A 
ATOM      2  C   UNL     1      11.409  19.439  63.654  1.00  0.00     0.100 A 
ATOM      3  C   UNL     1      10.903  20.726  63.467  1.00  0.00     0.197 A 
ATOM      4  O   UNL     1       9.746  20.975  63.892  1.00  0.00    -0.289 OA
ATOM      5  C   UNL     1      11.680  21.696  62.789  1.00  0.00     0.107 A 
ATOM      6  C   UNL     1      11.281  23.049  62.569  1.00  0.00     0.134 A 
ATOM      7  C   UNL     1      12.094  23.891  61.800  1.00  0.00     0.093 A 
ATOM      8  C   UNL     1      13.315  23.449  61.291  1.00  0.00     0.123 A 
ATOM      9  C   UNL     1      13.738  22.142  61.544  1.00  0.00     0.094 A 
ATOM     10  C   UNL     1      12.934  21.268  62.278  1.00  0.00     0.146 A 
ATOM     11  O   UNL     1      13.366  20.027  62.480  1.00  0.00    -0.456 OA
ENDROOT
BRANCH   1  12
ATOM     12  C   UNL     1      13.258  17.755  63.312  1.00  0.00     0.021 A 
ATOM     13  C   UNL     1      12.480  16.731  63.873  1.00  0.00     0.016 A 
ATOM     14  C   UNL     1      13.011  15.452  64.052  1.00  0.00     0.051 A 
ATOM     15  C   UNL     1      14.331  15.170  63.684  1.00  0.00     0.157 A 
ATOM     16  C   UNL     1      14.590  17.476  62.955  1.00  0.00     0.062 A 
ATOM     17  C   UNL     1      15.133  16.196  63.133  1.00  0.00     0.158 A 
BRANCH  15  18
ATOM     18  O   UNL     1      14.799  13.869  63.883  1.00  0.00    -0.504 OA
ATOM     19  H   UNL     1      15.705  13.543  63.580  1.00  0.00     0.293 HD
ENDBRANCH  15  18
BRANCH  17  20
ATOM     20  O   UNL     1      16.463  15.994  62.758  1.00  0.00    -0.504 OA
ATOM     21  H   UNL     1      16.778  15.951  61.800  1.00  0.00     0.293 HD
ENDBRANCH  17  20
ENDBRANCH   1  12
BRANCH   6  22
ATOM     22  O   UNL     1      10.119  23.620  63.096  1.00  0.00    -0.507 OA
ATOM     23  H   UNL     1      10.096  24.380  63.759  1.00  0.00     0.293 HD
ENDBRANCH   6  22
BRANCH   8  24
ATOM     24  O   UNL     1      14.104  24.319  60.543  1.00  0.00    -0.508 OA
ATOM     25  H   UNL     1      14.480  24.050  59.641  1.00  0.00     0.293 HD
ENDBRANCH   8  24
TORSDOF 5
ENDMDL
