MODEL 1
REMARK VINA RESULT:    -4.801      0.000      0.000
REMARK INTER + INTRA:          -9.078
REMARK INTER:                  -8.168
REMARK INTRA:                  -0.909
REMARK UNBOUND:                -0.909
REMARK SMILES CCCCCCCCCCCCCC(=O)[O-]
REMARK SMILES IDX 8 1 9 2 10 3 11 4 12 5 13 6 14 7 15 8 16 9 7 10 6 11 5 12
REMARK SMILES IDX 4 13 3 14 2 15 1 16
REMARK H PARENT
REMARK Flexibility Score: inf
ROOT
ATOM      1  C   UNL     1      -9.492  -7.387  -5.532  1.00  0.00     0.000 C 
ENDROOT
BRANCH   1   2
ATOM      2  C   UNL     1      -8.750  -8.519  -4.806  1.00  0.00     0.000 C 
BRANCH   2   3
ATOM      3  C   UNL     1      -9.284  -9.913  -5.177  1.00  0.00     0.000 C 
BRANCH   3   4
ATOM      4  C   UNL     1      -8.160 -10.948  -5.356  1.00  0.00     0.000 C 
BRANCH   4   5
ATOM      5  C   UNL     1      -6.755 -10.330  -5.221  1.00  0.00     0.006 C 
BRANCH   5   6
ATOM      6  C   UNL     1      -5.986 -10.206  -6.547  1.00  0.00     0.053 C 
BRANCH   6   7
ATOM      7  C   UNL     1      -4.805 -11.128  -6.600  1.00  0.00     0.041 C 
ATOM      8  O   UNL     1      -4.868 -12.201  -7.256  1.00  0.00    -0.550 OA
ATOM      9  O   UNL     1      -3.648 -10.817  -5.897  1.00  0.00    -0.550 OA
ENDBRANCH   6   7
ENDBRANCH   5   6
ENDBRANCH   4   5
ENDBRANCH   3   4
ENDBRANCH   2   3
ENDBRANCH   1   2
BRANCH   1  10
ATOM     10  C   UNL     1     -10.939  -7.794  -5.848  1.00  0.00     0.000 C 
BRANCH  10  11
ATOM     11  C   UNL     1     -11.956  -6.672  -5.564  1.00  0.00    -0.000 C 
BRANCH  11  12
ATOM     12  C   UNL     1     -11.375  -5.246  -5.565  1.00  0.00    -0.000 C 
BRANCH  12  13
ATOM     13  C   UNL     1     -11.891  -4.388  -6.733  1.00  0.00    -0.000 C 
BRANCH  13  14
ATOM     14  C   UNL     1     -10.771  -3.973  -7.699  1.00  0.00    -0.000 C 
BRANCH  14  15
ATOM     15  C   UNL     1     -10.466  -5.048  -8.752  1.00  0.00    -0.003 C 
ATOM     16  C   UNL     1     -10.932  -4.609 -10.136  1.00  0.00     0.004 C 
ENDBRANCH  14  15
ENDBRANCH  13  14
ENDBRANCH  12  13
ENDBRANCH  11  12
ENDBRANCH  10  11
ENDBRANCH   1  10
TORSDOF 12
ENDMDL
MODEL 2
REMARK VINA RESULT:    -4.775      3.330      7.055
REMARK INTER + INTRA:          -9.034
REMARK INTER:                  -8.084
REMARK INTRA:                  -0.950
REMARK UNBOUND:                -0.909
REMARK SMILES CCCCCCCCCCCCCC(=O)[O-]
REMARK SMILES IDX 8 1 9 2 10 3 11 4 12 5 13 6 14 7 15 8 16 9 7 10 6 11 5 12
REMARK SMILES IDX 4 13 3 14 2 15 1 16
REMARK H PARENT
REMARK Flexibility Score: inf
ROOT
ATOM      1  C   UNL     1     -11.734  -7.012  -5.705  1.00  0.00     0.000 C 
ENDROOT
BRANCH   1   2
ATOM      2  C   UNL     1     -12.833  -6.020  -5.294  1.00  0.00     0.000 C 
BRANCH   2   3
ATOM      3  C   UNL     1     -12.387  -4.554  -5.421  1.00  0.00     0.000 C 
BRANCH   3   4
ATOM      4  C   UNL     1     -12.510  -4.022  -6.859  1.00  0.00     0.000 C 
BRANCH   4   5
ATOM      5  C   UNL     1     -11.142  -3.759  -7.516  1.00  0.00     0.006 C 
BRANCH   5   6
ATOM      6  C   UNL     1     -11.161  -3.775  -9.053  1.00  0.00     0.053 C 
BRANCH   6   7
ATOM      7  C   UNL     1     -10.944  -5.152  -9.603  1.00  0.00     0.041 C 
ATOM      8  O   UNL     1     -11.302  -5.428 -10.779  1.00  0.00    -0.550 OA
ATOM      9  O   UNL     1     -10.378  -6.139  -8.806  1.00  0.00    -0.550 OA
ENDBRANCH   6   7
ENDBRANCH   5   6
ENDBRANCH   4   5
ENDBRANCH   3   4
ENDBRANCH   2   3
ENDBRANCH   1   2
BRANCH   1  10
ATOM     10  C   UNL     1     -10.359  -6.545  -5.205  1.00  0.00     0.000 C 
BRANCH  10  11
ATOM     11  C   UNL     1      -9.197  -7.392  -5.758  1.00  0.00    -0.000 C 
BRANCH  11  12
ATOM     12  C   UNL     1      -8.655  -8.467  -4.799  1.00  0.00    -0.000 C 
BRANCH  12  13
ATOM     13  C   UNL     1      -9.235  -9.865  -5.075  1.00  0.00    -0.000 C 
BRANCH  13  14
ATOM     14  C   UNL     1      -8.152 -10.887  -5.457  1.00  0.00    -0.000 C 
BRANCH  14  15
ATOM     15  C   UNL     1      -6.730 -10.369  -5.198  1.00  0.00    -0.003 C 
ATOM     16  C   UNL     1      -5.808 -10.684  -6.372  1.00  0.00     0.004 C 
ENDBRANCH  14  15
ENDBRANCH  13  14
ENDBRANCH  12  13
ENDBRANCH  11  12
ENDBRANCH  10  11
ENDBRANCH   1  10
TORSDOF 12
ENDMDL
MODEL 3
REMARK VINA RESULT:    -4.767      0.902      1.593
REMARK INTER + INTRA:          -9.020
REMARK INTER:                  -7.992
REMARK INTRA:                  -1.028
REMARK UNBOUND:                -0.909
REMARK SMILES CCCCCCCCCCCCCC(=O)[O-]
REMARK SMILES IDX 8 1 9 2 10 3 11 4 12 5 13 6 14 7 15 8 16 9 7 10 6 11 5 12
REMARK SMILES IDX 4 13 3 14 2 15 1 16
REMARK H PARENT
REMARK Flexibility Score: inf
ROOT
ATOM      1  C   UNL     1     -10.913  -7.422  -6.142  1.00  0.00     0.000 C 
ENDROOT
BRANCH   1   2
ATOM      2  C   UNL     1      -9.488  -6.981  -5.778  1.00  0.00     0.000 C 
BRANCH   2   3
ATOM      3  C   UNL     1      -8.825  -7.907  -4.746  1.00  0.00     0.000 C 
BRANCH   3   4
ATOM      4  C   UNL     1      -8.757  -9.369  -5.222  1.00  0.00     0.000 C 
BRANCH   4   5
ATOM      5  C   UNL     1      -7.347  -9.974  -5.088  1.00  0.00     0.006 C 
BRANCH   5   6
ATOM      6  C   UNL     1      -6.538  -9.995  -6.394  1.00  0.00     0.053 C 
BRANCH   6   7
ATOM      7  C   UNL     1      -6.330 -11.389  -6.905  1.00  0.00     0.041 C 
ATOM      8  O   UNL     1      -7.314 -12.157  -7.068  1.00  0.00    -0.550 OA
ATOM      9  O   UNL     1      -5.046 -11.849  -7.168  1.00  0.00    -0.550 OA
ENDBRANCH   6   7
ENDBRANCH   5   6
ENDBRANCH   4   5
ENDBRANCH   3   4
ENDBRANCH   2   3
ENDBRANCH   1   2
BRANCH   1  10
ATOM     10  C   UNL     1     -11.956  -6.593  -5.376  1.00  0.00     0.000 C 
BRANCH  10  11
ATOM     11  C   UNL     1     -11.761  -5.075  -5.545  1.00  0.00    -0.000 C 
BRANCH  11  12
ATOM     12  C   UNL     1     -12.386  -4.472  -6.817  1.00  0.00    -0.000 C 
BRANCH  12  13
ATOM     13  C   UNL     1     -11.370  -3.700  -7.676  1.00  0.00    -0.000 C 
BRANCH  13  14
ATOM     14  C   UNL     1     -10.427  -4.632  -8.453  1.00  0.00    -0.000 C 
BRANCH  14  15
ATOM     15  C   UNL     1     -11.152  -5.436  -9.542  1.00  0.00    -0.003 C 
ATOM     16  C   UNL     1     -11.193  -4.665 -10.858  1.00  0.00     0.004 C 
ENDBRANCH  14  15
ENDBRANCH  13  14
ENDBRANCH  12  13
ENDBRANCH  11  12
ENDBRANCH  10  11
ENDBRANCH   1  10
TORSDOF 12
ENDMDL
MODEL 4
REMARK VINA RESULT:    -4.727      4.096      7.411
REMARK INTER + INTRA:          -8.953
REMARK INTER:                  -7.942
REMARK INTRA:                  -1.011
REMARK UNBOUND:                -0.909
REMARK SMILES CCCCCCCCCCCCCC(=O)[O-]
REMARK SMILES IDX 8 1 9 2 10 3 11 4 12 5 13 6 14 7 15 8 16 9 7 10 6 11 5 12
REMARK SMILES IDX 4 13 3 14 2 15 1 16
REMARK H PARENT
REMARK Flexibility Score: inf
ROOT
ATOM      1  C   UNL     1     -10.547  -5.872  -8.826  1.00  0.00     0.000 C 
ENDROOT
BRANCH   1   2
ATOM      2  C   UNL     1     -10.401  -4.363  -8.582  1.00  0.00     0.000 C 
BRANCH   2   3
ATOM      3  C   UNL     1     -11.724  -3.697  -8.170  1.00  0.00     0.000 C 
BRANCH   3   4
ATOM      4  C   UNL     1     -11.836  -3.497  -6.648  1.00  0.00     0.000 C 
BRANCH   4   5
ATOM      5  C   UNL     1     -12.828  -4.474  -5.991  1.00  0.00     0.006 C 
BRANCH   5   6
ATOM      6  C   UNL     1     -12.365  -5.034  -4.636  1.00  0.00     0.053 C 
BRANCH   6   7
ATOM      7  C   UNL     1     -13.354  -6.000  -4.059  1.00  0.00     0.041 C 
ATOM      8  O   UNL     1     -13.994  -5.705  -3.015  1.00  0.00    -0.550 OA
ATOM      9  O   UNL     1     -13.545  -7.240  -4.656  1.00  0.00    -0.550 OA
ENDBRANCH   6   7
ENDBRANCH   5   6
ENDBRANCH   4   5
ENDBRANCH   3   4
ENDBRANCH   2   3
ENDBRANCH   1   2
BRANCH   1  10
ATOM     10  C   UNL     1     -10.540  -6.646  -7.499  1.00  0.00     0.000 C 
BRANCH  10  11
ATOM     11  C   UNL     1      -9.375  -6.246  -6.574  1.00  0.00    -0.000 C 
BRANCH  11  12
ATOM     12  C   UNL     1      -9.350  -6.956  -5.208  1.00  0.00    -0.000 C 
BRANCH  12  13
ATOM     13  C   UNL     1      -9.336  -8.490  -5.330  1.00  0.00    -0.000 C 
BRANCH  13  14
ATOM     14  C   UNL     1      -8.058  -9.115  -4.749  1.00  0.00    -0.000 C 
BRANCH  14  15
ATOM     15  C   UNL     1      -7.636 -10.395  -5.485  1.00  0.00    -0.003 C 
ATOM     16  C   UNL     1      -6.334 -10.184  -6.251  1.00  0.00     0.004 C 
ENDBRANCH  14  15
ENDBRANCH  13  14
ENDBRANCH  12  13
ENDBRANCH  11  12
ENDBRANCH  10  11
ENDBRANCH   1  10
TORSDOF 12
ENDMDL
MODEL 5
REMARK VINA RESULT:    -4.699      1.248      2.854
REMARK INTER + INTRA:          -8.905
REMARK INTER:                  -8.140
REMARK INTRA:                  -0.765
REMARK UNBOUND:                -0.909
REMARK SMILES CCCCCCCCCCCCCC(=O)[O-]
REMARK SMILES IDX 8 1 9 2 10 3 11 4 12 5 13 6 14 7 15 8 16 9 7 10 6 11 5 12
REMARK SMILES IDX 4 13 3 14 2 15 1 16
REMARK H PARENT
REMARK Flexibility Score: inf
ROOT
ATOM      1  C   UNL     1      -9.608  -6.361  -5.719  1.00  0.00     0.000 C 
ENDROOT
BRANCH   1   2
ATOM      2  C   UNL     1      -9.781  -7.862  -5.445  1.00  0.00     0.000 C 
BRANCH   2   3
ATOM      3  C   UNL     1      -8.560  -8.484  -4.748  1.00  0.00     0.000 C 
BRANCH   3   4
ATOM      4  C   UNL     1      -8.295  -9.931  -5.200  1.00  0.00     0.000 C 
BRANCH   4   5
ATOM      5  C   UNL     1      -6.802 -10.306  -5.151  1.00  0.00     0.006 C 
BRANCH   5   6
ATOM      6  C   UNL     1      -6.096 -10.281  -6.517  1.00  0.00     0.053 C 
BRANCH   6   7
ATOM      7  C   UNL     1      -4.897 -11.179  -6.547  1.00  0.00     0.041 C 
ATOM      8  O   UNL     1      -3.877 -10.897  -5.864  1.00  0.00    -0.550 OA
ATOM      9  O   UNL     1      -4.894 -12.309  -7.355  1.00  0.00    -0.550 OA
ENDBRANCH   6   7
ENDBRANCH   5   6
ENDBRANCH   4   5
ENDBRANCH   3   4
ENDBRANCH   2   3
ENDBRANCH   1   2
BRANCH   1  10
ATOM     10  C   UNL     1      -9.462  -6.090  -7.224  1.00  0.00     0.000 C 
BRANCH  10  11
ATOM     11  C   UNL     1     -10.467  -5.048  -7.749  1.00  0.00    -0.000 C 
BRANCH  11  12
ATOM     12  C   UNL     1     -11.060  -4.113  -6.679  1.00  0.00    -0.000 C 
BRANCH  12  13
ATOM     13  C   UNL     1     -12.588  -4.241  -6.550  1.00  0.00    -0.000 C 
BRANCH  13  14
ATOM     14  C   UNL     1     -13.008  -5.425  -5.665  1.00  0.00    -0.000 C 
BRANCH  14  15
ATOM     15  C   UNL     1     -12.638  -5.222  -4.189  1.00  0.00    -0.003 C 
ATOM     16  C   UNL     1     -13.762  -5.693  -3.272  1.00  0.00     0.004 C 
ENDBRANCH  14  15
ENDBRANCH  13  14
ENDBRANCH  12  13
ENDBRANCH  11  12
ENDBRANCH  10  11
ENDBRANCH   1  10
TORSDOF 12
ENDMDL
MODEL 6
REMARK VINA RESULT:    -4.698      3.883      7.190
REMARK INTER + INTRA:          -8.903
REMARK INTER:                  -7.600
REMARK INTRA:                  -1.302
REMARK UNBOUND:                -0.909
REMARK SMILES CCCCCCCCCCCCCC(=O)[O-]
REMARK SMILES IDX 8 1 9 2 10 3 11 4 12 5 13 6 14 7 15 8 16 9 7 10 6 11 5 12
REMARK SMILES IDX 4 13 3 14 2 15 1 16
REMARK H PARENT
REMARK Flexibility Score: inf
ROOT
ATOM      1  C   UNL     1      -9.604  -7.390  -5.664  1.00  0.00     0.000 C 
ENDROOT
BRANCH   1   2
ATOM      2  C   UNL     1      -9.319  -6.283  -6.690  1.00  0.00     0.000 C 
BRANCH   2   3
ATOM      3  C   UNL     1     -10.463  -6.103  -7.702  1.00  0.00     0.000 C 
BRANCH   3   4
ATOM      4  C   UNL     1     -10.708  -4.627  -8.059  1.00  0.00     0.000 C 
BRANCH   4   5
ATOM      5  C   UNL     1     -11.390  -3.844  -6.922  1.00  0.00     0.006 C 
BRANCH   5   6
ATOM      6  C   UNL     1     -12.574  -4.575  -6.268  1.00  0.00     0.053 C 
BRANCH   6   7
ATOM      7  C   UNL     1     -12.340  -4.832  -4.810  1.00  0.00     0.041 C 
ATOM      8  O   UNL     1     -13.270  -5.279  -4.089  1.00  0.00    -0.550 OA
ATOM      9  O   UNL     1     -11.105  -4.545  -4.242  1.00  0.00    -0.550 OA
ENDBRANCH   6   7
ENDBRANCH   5   6
ENDBRANCH   4   5
ENDBRANCH   3   4
ENDBRANCH   2   3
ENDBRANCH   1   2
BRANCH   1  10
ATOM     10  C   UNL     1     -11.056  -7.879  -5.773  1.00  0.00     0.000 C 
BRANCH  10  11
ATOM     11  C   UNL     1     -11.163  -9.388  -6.063  1.00  0.00    -0.000 C 
BRANCH  11  12
ATOM     12  C   UNL     1     -10.289 -10.289  -5.172  1.00  0.00    -0.000 C 
BRANCH  12  13
ATOM     13  C   UNL     1      -9.767 -11.535  -5.909  1.00  0.00    -0.000 C 
BRANCH  13  14
ATOM     14  C   UNL     1      -8.244 -11.700  -5.781  1.00  0.00    -0.000 C 
BRANCH  14  15
ATOM     15  C   UNL     1      -7.541 -10.403  -5.353  1.00  0.00    -0.003 C 
ATOM     16  C   UNL     1      -6.406 -10.052  -6.309  1.00  0.00     0.004 C 
ENDBRANCH  14  15
ENDBRANCH  13  14
ENDBRANCH  12  13
ENDBRANCH  11  12
ENDBRANCH  10  11
ENDBRANCH   1  10
TORSDOF 12
ENDMDL
MODEL 7
REMARK VINA RESULT:    -4.680      1.313      2.504
REMARK INTER + INTRA:          -8.873
REMARK INTER:                  -7.834
REMARK INTRA:                  -1.039
REMARK UNBOUND:                -0.909
REMARK SMILES CCCCCCCCCCCCCC(=O)[O-]
REMARK SMILES IDX 8 1 9 2 10 3 11 4 12 5 13 6 14 7 15 8 16 9 7 10 6 11 5 12
REMARK SMILES IDX 4 13 3 14 2 15 1 16
REMARK H PARENT
REMARK Flexibility Score: inf
ROOT
ATOM      1  C   UNL     1     -12.438  -7.248  -5.489  1.00  0.00     0.000 C 
ENDROOT
BRANCH   1   2
ATOM      2  C   UNL     1     -11.118  -7.876  -5.961  1.00  0.00     0.000 C 
BRANCH   2   3
ATOM      3  C   UNL     1      -9.889  -7.041  -5.566  1.00  0.00     0.000 C 
BRANCH   3   4
ATOM      4  C   UNL     1      -8.877  -7.839  -4.726  1.00  0.00     0.000 C 
BRANCH   4   5
ATOM      5  C   UNL     1      -8.812  -9.325  -5.126  1.00  0.00     0.006 C 
BRANCH   5   6
ATOM      6  C   UNL     1      -7.389  -9.862  -5.348  1.00  0.00     0.053 C 
BRANCH   6   7
ATOM      7  C   UNL     1      -7.379 -11.094  -6.201  1.00  0.00     0.041 C 
ATOM      8  O   UNL     1      -6.327 -11.440  -6.801  1.00  0.00    -0.550 OA
ATOM      9  O   UNL     1      -8.540 -11.840  -6.360  1.00  0.00    -0.550 OA
ENDBRANCH   6   7
ENDBRANCH   5   6
ENDBRANCH   4   5
ENDBRANCH   3   4
ENDBRANCH   2   3
ENDBRANCH   1   2
BRANCH   1  10
ATOM     10  C   UNL     1     -12.242  -5.769  -5.122  1.00  0.00     0.000 C 
BRANCH  10  11
ATOM     11  C   UNL     1     -12.640  -4.809  -6.258  1.00  0.00    -0.000 C 
BRANCH  11  12
ATOM     12  C   UNL     1     -11.718  -3.588  -6.436  1.00  0.00    -0.000 C 
BRANCH  12  13
ATOM     13  C   UNL     1     -10.734  -3.745  -7.608  1.00  0.00    -0.000 C 
BRANCH  13  14
ATOM     14  C   UNL     1     -11.030  -4.987  -8.463  1.00  0.00    -0.000 C 
BRANCH  14  15
ATOM     15  C   UNL     1     -10.516  -4.852  -9.904  1.00  0.00    -0.003 C 
ATOM     16  C   UNL     1     -11.650  -5.023 -10.910  1.00  0.00     0.004 C 
ENDBRANCH  14  15
ENDBRANCH  13  14
ENDBRANCH  12  13
ENDBRANCH  11  12
ENDBRANCH  10  11
ENDBRANCH   1  10
TORSDOF 12
ENDMDL
MODEL 8
REMARK VINA RESULT:    -4.539      1.997      2.704
REMARK INTER + INTRA:          -8.633
REMARK INTER:                  -7.537
REMARK INTRA:                  -1.095
REMARK UNBOUND:                -0.909
REMARK SMILES CCCCCCCCCCCCCC(=O)[O-]
REMARK SMILES IDX 8 1 9 2 10 3 11 4 12 5 13 6 14 7 15 8 16 9 7 10 6 11 5 12
REMARK SMILES IDX 4 13 3 14 2 15 1 16
REMARK H PARENT
REMARK Flexibility Score: inf
ROOT
ATOM      1  C   UNL     1     -10.129  -6.662  -5.209  1.00  0.00     0.000 C 
ENDROOT
BRANCH   1   2
ATOM      2  C   UNL     1      -9.005  -7.587  -5.700  1.00  0.00     0.000 C 
BRANCH   2   3
ATOM      3  C   UNL     1      -8.830  -8.831  -4.814  1.00  0.00     0.000 C 
BRANCH   3   4
ATOM      4  C   UNL     1      -7.487  -9.543  -5.053  1.00  0.00     0.000 C 
BRANCH   4   5
ATOM      5  C   UNL     1      -7.659 -10.963  -5.624  1.00  0.00     0.006 C 
BRANCH   5   6
ATOM      6  C   UNL     1      -9.111 -11.467  -5.648  1.00  0.00     0.053 C 
BRANCH   6   7
ATOM      7  C   UNL     1      -9.306 -12.573  -6.640  1.00  0.00     0.041 C 
ATOM      8  O   UNL     1      -8.335 -12.985  -7.328  1.00  0.00    -0.550 OA
ATOM      9  O   UNL     1     -10.567 -13.124  -6.829  1.00  0.00    -0.550 OA
ENDBRANCH   6   7
ENDBRANCH   5   6
ENDBRANCH   4   5
ENDBRANCH   3   4
ENDBRANCH   2   3
ENDBRANCH   1   2
BRANCH   1  10
ATOM     10  C   UNL     1     -11.505  -7.200  -5.630  1.00  0.00     0.000 C 
BRANCH  10  11
ATOM     11  C   UNL     1     -12.660  -6.244  -5.275  1.00  0.00    -0.000 C 
BRANCH  11  12
ATOM     12  C   UNL     1     -12.290  -4.750  -5.257  1.00  0.00    -0.000 C 
BRANCH  12  13
ATOM     13  C   UNL     1     -12.479  -4.069  -6.625  1.00  0.00    -0.000 C 
BRANCH  13  14
ATOM     14  C   UNL     1     -11.142  -3.730  -7.303  1.00  0.00    -0.000 C 
BRANCH  14  15
ATOM     15  C   UNL     1     -11.063  -4.245  -8.748  1.00  0.00    -0.003 C 
ATOM     16  C   UNL     1     -10.517  -5.669  -8.794  1.00  0.00     0.004 C 
ENDBRANCH  14  15
ENDBRANCH  13  14
ENDBRANCH  12  13
ENDBRANCH  11  12
ENDBRANCH  10  11
ENDBRANCH   1  10
TORSDOF 12
ENDMDL
MODEL 9
REMARK VINA RESULT:    -4.520      4.199      8.781
REMARK INTER + INTRA:          -8.600
REMARK INTER:                  -8.173
REMARK INTRA:                  -0.427
REMARK UNBOUND:                -0.909
REMARK SMILES CCCCCCCCCCCCCC(=O)[O-]
REMARK SMILES IDX 8 1 9 2 10 3 11 4 12 5 13 6 14 7 15 8 16 9 7 10 6 11 5 12
REMARK SMILES IDX 4 13 3 14 2 15 1 16
REMARK H PARENT
REMARK Flexibility Score: inf
ROOT
ATOM      1  C   UNL     1      -6.833 -10.339  -5.113  1.00  0.00     0.000 C 
ENDROOT
BRANCH   1   2
ATOM      2  C   UNL     1      -8.316  -9.957  -5.241  1.00  0.00     0.000 C 
BRANCH   2   3
ATOM      3  C   UNL     1      -8.614  -8.546  -4.709  1.00  0.00     0.000 C 
BRANCH   3   4
ATOM      4  C   UNL     1      -9.778  -7.868  -5.452  1.00  0.00     0.000 C 
BRANCH   4   5
ATOM      5  C   UNL     1      -9.616  -6.339  -5.545  1.00  0.00     0.006 C 
BRANCH   5   6
ATOM      6  C   UNL     1      -9.602  -5.788  -6.980  1.00  0.00     0.053 C 
BRANCH   6   7
ATOM      7  C   UNL     1     -10.752  -4.863  -7.239  1.00  0.00     0.041 C 
ATOM      8  O   UNL     1     -11.808  -4.961  -6.560  1.00  0.00    -0.550 OA
ATOM      9  O   UNL     1     -10.670  -3.916  -8.252  1.00  0.00    -0.550 OA
ENDBRANCH   6   7
ENDBRANCH   5   6
ENDBRANCH   4   5
ENDBRANCH   3   4
ENDBRANCH   2   3
ENDBRANCH   1   2
BRANCH   1  10
ATOM     10  C   UNL     1      -6.127 -10.262  -6.476  1.00  0.00     0.000 C 
BRANCH  10  11
ATOM     11  C   UNL     1      -4.986 -11.285  -6.622  1.00  0.00    -0.000 C 
BRANCH  11  12
ATOM     12  C   UNL     1      -3.692 -10.935  -5.864  1.00  0.00    -0.000 C 
BRANCH  12  13
ATOM     13  C   UNL     1      -2.858 -12.175  -5.496  1.00  0.00    -0.000 C 
BRANCH  13  14
ATOM     14  C   UNL     1      -1.611 -11.822  -4.670  1.00  0.00    -0.000 C 
BRANCH  14  15
ATOM     15  C   UNL     1      -1.241 -12.916  -3.657  1.00  0.00    -0.003 C 
ATOM     16  C   UNL     1      -2.490 -13.585  -3.092  1.00  0.00     0.004 C 
ENDBRANCH  14  15
ENDBRANCH  13  14
ENDBRANCH  12  13
ENDBRANCH  11  12
ENDBRANCH  10  11
ENDBRANCH   1  10
TORSDOF 12
ENDMDL
