MODEL 1
REMARK VINA RESULT:    -4.068      0.000      0.000
REMARK INTER + INTRA:          -4.790
REMARK INTER:                  -4.781
REMARK INTRA:                  -0.009
REMARK UNBOUND:                -0.009
REMARK SMILES [NH3+][C@H](CO)C(=O)[O-]
REMARK SMILES IDX 3 1 2 2 1 3 5 7 6 8 7 9 4 10
REMARK H PARENT 1 4 1 5 1 6 4 11
REMARK Flexibility Score: inf
ROOT
ATOM      1  C   UNL     1     156.470 165.145 229.626  1.00  0.00     0.227 C 
ENDROOT
BRANCH   1   2
ATOM      2  C   UNL     1     157.112 166.447 229.114  1.00  0.00     0.253 C 
BRANCH   2   3
ATOM      3  N   UNL     1     156.094 167.416 228.690  1.00  0.00    -0.348 N 
ATOM      4  H   UNL     1     156.065 167.460 227.644  1.00  0.00     0.345 HD
ATOM      5  H   UNL     1     155.152 167.113 229.029  1.00  0.00     0.345 HD
ATOM      6  H   UNL     1     156.301 168.371 229.063  1.00  0.00     0.345 HD
ENDBRANCH   2   3
BRANCH   2   7
ATOM      7  C   UNL     1     158.017 167.043 230.160  1.00  0.00     0.102 C 
ATOM      8  O   UNL     1     157.552 167.848 231.011  1.00  0.00    -0.544 OA
ATOM      9  O   UNL     1     159.374 166.744 230.172  1.00  0.00    -0.544 OA
ENDBRANCH   2   7
ENDBRANCH   1   2
BRANCH   1  10
ATOM     10  O   UNL     1     155.117 165.063 229.260  1.00  0.00    -0.390 OA
ATOM     11  H   UNL     1     154.755 164.237 229.676  1.00  0.00     0.210 HD
ENDBRANCH   1  10
TORSDOF 4
ENDMDL
MODEL 2
REMARK VINA RESULT:    -4.057     14.971     15.838
REMARK INTER + INTRA:          -4.778
REMARK INTER:                  -4.769
REMARK INTRA:                  -0.008
REMARK UNBOUND:                -0.009
REMARK SMILES [NH3+][C@H](CO)C(=O)[O-]
REMARK SMILES IDX 3 1 2 2 1 3 5 7 6 8 7 9 4 10
REMARK H PARENT 1 4 1 5 1 6 4 11
REMARK Flexibility Score: inf
ROOT
ATOM      1  C   UNL     1     161.528 152.885 229.624  1.00  0.00     0.227 C 
ENDROOT
BRANCH   1   2
ATOM      2  C   UNL     1     160.893 151.562 229.159  1.00  0.00     0.253 C 
BRANCH   2   3
ATOM      3  N   UNL     1     161.917 150.587 228.761  1.00  0.00    -0.348 N 
ATOM      4  H   UNL     1     161.622 149.627 229.058  1.00  0.00     0.345 HD
ATOM      5  H   UNL     1     162.022 150.588 227.720  1.00  0.00     0.345 HD
ATOM      6  H   UNL     1     162.840 150.808 229.199  1.00  0.00     0.345 HD
ENDBRANCH   2   3
BRANCH   2   7
ATOM      7  C   UNL     1     160.000 150.993 230.231  1.00  0.00     0.102 C 
ATOM      8  O   UNL     1     160.461 150.167 231.062  1.00  0.00    -0.544 OA
ATOM      9  O   UNL     1     158.656 151.344 230.288  1.00  0.00    -0.544 OA
ENDBRANCH   2   7
ENDBRANCH   1   2
BRANCH   1  10
ATOM     10  O   UNL     1     162.879 152.965 229.249  1.00  0.00    -0.390 OA
ATOM     11  H   UNL     1     163.258 152.051 229.340  1.00  0.00     0.210 HD
ENDBRANCH   1  10
TORSDOF 4
ENDMDL
MODEL 3
REMARK VINA RESULT:    -3.919      2.115      2.570
REMARK INTER + INTRA:          -4.615
REMARK INTER:                  -4.391
REMARK INTRA:                  -0.225
REMARK UNBOUND:                -0.009
REMARK SMILES [NH3+][C@H](CO)C(=O)[O-]
REMARK SMILES IDX 3 1 2 2 1 3 5 7 6 8 7 9 4 10
REMARK H PARENT 1 4 1 5 1 6 4 11
REMARK Flexibility Score: inf
ROOT
ATOM      1  C   UNL     1     156.272 166.834 229.987  1.00  0.00     0.227 C 
ENDROOT
BRANCH   1   2
ATOM      2  C   UNL     1     156.505 165.313 230.033  1.00  0.00     0.253 C 
BRANCH   2   3
ATOM      3  N   UNL     1     155.487 164.592 229.258  1.00  0.00    -0.348 N 
ATOM      4  H   UNL     1     154.663 164.383 229.869  1.00  0.00     0.345 HD
ATOM      5  H   UNL     1     155.160 165.186 228.462  1.00  0.00     0.345 HD
ATOM      6  H   UNL     1     155.865 163.693 228.881  1.00  0.00     0.345 HD
ENDBRANCH   2   3
BRANCH   2   7
ATOM      7  C   UNL     1     157.889 164.970 229.550  1.00  0.00     0.102 C 
ATOM      8  O   UNL     1     158.423 163.881 229.888  1.00  0.00    -0.544 OA
ATOM      9  O   UNL     1     158.603 165.867 228.763  1.00  0.00    -0.544 OA
ENDBRANCH   2   7
ENDBRANCH   1   2
BRANCH   1  10
ATOM     10  O   UNL     1     156.097 167.286 228.669  1.00  0.00    -0.390 OA
ATOM     11  H   UNL     1     156.721 166.763 228.100  1.00  0.00     0.210 HD
ENDBRANCH   1  10
TORSDOF 4
ENDMDL
MODEL 4
REMARK VINA RESULT:    -3.910     14.048     14.837
REMARK INTER + INTRA:          -4.605
REMARK INTER:                  -4.385
REMARK INTRA:                  -0.220
REMARK UNBOUND:                -0.009
REMARK SMILES [NH3+][C@H](CO)C(=O)[O-]
REMARK SMILES IDX 3 1 2 2 1 3 5 7 6 8 7 9 4 10
REMARK H PARENT 1 4 1 5 1 6 4 11
REMARK Flexibility Score: inf
ROOT
ATOM      1  C   UNL     1     161.744 151.139 229.977  1.00  0.00     0.227 C 
ENDROOT
BRANCH   1   2
ATOM      2  C   UNL     1     161.478 152.655 230.024  1.00  0.00     0.253 C 
BRANCH   2   3
ATOM      3  N   UNL     1     162.474 153.398 229.242  1.00  0.00    -0.348 N 
ATOM      4  H   UNL     1     163.424 152.990 229.406  1.00  0.00     0.345 HD
ATOM      5  H   UNL     1     162.256 153.318 228.221  1.00  0.00     0.345 HD
ATOM      6  H   UNL     1     162.489 154.408 229.510  1.00  0.00     0.345 HD
ENDBRANCH   2   3
BRANCH   2   7
ATOM      7  C   UNL     1     160.083 152.966 229.548  1.00  0.00     0.102 C 
ATOM      8  O   UNL     1     159.496 152.180 228.758  1.00  0.00    -0.544 OA
ATOM      9  O   UNL     1     159.448 154.138 229.943  1.00  0.00    -0.544 OA
ENDBRANCH   2   7
ENDBRANCH   1   2
BRANCH   1  10
ATOM     10  O   UNL     1     161.915 150.689 228.658  1.00  0.00    -0.390 OA
ATOM     11  H   UNL     1     161.015 150.671 228.240  1.00  0.00     0.210 HD
ENDBRANCH   1  10
TORSDOF 4
ENDMDL
MODEL 5
REMARK VINA RESULT:    -3.899      2.325      2.890
REMARK INTER + INTRA:          -4.592
REMARK INTER:                  -4.384
REMARK INTRA:                  -0.208
REMARK UNBOUND:                -0.009
REMARK SMILES [NH3+][C@H](CO)C(=O)[O-]
REMARK SMILES IDX 3 1 2 2 1 3 5 7 6 8 7 9 4 10
REMARK H PARENT 1 4 1 5 1 6 4 11
REMARK Flexibility Score: inf
ROOT
ATOM      1  C   UNL     1     157.090 167.165 229.832  1.00  0.00     0.227 C 
ENDROOT
BRANCH   1   2
ATOM      2  C   UNL     1     158.434 166.565 229.380  1.00  0.00     0.253 C 
BRANCH   2   3
ATOM      3  N   UNL     1     159.560 167.162 230.111  1.00  0.00    -0.348 N 
ATOM      4  H   UNL     1     159.891 166.497 230.848  1.00  0.00     0.345 HD
ATOM      5  H   UNL     1     160.354 167.343 229.453  1.00  0.00     0.345 HD
ATOM      6  H   UNL     1     159.281 168.061 230.566  1.00  0.00     0.345 HD
ENDBRANCH   2   3
BRANCH   2   7
ATOM      7  C   UNL     1     158.429 165.067 229.535  1.00  0.00     0.102 C 
ATOM      8  O   UNL     1     159.509 164.450 229.731  1.00  0.00    -0.544 OA
ATOM      9  O   UNL     1     157.242 164.351 229.424  1.00  0.00    -0.544 OA
ENDBRANCH   2   7
ENDBRANCH   1   2
BRANCH   1  10
ATOM     10  O   UNL     1     156.153 167.168 228.787  1.00  0.00    -0.390 OA
ATOM     11  H   UNL     1     156.667 167.143 227.938  1.00  0.00     0.210 HD
ENDBRANCH   1  10
TORSDOF 4
ENDMDL
MODEL 6
REMARK VINA RESULT:    -3.882     14.222     14.962
REMARK INTER + INTRA:          -4.572
REMARK INTER:                  -4.414
REMARK INTRA:                  -0.159
REMARK UNBOUND:                -0.009
REMARK SMILES [NH3+][C@H](CO)C(=O)[O-]
REMARK SMILES IDX 3 1 2 2 1 3 5 7 6 8 7 9 4 10
REMARK H PARENT 1 4 1 5 1 6 4 11
REMARK Flexibility Score: inf
ROOT
ATOM      1  C   UNL     1     160.961 150.893 229.817  1.00  0.00     0.227 C 
ENDROOT
BRANCH   1   2
ATOM      2  C   UNL     1     159.610 151.467 229.350  1.00  0.00     0.253 C 
BRANCH   2   3
ATOM      3  N   UNL     1     158.487 150.825 230.045  1.00  0.00    -0.348 N 
ATOM      4  H   UNL     1     157.588 151.269 229.743  1.00  0.00     0.345 HD
ATOM      5  H   UNL     1     158.448 149.809 229.795  1.00  0.00     0.345 HD
ATOM      6  H   UNL     1     158.580 150.918 231.082  1.00  0.00     0.345 HD
ENDBRANCH   2   3
BRANCH   2   7
ATOM      7  C   UNL     1     159.572 152.961 229.537  1.00  0.00     0.102 C 
ATOM      8  O   UNL     1     158.481 153.537 229.789  1.00  0.00    -0.544 OA
ATOM      9  O   UNL     1     160.729 153.719 229.394  1.00  0.00    -0.544 OA
ENDBRANCH   2   7
ENDBRANCH   1   2
BRANCH   1  10
ATOM     10  O   UNL     1     161.865 150.779 228.749  1.00  0.00    -0.390 OA
ATOM     11  H   UNL     1     162.508 150.061 228.991  1.00  0.00     0.210 HD
ENDBRANCH   1  10
TORSDOF 4
ENDMDL
MODEL 7
REMARK VINA RESULT:    -3.783      1.386      2.774
REMARK INTER + INTRA:          -4.455
REMARK INTER:                  -4.239
REMARK INTRA:                  -0.217
REMARK UNBOUND:                -0.009
REMARK SMILES [NH3+][C@H](CO)C(=O)[O-]
REMARK SMILES IDX 3 1 2 2 1 3 5 7 6 8 7 9 4 10
REMARK H PARENT 1 4 1 5 1 6 4 11
REMARK Flexibility Score: inf
ROOT
ATOM      1  C   UNL     1     157.451 167.165 231.371  1.00  0.00     0.227 C 
ENDROOT
BRANCH   1   2
ATOM      2  C   UNL     1     156.561 166.398 230.376  1.00  0.00     0.253 C 
BRANCH   2   3
ATOM      3  N   UNL     1     155.742 167.315 229.572  1.00  0.00    -0.348 N 
ATOM      4  H   UNL     1     156.353 167.832 228.898  1.00  0.00     0.345 HD
ATOM      5  H   UNL     1     155.036 166.772 229.023  1.00  0.00     0.345 HD
ATOM      6  H   UNL     1     155.245 168.007 230.178  1.00  0.00     0.345 HD
ENDBRANCH   2   3
BRANCH   2   7
ATOM      7  C   UNL     1     157.395 165.509 229.490  1.00  0.00     0.102 C 
ATOM      8  O   UNL     1     157.077 164.301 229.331  1.00  0.00    -0.544 OA
ATOM      9  O   UNL     1     158.540 166.002 228.875  1.00  0.00    -0.544 OA
ENDBRANCH   2   7
ENDBRANCH   1   2
BRANCH   1  10
ATOM     10  O   UNL     1     158.008 168.311 230.782  1.00  0.00    -0.390 OA
ATOM     11  H   UNL     1     158.866 168.034 230.365  1.00  0.00     0.210 HD
ENDBRANCH   1  10
TORSDOF 4
ENDMDL
MODEL 8
REMARK VINA RESULT:    -3.780     14.857     15.580
REMARK INTER + INTRA:          -4.452
REMARK INTER:                  -4.250
REMARK INTRA:                  -0.202
REMARK UNBOUND:                -0.009
REMARK SMILES [NH3+][C@H](CO)C(=O)[O-]
REMARK SMILES IDX 3 1 2 2 1 3 5 7 6 8 7 9 4 10
REMARK H PARENT 1 4 1 5 1 6 4 11
REMARK Flexibility Score: inf
ROOT
ATOM      1  C   UNL     1     160.527 150.822 231.342  1.00  0.00     0.227 C 
ENDROOT
BRANCH   1   2
ATOM      2  C   UNL     1     161.437 151.605 230.376  1.00  0.00     0.253 C 
BRANCH   2   3
ATOM      3  N   UNL     1     162.274 150.700 229.578  1.00  0.00    -0.348 N 
ATOM      4  H   UNL     1     162.402 149.797 230.091  1.00  0.00     0.345 HD
ATOM      5  H   UNL     1     161.805 150.495 228.666  1.00  0.00     0.345 HD
ATOM      6  H   UNL     1     163.214 151.120 229.393  1.00  0.00     0.345 HD
ENDBRANCH   2   3
BRANCH   2   7
ATOM      7  C   UNL     1     160.620 152.504 229.486  1.00  0.00     0.102 C 
ATOM      8  O   UNL     1     160.935 153.717 229.356  1.00  0.00    -0.544 OA
ATOM      9  O   UNL     1     159.493 152.017 228.834  1.00  0.00    -0.544 OA
ENDBRANCH   2   7
ENDBRANCH   1   2
BRANCH   1  10
ATOM     10  O   UNL     1     160.052 149.640 230.753  1.00  0.00    -0.390 OA
ATOM     11  H   UNL     1     160.223 149.715 229.777  1.00  0.00     0.210 HD
ENDBRANCH   1  10
TORSDOF 4
ENDMDL
MODEL 9
REMARK VINA RESULT:    -3.756     13.080     13.650
REMARK INTER + INTRA:          -4.424
REMARK INTER:                  -4.053
REMARK INTRA:                  -0.371
REMARK UNBOUND:                -0.009
REMARK SMILES [NH3+][C@H](CO)C(=O)[O-]
REMARK SMILES IDX 3 1 2 2 1 3 5 7 6 8 7 9 4 10
REMARK H PARENT 1 4 1 5 1 6 4 11
REMARK Flexibility Score: inf
ROOT
ATOM      1  C   UNL     1     160.277 152.287 229.276  1.00  0.00     0.227 C 
ENDROOT
BRANCH   1   2
ATOM      2  C   UNL     1     161.487 152.909 229.997  1.00  0.00     0.253 C 
BRANCH   2   3
ATOM      3  N   UNL     1     162.753 152.470 229.396  1.00  0.00    -0.348 N 
ATOM      4  H   UNL     1     162.640 152.394 228.358  1.00  0.00     0.345 HD
ATOM      5  H   UNL     1     163.502 153.174 229.592  1.00  0.00     0.345 HD
ATOM      6  H   UNL     1     163.049 151.542 229.774  1.00  0.00     0.345 HD
ENDBRANCH   2   3
BRANCH   2   7
ATOM      7  C   UNL     1     161.389 154.413 230.003  1.00  0.00     0.102 C 
ATOM      8  O   UNL     1     161.971 155.085 229.111  1.00  0.00    -0.544 OA
ATOM      9  O   UNL     1     160.693 155.070 231.011  1.00  0.00    -0.544 OA
ENDBRANCH   2   7
ENDBRANCH   1   2
BRANCH   1  10
ATOM     10  O   UNL     1     159.347 153.268 228.896  1.00  0.00    -0.390 OA
ATOM     11  H   UNL     1     159.243 153.882 229.670  1.00  0.00     0.210 HD
ENDBRANCH   1  10
TORSDOF 4
ENDMDL
