MODEL 1
REMARK VINA RESULT:    -5.044      0.000      0.000
REMARK INTER + INTRA:          -6.749
REMARK INTER:                  -6.518
REMARK INTRA:                  -0.232
REMARK UNBOUND:                -0.232
REMARK SMILES CCCCCCC(=O)[O-]
REMARK SMILES IDX 5 1 6 2 7 3 8 4 9 5 4 6 3 7 2 8 1 9
REMARK H PARENT
REMARK Flexibility Score: inf
ROOT
ATOM      1  C   UNL     1      15.572  71.668  72.514  1.00  0.00     0.006 C 
ENDROOT
BRANCH   1   2
ATOM      2  C   UNL     1      17.017  71.663  72.000  1.00  0.00     0.053 C 
BRANCH   2   3
ATOM      3  C   UNL     1      17.975  71.873  73.130  1.00  0.00     0.041 C 
ATOM      4  O   UNL     1      17.729  71.389  74.266  1.00  0.00    -0.550 OA
ATOM      5  O   UNL     1      19.162  72.560  72.918  1.00  0.00    -0.550 OA
ENDBRANCH   2   3
ENDBRANCH   1   2
BRANCH   1   6
ATOM      6  C   UNL     1      14.874  70.307  72.351  1.00  0.00     0.000 C 
BRANCH   6   7
ATOM      7  C   UNL     1      14.071  69.833  73.580  1.00  0.00    -0.000 C 
BRANCH   7   8
ATOM      8  C   UNL     1      14.433  70.534  74.902  1.00  0.00    -0.003 C 
ATOM      9  C   UNL     1      13.949  69.771  76.133  1.00  0.00     0.004 C 
ENDBRANCH   7   8
ENDBRANCH   6   7
ENDBRANCH   1   6
TORSDOF 5
ENDMDL
MODEL 2
REMARK VINA RESULT:    -4.927      1.383      1.748
REMARK INTER + INTRA:          -6.598
REMARK INTER:                  -6.379
REMARK INTRA:                  -0.220
REMARK UNBOUND:                -0.232
REMARK SMILES CCCCCCC(=O)[O-]
REMARK SMILES IDX 5 1 6 2 7 3 8 4 9 5 4 6 3 7 2 8 1 9
REMARK H PARENT
REMARK Flexibility Score: inf
ROOT
ATOM      1  C   UNL     1      16.189  71.487  73.150  1.00  0.00     0.006 C 
ENDROOT
BRANCH   1   2
ATOM      2  C   UNL     1      16.337  72.901  72.574  1.00  0.00     0.053 C 
BRANCH   2   3
ATOM      3  C   UNL     1      17.546  72.983  71.696  1.00  0.00     0.041 C 
ATOM      4  O   UNL     1      17.767  74.021  71.019  1.00  0.00    -0.550 OA
ATOM      5  O   UNL     1      18.454  71.933  71.664  1.00  0.00    -0.550 OA
ENDBRANCH   2   3
ENDBRANCH   1   2
BRANCH   1   6
ATOM      6  C   UNL     1      15.122  70.652  72.420  1.00  0.00     0.000 C 
BRANCH   6   7
ATOM      7  C   UNL     1      14.186  69.840  73.339  1.00  0.00    -0.000 C 
BRANCH   7   8
ATOM      8  C   UNL     1      13.703  70.586  74.595  1.00  0.00    -0.003 C 
ATOM      9  C   UNL     1      13.998  69.828  75.889  1.00  0.00     0.004 C 
ENDBRANCH   7   8
ENDBRANCH   6   7
ENDBRANCH   1   6
TORSDOF 5
ENDMDL
MODEL 3
REMARK VINA RESULT:    -4.896      4.020      4.833
REMARK INTER + INTRA:          -6.558
REMARK INTER:                  -6.181
REMARK INTRA:                  -0.377
REMARK UNBOUND:                -0.232
REMARK SMILES CCCCCCC(=O)[O-]
REMARK SMILES IDX 5 1 6 2 7 3 8 4 9 5 4 6 3 7 2 8 1 9
REMARK H PARENT
REMARK Flexibility Score: inf
ROOT
ATOM      1  C   UNL     1      13.452  72.339  72.816  1.00  0.00     0.006 C 
ENDROOT
BRANCH   1   2
ATOM      2  C   UNL     1      12.071  73.004  72.778  1.00  0.00     0.053 C 
BRANCH   2   3
ATOM      3  C   UNL     1      11.097  72.233  73.612  1.00  0.00     0.041 C 
ATOM      4  O   UNL     1      11.205  72.226  74.867  1.00  0.00    -0.550 OA
ATOM      5  O   UNL     1      10.042  71.563  73.008  1.00  0.00    -0.550 OA
ENDBRANCH   2   3
ENDBRANCH   1   2
BRANCH   1   6
ATOM      6  C   UNL     1      13.423  70.873  72.351  1.00  0.00     0.000 C 
BRANCH   6   7
ATOM      7  C   UNL     1      14.223  69.892  73.233  1.00  0.00    -0.000 C 
BRANCH   7   8
ATOM      8  C   UNL     1      14.644  70.447  74.605  1.00  0.00    -0.003 C 
ATOM      9  C   UNL     1      13.879  69.812  75.765  1.00  0.00     0.004 C 
ENDBRANCH   7   8
ENDBRANCH   6   7
ENDBRANCH   1   6
TORSDOF 5
ENDMDL
MODEL 4
REMARK VINA RESULT:    -4.784      3.824      4.630
REMARK INTER + INTRA:          -6.414
REMARK INTER:                  -6.115
REMARK INTRA:                  -0.299
REMARK UNBOUND:                -0.232
REMARK SMILES CCCCCCC(=O)[O-]
REMARK SMILES IDX 5 1 6 2 7 3 8 4 9 5 4 6 3 7 2 8 1 9
REMARK H PARENT
REMARK Flexibility Score: inf
ROOT
ATOM      1  C   UNL     1      13.562  72.700  72.679  1.00  0.00     0.006 C 
ENDROOT
BRANCH   1   2
ATOM      2  C   UNL     1      12.504  72.611  71.573  1.00  0.00     0.053 C 
BRANCH   2   3
ATOM      3  C   UNL     1      11.569  71.472  71.835  1.00  0.00     0.041 C 
ATOM      4  O   UNL     1      10.648  71.592  72.686  1.00  0.00    -0.550 OA
ATOM      5  O   UNL     1      11.684  70.296  71.106  1.00  0.00    -0.550 OA
ENDBRANCH   2   3
ENDBRANCH   1   2
BRANCH   1   6
ATOM      6  C   UNL     1      14.810  71.851  72.383  1.00  0.00     0.000 C 
BRANCH   6   7
ATOM      7  C   UNL     1      15.230  70.890  73.515  1.00  0.00    -0.000 C 
BRANCH   7   8
ATOM      8  C   UNL     1      14.125  69.934  73.998  1.00  0.00    -0.003 C 
ATOM      9  C   UNL     1      14.051  69.829  75.520  1.00  0.00     0.004 C 
ENDBRANCH   7   8
ENDBRANCH   6   7
ENDBRANCH   1   6
TORSDOF 5
ENDMDL
MODEL 5
REMARK VINA RESULT:    -4.501      9.577     10.952
REMARK INTER + INTRA:          -6.048
REMARK INTER:                  -5.850
REMARK INTRA:                  -0.198
REMARK UNBOUND:                -0.232
REMARK SMILES CCCCCCC(=O)[O-]
REMARK SMILES IDX 5 1 6 2 7 3 8 4 9 5 4 6 3 7 2 8 1 9
REMARK H PARENT
REMARK Flexibility Score: inf
ROOT
ATOM      1  C   UNL     1      13.217  62.144  72.793  1.00  0.00     0.006 C 
ENDROOT
BRANCH   1   2
ATOM      2  C   UNL     1      13.514  60.697  73.205  1.00  0.00     0.053 C 
BRANCH   2   3
ATOM      3  C   UNL     1      13.358  60.533  74.684  1.00  0.00     0.041 C 
ATOM      4  O   UNL     1      13.886  61.360  75.472  1.00  0.00    -0.550 OA
ATOM      5  O   UNL     1      12.588  59.494  75.191  1.00  0.00    -0.550 OA
ENDBRANCH   2   3
ENDBRANCH   1   2
BRANCH   1   6
ATOM      6  C   UNL     1      13.944  62.560  71.502  1.00  0.00     0.000 C 
BRANCH   6   7
ATOM      7  C   UNL     1      14.443  61.391  70.628  1.00  0.00    -0.000 C 
BRANCH   7   8
ATOM      8  C   UNL     1      14.246  61.583  69.113  1.00  0.00    -0.003 C 
ATOM      9  C   UNL     1      13.188  62.634  68.778  1.00  0.00     0.004 C 
ENDBRANCH   7   8
ENDBRANCH   6   7
ENDBRANCH   1   6
TORSDOF 5
ENDMDL
MODEL 6
REMARK VINA RESULT:    -4.462      3.879      5.197
REMARK INTER + INTRA:          -5.997
REMARK INTER:                  -5.800
REMARK INTRA:                  -0.197
REMARK UNBOUND:                -0.232
REMARK SMILES CCCCCCC(=O)[O-]
REMARK SMILES IDX 5 1 6 2 7 3 8 4 9 5 4 6 3 7 2 8 1 9
REMARK H PARENT
REMARK Flexibility Score: inf
ROOT
ATOM      1  C   UNL     1      13.802  70.281  72.687  1.00  0.00     0.006 C 
ENDROOT
BRANCH   1   2
ATOM      2  C   UNL     1      12.711  71.358  72.656  1.00  0.00     0.053 C 
BRANCH   2   3
ATOM      3  C   UNL     1      11.903  71.247  71.402  1.00  0.00     0.041 C 
ATOM      4  O   UNL     1      11.481  70.124  71.017  1.00  0.00    -0.550 OA
ATOM      5  O   UNL     1      11.574  72.388  70.682  1.00  0.00    -0.550 OA
ENDBRANCH   2   3
ENDBRANCH   1   2
BRANCH   1   6
ATOM      6  C   UNL     1      15.199  70.834  72.355  1.00  0.00     0.000 C 
BRANCH   6   7
ATOM      7  C   UNL     1      15.307  72.373  72.345  1.00  0.00    -0.000 C 
BRANCH   7   8
ATOM      8  C   UNL     1      16.727  72.923  72.121  1.00  0.00    -0.003 C 
ATOM      9  C   UNL     1      17.771  71.822  71.947  1.00  0.00     0.004 C 
ENDBRANCH   7   8
ENDBRANCH   6   7
ENDBRANCH   1   6
TORSDOF 5
ENDMDL
MODEL 7
REMARK VINA RESULT:    -4.443      5.832      6.907
REMARK INTER + INTRA:          -5.973
REMARK INTER:                  -5.716
REMARK INTRA:                  -0.256
REMARK UNBOUND:                -0.232
REMARK SMILES CCCCCCC(=O)[O-]
REMARK SMILES IDX 5 1 6 2 7 3 8 4 9 5 4 6 3 7 2 8 1 9
REMARK H PARENT
REMARK Flexibility Score: inf
ROOT
ATOM      1  C   UNL     1      22.987  72.624  72.047  1.00  0.00     0.006 C 
ENDROOT
BRANCH   1   2
ATOM      2  C   UNL     1      22.635  72.503  73.535  1.00  0.00     0.053 C 
BRANCH   2   3
ATOM      3  C   UNL     1      23.181  71.229  74.098  1.00  0.00     0.041 C 
ATOM      4  O   UNL     1      23.863  71.246  75.157  1.00  0.00    -0.550 OA
ATOM      5  O   UNL     1      22.897  70.017  73.483  1.00  0.00    -0.550 OA
ENDBRANCH   2   3
ENDBRANCH   1   2
BRANCH   1   6
ATOM      6  C   UNL     1      21.746  72.709  71.143  1.00  0.00     0.000 C 
BRANCH   6   7
ATOM      7  C   UNL     1      21.462  71.447  70.302  1.00  0.00    -0.000 C 
BRANCH   7   8
ATOM      8  C   UNL     1      20.405  70.497  70.895  1.00  0.00    -0.003 C 
ATOM      9  C   UNL     1      20.362  69.141  70.192  1.00  0.00     0.004 C 
ENDBRANCH   7   8
ENDBRANCH   6   7
ENDBRANCH   1   6
TORSDOF 5
ENDMDL
MODEL 8
REMARK VINA RESULT:    -4.439      3.116      4.846
REMARK INTER + INTRA:          -5.968
REMARK INTER:                  -5.779
REMARK INTRA:                  -0.189
REMARK UNBOUND:                -0.232
REMARK SMILES CCCCCCC(=O)[O-]
REMARK SMILES IDX 5 1 6 2 7 3 8 4 9 5 4 6 3 7 2 8 1 9
REMARK H PARENT
REMARK Flexibility Score: inf
ROOT
ATOM      1  C   UNL     1      15.245  71.098  74.430  1.00  0.00     0.006 C 
ENDROOT
BRANCH   1   2
ATOM      2  C   UNL     1      14.353  70.051  73.752  1.00  0.00     0.053 C 
BRANCH   2   3
ATOM      3  C   UNL     1      13.138  70.700  73.168  1.00  0.00     0.041 C 
ATOM      4  O   UNL     1      12.809  70.471  71.974  1.00  0.00    -0.550 OA
ATOM      5  O   UNL     1      12.340  71.520  73.955  1.00  0.00    -0.550 OA
ENDBRANCH   2   3
ENDBRANCH   1   2
BRANCH   1   6
ATOM      6  C   UNL     1      15.796  72.143  73.445  1.00  0.00     0.000 C 
BRANCH   6   7
ATOM      7  C   UNL     1      16.520  71.562  72.213  1.00  0.00    -0.000 C 
BRANCH   7   8
ATOM      8  C   UNL     1      17.863  72.231  71.873  1.00  0.00    -0.003 C 
ATOM      9  C   UNL     1      17.728  73.724  71.579  1.00  0.00     0.004 C 
ENDBRANCH   7   8
ENDBRANCH   6   7
ENDBRANCH   1   6
TORSDOF 5
ENDMDL
MODEL 9
REMARK VINA RESULT:    -4.433      2.711      4.711
REMARK INTER + INTRA:          -5.961
REMARK INTER:                  -5.784
REMARK INTRA:                  -0.176
REMARK UNBOUND:                -0.232
REMARK SMILES CCCCCCC(=O)[O-]
REMARK SMILES IDX 5 1 6 2 7 3 8 4 9 5 4 6 3 7 2 8 1 9
REMARK H PARENT
REMARK Flexibility Score: inf
ROOT
ATOM      1  C   UNL     1      15.448  71.823  72.738  1.00  0.00     0.006 C 
ENDROOT
BRANCH   1   2
ATOM      2  C   UNL     1      15.425  71.105  74.093  1.00  0.00     0.053 C 
BRANCH   2   3
ATOM      3  C   UNL     1      14.425  69.992  74.077  1.00  0.00     0.041 C 
ATOM      4  O   UNL     1      13.954  69.549  75.157  1.00  0.00    -0.550 OA
ATOM      5  O   UNL     1      13.977  69.477  72.868  1.00  0.00    -0.550 OA
ENDBRANCH   2   3
ENDBRANCH   1   2
BRANCH   1   6
ATOM      6  C   UNL     1      16.819  71.747  72.044  1.00  0.00     0.000 C 
BRANCH   6   7
ATOM      7  C   UNL     1      17.497  73.108  71.784  1.00  0.00    -0.000 C 
BRANCH   7   8
ATOM      8  C   UNL     1      19.027  73.053  71.631  1.00  0.00    -0.003 C 
ATOM      9  C   UNL     1      19.678  71.997  72.523  1.00  0.00     0.004 C 
ENDBRANCH   7   8
ENDBRANCH   6   7
ENDBRANCH   1   6
TORSDOF 5
ENDMDL
