MODEL 1
REMARK VINA RESULT:    -4.354      0.000      0.000
REMARK INTER + INTRA:          -4.354
REMARK INTER:                  -4.354
REMARK INTRA:                   0.000
REMARK UNBOUND:                 0.000
REMARK SMILES CC1(C)[C@H]2CC[C@]1(C)C(=O)C2
REMARK SMILES IDX 1 1 2 2 4 3 5 4 6 5 7 6 9 7 10 8 11 9 8 10 3 11
REMARK H PARENT
REMARK Flexibility Score: inf
ROOT
ATOM      1  C   UNL     1       1.668   3.126  31.168  1.00  0.00     0.012 C 
ATOM      2  C   UNL     1       2.200   4.483  30.609  1.00  0.00    -0.020 C 
ATOM      3  C   UNL     1       1.992   4.649  29.084  1.00  0.00     0.003 C 
ATOM      4  C   UNL     1       2.749   5.971  28.778  1.00  0.00     0.005 C 
ATOM      5  C   UNL     1       3.960   5.908  29.741  1.00  0.00     0.015 C 
ATOM      6  C   UNL     1       3.737   4.568  30.481  1.00  0.00     0.032 C 
ATOM      7  C   UNL     1       3.989   3.507  29.439  1.00  0.00     0.139 C 
ATOM      8  O   UNL     1       4.995   2.821  29.342  1.00  0.00    -0.299 OA
ATOM      9  C   UNL     1       2.846   3.503  28.473  1.00  0.00     0.080 C 
ATOM     10  C   UNL     1       4.541   4.408  31.776  1.00  0.00     0.020 C 
ATOM     11  C   UNL     1       1.535   5.604  31.462  1.00  0.00     0.012 C 
ENDROOT
TORSDOF 0
ENDMDL
MODEL 2
REMARK VINA RESULT:    -4.340      1.164      2.995
REMARK INTER + INTRA:          -4.340
REMARK INTER:                  -4.340
REMARK INTRA:                   0.000
REMARK UNBOUND:                 0.000
REMARK SMILES CC1(C)[C@H]2CC[C@]1(C)C(=O)C2
REMARK SMILES IDX 1 1 2 2 4 3 5 4 6 5 7 6 9 7 10 8 11 9 8 10 3 11
REMARK H PARENT
REMARK Flexibility Score: inf
ROOT
ATOM      1  C   UNL     1       3.094   6.844  28.565  1.00  0.00     0.012 C 
ATOM      2  C   UNL     1       2.186   6.121  29.608  1.00  0.00    -0.020 C 
ATOM      3  C   UNL     1       2.490   6.516  31.073  1.00  0.00     0.003 C 
ATOM      4  C   UNL     1       1.585   5.546  31.883  1.00  0.00     0.005 C 
ATOM      5  C   UNL     1       1.632   4.245  31.043  1.00  0.00     0.015 C 
ATOM      6  C   UNL     1       2.544   4.639  29.857  1.00  0.00     0.032 C 
ATOM      7  C   UNL     1       3.919   4.783  30.462  1.00  0.00     0.139 C 
ATOM      8  O   UNL     1       4.831   3.976  30.370  1.00  0.00    -0.299 OA
ATOM      9  C   UNL     1       3.951   6.033  31.286  1.00  0.00     0.080 C 
ATOM     10  C   UNL     1       2.464   3.704  28.646  1.00  0.00     0.020 C 
ATOM     11  C   UNL     1       0.714   6.391  29.174  1.00  0.00     0.012 C 
ENDROOT
TORSDOF 0
ENDMDL
MODEL 3
REMARK VINA RESULT:    -4.338      1.795      3.224
REMARK INTER + INTRA:          -4.338
REMARK INTER:                  -4.338
REMARK INTRA:                   0.000
REMARK UNBOUND:                 0.000
REMARK SMILES CC1(C)[C@H]2CC[C@]1(C)C(=O)C2
REMARK SMILES IDX 1 1 2 2 4 3 5 4 6 5 7 6 9 7 10 8 11 9 8 10 3 11
REMARK H PARENT
REMARK Flexibility Score: inf
ROOT
ATOM      1  C   UNL     1       1.586   5.949  28.917  1.00  0.00     0.012 C 
ATOM      2  C   UNL     1       2.349   4.782  29.618  1.00  0.00    -0.020 C 
ATOM      3  C   UNL     1       1.659   4.277  30.908  1.00  0.00     0.003 C 
ATOM      4  C   UNL     1       2.693   3.265  31.475  1.00  0.00     0.005 C 
ATOM      5  C   UNL     1       4.051   3.918  31.114  1.00  0.00     0.015 C 
ATOM      6  C   UNL     1       3.622   5.210  30.380  1.00  0.00     0.032 C 
ATOM      7  C   UNL     1       3.023   6.083  31.455  1.00  0.00     0.139 C 
ATOM      8  O   UNL     1       3.562   7.044  31.982  1.00  0.00    -0.299 OA
ATOM      9  C   UNL     1       1.695   5.514  31.849  1.00  0.00     0.080 C 
ATOM     10  C   UNL     1       4.726   5.873  29.548  1.00  0.00     0.020 C 
ATOM     11  C   UNL     1       2.552   3.677  28.539  1.00  0.00     0.012 C 
ENDROOT
TORSDOF 0
ENDMDL
MODEL 4
REMARK VINA RESULT:    -4.333      2.148      3.461
REMARK INTER + INTRA:          -4.333
REMARK INTER:                  -4.333
REMARK INTRA:                   0.000
REMARK UNBOUND:                 0.000
REMARK SMILES CC1(C)[C@H]2CC[C@]1(C)C(=O)C2
REMARK SMILES IDX 1 1 2 2 4 3 5 4 6 5 7 6 9 7 10 8 11 9 8 10 3 11
REMARK H PARENT
REMARK Flexibility Score: inf
ROOT
ATOM      1  C   UNL     1       3.685   7.398  30.634  1.00  0.00     0.012 C 
ATOM      2  C   UNL     1       3.248   5.941  30.982  1.00  0.00    -0.020 C 
ATOM      3  C   UNL     1       3.359   4.959  29.791  1.00  0.00     0.003 C 
ATOM      4  C   UNL     1       2.714   3.663  30.356  1.00  0.00     0.005 C 
ATOM      5  C   UNL     1       1.577   4.204  31.256  1.00  0.00     0.015 C 
ATOM      6  C   UNL     1       1.722   5.737  31.101  1.00  0.00     0.032 C 
ATOM      7  C   UNL     1       1.291   6.023  29.684  1.00  0.00     0.139 C 
ATOM      8  O   UNL     1       0.218   6.497  29.342  1.00  0.00    -0.299 OA
ATOM      9  C   UNL     1       2.355   5.531  28.752  1.00  0.00     0.080 C 
ATOM     10  C   UNL     1       1.004   6.562  32.175  1.00  0.00     0.020 C 
ATOM     11  C   UNL     1       4.081   5.516  32.228  1.00  0.00     0.012 C 
ENDROOT
TORSDOF 0
ENDMDL
MODEL 5
REMARK VINA RESULT:    -4.293      1.752      3.054
REMARK INTER + INTRA:          -4.293
REMARK INTER:                  -4.293
REMARK INTRA:                   0.000
REMARK UNBOUND:                 0.000
REMARK SMILES CC1(C)[C@H]2CC[C@]1(C)C(=O)C2
REMARK SMILES IDX 1 1 2 2 4 3 5 4 6 5 7 6 9 7 10 8 11 9 8 10 3 11
REMARK H PARENT
REMARK Flexibility Score: inf
ROOT
ATOM      1  C   UNL     1       2.848   6.152  31.741  1.00  0.00     0.012 C 
ATOM      2  C   UNL     1       2.696   5.009  30.689  1.00  0.00    -0.020 C 
ATOM      3  C   UNL     1       4.047   4.454  30.178  1.00  0.00     0.003 C 
ATOM      4  C   UNL     1       3.611   3.480  29.048  1.00  0.00     0.005 C 
ATOM      5  C   UNL     1       2.388   4.197  28.425  1.00  0.00     0.015 C 
ATOM      6  C   UNL     1       2.274   5.481  29.281  1.00  0.00     0.032 C 
ATOM      7  C   UNL     1       3.474   6.310  28.893  1.00  0.00     0.139 C 
ATOM      8  O   UNL     1       3.465   7.285  28.158  1.00  0.00    -0.299 OA
ATOM      9  C   UNL     1       4.700   5.677  29.474  1.00  0.00     0.080 C 
ATOM     10  C   UNL     1       0.927   6.205  29.178  1.00  0.00     0.020 C 
ATOM     11  C   UNL     1       1.778   3.931  31.339  1.00  0.00     0.012 C 
ENDROOT
TORSDOF 0
ENDMDL
MODEL 6
REMARK VINA RESULT:    -4.250      1.502      2.752
REMARK INTER + INTRA:          -4.250
REMARK INTER:                  -4.250
REMARK INTRA:                   0.000
REMARK UNBOUND:                 0.000
REMARK SMILES CC1(C)[C@H]2CC[C@]1(C)C(=O)C2
REMARK SMILES IDX 1 1 2 2 4 3 5 4 6 5 7 6 9 7 10 8 11 9 8 10 3 11
REMARK H PARENT
REMARK Flexibility Score: inf
ROOT
ATOM      1  C   UNL     1       4.041   5.829  32.078  1.00  0.00     0.012 C 
ATOM      2  C   UNL     1       3.429   5.824  30.642  1.00  0.00    -0.020 C 
ATOM      3  C   UNL     1       1.966   6.326  30.590  1.00  0.00     0.003 C 
ATOM      4  C   UNL     1       1.566   6.058  29.113  1.00  0.00     0.005 C 
ATOM      5  C   UNL     1       2.307   4.739  28.786  1.00  0.00     0.015 C 
ATOM      6  C   UNL     1       3.045   4.427  30.110  1.00  0.00     0.032 C 
ATOM      7  C   UNL     1       1.951   4.050  31.080  1.00  0.00     0.139 C 
ATOM      8  O   UNL     1       1.670   2.918  31.440  1.00  0.00    -0.299 OA
ATOM      9  C   UNL     1       1.193   5.288  31.450  1.00  0.00     0.080 C 
ATOM     10  C   UNL     1       4.181   3.405  29.988  1.00  0.00     0.020 C 
ATOM     11  C   UNL     1       4.407   6.639  29.744  1.00  0.00     0.012 C 
ENDROOT
TORSDOF 0
ENDMDL
MODEL 7
REMARK VINA RESULT:    -4.204      1.614      2.477
REMARK INTER + INTRA:          -4.204
REMARK INTER:                  -4.204
REMARK INTRA:                   0.000
REMARK UNBOUND:                 0.000
REMARK SMILES CC1(C)[C@H]2CC[C@]1(C)C(=O)C2
REMARK SMILES IDX 1 1 2 2 4 3 5 4 6 5 7 6 9 7 10 8 11 9 8 10 3 11
REMARK H PARENT
REMARK Flexibility Score: inf
ROOT
ATOM      1  C   UNL     1       0.578   6.372  29.241  1.00  0.00     0.012 C 
ATOM      2  C   UNL     1       2.125   6.416  29.442  1.00  0.00    -0.020 C 
ATOM      3  C   UNL     1       2.898   5.451  28.512  1.00  0.00     0.003 C 
ATOM      4  C   UNL     1       4.357   5.571  29.032  1.00  0.00     0.005 C 
ATOM      5  C   UNL     1       4.168   5.740  30.560  1.00  0.00     0.015 C 
ATOM      6  C   UNL     1       2.629   5.707  30.717  1.00  0.00     0.032 C 
ATOM      7  C   UNL     1       2.242   4.280  30.414  1.00  0.00     0.139 C 
ATOM      8  O   UNL     1       1.940   3.428  31.236  1.00  0.00    -0.299 OA
ATOM      9  C   UNL     1       2.393   4.046  28.943  1.00  0.00     0.080 C 
ATOM     10  C   UNL     1       2.108   6.249  32.053  1.00  0.00     0.020 C 
ATOM     11  C   UNL     1       2.547   7.908  29.293  1.00  0.00     0.012 C 
ENDROOT
TORSDOF 0
ENDMDL
MODEL 8
REMARK VINA RESULT:    -4.165      2.128      3.115
REMARK INTER + INTRA:          -4.165
REMARK INTER:                  -4.165
REMARK INTRA:                   0.000
REMARK UNBOUND:                 0.000
REMARK SMILES CC1(C)[C@H]2CC[C@]1(C)C(=O)C2
REMARK SMILES IDX 1 1 2 2 4 3 5 4 6 5 7 6 9 7 10 8 11 9 8 10 3 11
REMARK H PARENT
REMARK Flexibility Score: inf
ROOT
ATOM      1  C   UNL     1       2.267   4.242  28.701  1.00  0.00     0.012 C 
ATOM      2  C   UNL     1       2.137   4.869  30.125  1.00  0.00    -0.020 C 
ATOM      3  C   UNL     1       0.793   5.599  30.360  1.00  0.00     0.003 C 
ATOM      4  C   UNL     1       1.000   6.256  31.753  1.00  0.00     0.005 C 
ATOM      5  C   UNL     1       2.498   6.650  31.731  1.00  0.00     0.015 C 
ATOM      6  C   UNL     1       2.958   6.159  30.338  1.00  0.00     0.032 C 
ATOM      7  C   UNL     1       2.279   7.086  29.360  1.00  0.00     0.139 C 
ATOM      8  O   UNL     1       2.808   8.011  28.762  1.00  0.00    -0.299 OA
ATOM      9  C   UNL     1       0.819   6.755  29.321  1.00  0.00     0.080 C 
ATOM     10  C   UNL     1       4.477   6.039  30.168  1.00  0.00     0.020 C 
ATOM     11  C   UNL     1       2.417   3.720  31.140  1.00  0.00     0.012 C 
ENDROOT
TORSDOF 0
ENDMDL
MODEL 9
REMARK VINA RESULT:    -4.046      1.871      3.154
REMARK INTER + INTRA:          -4.046
REMARK INTER:                  -4.046
REMARK INTRA:                   0.000
REMARK UNBOUND:                 0.000
REMARK SMILES CC1(C)[C@H]2CC[C@]1(C)C(=O)C2
REMARK SMILES IDX 1 1 2 2 4 3 5 4 6 5 7 6 9 7 10 8 11 9 8 10 3 11
REMARK H PARENT
REMARK Flexibility Score: inf
ROOT
ATOM      1  C   UNL     1       4.424   5.676  31.160  1.00  0.00     0.012 C 
ATOM      2  C   UNL     1       4.107   4.574  30.101  1.00  0.00    -0.020 C 
ATOM      3  C   UNL     1       4.302   5.046  28.640  1.00  0.00     0.003 C 
ATOM      4  C   UNL     1       3.764   3.841  27.818  1.00  0.00     0.005 C 
ATOM      5  C   UNL     1       2.583   3.332  28.681  1.00  0.00     0.015 C 
ATOM      6  C   UNL     1       2.602   4.300  29.888  1.00  0.00     0.032 C 
ATOM      7  C   UNL     1       2.154   5.626  29.325  1.00  0.00     0.139 C 
ATOM      8  O   UNL     1       1.047   6.125  29.459  1.00  0.00    -0.299 OA
ATOM      9  C   UNL     1       3.257   6.185  28.481  1.00  0.00     0.080 C 
ATOM     10  C   UNL     1       1.816   3.817  31.112  1.00  0.00     0.020 C 
ATOM     11  C   UNL     1       4.968   3.334  30.484  1.00  0.00     0.012 C 
ENDROOT
TORSDOF 0
ENDMDL
