MODEL 1
REMARK VINA RESULT:    -3.841      0.000      0.000
REMARK INTER + INTRA:          -5.982
REMARK INTER:                  -5.638
REMARK INTRA:                  -0.344
REMARK UNBOUND:                -0.344
REMARK SMILES O=C([O-])CCCCCCCC(=O)[O-]
REMARK SMILES IDX 7 1 6 2 5 3 4 4 2 5 1 6 3 7 8 8 9 9 10 10 11 11 12 12 13 13
REMARK H PARENT
REMARK Flexibility Score: inf
ROOT
ATOM      1  C   UNL     1      -9.893   8.444 -18.860  1.00  0.00     0.000 C 
ENDROOT
BRANCH   1   2
ATOM      2  C   UNL     1     -11.141   9.333 -18.979  1.00  0.00     0.000 C 
BRANCH   2   3
ATOM      3  C   UNL     1     -12.404   8.535 -19.346  1.00  0.00     0.006 C 
BRANCH   3   4
ATOM      4  C   UNL     1     -12.097   7.056 -19.617  1.00  0.00     0.053 C 
BRANCH   4   5
ATOM      5  C   UNL     1     -12.486   6.654 -21.007  1.00  0.00     0.041 C 
ATOM      6  O   UNL     1     -12.091   5.558 -21.482  1.00  0.00    -0.550 OA
ATOM      7  O   UNL     1     -13.255   7.507 -21.789  1.00  0.00    -0.550 OA
ENDBRANCH   4   5
ENDBRANCH   3   4
ENDBRANCH   2   3
ENDBRANCH   1   2
BRANCH   1   8
ATOM      8  C   UNL     1      -9.215   8.559 -17.487  1.00  0.00     0.000 C 
BRANCH   8   9
ATOM      9  C   UNL     1      -8.995  10.031 -17.105  1.00  0.00     0.006 C 
BRANCH   9  10
ATOM     10  C   UNL     1      -8.692  10.205 -15.611  1.00  0.00     0.053 C 
BRANCH  10  11
ATOM     11  C   UNL     1      -7.392  10.912 -15.385  1.00  0.00     0.041 C 
ATOM     12  O   UNL     1      -6.713  10.676 -14.351  1.00  0.00    -0.550 OA
ATOM     13  O   UNL     1      -6.946  11.858 -16.300  1.00  0.00    -0.550 OA
ENDBRANCH  10  11
ENDBRANCH   9  10
ENDBRANCH   8   9
ENDBRANCH   1   8
TORSDOF 8
ENDMDL
MODEL 2
REMARK VINA RESULT:    -3.806      1.230      6.940
REMARK INTER + INTRA:          -5.930
REMARK INTER:                  -5.560
REMARK INTRA:                  -0.369
REMARK UNBOUND:                -0.344
REMARK SMILES O=C([O-])CCCCCCCC(=O)[O-]
REMARK SMILES IDX 7 1 6 2 5 3 4 4 2 5 1 6 3 7 8 8 9 9 10 10 11 11 12 12 13 13
REMARK H PARENT
REMARK Flexibility Score: inf
ROOT
ATOM      1  C   UNL     1     -11.266   9.227 -18.865  1.00  0.00     0.000 C 
ENDROOT
BRANCH   1   2
ATOM      2  C   UNL     1     -10.155   8.189 -18.641  1.00  0.00     0.000 C 
BRANCH   2   3
ATOM      3  C   UNL     1      -9.212   8.570 -17.488  1.00  0.00     0.006 C 
BRANCH   3   4
ATOM      4  C   UNL     1      -9.004  10.087 -17.385  1.00  0.00     0.053 C 
BRANCH   4   5
ATOM      5  C   UNL     1      -8.176  10.455 -16.193  1.00  0.00     0.041 C 
ATOM      6  O   UNL     1      -8.625  10.278 -15.031  1.00  0.00    -0.550 OA
ATOM      7  O   UNL     1      -6.922  11.028 -16.367  1.00  0.00    -0.550 OA
ENDBRANCH   4   5
ENDBRANCH   3   4
ENDBRANCH   2   3
ENDBRANCH   1   2
BRANCH   1   8
ATOM      8  C   UNL     1     -12.551   8.604 -19.431  1.00  0.00     0.000 C 
BRANCH   8   9
ATOM      9  C   UNL     1     -12.489   8.515 -20.963  1.00  0.00     0.006 C 
BRANCH   9  10
ATOM     10  C   UNL     1     -13.051   7.188 -21.491  1.00  0.00     0.053 C 
BRANCH  10  11
ATOM     11  C   UNL     1     -12.076   6.064 -21.323  1.00  0.00     0.041 C 
ATOM     12  O   UNL     1     -12.228   5.225 -20.397  1.00  0.00    -0.550 OA
ATOM     13  O   UNL     1     -10.978   5.963 -22.170  1.00  0.00    -0.550 OA
ENDBRANCH  10  11
ENDBRANCH   9  10
ENDBRANCH   8   9
ENDBRANCH   1   8
TORSDOF 8
ENDMDL
MODEL 3
REMARK VINA RESULT:    -3.790      3.417      4.114
REMARK INTER + INTRA:          -5.907
REMARK INTER:                  -5.067
REMARK INTRA:                  -0.840
REMARK UNBOUND:                -0.344
REMARK SMILES O=C([O-])CCCCCCCC(=O)[O-]
REMARK SMILES IDX 7 1 6 2 5 3 4 4 2 5 1 6 3 7 8 8 9 9 10 10 11 11 12 12 13 13
REMARK H PARENT
REMARK Flexibility Score: inf
ROOT
ATOM      1  C   UNL     1     -12.507   8.518 -19.345  1.00  0.00     0.000 C 
ENDROOT
BRANCH   1   2
ATOM      2  C   UNL     1     -12.721   8.674 -20.859  1.00  0.00     0.000 C 
BRANCH   2   3
ATOM      3  C   UNL     1     -13.191   7.371 -21.528  1.00  0.00     0.006 C 
BRANCH   3   4
ATOM      4  C   UNL     1     -12.061   6.675 -22.299  1.00  0.00     0.053 C 
BRANCH   4   5
ATOM      5  C   UNL     1     -11.560   5.462 -21.577  1.00  0.00     0.041 C 
ATOM      6  O   UNL     1     -10.641   4.762 -22.077  1.00  0.00    -0.550 OA
ATOM      7  O   UNL     1     -12.133   5.086 -20.369  1.00  0.00    -0.550 OA
ENDBRANCH   4   5
ENDBRANCH   3   4
ENDBRANCH   2   3
ENDBRANCH   1   2
BRANCH   1   8
ATOM      8  C   UNL     1     -11.071   8.854 -18.914  1.00  0.00     0.000 C 
BRANCH   8   9
ATOM      9  C   UNL     1     -10.267   7.573 -18.641  1.00  0.00     0.006 C 
BRANCH   9  10
ATOM     10  C   UNL     1      -9.137   7.370 -19.659  1.00  0.00     0.053 C 
BRANCH  10  11
ATOM     11  C   UNL     1      -8.245   6.228 -19.280  1.00  0.00     0.041 C 
ATOM     12  O   UNL     1      -7.050   6.441 -18.947  1.00  0.00    -0.550 OA
ATOM     13  O   UNL     1      -8.725   4.925 -19.326  1.00  0.00    -0.550 OA
ENDBRANCH  10  11
ENDBRANCH   9  10
ENDBRANCH   8   9
ENDBRANCH   1   8
TORSDOF 8
ENDMDL
MODEL 4
REMARK VINA RESULT:    -3.789      3.529      4.266
REMARK INTER + INTRA:          -5.905
REMARK INTER:                  -5.364
REMARK INTRA:                  -0.541
REMARK UNBOUND:                -0.344
REMARK SMILES O=C([O-])CCCCCCCC(=O)[O-]
REMARK SMILES IDX 7 1 6 2 5 3 4 4 2 5 1 6 3 7 8 8 9 9 10 10 11 11 12 12 13 13
REMARK H PARENT
REMARK Flexibility Score: inf
ROOT
ATOM      1  C   UNL     1     -10.692   9.520 -18.514  1.00  0.00     0.000 C 
ENDROOT
BRANCH   1   2
ATOM      2  C   UNL     1     -11.177   9.096 -19.910  1.00  0.00     0.000 C 
BRANCH   2   3
ATOM      3  C   UNL     1     -12.614   8.548 -19.896  1.00  0.00     0.006 C 
BRANCH   3   4
ATOM      4  C   UNL     1     -12.955   7.783 -21.182  1.00  0.00     0.053 C 
BRANCH   4   5
ATOM      5  C   UNL     1     -12.302   6.435 -21.216  1.00  0.00     0.041 C 
ATOM      6  O   UNL     1     -11.806   5.999 -22.288  1.00  0.00    -0.550 OA
ATOM      7  O   UNL     1     -12.274   5.646 -20.073  1.00  0.00    -0.550 OA
ENDBRANCH   4   5
ENDBRANCH   3   4
ENDBRANCH   2   3
ENDBRANCH   1   2
BRANCH   1   8
ATOM      8  C   UNL     1      -9.452   8.738 -18.057  1.00  0.00     0.000 C 
BRANCH   8   9
ATOM      9  C   UNL     1      -9.528   7.273 -18.516  1.00  0.00     0.006 C 
BRANCH   9  10
ATOM     10  C   UNL     1      -8.197   6.776 -19.093  1.00  0.00     0.053 C 
BRANCH  10  11
ATOM     11  C   UNL     1      -8.278   5.345 -19.529  1.00  0.00     0.041 C 
ATOM     12  O   UNL     1      -9.066   5.007 -20.451  1.00  0.00    -0.550 OA
ATOM     13  O   UNL     1      -7.509   4.379 -18.893  1.00  0.00    -0.550 OA
ENDBRANCH  10  11
ENDBRANCH   9  10
ENDBRANCH   8   9
ENDBRANCH   1   8
TORSDOF 8
ENDMDL
MODEL 5
REMARK VINA RESULT:    -3.788      0.358      7.192
REMARK INTER + INTRA:          -5.904
REMARK INTER:                  -5.574
REMARK INTRA:                  -0.330
REMARK UNBOUND:                -0.344
REMARK SMILES O=C([O-])CCCCCCCC(=O)[O-]
REMARK SMILES IDX 7 1 6 2 5 3 4 4 2 5 1 6 3 7 8 8 9 9 10 10 11 11 12 12 13 13
REMARK H PARENT
REMARK Flexibility Score: inf
ROOT
ATOM      1  C   UNL     1      -9.862   8.234 -18.286  1.00  0.00     0.000 C 
ENDROOT
BRANCH   1   2
ATOM      2  C   UNL     1      -8.628   8.908 -17.664  1.00  0.00     0.000 C 
BRANCH   2   3
ATOM      3  C   UNL     1      -8.964  10.247 -16.984  1.00  0.00     0.006 C 
BRANCH   3   4
ATOM      4  C   UNL     1      -8.635  10.235 -15.486  1.00  0.00     0.053 C 
BRANCH   4   5
ATOM      5  C   UNL     1      -7.407  11.035 -15.180  1.00  0.00     0.041 C 
ATOM      6  O   UNL     1      -6.600  10.644 -14.297  1.00  0.00    -0.550 OA
ATOM      7  O   UNL     1      -7.173  12.232 -15.845  1.00  0.00    -0.550 OA
ENDBRANCH   4   5
ENDBRANCH   3   4
ENDBRANCH   2   3
ENDBRANCH   1   2
BRANCH   1   8
ATOM      8  C   UNL     1     -10.820   9.241 -18.937  1.00  0.00     0.000 C 
BRANCH   8   9
ATOM      9  C   UNL     1     -12.165   8.579 -19.276  1.00  0.00     0.006 C 
BRANCH   9  10
ATOM     10  C   UNL     1     -12.019   7.076 -19.550  1.00  0.00     0.053 C 
BRANCH  10  11
ATOM     11  C   UNL     1     -12.428   6.723 -20.946  1.00  0.00     0.041 C 
ATOM     12  O   UNL     1     -12.023   5.654 -21.475  1.00  0.00    -0.550 OA
ATOM     13  O   UNL     1     -13.231   7.590 -21.677  1.00  0.00    -0.550 OA
ENDBRANCH  10  11
ENDBRANCH   9  10
ENDBRANCH   8   9
ENDBRANCH   1   8
TORSDOF 8
ENDMDL
MODEL 6
REMARK VINA RESULT:    -3.780      1.260      1.851
REMARK INTER + INTRA:          -5.893
REMARK INTER:                  -5.444
REMARK INTRA:                  -0.449
REMARK UNBOUND:                -0.344
REMARK SMILES O=C([O-])CCCCCCCC(=O)[O-]
REMARK SMILES IDX 7 1 6 2 5 3 4 4 2 5 1 6 3 7 8 8 9 9 10 10 11 11 12 12 13 13
REMARK H PARENT
REMARK Flexibility Score: inf
ROOT
ATOM      1  C   UNL     1     -11.187   9.120 -18.911  1.00  0.00     0.000 C 
ENDROOT
BRANCH   1   2
ATOM      2  C   UNL     1     -12.527   8.538 -19.386  1.00  0.00     0.000 C 
BRANCH   2   3
ATOM      3  C   UNL     1     -12.703   8.624 -20.912  1.00  0.00     0.006 C 
BRANCH   3   4
ATOM      4  C   UNL     1     -13.044   7.264 -21.534  1.00  0.00     0.053 C 
BRANCH   4   5
ATOM      5  C   UNL     1     -11.991   6.240 -21.243  1.00  0.00     0.041 C 
ATOM      6  O   UNL     1     -10.860   6.322 -21.788  1.00  0.00    -0.550 OA
ATOM      7  O   UNL     1     -12.272   5.175 -20.396  1.00  0.00    -0.550 OA
ENDBRANCH   4   5
ENDBRANCH   3   4
ENDBRANCH   2   3
ENDBRANCH   1   2
BRANCH   1   8
ATOM      8  C   UNL     1     -10.165   8.032 -18.550  1.00  0.00     0.000 C 
BRANCH   8   9
ATOM      9  C   UNL     1      -8.878   8.654 -17.985  1.00  0.00     0.006 C 
BRANCH   9  10
ATOM     10  C   UNL     1      -9.122  10.041 -17.378  1.00  0.00     0.053 C 
BRANCH  10  11
ATOM     11  C   UNL     1      -8.165  10.337 -16.265  1.00  0.00     0.041 C 
ATOM     12  O   UNL     1      -6.941  10.505 -16.508  1.00  0.00    -0.550 OA
ATOM     13  O   UNL     1      -8.619  10.395 -14.953  1.00  0.00    -0.550 OA
ENDBRANCH  10  11
ENDBRANCH   9  10
ENDBRANCH   8   9
ENDBRANCH   1   8
TORSDOF 8
ENDMDL
MODEL 7
REMARK VINA RESULT:    -3.759      3.473      5.944
REMARK INTER + INTRA:          -5.861
REMARK INTER:                  -5.352
REMARK INTRA:                  -0.509
REMARK UNBOUND:                -0.344
REMARK SMILES O=C([O-])CCCCCCCC(=O)[O-]
REMARK SMILES IDX 7 1 6 2 5 3 4 4 2 5 1 6 3 7 8 8 9 9 10 10 11 11 12 12 13 13
REMARK H PARENT
REMARK Flexibility Score: inf
ROOT
ATOM      1  C   UNL     1      -9.734   8.134 -18.318  1.00  0.00     0.000 C 
ENDROOT
BRANCH   1   2
ATOM      2  C   UNL     1      -8.246   8.517 -18.289  1.00  0.00     0.000 C 
BRANCH   2   3
ATOM      3  C   UNL     1      -7.324   7.341 -18.659  1.00  0.00     0.006 C 
BRANCH   3   4
ATOM      4  C   UNL     1      -7.793   6.613 -19.925  1.00  0.00     0.053 C 
BRANCH   4   5
ATOM      5  C   UNL     1      -8.230   5.211 -19.630  1.00  0.00     0.041 C 
ATOM      6  O   UNL     1      -9.370   4.814 -19.987  1.00  0.00    -0.550 OA
ATOM      7  O   UNL     1      -7.392   4.354 -18.928  1.00  0.00    -0.550 OA
ENDBRANCH   4   5
ENDBRANCH   3   4
ENDBRANCH   2   3
ENDBRANCH   1   2
BRANCH   1   8
ATOM      8  C   UNL     1     -10.642   9.321 -18.671  1.00  0.00     0.000 C 
BRANCH   8   9
ATOM      9  C   UNL     1     -11.961   8.836 -19.294  1.00  0.00     0.006 C 
BRANCH   9  10
ATOM     10  C   UNL     1     -11.955   7.325 -19.562  1.00  0.00     0.053 C 
BRANCH  10  11
ATOM     11  C   UNL     1     -12.428   7.003 -20.946  1.00  0.00     0.041 C 
ATOM     12  O   UNL     1     -13.039   7.870 -21.624  1.00  0.00    -0.550 OA
ATOM     13  O   UNL     1     -12.223   5.735 -21.474  1.00  0.00    -0.550 OA
ENDBRANCH  10  11
ENDBRANCH   9  10
ENDBRANCH   8   9
ENDBRANCH   1   8
TORSDOF 8
ENDMDL
MODEL 8
REMARK VINA RESULT:    -3.738      2.255      6.476
REMARK INTER + INTRA:          -5.831
REMARK INTER:                  -5.374
REMARK INTRA:                  -0.457
REMARK UNBOUND:                -0.344
REMARK SMILES O=C([O-])CCCCCCCC(=O)[O-]
REMARK SMILES IDX 7 1 6 2 5 3 4 4 2 5 1 6 3 7 8 8 9 9 10 10 11 11 12 12 13 13
REMARK H PARENT
REMARK Flexibility Score: inf
ROOT
ATOM      1  C   UNL     1     -12.696   8.143 -19.607  1.00  0.00     0.000 C 
ENDROOT
BRANCH   1   2
ATOM      2  C   UNL     1     -11.494   9.036 -19.264  1.00  0.00     0.000 C 
BRANCH   2   3
ATOM      3  C   UNL     1     -10.362   8.264 -18.563  1.00  0.00     0.006 C 
BRANCH   3   4
ATOM      4  C   UNL     1      -9.301   9.201 -17.972  1.00  0.00     0.053 C 
BRANCH   4   5
ATOM      5  C   UNL     1      -7.929   8.604 -18.047  1.00  0.00     0.041 C 
ATOM      6  O   UNL     1      -7.766   7.450 -18.521  1.00  0.00    -0.550 OA
ATOM      7  O   UNL     1      -6.836   9.309 -17.559  1.00  0.00    -0.550 OA
ENDBRANCH   4   5
ENDBRANCH   3   4
ENDBRANCH   2   3
ENDBRANCH   1   2
BRANCH   1   8
ATOM      8  C   UNL     1     -12.939   8.033 -21.119  1.00  0.00     0.000 C 
BRANCH   8   9
ATOM      9  C   UNL     1     -12.492   6.661 -21.648  1.00  0.00     0.006 C 
BRANCH   9  10
ATOM     10  C   UNL     1     -12.115   5.697 -20.515  1.00  0.00     0.053 C 
BRANCH  10  11
ATOM     11  C   UNL     1     -10.882   4.912 -20.840  1.00  0.00     0.041 C 
ATOM     12  O   UNL     1     -10.895   4.068 -21.774  1.00  0.00    -0.550 OA
ATOM     13  O   UNL     1      -9.726   5.089 -20.089  1.00  0.00    -0.550 OA
ENDBRANCH  10  11
ENDBRANCH   9  10
ENDBRANCH   8   9
ENDBRANCH   1   8
TORSDOF 8
ENDMDL
MODEL 9
REMARK VINA RESULT:    -3.711      2.551      3.644
REMARK INTER + INTRA:          -5.791
REMARK INTER:                  -4.984
REMARK INTRA:                  -0.807
REMARK UNBOUND:                -0.344
REMARK SMILES O=C([O-])CCCCCCCC(=O)[O-]
REMARK SMILES IDX 7 1 6 2 5 3 4 4 2 5 1 6 3 7 8 8 9 9 10 10 11 11 12 12 13 13
REMARK H PARENT
REMARK Flexibility Score: inf
ROOT
ATOM      1  C   UNL     1     -12.275   8.212 -21.027  1.00  0.00     0.000 C 
ENDROOT
BRANCH   1   2
ATOM      2  C   UNL     1     -12.576   6.764 -21.445  1.00  0.00     0.000 C 
BRANCH   2   3
ATOM      3  C   UNL     1     -12.125   5.737 -20.392  1.00  0.00     0.006 C 
BRANCH   3   4
ATOM      4  C   UNL     1     -10.995   4.837 -20.907  1.00  0.00     0.053 C 
BRANCH   4   5
ATOM      5  C   UNL     1      -9.645   5.380 -20.550  1.00  0.00     0.041 C 
ATOM      6  O   UNL     1      -9.021   4.923 -19.558  1.00  0.00    -0.550 OA
ATOM      7  O   UNL     1      -9.094   6.416 -21.294  1.00  0.00    -0.550 OA
ENDBRANCH   4   5
ENDBRANCH   3   4
ENDBRANCH   2   3
ENDBRANCH   1   2
BRANCH   1   8
ATOM      8  C   UNL     1     -12.289   8.401 -19.503  1.00  0.00     0.000 C 
BRANCH   8   9
ATOM      9  C   UNL     1     -10.987   9.061 -19.021  1.00  0.00     0.006 C 
BRANCH   9  10
ATOM     10  C   UNL     1     -10.083   8.077 -18.265  1.00  0.00     0.053 C 
BRANCH  10  11
ATOM     11  C   UNL     1      -8.681   8.588 -18.147  1.00  0.00     0.041 C 
ATOM     12  O   UNL     1      -8.468   9.807 -17.914  1.00  0.00    -0.550 OA
ATOM     13  O   UNL     1      -7.608   7.724 -18.328  1.00  0.00    -0.550 OA
ENDBRANCH  10  11
ENDBRANCH   9  10
ENDBRANCH   8   9
ENDBRANCH   1   8
TORSDOF 8
ENDMDL
