MODEL 1
REMARK VINA RESULT:    -5.265      0.000      0.000
REMARK INTER + INTRA:         -10.835
REMARK INTER:                  -9.882
REMARK INTRA:                  -0.953
REMARK UNBOUND:                -0.953
REMARK SMILES O=C([O-])CCCCCCCCCCCCCCC(=O)[O-]
REMARK SMILES IDX 10 1 9 2 8 3 7 4 6 5 5 6 4 7 2 8 1 9 3 10 11 11 12 12 13 13
REMARK SMILES IDX 14 14 15 15 16 16 17 17 18 18 19 19 20 20
REMARK H PARENT
REMARK Flexibility Score: inf
ROOT
ATOM      1  C   UNL     1     -10.638  -2.339  -9.599  1.00  0.00     0.000 C 
ENDROOT
BRANCH   1   2
ATOM      2  C   UNL     1     -10.759  -1.011 -10.371  1.00  0.00     0.000 C 
BRANCH   2   3
ATOM      3  C   UNL     1     -12.049  -0.224 -10.053  1.00  0.00     0.000 C 
BRANCH   3   4
ATOM      4  C   UNL     1     -13.318  -1.022 -10.400  1.00  0.00     0.000 C 
BRANCH   4   5
ATOM      5  C   UNL     1     -14.562  -0.129 -10.523  1.00  0.00     0.000 C 
BRANCH   5   6
ATOM      6  C   UNL     1     -14.720   0.827  -9.326  1.00  0.00     0.006 C 
BRANCH   6   7
ATOM      7  C   UNL     1     -14.789   2.296  -9.765  1.00  0.00     0.053 C 
BRANCH   7   8
ATOM      8  C   UNL     1     -13.859   3.156  -8.965  1.00  0.00     0.041 C 
ATOM      9  O   UNL     1     -14.297   3.832  -7.997  1.00  0.00    -0.550 OA
ATOM     10  O   UNL     1     -12.516   3.235  -9.308  1.00  0.00    -0.550 OA
ENDBRANCH   7   8
ENDBRANCH   6   7
ENDBRANCH   5   6
ENDBRANCH   4   5
ENDBRANCH   3   4
ENDBRANCH   2   3
ENDBRANCH   1   2
BRANCH   1  11
ATOM     11  C   UNL     1      -9.883  -2.242  -8.261  1.00  0.00     0.000 C 
BRANCH  11  12
ATOM     12  C   UNL     1      -9.383  -3.589  -7.704  1.00  0.00     0.000 C 
BRANCH  12  13
ATOM     13  C   UNL     1     -10.507  -4.626  -7.491  1.00  0.00     0.000 C 
BRANCH  13  14
ATOM     14  C   UNL     1      -9.961  -6.060  -7.378  1.00  0.00     0.000 C 
BRANCH  14  15
ATOM     15  C   UNL     1     -10.638  -6.866  -6.258  1.00  0.00     0.000 C 
BRANCH  15  16
ATOM     16  C   UNL     1     -11.737  -6.072  -5.535  1.00  0.00     0.006 C 
BRANCH  16  17
ATOM     17  C   UNL     1     -13.060  -6.844  -5.535  1.00  0.00     0.053 C 
BRANCH  17  18
ATOM     18  C   UNL     1     -13.581  -6.990  -6.929  1.00  0.00     0.041 C 
ATOM     19  O   UNL     1     -13.584  -8.119  -7.488  1.00  0.00    -0.550 OA
ATOM     20  O   UNL     1     -14.018  -5.874  -7.630  1.00  0.00    -0.550 OA
ENDBRANCH  17  18
ENDBRANCH  16  17
ENDBRANCH  15  16
ENDBRANCH  14  15
ENDBRANCH  13  14
ENDBRANCH  12  13
ENDBRANCH  11  12
ENDBRANCH   1  11
TORSDOF 15
ENDMDL
MODEL 2
REMARK VINA RESULT:    -5.242      1.469      8.255
REMARK INTER + INTRA:         -10.792
REMARK INTER:                  -9.770
REMARK INTRA:                  -1.022
REMARK UNBOUND:                -0.953
REMARK SMILES O=C([O-])CCCCCCCCCCCCCCC(=O)[O-]
REMARK SMILES IDX 10 1 9 2 8 3 7 4 6 5 5 6 4 7 2 8 1 9 3 10 11 11 12 12 13 13
REMARK SMILES IDX 14 14 15 15 16 16 17 17 18 18 19 19 20 20
REMARK H PARENT
REMARK Flexibility Score: inf
ROOT
ATOM      1  C   UNL     1     -10.388  -3.245  -9.249  1.00  0.00     0.000 C 
ENDROOT
BRANCH   1   2
ATOM      2  C   UNL     1      -9.638  -3.255  -7.902  1.00  0.00     0.000 C 
BRANCH   2   3
ATOM      3  C   UNL     1     -10.111  -4.364  -6.937  1.00  0.00     0.000 C 
BRANCH   3   4
ATOM      4  C   UNL     1      -9.893  -5.772  -7.519  1.00  0.00     0.000 C 
BRANCH   4   5
ATOM      5  C   UNL     1     -10.623  -6.860  -6.717  1.00  0.00     0.000 C 
BRANCH   5   6
ATOM      6  C   UNL     1     -11.834  -7.436  -7.473  1.00  0.00     0.006 C 
BRANCH   6   7
ATOM      7  C   UNL     1     -11.500  -7.764  -8.935  1.00  0.00     0.053 C 
BRANCH   7   8
ATOM      8  C   UNL     1     -12.433  -7.076  -9.883  1.00  0.00     0.041 C 
ATOM      9  O   UNL     1     -12.637  -5.837  -9.784  1.00  0.00    -0.550 OA
ATOM     10  O   UNL     1     -13.101  -7.808 -10.857  1.00  0.00    -0.550 OA
ENDBRANCH   7   8
ENDBRANCH   6   7
ENDBRANCH   5   6
ENDBRANCH   4   5
ENDBRANCH   3   4
ENDBRANCH   2   3
ENDBRANCH   1   2
BRANCH   1  11
ATOM     11  C   UNL     1     -10.226  -1.953 -10.070  1.00  0.00     0.000 C 
BRANCH  11  12
ATOM     12  C   UNL     1     -11.028  -0.749  -9.540  1.00  0.00     0.000 C 
BRANCH  12  13
ATOM     13  C   UNL     1     -12.123  -0.258 -10.512  1.00  0.00     0.000 C 
BRANCH  13  14
ATOM     14  C   UNL     1     -13.418  -1.080 -10.391  1.00  0.00     0.000 C 
BRANCH  14  15
ATOM     15  C   UNL     1     -14.684  -0.213 -10.496  1.00  0.00     0.000 C 
BRANCH  15  16
ATOM     16  C   UNL     1     -14.856   0.734  -9.298  1.00  0.00     0.006 C 
BRANCH  16  17
ATOM     17  C   UNL     1     -14.910   2.194  -9.757  1.00  0.00     0.053 C 
BRANCH  17  18
ATOM     18  C   UNL     1     -13.908   3.015  -9.010  1.00  0.00     0.041 C 
ATOM     19  O   UNL     1     -14.292   3.868  -8.166  1.00  0.00    -0.550 OA
ATOM     20  O   UNL     1     -12.553   2.877  -9.280  1.00  0.00    -0.550 OA
ENDBRANCH  17  18
ENDBRANCH  16  17
ENDBRANCH  15  16
ENDBRANCH  14  15
ENDBRANCH  13  14
ENDBRANCH  12  13
ENDBRANCH  11  12
ENDBRANCH   1  11
TORSDOF 15
ENDMDL
MODEL 3
REMARK VINA RESULT:    -5.225      1.565      2.099
REMARK INTER + INTRA:         -10.759
REMARK INTER:                  -9.650
REMARK INTRA:                  -1.109
REMARK UNBOUND:                -0.953
REMARK SMILES O=C([O-])CCCCCCCCCCCCCCC(=O)[O-]
REMARK SMILES IDX 10 1 9 2 8 3 7 4 6 5 5 6 4 7 2 8 1 9 3 10 11 11 12 12 13 13
REMARK SMILES IDX 14 14 15 15 16 16 17 17 18 18 19 19 20 20
REMARK H PARENT
REMARK Flexibility Score: inf
ROOT
ATOM      1  C   UNL     1     -10.436  -1.946  -9.253  1.00  0.00     0.000 C 
ENDROOT
BRANCH   1   2
ATOM      2  C   UNL     1     -10.888  -0.983 -10.368  1.00  0.00     0.000 C 
BRANCH   2   3
ATOM      3  C   UNL     1     -12.162  -0.183 -10.019  1.00  0.00     0.000 C 
BRANCH   3   4
ATOM      4  C   UNL     1     -13.441  -0.877 -10.521  1.00  0.00     0.000 C 
BRANCH   4   5
ATOM      5  C   UNL     1     -14.720  -0.191 -10.020  1.00  0.00     0.000 C 
BRANCH   5   6
ATOM      6  C   UNL     1     -14.707   1.329 -10.264  1.00  0.00     0.006 C 
BRANCH   6   7
ATOM      7  C   UNL     1     -14.941   2.124  -8.973  1.00  0.00     0.053 C 
BRANCH   7   8
ATOM      8  C   UNL     1     -13.921   3.208  -8.797  1.00  0.00     0.041 C 
ATOM      9  O   UNL     1     -14.171   4.201  -8.066  1.00  0.00    -0.550 OA
ATOM     10  O   UNL     1     -12.707   3.135  -9.468  1.00  0.00    -0.550 OA
ENDBRANCH   7   8
ENDBRANCH   6   7
ENDBRANCH   5   6
ENDBRANCH   4   5
ENDBRANCH   3   4
ENDBRANCH   2   3
ENDBRANCH   1   2
BRANCH   1  11
ATOM     11  C   UNL     1      -9.985  -3.335  -9.742  1.00  0.00     0.000 C 
BRANCH  11  12
ATOM     12  C   UNL     1     -10.290  -4.491  -8.771  1.00  0.00     0.000 C 
BRANCH  12  13
ATOM     13  C   UNL     1     -11.340  -5.488  -9.306  1.00  0.00     0.000 C 
BRANCH  13  14
ATOM     14  C   UNL     1     -12.758  -4.894  -9.310  1.00  0.00     0.000 C 
BRANCH  14  15
ATOM     15  C   UNL     1     -13.794  -5.823  -8.657  1.00  0.00     0.000 C 
BRANCH  15  16
ATOM     16  C   UNL     1     -13.158  -6.834  -7.690  1.00  0.00     0.006 C 
BRANCH  16  17
ATOM     17  C   UNL     1     -13.308  -6.372  -6.238  1.00  0.00     0.053 C 
BRANCH  17  18
ATOM     18  C   UNL     1     -12.030  -6.575  -5.489  1.00  0.00     0.041 C 
ATOM     19  O   UNL     1     -11.092  -5.742  -5.598  1.00  0.00    -0.550 OA
ATOM     20  O   UNL     1     -11.853  -7.711  -4.708  1.00  0.00    -0.550 OA
ENDBRANCH  17  18
ENDBRANCH  16  17
ENDBRANCH  15  16
ENDBRANCH  14  15
ENDBRANCH  13  14
ENDBRANCH  12  13
ENDBRANCH  11  12
ENDBRANCH   1  11
TORSDOF 15
ENDMDL
MODEL 4
REMARK VINA RESULT:    -5.078      0.914      8.251
REMARK INTER + INTRA:         -10.484
REMARK INTER:                  -9.645
REMARK INTRA:                  -0.839
REMARK UNBOUND:                -0.953
REMARK SMILES O=C([O-])CCCCCCCCCCCCCCC(=O)[O-]
REMARK SMILES IDX 10 1 9 2 8 3 7 4 6 5 5 6 4 7 2 8 1 9 3 10 11 11 12 12 13 13
REMARK SMILES IDX 14 14 15 15 16 16 17 17 18 18 19 19 20 20
REMARK H PARENT
REMARK Flexibility Score: inf
ROOT
ATOM      1  C   UNL     1     -10.243  -3.260  -9.268  1.00  0.00     0.000 C 
ENDROOT
BRANCH   1   2
ATOM      2  C   UNL     1      -9.559  -3.157  -7.891  1.00  0.00     0.000 C 
BRANCH   2   3
ATOM      3  C   UNL     1      -9.947  -4.294  -6.920  1.00  0.00     0.000 C 
BRANCH   3   4
ATOM      4  C   UNL     1     -10.252  -5.610  -7.656  1.00  0.00     0.000 C 
BRANCH   4   5
ATOM      5  C   UNL     1     -10.432  -6.795  -6.696  1.00  0.00     0.000 C 
BRANCH   5   6
ATOM      6  C   UNL     1     -11.877  -7.324  -6.678  1.00  0.00     0.006 C 
BRANCH   6   7
ATOM      7  C   UNL     1     -12.811  -6.426  -5.855  1.00  0.00     0.053 C 
BRANCH   7   8
ATOM      8  C   UNL     1     -14.242  -6.853  -5.980  1.00  0.00     0.041 C 
ATOM      9  O   UNL     1     -15.035  -6.206  -6.712  1.00  0.00    -0.550 OA
ATOM     10  O   UNL     1     -14.705  -7.948  -5.262  1.00  0.00    -0.550 OA
ENDBRANCH   7   8
ENDBRANCH   6   7
ENDBRANCH   5   6
ENDBRANCH   4   5
ENDBRANCH   3   4
ENDBRANCH   2   3
ENDBRANCH   1   2
BRANCH   1  11
ATOM     11  C   UNL     1     -10.175  -1.980 -10.121  1.00  0.00     0.000 C 
BRANCH  11  12
ATOM     12  C   UNL     1     -10.976  -0.789  -9.561  1.00  0.00     0.000 C 
BRANCH  12  13
ATOM     13  C   UNL     1     -12.087  -0.290 -10.509  1.00  0.00     0.000 C 
BRANCH  13  14
ATOM     14  C   UNL     1     -13.412  -1.043 -10.300  1.00  0.00     0.000 C 
BRANCH  14  15
ATOM     15  C   UNL     1     -14.644  -0.162 -10.561  1.00  0.00     0.000 C 
BRANCH  15  16
ATOM     16  C   UNL     1     -15.013   0.716  -9.355  1.00  0.00     0.006 C 
BRANCH  16  17
ATOM     17  C   UNL     1     -15.049   2.196  -9.746  1.00  0.00     0.053 C 
BRANCH  17  18
ATOM     18  C   UNL     1     -13.967   2.951  -9.042  1.00  0.00     0.041 C 
ATOM     19  O   UNL     1     -12.759   2.738  -9.327  1.00  0.00    -0.550 OA
ATOM     20  O   UNL     1     -14.288   3.853  -8.036  1.00  0.00    -0.550 OA
ENDBRANCH  17  18
ENDBRANCH  16  17
ENDBRANCH  15  16
ENDBRANCH  14  15
ENDBRANCH  13  14
ENDBRANCH  12  13
ENDBRANCH  11  12
ENDBRANCH   1  11
TORSDOF 15
ENDMDL
MODEL 5
REMARK VINA RESULT:    -5.010     16.269     18.227
REMARK INTER + INTRA:         -10.357
REMARK INTER:                  -9.024
REMARK INTRA:                  -1.333
REMARK UNBOUND:                -0.953
REMARK SMILES O=C([O-])CCCCCCCCCCCCCCC(=O)[O-]
REMARK SMILES IDX 10 1 9 2 8 3 7 4 6 5 5 6 4 7 2 8 1 9 3 10 11 11 12 12 13 13
REMARK SMILES IDX 14 14 15 15 16 16 17 17 18 18 19 19 20 20
REMARK H PARENT
REMARK Flexibility Score: inf
ROOT
ATOM      1  C   UNL     1     -10.167   5.307   8.133  1.00  0.00     0.000 C 
ENDROOT
BRANCH   1   2
ATOM      2  C   UNL     1      -9.582   5.336   6.707  1.00  0.00     0.000 C 
BRANCH   2   3
ATOM      3  C   UNL     1      -9.620   6.734   6.050  1.00  0.00     0.000 C 
BRANCH   3   4
ATOM      4  C   UNL     1      -8.465   7.633   6.527  1.00  0.00     0.000 C 
BRANCH   4   5
ATOM      5  C   UNL     1      -8.633   9.093   6.081  1.00  0.00     0.000 C 
BRANCH   5   6
ATOM      6  C   UNL     1      -7.591   9.511   5.028  1.00  0.00     0.006 C 
BRANCH   6   7
ATOM      7  C   UNL     1      -6.940  10.860   5.362  1.00  0.00     0.053 C 
BRANCH   7   8
ATOM      8  C   UNL     1      -6.072  10.769   6.579  1.00  0.00     0.041 C 
ATOM      9  O   UNL     1      -4.986  10.133   6.537  1.00  0.00    -0.550 OA
ATOM     10  O   UNL     1      -6.478  11.361   7.769  1.00  0.00    -0.550 OA
ENDBRANCH   7   8
ENDBRANCH   6   7
ENDBRANCH   5   6
ENDBRANCH   4   5
ENDBRANCH   3   4
ENDBRANCH   2   3
ENDBRANCH   1   2
BRANCH   1  11
ATOM     11  C   UNL     1     -10.661   3.926   8.600  1.00  0.00     0.000 C 
BRANCH  11  12
ATOM     12  C   UNL     1     -12.186   3.820   8.797  1.00  0.00     0.000 C 
BRANCH  12  13
ATOM     13  C   UNL     1     -12.927   5.164   8.629  1.00  0.00     0.000 C 
BRANCH  13  14
ATOM     14  C   UNL     1     -13.832   5.177   7.385  1.00  0.00     0.000 C 
BRANCH  14  15
ATOM     15  C   UNL     1     -13.257   4.351   6.223  1.00  0.00     0.000 C 
BRANCH  15  16
ATOM     16  C   UNL     1     -12.867   5.216   5.016  1.00  0.00     0.006 C 
BRANCH  16  17
ATOM     17  C   UNL     1     -13.895   5.079   3.888  1.00  0.00     0.053 C 
BRANCH  17  18
ATOM     18  C   UNL     1     -14.341   6.427   3.420  1.00  0.00     0.041 C 
ATOM     19  O   UNL     1     -14.865   7.238   4.229  1.00  0.00    -0.550 OA
ATOM     20  O   UNL     1     -14.224   6.772   2.079  1.00  0.00    -0.550 OA
ENDBRANCH  17  18
ENDBRANCH  16  17
ENDBRANCH  15  16
ENDBRANCH  14  15
ENDBRANCH  13  14
ENDBRANCH  12  13
ENDBRANCH  11  12
ENDBRANCH   1  11
TORSDOF 15
ENDMDL
MODEL 6
REMARK VINA RESULT:    -4.904     16.015     18.017
REMARK INTER + INTRA:         -10.158
REMARK INTER:                  -8.289
REMARK INTRA:                  -1.869
REMARK UNBOUND:                -0.953
REMARK SMILES O=C([O-])CCCCCCCCCCCCCCC(=O)[O-]
REMARK SMILES IDX 10 1 9 2 8 3 7 4 6 5 5 6 4 7 2 8 1 9 3 10 11 11 12 12 13 13
REMARK SMILES IDX 14 14 15 15 16 16 17 17 18 18 19 19 20 20
REMARK H PARENT
REMARK Flexibility Score: inf
ROOT
ATOM      1  C   UNL     1     -11.592   3.849   5.937  1.00  0.00     0.000 C 
ENDROOT
BRANCH   1   2
ATOM      2  C   UNL     1     -10.789   5.050   5.400  1.00  0.00     0.000 C 
BRANCH   2   3
ATOM      3  C   UNL     1      -9.554   5.402   6.257  1.00  0.00     0.000 C 
BRANCH   3   4
ATOM      4  C   UNL     1      -9.542   6.882   6.681  1.00  0.00     0.000 C 
BRANCH   4   5
ATOM      5  C   UNL     1      -8.801   7.777   5.677  1.00  0.00     0.000 C 
BRANCH   5   6
ATOM      6  C   UNL     1      -7.857   8.779   6.367  1.00  0.00     0.006 C 
BRANCH   6   7
ATOM      7  C   UNL     1      -7.349   9.855   5.398  1.00  0.00     0.053 C 
BRANCH   7   8
ATOM      8  C   UNL     1      -7.923  11.202   5.716  1.00  0.00     0.041 C 
ATOM      9  O   UNL     1      -9.069  11.517   5.302  1.00  0.00    -0.550 OA
ATOM     10  O   UNL     1      -7.177  12.121   6.444  1.00  0.00    -0.550 OA
ENDBRANCH   7   8
ENDBRANCH   6   7
ENDBRANCH   5   6
ENDBRANCH   4   5
ENDBRANCH   3   4
ENDBRANCH   2   3
ENDBRANCH   1   2
BRANCH   1  11
ATOM     11  C   UNL     1     -11.048   3.238   7.241  1.00  0.00     0.000 C 
BRANCH  11  12
ATOM     12  C   UNL     1     -11.884   3.549   8.497  1.00  0.00     0.000 C 
BRANCH  12  13
ATOM     13  C   UNL     1     -13.069   4.503   8.231  1.00  0.00     0.000 C 
BRANCH  13  14
ATOM     14  C   UNL     1     -12.787   5.932   8.728  1.00  0.00     0.000 C 
BRANCH  14  15
ATOM     15  C   UNL     1     -13.221   7.008   7.720  1.00  0.00     0.000 C 
BRANCH  15  16
ATOM     16  C   UNL     1     -14.026   6.431   6.545  1.00  0.00     0.006 C 
BRANCH  16  17
ATOM     17  C   UNL     1     -13.881   7.308   5.298  1.00  0.00     0.053 C 
BRANCH  17  18
ATOM     18  C   UNL     1     -14.105   6.500   4.060  1.00  0.00     0.041 C 
ATOM     19  O   UNL     1     -14.263   7.073   2.950  1.00  0.00    -0.550 OA
ATOM     20  O   UNL     1     -14.191   5.115   4.138  1.00  0.00    -0.550 OA
ENDBRANCH  17  18
ENDBRANCH  16  17
ENDBRANCH  15  16
ENDBRANCH  14  15
ENDBRANCH  13  14
ENDBRANCH  12  13
ENDBRANCH  11  12
ENDBRANCH   1  11
TORSDOF 15
ENDMDL
MODEL 7
REMARK VINA RESULT:    -4.819     15.763     17.826
REMARK INTER + INTRA:          -9.997
REMARK INTER:                  -7.648
REMARK INTRA:                  -2.349
REMARK UNBOUND:                -0.953
REMARK SMILES O=C([O-])CCCCCCCCCCCCCCC(=O)[O-]
REMARK SMILES IDX 10 1 9 2 8 3 7 4 6 5 5 6 4 7 2 8 1 9 3 10 11 11 12 12 13 13
REMARK SMILES IDX 14 14 15 15 16 16 17 17 18 18 19 19 20 20
REMARK H PARENT
REMARK Flexibility Score: inf
ROOT
ATOM      1  C   UNL     1     -11.295   5.374   9.125  1.00  0.00     0.000 C 
ENDROOT
BRANCH   1   2
ATOM      2  C   UNL     1     -12.813   5.125   9.033  1.00  0.00     0.000 C 
BRANCH   2   3
ATOM      3  C   UNL     1     -13.577   6.224   8.261  1.00  0.00     0.000 C 
BRANCH   3   4
ATOM      4  C   UNL     1     -12.930   7.610   8.431  1.00  0.00     0.000 C 
BRANCH   4   5
ATOM      5  C   UNL     1     -13.040   8.471   7.164  1.00  0.00     0.000 C 
BRANCH   5   6
ATOM      6  C   UNL     1     -11.709   8.561   6.396  1.00  0.00     0.006 C 
BRANCH   6   7
ATOM      7  C   UNL     1     -11.027   9.923   6.580  1.00  0.00     0.053 C 
BRANCH   7   8
ATOM      8  C   UNL     1      -9.592   9.886   6.150  1.00  0.00     0.041 C 
ATOM      9  O   UNL     1      -8.956  10.957   5.971  1.00  0.00    -0.550 OA
ATOM     10  O   UNL     1      -8.968   8.667   5.916  1.00  0.00    -0.550 OA
ENDBRANCH   7   8
ENDBRANCH   6   7
ENDBRANCH   5   6
ENDBRANCH   4   5
ENDBRANCH   3   4
ENDBRANCH   2   3
ENDBRANCH   1   2
BRANCH   1  11
ATOM     11  C   UNL     1     -10.445   4.558   8.134  1.00  0.00     0.000 C 
BRANCH  11  12
ATOM     12  C   UNL     1      -9.857   5.371   6.966  1.00  0.00     0.000 C 
BRANCH  12  13
ATOM     13  C   UNL     1     -10.665   5.247   5.656  1.00  0.00     0.000 C 
BRANCH  13  14
ATOM     14  C   UNL     1     -11.521   3.969   5.620  1.00  0.00     0.000 C 
BRANCH  14  15
ATOM     15  C   UNL     1     -13.003   4.255   5.329  1.00  0.00     0.000 C 
BRANCH  15  16
ATOM     16  C   UNL     1     -13.234   5.659   4.748  1.00  0.00     0.006 C 
BRANCH  16  17
ATOM     17  C   UNL     1     -14.393   5.653   3.747  1.00  0.00     0.053 C 
BRANCH  17  18
ATOM     18  C   UNL     1     -14.413   6.926   2.961  1.00  0.00     0.041 C 
ATOM     19  O   UNL     1     -14.409   6.893   1.702  1.00  0.00    -0.550 OA
ATOM     20  O   UNL     1     -14.385   8.150   3.618  1.00  0.00    -0.550 OA
ENDBRANCH  17  18
ENDBRANCH  16  17
ENDBRANCH  15  16
ENDBRANCH  14  15
ENDBRANCH  13  14
ENDBRANCH  12  13
ENDBRANCH  11  12
ENDBRANCH   1  11
TORSDOF 15
ENDMDL
MODEL 8
REMARK VINA RESULT:    -4.797     16.757     19.414
REMARK INTER + INTRA:          -9.956
REMARK INTER:                  -8.472
REMARK INTRA:                  -1.484
REMARK UNBOUND:                -0.953
REMARK SMILES O=C([O-])CCCCCCCCCCCCCCC(=O)[O-]
REMARK SMILES IDX 10 1 9 2 8 3 7 4 6 5 5 6 4 7 2 8 1 9 3 10 11 11 12 12 13 13
REMARK SMILES IDX 14 14 15 15 16 16 17 17 18 18 19 19 20 20
REMARK H PARENT
REMARK Flexibility Score: inf
ROOT
ATOM      1  C   UNL     1      -9.669   7.168   6.189  1.00  0.00     0.000 C 
ENDROOT
BRANCH   1   2
ATOM      2  C   UNL     1      -9.463   5.677   6.524  1.00  0.00     0.000 C 
BRANCH   2   3
ATOM      3  C   UNL     1     -10.165   5.232   7.826  1.00  0.00     0.000 C 
BRANCH   3   4
ATOM      4  C   UNL     1     -10.838   3.855   7.684  1.00  0.00     0.000 C 
BRANCH   4   5
ATOM      5  C   UNL     1     -12.241   3.818   8.306  1.00  0.00     0.000 C 
BRANCH   5   6
ATOM      6  C   UNL     1     -13.322   4.364   7.355  1.00  0.00     0.006 C 
BRANCH   6   7
ATOM      7  C   UNL     1     -12.952   4.156   5.880  1.00  0.00     0.053 C 
BRANCH   7   8
ATOM      8  C   UNL     1     -13.383   5.314   5.033  1.00  0.00     0.041 C 
ATOM      9  O   UNL     1     -13.976   5.115   3.941  1.00  0.00    -0.550 OA
ATOM     10  O   UNL     1     -13.102   6.614   5.436  1.00  0.00    -0.550 OA
ENDBRANCH   7   8
ENDBRANCH   6   7
ENDBRANCH   5   6
ENDBRANCH   4   5
ENDBRANCH   3   4
ENDBRANCH   2   3
ENDBRANCH   1   2
BRANCH   1  11
ATOM     11  C   UNL     1      -8.402   8.036   6.301  1.00  0.00     0.000 C 
BRANCH  11  12
ATOM     12  C   UNL     1      -8.020   8.788   5.012  1.00  0.00     0.000 C 
BRANCH  12  13
ATOM     13  C   UNL     1      -6.972   9.900   5.232  1.00  0.00     0.000 C 
BRANCH  13  14
ATOM     14  C   UNL     1      -6.386   9.874   6.654  1.00  0.00     0.000 C 
BRANCH  14  15
ATOM     15  C   UNL     1      -6.541  11.218   7.384  1.00  0.00     0.000 C 
BRANCH  15  16
ATOM     16  C   UNL     1      -7.748  12.028   6.888  1.00  0.00     0.006 C 
BRANCH  16  17
ATOM     17  C   UNL     1      -8.999  11.710   7.713  1.00  0.00     0.053 C 
BRANCH  17  18
ATOM     18  C   UNL     1     -10.126  11.299   6.820  1.00  0.00     0.041 C 
ATOM     19  O   UNL     1     -10.101  11.591   5.595  1.00  0.00    -0.550 OA
ATOM     20  O   UNL     1     -11.228  10.638   7.347  1.00  0.00    -0.550 OA
ENDBRANCH  17  18
ENDBRANCH  16  17
ENDBRANCH  15  16
ENDBRANCH  14  15
ENDBRANCH  13  14
ENDBRANCH  12  13
ENDBRANCH  11  12
ENDBRANCH   1  11
TORSDOF 15
ENDMDL
MODEL 9
REMARK VINA RESULT:    -4.731     16.987     18.715
REMARK INTER + INTRA:          -9.833
REMARK INTER:                  -8.285
REMARK INTRA:                  -1.547
REMARK UNBOUND:                -0.953
REMARK SMILES O=C([O-])CCCCCCCCCCCCCCC(=O)[O-]
REMARK SMILES IDX 10 1 9 2 8 3 7 4 6 5 5 6 4 7 2 8 1 9 3 10 11 11 12 12 13 13
REMARK SMILES IDX 14 14 15 15 16 16 17 17 18 18 19 19 20 20
REMARK H PARENT
REMARK Flexibility Score: inf
ROOT
ATOM      1  C   UNL     1      -8.408   7.971   6.290  1.00  0.00     0.000 C 
ENDROOT
BRANCH   1   2
ATOM      2  C   UNL     1      -8.031   8.776   5.031  1.00  0.00     0.000 C 
BRANCH   2   3
ATOM      3  C   UNL     1      -7.065   9.948   5.310  1.00  0.00     0.000 C 
BRANCH   3   4
ATOM      4  C   UNL     1      -6.358   9.808   6.670  1.00  0.00     0.000 C 
BRANCH   4   5
ATOM      5  C   UNL     1      -6.736  10.930   7.649  1.00  0.00     0.000 C 
BRANCH   5   6
ATOM      6  C   UNL     1      -7.669  11.977   7.013  1.00  0.00     0.006 C 
BRANCH   6   7
ATOM      7  C   UNL     1      -9.065  11.970   7.651  1.00  0.00     0.053 C 
BRANCH   7   8
ATOM      8  C   UNL     1     -10.098  11.420   6.716  1.00  0.00     0.041 C 
ATOM      9  O   UNL     1     -10.836  10.467   7.077  1.00  0.00    -0.550 OA
ATOM     10  O   UNL     1     -10.223  11.940   5.434  1.00  0.00    -0.550 OA
ENDBRANCH   7   8
ENDBRANCH   6   7
ENDBRANCH   5   6
ENDBRANCH   4   5
ENDBRANCH   3   4
ENDBRANCH   2   3
ENDBRANCH   1   2
BRANCH   1  11
ATOM     11  C   UNL     1      -9.677   7.110   6.151  1.00  0.00     0.000 C 
BRANCH  11  12
ATOM     12  C   UNL     1      -9.502   5.634   6.557  1.00  0.00     0.000 C 
BRANCH  12  13
ATOM     13  C   UNL     1     -10.176   5.277   7.899  1.00  0.00     0.000 C 
BRANCH  13  14
ATOM     14  C   UNL     1     -10.645   3.813   7.944  1.00  0.00     0.000 C 
BRANCH  14  15
ATOM     15  C   UNL     1     -12.117   3.674   8.363  1.00  0.00     0.000 C 
BRANCH  15  16
ATOM     16  C   UNL     1     -12.864   5.017   8.365  1.00  0.00     0.006 C 
BRANCH  16  17
ATOM     17  C   UNL     1     -13.967   5.032   7.303  1.00  0.00     0.053 C 
BRANCH  17  18
ATOM     18  C   UNL     1     -13.417   5.460   5.981  1.00  0.00     0.041 C 
ATOM     19  O   UNL     1     -13.233   4.613   5.067  1.00  0.00    -0.550 OA
ATOM     20  O   UNL     1     -13.059   6.786   5.772  1.00  0.00    -0.550 OA
ENDBRANCH  17  18
ENDBRANCH  16  17
ENDBRANCH  15  16
ENDBRANCH  14  15
ENDBRANCH  13  14
ENDBRANCH  12  13
ENDBRANCH  11  12
ENDBRANCH   1  11
TORSDOF 15
ENDMDL
