MODEL 1
REMARK VINA RESULT:    -4.990      0.000      0.000
REMARK INTER + INTRA:          -5.719
REMARK INTER:                  -5.573
REMARK INTRA:                  -0.146
REMARK UNBOUND:                -0.146
REMARK SMILES C=CCc1ccc2c(c1)OCO2
REMARK SMILES IDX 3 1 2 2 1 3 4 4 9 5 5 6 8 7 6 8 7 9 10 10 12 11 11 12
REMARK H PARENT
REMARK Flexibility Score: inf
ROOT
ATOM      1  C   UNL     1      18.131  -5.988 -10.218  1.00  0.00     0.062 C 
ENDROOT
BRANCH   1   2
ATOM      2  C   UNL     1      17.211  -5.239  -9.295  1.00  0.00    -0.030 C 
ATOM      3  C   UNL     1      17.239  -5.426  -7.972  1.00  0.00     0.004 C 
ENDBRANCH   1   2
BRANCH   1   4
ATOM      4  C   UNL     1      18.026  -5.456 -11.621  1.00  0.00    -0.040 A 
ATOM      5  C   UNL     1      18.929  -4.467 -12.072  1.00  0.00     0.054 A 
ATOM      6  C   UNL     1      16.995  -5.911 -12.485  1.00  0.00     0.008 A 
ATOM      7  C   UNL     1      18.776  -3.985 -13.369  1.00  0.00     0.166 A 
ATOM      8  C   UNL     1      16.877  -5.396 -13.789  1.00  0.00     0.051 A 
ATOM      9  C   UNL     1      17.793  -4.430 -14.191  1.00  0.00     0.165 A 
ATOM     10  O   UNL     1      19.529  -3.031 -14.026  1.00  0.00    -0.454 OA
ATOM     11  O   UNL     1      17.880  -3.779 -15.407  1.00  0.00    -0.454 OA
ATOM     12  C   UNL     1      18.986  -2.868 -15.344  1.00  0.00     0.468 C 
ENDBRANCH   1   4
TORSDOF 2
ENDMDL
MODEL 2
REMARK VINA RESULT:    -4.903      2.138      5.114
REMARK INTER + INTRA:          -5.622
REMARK INTER:                  -5.459
REMARK INTRA:                  -0.163
REMARK UNBOUND:                -0.146
REMARK SMILES C=CCc1ccc2c(c1)OCO2
REMARK SMILES IDX 3 1 2 2 1 3 4 4 9 5 5 6 8 7 6 8 7 9 10 10 12 11 11 12
REMARK H PARENT
REMARK Flexibility Score: inf
ROOT
ATOM      1  C   UNL     1      19.572  -1.997 -15.137  1.00  0.00     0.062 C 
ENDROOT
BRANCH   1   2
ATOM      2  C   UNL     1      20.281  -2.434 -16.388  1.00  0.00    -0.030 C 
ATOM      3  C   UNL     1      20.561  -1.576 -17.373  1.00  0.00     0.004 C 
ENDBRANCH   1   2
BRANCH   1   4
ATOM      4  C   UNL     1      18.803  -3.140 -14.533  1.00  0.00    -0.040 A 
ATOM      5  C   UNL     1      19.160  -3.641 -13.261  1.00  0.00     0.054 A 
ATOM      6  C   UNL     1      17.744  -3.752 -15.255  1.00  0.00     0.008 A 
ATOM      7  C   UNL     1      18.438  -4.717 -12.755  1.00  0.00     0.166 A 
ATOM      8  C   UNL     1      17.040  -4.840 -14.706  1.00  0.00     0.051 A 
ATOM      9  C   UNL     1      17.422  -5.291 -13.447  1.00  0.00     0.165 A 
ATOM     10  O   UNL     1      18.598  -5.369 -11.547  1.00  0.00    -0.454 OA
ATOM     11  O   UNL     1      16.892  -6.332 -12.708  1.00  0.00    -0.454 OA
ATOM     12  C   UNL     1      17.620  -6.417 -11.476  1.00  0.00     0.468 C 
ENDBRANCH   1   4
TORSDOF 2
ENDMDL
MODEL 3
REMARK VINA RESULT:    -4.852      1.058      2.124
REMARK INTER + INTRA:          -5.565
REMARK INTER:                  -5.428
REMARK INTRA:                  -0.137
REMARK UNBOUND:                -0.146
REMARK SMILES C=CCc1ccc2c(c1)OCO2
REMARK SMILES IDX 3 1 2 2 1 3 4 4 9 5 5 6 8 7 6 8 7 9 10 10 12 11 11 12
REMARK H PARENT
REMARK Flexibility Score: inf
ROOT
ATOM      1  C   UNL     1      18.159  -5.954  -9.929  1.00  0.00     0.062 C 
ENDROOT
BRANCH   1   2
ATOM      2  C   UNL     1      17.219  -5.236  -9.001  1.00  0.00    -0.030 C 
ATOM      3  C   UNL     1      17.180  -5.508  -7.693  1.00  0.00     0.004 C 
ENDBRANCH   1   2
BRANCH   1   4
ATOM      4  C   UNL     1      18.040  -5.415 -11.328  1.00  0.00    -0.040 A 
ATOM      5  C   UNL     1      17.159  -6.026 -12.249  1.00  0.00     0.054 A 
ATOM      6  C   UNL     1      18.841  -4.320 -11.746  1.00  0.00     0.008 A 
ATOM      7  C   UNL     1      17.102  -5.512 -13.540  1.00  0.00     0.166 A 
ATOM      8  C   UNL     1      18.753  -3.831 -13.062  1.00  0.00     0.051 A 
ATOM      9  C   UNL     1      17.865  -4.460 -13.930  1.00  0.00     0.165 A 
ATOM     10  O   UNL     1      16.325  -5.934 -14.602  1.00  0.00    -0.454 OA
ATOM     11  O   UNL     1      17.605  -4.167 -15.256  1.00  0.00    -0.454 OA
ATOM     12  C   UNL     1      16.618  -5.094 -15.728  1.00  0.00     0.468 C 
ENDBRANCH   1   4
TORSDOF 2
ENDMDL
MODEL 4
REMARK VINA RESULT:    -4.621      2.558      4.248
REMARK INTER + INTRA:          -5.307
REMARK INTER:                  -5.090
REMARK INTRA:                  -0.218
REMARK UNBOUND:                -0.146
REMARK SMILES C=CCc1ccc2c(c1)OCO2
REMARK SMILES IDX 3 1 2 2 1 3 4 4 9 5 5 6 8 7 6 8 7 9 10 10 12 11 11 12
REMARK H PARENT
REMARK Flexibility Score: inf
ROOT
ATOM      1  C   UNL     1      19.253  -1.528 -14.283  1.00  0.00     0.062 C 
ENDROOT
BRANCH   1   2
ATOM      2  C   UNL     1      18.952  -0.626 -13.119  1.00  0.00    -0.030 C 
ATOM      3  C   UNL     1      17.711  -0.199 -12.863  1.00  0.00     0.004 C 
ENDBRANCH   1   2
BRANCH   1   4
ATOM      4  C   UNL     1      18.488  -2.818 -14.168  1.00  0.00    -0.040 A 
ATOM      5  C   UNL     1      18.816  -3.747 -13.154  1.00  0.00     0.054 A 
ATOM      6  C   UNL     1      17.465  -3.131 -15.101  1.00  0.00     0.008 A 
ATOM      7  C   UNL     1      18.100  -4.939 -13.104  1.00  0.00     0.166 A 
ATOM      8  C   UNL     1      16.766  -4.349 -15.014  1.00  0.00     0.051 A 
ATOM      9  C   UNL     1      17.118  -5.228 -13.994  1.00  0.00     0.165 A 
ATOM     10  O   UNL     1      18.235  -5.987 -12.212  1.00  0.00    -0.454 OA
ATOM     11  O   UNL     1      16.586  -6.471 -13.707  1.00  0.00    -0.454 OA
ATOM     12  C   UNL     1      17.277  -6.995 -12.566  1.00  0.00     0.468 C 
ENDBRANCH   1   4
TORSDOF 2
ENDMDL
MODEL 5
REMARK VINA RESULT:    -4.587      2.023      3.083
REMARK INTER + INTRA:          -5.269
REMARK INTER:                  -5.073
REMARK INTRA:                  -0.197
REMARK UNBOUND:                -0.146
REMARK SMILES C=CCc1ccc2c(c1)OCO2
REMARK SMILES IDX 3 1 2 2 1 3 4 4 9 5 5 6 8 7 6 8 7 9 10 10 12 11 11 12
REMARK H PARENT
REMARK Flexibility Score: inf
ROOT
ATOM      1  C   UNL     1      19.528  -2.284 -11.573  1.00  0.00     0.062 C 
ENDROOT
BRANCH   1   2
ATOM      2  C   UNL     1      18.551  -1.291 -11.008  1.00  0.00    -0.030 C 
ATOM      3  C   UNL     1      18.027  -1.438  -9.788  1.00  0.00     0.004 C 
ENDBRANCH   1   2
BRANCH   1   4
ATOM      4  C   UNL     1      18.804  -3.432 -12.222  1.00  0.00    -0.040 A 
ATOM      5  C   UNL     1      18.334  -3.313 -13.549  1.00  0.00     0.054 A 
ATOM      6  C   UNL     1      18.552  -4.624 -11.493  1.00  0.00     0.008 A 
ATOM      7  C   UNL     1      17.646  -4.390 -14.099  1.00  0.00     0.166 A 
ATOM      8  C   UNL     1      17.852  -5.690 -12.088  1.00  0.00     0.051 A 
ATOM      9  C   UNL     1      17.415  -5.529 -13.399  1.00  0.00     0.165 A 
ATOM     10  O   UNL     1      17.100  -4.508 -15.363  1.00  0.00    -0.454 OA
ATOM     11  O   UNL     1      16.713  -6.421 -14.188  1.00  0.00    -0.454 OA
ATOM     12  C   UNL     1      16.489  -5.802 -15.462  1.00  0.00     0.468 C 
ENDBRANCH   1   4
TORSDOF 2
ENDMDL
MODEL 6
REMARK VINA RESULT:    -4.411      2.445      3.611
REMARK INTER + INTRA:          -5.072
REMARK INTER:                  -4.907
REMARK INTRA:                  -0.165
REMARK UNBOUND:                -0.146
REMARK SMILES C=CCc1ccc2c(c1)OCO2
REMARK SMILES IDX 3 1 2 2 1 3 4 4 9 5 5 6 8 7 6 8 7 9 10 10 12 11 11 12
REMARK H PARENT
REMARK Flexibility Score: inf
ROOT
ATOM      1  C   UNL     1      18.550  -5.237 -12.181  1.00  0.00     0.062 C 
ENDROOT
BRANCH   1   2
ATOM      2  C   UNL     1      17.295  -5.772 -12.811  1.00  0.00    -0.030 C 
ATOM      3  C   UNL     1      17.068  -7.084 -12.922  1.00  0.00     0.004 C 
ENDBRANCH   1   2
BRANCH   1   4
ATOM      4  C   UNL     1      18.821  -3.831 -12.643  1.00  0.00    -0.040 A 
ATOM      5  C   UNL     1      18.974  -2.792 -11.697  1.00  0.00     0.054 A 
ATOM      6  C   UNL     1      18.880  -3.531 -14.029  1.00  0.00     0.008 A 
ATOM      7  C   UNL     1      19.195  -1.503 -12.171  1.00  0.00     0.166 A 
ATOM      8  C   UNL     1      19.106  -2.212 -14.466  1.00  0.00     0.051 A 
ATOM      9  C   UNL     1      19.258  -1.225 -13.497  1.00  0.00     0.165 A 
ATOM     10  O   UNL     1      19.376  -0.340 -11.448  1.00  0.00    -0.454 OA
ATOM     11  O   UNL     1      19.483   0.127 -13.675  1.00  0.00    -0.454 OA
ATOM     12  C   UNL     1      19.566   0.735 -12.379  1.00  0.00     0.468 C 
ENDBRANCH   1   4
TORSDOF 2
ENDMDL
MODEL 7
REMARK VINA RESULT:    -4.374      3.413      4.619
REMARK INTER + INTRA:          -5.031
REMARK INTER:                  -4.800
REMARK INTRA:                  -0.232
REMARK UNBOUND:                -0.146
REMARK SMILES C=CCc1ccc2c(c1)OCO2
REMARK SMILES IDX 3 1 2 2 1 3 4 4 9 5 5 6 8 7 6 8 7 9 10 10 12 11 11 12
REMARK H PARENT
REMARK Flexibility Score: inf
ROOT
ATOM      1  C   UNL     1      17.279  -4.528 -15.204  1.00  0.00     0.062 C 
ENDROOT
BRANCH   1   2
ATOM      2  C   UNL     1      16.566  -5.699 -14.588  1.00  0.00    -0.030 C 
ATOM      3  C   UNL     1      16.886  -6.157 -13.375  1.00  0.00     0.004 C 
ENDBRANCH   1   2
BRANCH   1   4
ATOM      4  C   UNL     1      16.626  -3.234 -14.799  1.00  0.00    -0.040 A 
ATOM      5  C   UNL     1      17.359  -2.271 -14.069  1.00  0.00     0.054 A 
ATOM      6  C   UNL     1      15.262  -2.992 -15.108  1.00  0.00     0.008 A 
ATOM      7  C   UNL     1      16.705  -1.101 -13.692  1.00  0.00     0.166 A 
ATOM      8  C   UNL     1      14.640  -1.795 -14.707  1.00  0.00     0.051 A 
ATOM      9  C   UNL     1      15.403  -0.874 -13.997  1.00  0.00     0.165 A 
ATOM     10  O   UNL     1      17.208  -0.026 -12.985  1.00  0.00    -0.454 OA
ATOM     11  O   UNL     1      15.022   0.358 -13.499  1.00  0.00    -0.454 OA
ATOM     12  C   UNL     1      16.154   0.938 -12.839  1.00  0.00     0.468 C 
ENDBRANCH   1   4
TORSDOF 2
ENDMDL
MODEL 8
REMARK VINA RESULT:    -4.364      2.876      4.556
REMARK INTER + INTRA:          -5.020
REMARK INTER:                  -4.840
REMARK INTRA:                  -0.180
REMARK UNBOUND:                -0.146
REMARK SMILES C=CCc1ccc2c(c1)OCO2
REMARK SMILES IDX 3 1 2 2 1 3 4 4 9 5 5 6 8 7 6 8 7 9 10 10 12 11 11 12
REMARK H PARENT
REMARK Flexibility Score: inf
ROOT
ATOM      1  C   UNL     1      17.097  -4.052 -15.454  1.00  0.00     0.062 C 
ENDROOT
BRANCH   1   2
ATOM      2  C   UNL     1      16.385  -5.319 -15.075  1.00  0.00    -0.030 C 
ATOM      3  C   UNL     1      16.529  -6.444 -15.781  1.00  0.00     0.004 C 
ENDBRANCH   1   2
BRANCH   1   4
ATOM      4  C   UNL     1      17.707  -3.400 -14.243  1.00  0.00    -0.040 A 
ATOM      5  C   UNL     1      17.627  -1.999 -14.077  1.00  0.00     0.054 A 
ATOM      6  C   UNL     1      18.404  -4.181 -13.284  1.00  0.00     0.008 A 
ATOM      7  C   UNL     1      18.230  -1.438 -12.956  1.00  0.00     0.166 A 
ATOM      8  C   UNL     1      19.000  -3.573 -12.164  1.00  0.00     0.051 A 
ATOM      9  C   UNL     1      18.887  -2.192 -12.039  1.00  0.00     0.165 A 
ATOM     10  O   UNL     1      18.281  -0.109 -12.581  1.00  0.00    -0.454 OA
ATOM     11  O   UNL     1      19.384  -1.374 -11.041  1.00  0.00    -0.454 OA
ATOM     12  C   UNL     1      19.015  -0.024 -11.351  1.00  0.00     0.468 C 
ENDBRANCH   1   4
TORSDOF 2
ENDMDL
MODEL 9
REMARK VINA RESULT:    -4.299     11.748     13.705
REMARK INTER + INTRA:          -4.947
REMARK INTER:                  -4.781
REMARK INTRA:                  -0.166
REMARK UNBOUND:                -0.146
REMARK SMILES C=CCc1ccc2c(c1)OCO2
REMARK SMILES IDX 3 1 2 2 1 3 4 4 9 5 5 6 8 7 6 8 7 9 10 10 12 11 11 12
REMARK H PARENT
REMARK Flexibility Score: inf
ROOT
ATOM      1  C   UNL     1      13.965 -12.320  -6.203  1.00  0.00     0.062 C 
ENDROOT
BRANCH   1   2
ATOM      2  C   UNL     1      12.782 -11.485  -5.798  1.00  0.00    -0.030 C 
ATOM      3  C   UNL     1      12.783 -10.155  -5.927  1.00  0.00     0.004 C 
ENDBRANCH   1   2
BRANCH   1   4
ATOM      4  C   UNL     1      13.729 -13.769  -5.878  1.00  0.00    -0.040 A 
ATOM      5  C   UNL     1      14.817 -14.602  -5.530  1.00  0.00     0.054 A 
ATOM      6  C   UNL     1      12.423 -14.320  -5.962  1.00  0.00     0.008 A 
ATOM      7  C   UNL     1      14.555 -15.943  -5.265  1.00  0.00     0.166 A 
ATOM      8  C   UNL     1      12.203 -15.682  -5.685  1.00  0.00     0.051 A 
ATOM      9  C   UNL     1      13.303 -16.460  -5.339  1.00  0.00     0.165 A 
ATOM     10  O   UNL     1      15.444 -16.938  -4.906  1.00  0.00    -0.454 OA
ATOM     11  O   UNL     1      13.342 -17.807  -5.029  1.00  0.00    -0.454 OA
ATOM     12  C   UNL     1      14.703 -18.156  -4.743  1.00  0.00     0.468 C 
ENDBRANCH   1   4
TORSDOF 2
ENDMDL
