MODEL 1
REMARK VINA RESULT:    -5.044      0.000      0.000
REMARK INTER + INTRA:          -5.861
REMARK INTER:                  -5.633
REMARK INTRA:                  -0.227
REMARK UNBOUND:                -0.227
REMARK SMILES O=C([O-])c1ccccc1C(=O)[O-]
REMARK SMILES IDX 4 1 9 2 5 3 8 4 6 5 7 6 2 7 1 8 3 9 10 10 11 11 12 12
REMARK H PARENT
REMARK Flexibility Score: inf
ROOT
ATOM      1  C   UNL     1     -24.497  84.839 -20.832  1.00  0.00     0.006 A 
ATOM      2  C   UNL     1     -25.531  84.011 -21.348  1.00  0.00     0.006 A 
ATOM      3  C   UNL     1     -23.704  84.362 -19.770  1.00  0.00     0.010 A 
ATOM      4  C   UNL     1     -25.776  82.764 -20.743  1.00  0.00     0.010 A 
ATOM      5  C   UNL     1     -23.952  83.114 -19.200  1.00  0.00     0.001 A 
ATOM      6  C   UNL     1     -24.992  82.321 -19.677  1.00  0.00     0.001 A 
ENDROOT
BRANCH   1   7
ATOM      7  C   UNL     1     -24.263  86.219 -21.315  1.00  0.00     0.072 C 
ATOM      8  O   UNL     1     -23.302  86.464 -22.092  1.00  0.00    -0.545 OA
ATOM      9  O   UNL     1     -25.056  87.270 -20.868  1.00  0.00    -0.545 OA
ENDBRANCH   1   7
BRANCH   2  10
ATOM     10  C   UNL     1     -26.318  84.371 -22.551  1.00  0.00     0.072 C 
ATOM     11  O   UNL     1     -25.889  84.083 -23.699  1.00  0.00    -0.545 OA
ATOM     12  O   UNL     1     -27.503  85.087 -22.433  1.00  0.00    -0.545 OA
ENDBRANCH   2  10
TORSDOF 2
ENDMDL
MODEL 2
REMARK VINA RESULT:    -5.036      0.036      2.860
REMARK INTER + INTRA:          -5.852
REMARK INTER:                  -5.625
REMARK INTRA:                  -0.227
REMARK UNBOUND:                -0.227
REMARK SMILES O=C([O-])c1ccccc1C(=O)[O-]
REMARK SMILES IDX 4 1 9 2 5 3 8 4 6 5 7 6 2 7 1 8 3 9 10 10 11 11 12 12
REMARK H PARENT
REMARK Flexibility Score: inf
ROOT
ATOM      1  C   UNL     1     -25.557  84.021 -21.342  1.00  0.00     0.006 A 
ATOM      2  C   UNL     1     -24.524  84.848 -20.823  1.00  0.00     0.006 A 
ATOM      3  C   UNL     1     -25.796  82.768 -20.745  1.00  0.00     0.010 A 
ATOM      4  C   UNL     1     -23.726  84.366 -19.768  1.00  0.00     0.010 A 
ATOM      5  C   UNL     1     -25.007  82.320 -19.687  1.00  0.00     0.001 A 
ATOM      6  C   UNL     1     -23.967  83.112 -19.207  1.00  0.00     0.001 A 
ENDROOT
BRANCH   1   7
ATOM      7  C   UNL     1     -26.351  84.389 -22.538  1.00  0.00     0.072 C 
ATOM      8  O   UNL     1     -25.925  84.112 -23.690  1.00  0.00    -0.545 OA
ATOM      9  O   UNL     1     -27.539  85.098 -22.408  1.00  0.00    -0.545 OA
ENDBRANCH   1   7
BRANCH   2  10
ATOM     10  C   UNL     1     -24.297  86.234 -21.296  1.00  0.00     0.072 C 
ATOM     11  O   UNL     1     -23.333  86.491 -22.064  1.00  0.00    -0.545 OA
ATOM     12  O   UNL     1     -25.100  87.275 -20.848  1.00  0.00    -0.545 OA
ENDBRANCH   2  10
TORSDOF 2
ENDMDL
MODEL 3
REMARK VINA RESULT:    -4.988     15.638     16.544
REMARK INTER + INTRA:          -5.799
REMARK INTER:                  -5.708
REMARK INTRA:                  -0.091
REMARK UNBOUND:                -0.227
REMARK SMILES O=C([O-])c1ccccc1C(=O)[O-]
REMARK SMILES IDX 4 1 9 2 5 3 8 4 6 5 7 6 2 7 1 8 3 9 10 10 11 11 12 12
REMARK H PARENT
REMARK Flexibility Score: inf
ROOT
ATOM      1  C   UNL     1     -14.038  91.901 -11.906  1.00  0.00     0.006 A 
ATOM      2  C   UNL     1     -14.518  91.405 -10.664  1.00  0.00     0.006 A 
ATOM      3  C   UNL     1     -13.554  90.991 -12.866  1.00  0.00     0.010 A 
ATOM      4  C   UNL     1     -14.438  90.025 -10.401  1.00  0.00     0.010 A 
ATOM      5  C   UNL     1     -13.504  89.625 -12.591  1.00  0.00     0.001 A 
ATOM      6  C   UNL     1     -13.934  89.143 -11.357  1.00  0.00     0.001 A 
ENDROOT
BRANCH   1   7
ATOM      7  C   UNL     1     -13.955  93.348 -12.210  1.00  0.00     0.072 C 
ATOM      8  O   UNL     1     -12.875  93.972 -12.033  1.00  0.00    -0.545 OA
ATOM      9  O   UNL     1     -15.079  94.049 -12.633  1.00  0.00    -0.545 OA
ENDBRANCH   1   7
BRANCH   2  10
ATOM     10  C   UNL     1     -15.173  92.272  -9.656  1.00  0.00     0.072 C 
ATOM     11  O   UNL     1     -14.676  92.394  -8.506  1.00  0.00    -0.545 OA
ATOM     12  O   UNL     1     -16.374  92.910  -9.944  1.00  0.00    -0.545 OA
ENDBRANCH   2  10
TORSDOF 2
ENDMDL
MODEL 4
REMARK VINA RESULT:    -4.956     15.667     16.648
REMARK INTER + INTRA:          -5.763
REMARK INTER:                  -5.671
REMARK INTRA:                  -0.091
REMARK UNBOUND:                -0.227
REMARK SMILES O=C([O-])c1ccccc1C(=O)[O-]
REMARK SMILES IDX 4 1 9 2 5 3 8 4 6 5 7 6 2 7 1 8 3 9 10 10 11 11 12 12
REMARK H PARENT
REMARK Flexibility Score: inf
ROOT
ATOM      1  C   UNL     1     -14.495  91.461 -10.647  1.00  0.00     0.006 A 
ATOM      2  C   UNL     1     -14.031  91.961 -11.895  1.00  0.00     0.006 A 
ATOM      3  C   UNL     1     -14.407  90.080 -10.387  1.00  0.00     0.010 A 
ATOM      4  C   UNL     1     -13.556  91.055 -12.861  1.00  0.00     0.010 A 
ATOM      5  C   UNL     1     -13.912  89.203 -11.352  1.00  0.00     0.001 A 
ATOM      6  C   UNL     1     -13.498  89.687 -12.591  1.00  0.00     0.001 A 
ENDROOT
BRANCH   1   7
ATOM      7  C   UNL     1     -15.139  92.325  -9.630  1.00  0.00     0.072 C 
ATOM      8  O   UNL     1     -16.248  92.870  -9.872  1.00  0.00    -0.545 OA
ATOM      9  O   UNL     1     -14.501  92.596  -8.425  1.00  0.00    -0.545 OA
ENDBRANCH   1   7
BRANCH   2  10
ATOM     10  C   UNL     1     -13.956  93.410 -12.197  1.00  0.00     0.072 C 
ATOM     11  O   UNL     1     -12.880  94.039 -12.018  1.00  0.00    -0.545 OA
ATOM     12  O   UNL     1     -15.083  94.105 -12.619  1.00  0.00    -0.545 OA
ENDBRANCH   2  10
TORSDOF 2
ENDMDL
MODEL 5
REMARK VINA RESULT:    -4.820     15.927     16.741
REMARK INTER + INTRA:          -5.611
REMARK INTER:                  -5.448
REMARK INTRA:                  -0.163
REMARK UNBOUND:                -0.227
REMARK SMILES O=C([O-])c1ccccc1C(=O)[O-]
REMARK SMILES IDX 4 1 9 2 5 3 8 4 6 5 7 6 2 7 1 8 3 9 10 10 11 11 12 12
REMARK H PARENT
REMARK Flexibility Score: inf
ROOT
ATOM      1  C   UNL     1     -15.359  92.751 -10.488  1.00  0.00     0.006 A 
ATOM      2  C   UNL     1     -14.765  93.098 -11.732  1.00  0.00     0.006 A 
ATOM      3  C   UNL     1     -15.176  91.450  -9.981  1.00  0.00     0.010 A 
ATOM      4  C   UNL     1     -14.063  92.115 -12.454  1.00  0.00     0.010 A 
ATOM      5  C   UNL     1     -14.458  90.498 -10.704  1.00  0.00     0.001 A 
ATOM      6  C   UNL     1     -13.913  90.825 -11.943  1.00  0.00     0.001 A 
ENDROOT
BRANCH   1   7
ATOM      7  C   UNL     1     -16.230  93.680  -9.731  1.00  0.00     0.072 C 
ATOM      8  O   UNL     1     -15.851  94.142  -8.623  1.00  0.00    -0.545 OA
ATOM      9  O   UNL     1     -17.498  94.002 -10.200  1.00  0.00    -0.545 OA
ENDBRANCH   1   7
BRANCH   2  10
ATOM     10  C   UNL     1     -14.788  94.479 -12.270  1.00  0.00     0.072 C 
ATOM     11  O   UNL     1     -13.806  95.246 -12.088  1.00  0.00    -0.545 OA
ATOM     12  O   UNL     1     -15.913  94.965 -12.925  1.00  0.00    -0.545 OA
ENDBRANCH   2  10
TORSDOF 2
ENDMDL
MODEL 6
REMARK VINA RESULT:    -4.812     15.919     16.715
REMARK INTER + INTRA:          -5.602
REMARK INTER:                  -5.430
REMARK INTRA:                  -0.172
REMARK UNBOUND:                -0.227
REMARK SMILES O=C([O-])c1ccccc1C(=O)[O-]
REMARK SMILES IDX 4 1 9 2 5 3 8 4 6 5 7 6 2 7 1 8 3 9 10 10 11 11 12 12
REMARK H PARENT
REMARK Flexibility Score: inf
ROOT
ATOM      1  C   UNL     1     -14.776  93.119 -11.738  1.00  0.00     0.006 A 
ATOM      2  C   UNL     1     -15.349  92.764 -10.486  1.00  0.00     0.006 A 
ATOM      3  C   UNL     1     -14.080  92.141 -12.473  1.00  0.00     0.010 A 
ATOM      4  C   UNL     1     -15.151  91.463  -9.986  1.00  0.00     0.010 A 
ATOM      5  C   UNL     1     -13.914  90.852 -11.968  1.00  0.00     0.001 A 
ATOM      6  C   UNL     1     -14.438  90.516 -10.722  1.00  0.00     0.001 A 
ENDROOT
BRANCH   1   7
ATOM      7  C   UNL     1     -14.816  94.499 -12.272  1.00  0.00     0.072 C 
ATOM      8  O   UNL     1     -13.846  95.280 -12.083  1.00  0.00    -0.545 OA
ATOM      9  O   UNL     1     -15.945  94.972 -12.930  1.00  0.00    -0.545 OA
ENDBRANCH   1   7
BRANCH   2  10
ATOM     10  C   UNL     1     -16.216  93.685  -9.714  1.00  0.00     0.072 C 
ATOM     11  O   UNL     1     -15.825  94.146  -8.609  1.00  0.00    -0.545 OA
ATOM     12  O   UNL     1     -17.492  94.002 -10.164  1.00  0.00    -0.545 OA
ENDBRANCH   2  10
TORSDOF 2
ENDMDL
MODEL 7
REMARK VINA RESULT:    -4.738      2.169      3.183
REMARK INTER + INTRA:          -5.519
REMARK INTER:                  -5.313
REMARK INTRA:                  -0.207
REMARK UNBOUND:                -0.227
REMARK SMILES O=C([O-])c1ccccc1C(=O)[O-]
REMARK SMILES IDX 4 1 9 2 5 3 8 4 6 5 7 6 2 7 1 8 3 9 10 10 11 11 12 12
REMARK H PARENT
REMARK Flexibility Score: inf
ROOT
ATOM      1  C   UNL     1     -25.611  86.164 -21.451  1.00  0.00     0.006 A 
ATOM      2  C   UNL     1     -26.519  85.268 -22.078  1.00  0.00     0.006 A 
ATOM      3  C   UNL     1     -26.120  87.267 -20.738  1.00  0.00     0.010 A 
ATOM      4  C   UNL     1     -27.899  85.542 -22.023  1.00  0.00     0.010 A 
ATOM      5  C   UNL     1     -27.492  87.507 -20.680  1.00  0.00     0.001 A 
ATOM      6  C   UNL     1     -28.379  86.654 -21.330  1.00  0.00     0.001 A 
ENDROOT
BRANCH   1   7
ATOM      7  C   UNL     1     -24.141  86.030 -21.577  1.00  0.00     0.072 C 
ATOM      8  O   UNL     1     -23.523  86.656 -22.478  1.00  0.00    -0.545 OA
ATOM      9  O   UNL     1     -23.436  85.167 -20.747  1.00  0.00    -0.545 OA
ENDBRANCH   1   7
BRANCH   2  10
ATOM     10  C   UNL     1     -26.081  84.010 -22.726  1.00  0.00     0.072 C 
ATOM     11  O   UNL     1     -26.128  82.922 -22.094  1.00  0.00    -0.545 OA
ATOM     12  O   UNL     1     -25.554  84.022 -24.012  1.00  0.00    -0.545 OA
ENDBRANCH   2  10
TORSDOF 2
ENDMDL
MODEL 8
REMARK VINA RESULT:    -4.728      2.169      4.293
REMARK INTER + INTRA:          -5.508
REMARK INTER:                  -5.308
REMARK INTRA:                  -0.201
REMARK UNBOUND:                -0.227
REMARK SMILES O=C([O-])c1ccccc1C(=O)[O-]
REMARK SMILES IDX 4 1 9 2 5 3 8 4 6 5 7 6 2 7 1 8 3 9 10 10 11 11 12 12
REMARK H PARENT
REMARK Flexibility Score: inf
ROOT
ATOM      1  C   UNL     1     -26.464  85.405 -21.987  1.00  0.00     0.006 A 
ATOM      2  C   UNL     1     -25.498  86.293 -21.440  1.00  0.00     0.006 A 
ATOM      3  C   UNL     1     -27.829  85.738 -21.894  1.00  0.00     0.010 A 
ATOM      4  C   UNL     1     -25.934  87.447 -20.764  1.00  0.00     0.010 A 
ATOM      5  C   UNL     1     -28.237  86.898 -21.237  1.00  0.00     0.001 A 
ATOM      6  C   UNL     1     -27.293  87.746 -20.663  1.00  0.00     0.001 A 
ENDROOT
BRANCH   1   7
ATOM      7  C   UNL     1     -26.101  84.102 -22.591  1.00  0.00     0.072 C 
ATOM      8  O   UNL     1     -26.168  83.047 -21.906  1.00  0.00    -0.545 OA
ATOM      9  O   UNL     1     -25.624  84.034 -23.894  1.00  0.00    -0.545 OA
ENDBRANCH   1   7
BRANCH   2  10
ATOM     10  C   UNL     1     -24.040  86.094 -21.617  1.00  0.00     0.072 C 
ATOM     11  O   UNL     1     -23.429  86.679 -22.549  1.00  0.00    -0.545 OA
ATOM     12  O   UNL     1     -23.342  85.213 -20.800  1.00  0.00    -0.545 OA
ENDBRANCH   2  10
TORSDOF 2
ENDMDL
MODEL 9
REMARK VINA RESULT:    -4.642      8.858     10.263
REMARK INTER + INTRA:          -5.412
REMARK INTER:                  -5.210
REMARK INTRA:                  -0.202
REMARK UNBOUND:                -0.227
REMARK SMILES O=C([O-])c1ccccc1C(=O)[O-]
REMARK SMILES IDX 4 1 9 2 5 3 8 4 6 5 7 6 2 7 1 8 3 9 10 10 11 11 12 12
REMARK H PARENT
REMARK Flexibility Score: inf
ROOT
ATOM      1  C   UNL     1     -25.259  87.904 -12.594  1.00  0.00     0.006 A 
ATOM      2  C   UNL     1     -24.934  87.091 -11.474  1.00  0.00     0.006 A 
ATOM      3  C   UNL     1     -25.648  87.287 -13.798  1.00  0.00     0.010 A 
ATOM      4  C   UNL     1     -24.949  85.691 -11.618  1.00  0.00     0.010 A 
ATOM      5  C   UNL     1     -25.675  85.898 -13.912  1.00  0.00     0.001 A 
ATOM      6  C   UNL     1     -25.315  85.101 -12.828  1.00  0.00     0.001 A 
ENDROOT
BRANCH   1   7
ATOM      7  C   UNL     1     -25.135  89.380 -12.572  1.00  0.00     0.072 C 
ATOM      8  O   UNL     1     -24.042  89.928 -12.875  1.00  0.00    -0.545 OA
ATOM      9  O   UNL     1     -26.198  90.174 -12.158  1.00  0.00    -0.545 OA
ENDBRANCH   1   7
BRANCH   2  10
ATOM     10  C   UNL     1     -24.653  87.653 -10.132  1.00  0.00     0.072 C 
ATOM     11  O   UNL     1     -25.552  87.672  -9.252  1.00  0.00    -0.545 OA
ATOM     12  O   UNL     1     -23.418  88.224  -9.849  1.00  0.00    -0.545 OA
ENDBRANCH   2  10
TORSDOF 2
ENDMDL
