MODEL 1
REMARK VINA RESULT:    -1.833      0.000      0.000
REMARK INTER + INTRA:          -1.833
REMARK INTER:                  -1.833
REMARK INTRA:                   0.000
REMARK UNBOUND:                 0.000
REMARK SMILES c1ccc2nc3ccccc3cc2c1
REMARK SMILES IDX 1 1 2 2 3 3 4 4 13 5 14 6 12 7 11 8 10 9 9 10 8 11 7 12 6 13
REMARK SMILES IDX 5 14
REMARK H PARENT
REMARK Flexibility Score: inf
ROOT
ATOM      1  C   UNL     1     -13.539 -18.728  79.676  1.00  0.00     0.001 A 
ATOM      2  C   UNL     1     -14.723 -19.318  79.223  1.00  0.00     0.002 A 
ATOM      3  C   UNL     1     -15.312 -20.361  79.946  1.00  0.00     0.029 A 
ATOM      4  C   UNL     1     -14.716 -20.817  81.127  1.00  0.00     0.071 A 
ATOM      5  C   UNL     1     -13.518 -20.223  81.588  1.00  0.00     0.001 A 
ATOM      6  C   UNL     1     -12.936 -19.178  80.855  1.00  0.00     0.010 A 
ATOM      7  C   UNL     1     -12.934 -20.692  82.772  1.00  0.00     0.020 A 
ATOM      8  C   UNL     1     -13.541 -21.737  83.480  1.00  0.00     0.001 A 
ATOM      9  C   UNL     1     -12.981 -22.231  84.669  1.00  0.00     0.010 A 
ATOM     10  C   UNL     1     -13.608 -23.275  85.356  1.00  0.00     0.001 A 
ATOM     11  C   UNL     1     -14.793 -23.832  84.862  1.00  0.00     0.002 A 
ATOM     12  C   UNL     1     -15.357 -23.348  83.677  1.00  0.00     0.029 A 
ATOM     13  C   UNL     1     -14.738 -22.303  82.983  1.00  0.00     0.071 A 
ATOM     14  N   UNL     1     -15.287 -21.831  81.831  1.00  0.00    -0.248 NA
ENDROOT
TORSDOF 0
ENDMDL
MODEL 2
REMARK VINA RESULT:    -1.695      1.220      5.428
REMARK INTER + INTRA:          -1.695
REMARK INTER:                  -1.695
REMARK INTRA:                   0.000
REMARK UNBOUND:                 0.000
REMARK SMILES c1ccc2nc3ccccc3cc2c1
REMARK SMILES IDX 1 1 2 2 3 3 4 4 13 5 14 6 12 7 11 8 10 9 9 10 8 11 7 12 6 13
REMARK SMILES IDX 5 14
REMARK H PARENT
REMARK Flexibility Score: inf
ROOT
ATOM      1  C   UNL     1     -15.348 -24.923  85.521  1.00  0.00     0.001 A 
ATOM      2  C   UNL     1     -14.179 -24.449  86.124  1.00  0.00     0.002 A 
ATOM      3  C   UNL     1     -13.462 -23.399  85.541  1.00  0.00     0.029 A 
ATOM      4  C   UNL     1     -13.913 -22.820  84.349  1.00  0.00     0.071 A 
ATOM      5  C   UNL     1     -15.094 -23.298  83.736  1.00  0.00     0.001 A 
ATOM      6  C   UNL     1     -15.807 -24.351  84.329  1.00  0.00     0.010 A 
ATOM      7  C   UNL     1     -15.531 -22.708  82.543  1.00  0.00     0.020 A 
ATOM      8  C   UNL     1     -14.797 -21.658  81.976  1.00  0.00     0.001 A 
ATOM      9  C   UNL     1     -15.208 -21.046  80.782  1.00  0.00     0.010 A 
ATOM     10  C   UNL     1     -14.456 -19.999  80.238  1.00  0.00     0.001 A 
ATOM     11  C   UNL     1     -13.294 -19.560  80.880  1.00  0.00     0.002 A 
ATOM     12  C   UNL     1     -12.875 -20.165  82.071  1.00  0.00     0.029 A 
ATOM     13  C   UNL     1     -13.621 -21.212  82.623  1.00  0.00     0.071 A 
ATOM     14  N   UNL     1     -13.216 -21.800  83.781  1.00  0.00    -0.248 NA
ENDROOT
TORSDOF 0
ENDMDL
MODEL 3
REMARK VINA RESULT:    -1.656      1.108      5.021
REMARK INTER + INTRA:          -1.656
REMARK INTER:                  -1.656
REMARK INTRA:                   0.000
REMARK UNBOUND:                 0.000
REMARK SMILES c1ccc2nc3ccccc3cc2c1
REMARK SMILES IDX 1 1 2 2 3 3 4 4 13 5 14 6 12 7 11 8 10 9 9 10 8 11 7 12 6 13
REMARK SMILES IDX 5 14
REMARK H PARENT
REMARK Flexibility Score: inf
ROOT
ATOM      1  C   UNL     1     -13.425 -21.769  84.457  1.00  0.00     0.001 A 
ATOM      2  C   UNL     1     -14.500 -22.572  84.065  1.00  0.00     0.002 A 
ATOM      3  C   UNL     1     -15.035 -22.453  82.778  1.00  0.00     0.029 A 
ATOM      4  C   UNL     1     -14.495 -21.527  81.878  1.00  0.00     0.071 A 
ATOM      5  C   UNL     1     -13.408 -20.713  82.272  1.00  0.00     0.001 A 
ATOM      6  C   UNL     1     -12.878 -20.841  83.565  1.00  0.00     0.010 A 
ATOM      7  C   UNL     1     -12.879 -19.791  81.359  1.00  0.00     0.020 A 
ATOM      8  C   UNL     1     -13.431 -19.688  80.076  1.00  0.00     0.001 A 
ATOM      9  C   UNL     1     -12.925 -18.775  79.138  1.00  0.00     0.010 A 
ATOM     10  C   UNL     1     -13.494 -18.694  77.863  1.00  0.00     0.001 A 
ATOM     11  C   UNL     1     -14.569 -19.519  77.518  1.00  0.00     0.002 A 
ATOM     12  C   UNL     1     -15.082 -20.432  78.446  1.00  0.00     0.029 A 
ATOM     13  C   UNL     1     -14.518 -20.522  79.724  1.00  0.00     0.071 A 
ATOM     14  N   UNL     1     -15.015 -21.410  80.627  1.00  0.00    -0.248 NA
ENDROOT
TORSDOF 0
ENDMDL
MODEL 4
REMARK VINA RESULT:    -1.549      1.855      2.330
REMARK INTER + INTRA:          -1.549
REMARK INTER:                  -1.549
REMARK INTRA:                   0.000
REMARK UNBOUND:                 0.000
REMARK SMILES c1ccc2nc3ccccc3cc2c1
REMARK SMILES IDX 1 1 2 2 3 3 4 4 13 5 14 6 12 7 11 8 10 9 9 10 8 11 7 12 6 13
REMARK SMILES IDX 5 14
REMARK H PARENT
REMARK Flexibility Score: inf
ROOT
ATOM      1  C   UNL     1     -13.667 -20.291  80.627  1.00  0.00     0.001 A 
ATOM      2  C   UNL     1     -13.868 -21.374  79.764  1.00  0.00     0.002 A 
ATOM      3  C   UNL     1     -13.835 -22.682  80.258  1.00  0.00     0.029 A 
ATOM      4  C   UNL     1     -13.600 -22.912  81.618  1.00  0.00     0.071 A 
ATOM      5  C   UNL     1     -13.395 -21.819  82.492  1.00  0.00     0.001 A 
ATOM      6  C   UNL     1     -13.431 -20.510  81.988  1.00  0.00     0.010 A 
ATOM      7  C   UNL     1     -13.160 -22.066  83.852  1.00  0.00     0.020 A 
ATOM      8  C   UNL     1     -13.132 -23.385  84.324  1.00  0.00     0.001 A 
ATOM      9  C   UNL     1     -12.899 -23.666  85.679  1.00  0.00     0.010 A 
ATOM     10  C   UNL     1     -12.876 -24.992  86.124  1.00  0.00     0.001 A 
ATOM     11  C   UNL     1     -13.083 -26.041  85.222  1.00  0.00     0.002 A 
ATOM     12  C   UNL     1     -13.315 -25.771  83.869  1.00  0.00     0.029 A 
ATOM     13  C   UNL     1     -13.341 -24.448  83.414  1.00  0.00     0.071 A 
ATOM     14  N   UNL     1     -13.567 -24.183  82.099  1.00  0.00    -0.248 NA
ENDROOT
TORSDOF 0
ENDMDL
MODEL 5
REMARK VINA RESULT:    -1.514      1.704      3.038
REMARK INTER + INTRA:          -1.514
REMARK INTER:                  -1.514
REMARK INTRA:                   0.000
REMARK UNBOUND:                 0.000
REMARK SMILES c1ccc2nc3ccccc3cc2c1
REMARK SMILES IDX 1 1 2 2 3 3 4 4 13 5 14 6 12 7 11 8 10 9 9 10 8 11 7 12 6 13
REMARK SMILES IDX 5 14
REMARK H PARENT
REMARK Flexibility Score: inf
ROOT
ATOM      1  C   UNL     1     -16.516 -21.931  77.755  1.00  0.00     0.001 A 
ATOM      2  C   UNL     1     -15.586 -20.939  77.429  1.00  0.00     0.002 A 
ATOM      3  C   UNL     1     -14.679 -20.482  78.390  1.00  0.00     0.029 A 
ATOM      4  C   UNL     1     -14.700 -21.016  79.683  1.00  0.00     0.071 A 
ATOM      5  C   UNL     1     -15.640 -22.019  80.016  1.00  0.00     0.001 A 
ATOM      6  C   UNL     1     -16.546 -22.471  79.045  1.00  0.00     0.010 A 
ATOM      7  C   UNL     1     -15.649 -22.543  81.316  1.00  0.00     0.020 A 
ATOM      8  C   UNL     1     -14.731 -22.070  82.262  1.00  0.00     0.001 A 
ATOM      9  C   UNL     1     -14.714 -22.574  83.573  1.00  0.00     0.010 A 
ATOM     10  C   UNL     1     -13.786 -22.083  84.498  1.00  0.00     0.001 A 
ATOM     11  C   UNL     1     -12.875 -21.091  84.123  1.00  0.00     0.002 A 
ATOM     12  C   UNL     1     -12.886 -20.581  82.820  1.00  0.00     0.029 A 
ATOM     13  C   UNL     1     -13.808 -21.066  81.887  1.00  0.00     0.071 A 
ATOM     14  N   UNL     1     -13.819 -20.572  80.619  1.00  0.00    -0.248 NA
ENDROOT
TORSDOF 0
ENDMDL
MODEL 6
REMARK VINA RESULT:    -0.746      1.815      5.403
REMARK INTER + INTRA:          -0.746
REMARK INTER:                  -0.746
REMARK INTRA:                   0.000
REMARK UNBOUND:                 0.000
REMARK SMILES c1ccc2nc3ccccc3cc2c1
REMARK SMILES IDX 1 1 2 2 3 3 4 4 13 5 14 6 12 7 11 8 10 9 9 10 8 11 7 12 6 13
REMARK SMILES IDX 5 14
REMARK H PARENT
REMARK Flexibility Score: inf
ROOT
ATOM      1  C   UNL     1     -17.114 -25.825  85.936  1.00  0.00     0.001 A 
ATOM      2  C   UNL     1     -17.756 -25.932  84.698  1.00  0.00     0.002 A 
ATOM      3  C   UNL     1     -17.364 -25.118  83.630  1.00  0.00     0.029 A 
ATOM      4  C   UNL     1     -16.327 -24.194  83.798  1.00  0.00     0.071 A 
ATOM      5  C   UNL     1     -15.676 -24.083  85.048  1.00  0.00     0.001 A 
ATOM      6  C   UNL     1     -16.076 -24.904  86.114  1.00  0.00     0.010 A 
ATOM      7  C   UNL     1     -14.640 -23.152  85.200  1.00  0.00     0.020 A 
ATOM      8  C   UNL     1     -14.264 -22.348  84.116  1.00  0.00     0.001 A 
ATOM      9  C   UNL     1     -13.230 -21.406  84.235  1.00  0.00     0.010 A 
ATOM     10  C   UNL     1     -12.875 -20.616  83.136  1.00  0.00     0.001 A 
ATOM     11  C   UNL     1     -13.547 -20.760  81.918  1.00  0.00     0.002 A 
ATOM     12  C   UNL     1     -14.580 -21.696  81.790  1.00  0.00     0.029 A 
ATOM     13  C   UNL     1     -14.942 -22.492  82.883  1.00  0.00     0.071 A 
ATOM     14  N   UNL     1     -15.945 -23.403  82.760  1.00  0.00    -0.248 NA
ENDROOT
TORSDOF 0
ENDMDL
MODEL 7
REMARK VINA RESULT:    -0.273      6.956      8.387
REMARK INTER + INTRA:          -0.273
REMARK INTER:                  -0.273
REMARK INTRA:                   0.000
REMARK UNBOUND:                 0.000
REMARK SMILES c1ccc2nc3ccccc3cc2c1
REMARK SMILES IDX 1 1 2 2 3 3 4 4 13 5 14 6 12 7 11 8 10 9 9 10 8 11 7 12 6 13
REMARK SMILES IDX 5 14
REMARK H PARENT
REMARK Flexibility Score: inf
ROOT
ATOM      1  C   UNL     1     -14.915 -13.799  86.125  1.00  0.00     0.001 A 
ATOM      2  C   UNL     1     -13.537 -13.980  85.964  1.00  0.00     0.002 A 
ATOM      3  C   UNL     1     -13.006 -14.255  84.700  1.00  0.00     0.029 A 
ATOM      4  C   UNL     1     -13.854 -14.351  83.590  1.00  0.00     0.071 A 
ATOM      5  C   UNL     1     -15.248 -14.170  83.750  1.00  0.00     0.001 A 
ATOM      6  C   UNL     1     -15.770 -13.894  85.022  1.00  0.00     0.010 A 
ATOM      7  C   UNL     1     -16.082 -14.270  82.629  1.00  0.00     0.020 A 
ATOM      8  C   UNL     1     -15.529 -14.546  81.372  1.00  0.00     0.001 A 
ATOM      9  C   UNL     1     -16.338 -14.653  80.230  1.00  0.00     0.010 A 
ATOM     10  C   UNL     1     -15.759 -14.929  78.987  1.00  0.00     0.001 A 
ATOM     11  C   UNL     1     -14.375 -15.101  78.877  1.00  0.00     0.002 A 
ATOM     12  C   UNL     1     -13.561 -14.997  80.010  1.00  0.00     0.029 A 
ATOM     13  C   UNL     1     -14.130 -14.720  81.258  1.00  0.00     0.071 A 
ATOM     14  N   UNL     1     -13.339 -14.618  82.361  1.00  0.00    -0.248 NA
ENDROOT
TORSDOF 0
ENDMDL
MODEL 8
REMARK VINA RESULT:    -0.028      8.742     10.167
REMARK INTER + INTRA:          -0.028
REMARK INTER:                  -0.028
REMARK INTRA:                   0.000
REMARK UNBOUND:                 0.000
REMARK SMILES c1ccc2nc3ccccc3cc2c1
REMARK SMILES IDX 1 1 2 2 3 3 4 4 13 5 14 6 12 7 11 8 10 9 9 10 8 11 7 12 6 13
REMARK SMILES IDX 5 14
REMARK H PARENT
REMARK Flexibility Score: inf
ROOT
ATOM      1  C   UNL     1     -23.687 -22.885  84.030  1.00  0.00     0.001 A 
ATOM      2  C   UNL     1     -23.925 -23.973  83.183  1.00  0.00     0.002 A 
ATOM      3  C   UNL     1     -23.749 -23.841  81.802  1.00  0.00     0.029 A 
ATOM      4  C   UNL     1     -23.333 -22.618  81.263  1.00  0.00     0.071 A 
ATOM      5  C   UNL     1     -23.092 -21.517  82.116  1.00  0.00     0.001 A 
ATOM      6  C   UNL     1     -23.271 -21.659  83.501  1.00  0.00     0.010 A 
ATOM      7  C   UNL     1     -22.676 -20.300  81.561  1.00  0.00     0.020 A 
ATOM      8  C   UNL     1     -22.506 -20.190  80.174  1.00  0.00     0.001 A 
ATOM      9  C   UNL     1     -22.091 -18.985  79.586  1.00  0.00     0.010 A 
ATOM     10  C   UNL     1     -21.928 -18.904  78.199  1.00  0.00     0.001 A 
ATOM     11  C   UNL     1     -22.178 -20.020  77.394  1.00  0.00     0.002 A 
ATOM     12  C   UNL     1     -22.593 -21.225  77.971  1.00  0.00     0.029 A 
ATOM     13  C   UNL     1     -22.758 -21.317  79.358  1.00  0.00     0.071 A 
ATOM     14  N   UNL     1     -23.161 -22.489  79.920  1.00  0.00    -0.248 NA
ENDROOT
TORSDOF 0
ENDMDL
