MODEL 1
REMARK VINA RESULT:    -4.460      0.000      0.000
REMARK INTER + INTRA:          -7.450
REMARK INTER:                  -6.284
REMARK INTRA:                  -1.166
REMARK UNBOUND:                -1.166
REMARK SMILES O=c1cc(-c2ccc(O)c(O)c2)oc2cc(O)c([C@H]3O[C@H](CO)[C@H](O)[C@@H](O)[C@H]3O)c(O)c12
REMARK SMILES IDX 4 1 3 2 2 3 1 4 32 5 14 6 13 7 15 8 16 9 18 10 30 11 5 12
REMARK SMILES IDX 6 13 7 14 8 15 12 16 10 17 9 18 11 20 31 22 17 24 19 26
REMARK SMILES IDX 28 27 20 28 26 29 21 30 24 31 29 32 27 34 22 36 23 37 25 39
REMARK H PARENT 9 19 11 21 31 23 17 25 29 33 27 35 23 38 25 40
REMARK Flexibility Score: inf
ROOT
ATOM      1  C   UNL     1       2.103   7.983   4.963  1.00  0.00     0.138 A 
ATOM      2  C   UNL     1       1.560   7.325   3.852  1.00  0.00     0.100 A 
ATOM      3  C   UNL     1       2.374   7.039   2.755  1.00  0.00     0.197 A 
ATOM      4  O   UNL     1       1.879   6.377   1.806  1.00  0.00    -0.289 OA
ATOM      5  C   UNL     1       3.727   7.458   2.753  1.00  0.00     0.107 A 
ATOM      6  C   UNL     1       4.203   8.080   3.932  1.00  0.00     0.146 A 
ATOM      7  O   UNL     1       3.389   8.322   4.954  1.00  0.00    -0.456 OA
ATOM      8  C   UNL     1       5.541   8.445   4.046  1.00  0.00     0.094 A 
ATOM      9  C   UNL     1       6.444   8.181   3.017  1.00  0.00     0.128 A 
ATOM     10  C   UNL     1       6.007   7.565   1.825  1.00  0.00     0.068 A 
ATOM     11  C   UNL     1       4.627   7.264   1.664  1.00  0.00     0.140 A 
ENDROOT
BRANCH   1  12
ATOM     12  C   UNL     1       1.286   8.317   6.157  1.00  0.00     0.021 A 
ATOM     13  C   UNL     1       0.010   8.882   5.984  1.00  0.00     0.016 A 
ATOM     14  C   UNL     1      -0.776   9.212   7.089  1.00  0.00     0.051 A 
ATOM     15  C   UNL     1      -0.301   8.994   8.387  1.00  0.00     0.157 A 
ATOM     16  C   UNL     1       1.765   8.111   7.466  1.00  0.00     0.062 A 
ATOM     17  C   UNL     1       0.979   8.444   8.575  1.00  0.00     0.158 A 
BRANCH  15  18
ATOM     18  O   UNL     1      -1.089   9.323   9.489  1.00  0.00    -0.504 OA
ATOM     19  H   UNL     1      -0.954   8.878  10.389  1.00  0.00     0.293 HD
ENDBRANCH  15  18
BRANCH  17  20
ATOM     20  O   UNL     1       1.487   8.224   9.855  1.00  0.00    -0.504 OA
ATOM     21  H   UNL     1       1.478   7.309  10.288  1.00  0.00     0.293 HD
ENDBRANCH  17  20
ENDBRANCH   1  12
BRANCH  11  22
ATOM     22  O   UNL     1       4.191   6.816   0.412  1.00  0.00    -0.506 OA
ATOM     23  H   UNL     1       4.600   6.040  -0.087  1.00  0.00     0.293 HD
ENDBRANCH  11  22
BRANCH   9  24
ATOM     24  O   UNL     1       7.782   8.545   3.173  1.00  0.00    -0.507 OA
ATOM     25  H   UNL     1       8.509   7.856   3.322  1.00  0.00     0.293 HD
ENDBRANCH   9  24
BRANCH  10  26
ATOM     26  C   UNL     1       7.016   7.334   0.702  1.00  0.00     0.188 C 
ATOM     27  C   UNL     1       7.082   8.567  -0.232  1.00  0.00     0.179 C 
ATOM     28  O   UNL     1       6.708   6.143  -0.008  1.00  0.00    -0.362 OA
ATOM     29  C   UNL     1       8.117   8.336  -1.349  1.00  0.00     0.177 C 
ATOM     30  C   UNL     1       7.674   5.820  -1.004  1.00  0.00     0.176 C 
ATOM     31  C   UNL     1       7.890   6.969  -2.028  1.00  0.00     0.177 C 
BRANCH  27  32
ATOM     32  O   UNL     1       5.818   8.904  -0.755  1.00  0.00    -0.387 OA
ATOM     33  H   UNL     1       5.252   8.093  -0.740  1.00  0.00     0.211 HD
ENDBRANCH  27  32
BRANCH  29  34
ATOM     34  O   UNL     1       8.033   9.355  -2.313  1.00  0.00    -0.387 OA
ATOM     35  H   UNL     1       7.140   9.777  -2.207  1.00  0.00     0.211 HD
ENDBRANCH  29  34
BRANCH  30  36
ATOM     36  C   UNL     1       8.952   5.184  -0.407  1.00  0.00     0.191 C 
BRANCH  36  37
ATOM     37  O   UNL     1       9.563   4.292  -1.296  1.00  0.00    -0.394 OA
ATOM     38  H   UNL     1       9.370   4.634  -2.208  1.00  0.00     0.210 HD
ENDBRANCH  36  37
ENDBRANCH  30  36
BRANCH  31  39
ATOM     39  O   UNL     1       8.917   6.664  -2.942  1.00  0.00    -0.388 OA
ATOM     40  H   UNL     1       9.734   6.437  -2.426  1.00  0.00     0.211 HD
ENDBRANCH  31  39
ENDBRANCH  10  26
TORSDOF 11
ENDMDL
MODEL 2
REMARK VINA RESULT:    -4.331      6.987     12.714
REMARK INTER + INTRA:          -7.270
REMARK INTER:                  -6.371
REMARK INTRA:                  -0.899
REMARK UNBOUND:                -1.166
REMARK SMILES O=c1cc(-c2ccc(O)c(O)c2)oc2cc(O)c([C@H]3O[C@H](CO)[C@H](O)[C@@H](O)[C@H]3O)c(O)c12
REMARK SMILES IDX 4 1 3 2 2 3 1 4 32 5 14 6 13 7 15 8 16 9 18 10 30 11 5 12
REMARK SMILES IDX 6 13 7 14 8 15 12 16 10 17 9 18 11 20 31 22 17 24 19 26
REMARK SMILES IDX 28 27 20 28 26 29 21 30 24 31 29 32 27 34 22 36 23 37 25 39
REMARK H PARENT 9 19 11 21 31 23 17 25 29 33 27 35 23 38 25 40
REMARK Flexibility Score: inf
ROOT
ATOM      1  C   UNL     1       6.861   0.098  -6.826  1.00  0.00     0.138 A 
ATOM      2  C   UNL     1       8.112   0.032  -6.200  1.00  0.00     0.100 A 
ATOM      3  C   UNL     1       8.594   1.144  -5.507  1.00  0.00     0.197 A 
ATOM      4  O   UNL     1       9.683   1.030  -4.887  1.00  0.00    -0.289 OA
ATOM      5  C   UNL     1       7.838   2.342  -5.483  1.00  0.00     0.107 A 
ATOM      6  C   UNL     1       6.569   2.307  -6.109  1.00  0.00     0.146 A 
ATOM      7  O   UNL     1       6.152   1.220  -6.748  1.00  0.00    -0.456 OA
ATOM      8  C   UNL     1       5.727   3.413  -6.057  1.00  0.00     0.094 A 
ATOM      9  C   UNL     1       6.103   4.566  -5.368  1.00  0.00     0.128 A 
ATOM     10  C   UNL     1       7.361   4.640  -4.735  1.00  0.00     0.068 A 
ATOM     11  C   UNL     1       8.262   3.548  -4.852  1.00  0.00     0.140 A 
ENDROOT
BRANCH   1  12
ATOM     12  C   UNL     1       6.298  -1.051  -7.582  1.00  0.00     0.021 A 
ATOM     13  C   UNL     1       6.818  -1.364  -8.849  1.00  0.00     0.016 A 
ATOM     14  C   UNL     1       6.302  -2.434  -9.584  1.00  0.00     0.051 A 
ATOM     15  C   UNL     1       5.253  -3.205  -9.070  1.00  0.00     0.157 A 
ATOM     16  C   UNL     1       5.234  -1.821  -7.075  1.00  0.00     0.062 A 
ATOM     17  C   UNL     1       4.715  -2.893  -7.811  1.00  0.00     0.158 A 
BRANCH  15  18
ATOM     18  O   UNL     1       4.742  -4.273  -9.804  1.00  0.00    -0.504 OA
ATOM     19  H   UNL     1       4.314  -5.072  -9.351  1.00  0.00     0.293 HD
ENDBRANCH  15  18
BRANCH  17  20
ATOM     20  O   UNL     1       3.661  -3.634  -7.275  1.00  0.00    -0.504 OA
ATOM     21  H   UNL     1       3.436  -4.565  -7.604  1.00  0.00     0.293 HD
ENDBRANCH  17  20
ENDBRANCH   1  12
BRANCH  11  22
ATOM     22  O   UNL     1       9.565   3.713  -4.366  1.00  0.00    -0.506 OA
ATOM     23  H   UNL     1       9.862   3.452  -3.437  1.00  0.00     0.293 HD
ENDBRANCH  11  22
BRANCH   9  24
ATOM     24  O   UNL     1       5.225   5.651  -5.323  1.00  0.00    -0.507 OA
ATOM     25  H   UNL     1       4.712   5.957  -6.141  1.00  0.00     0.293 HD
ENDBRANCH   9  24
BRANCH  10  26
ATOM     26  C   UNL     1       7.755   5.936  -4.029  1.00  0.00     0.188 C 
ATOM     27  C   UNL     1       8.535   6.865  -4.993  1.00  0.00     0.179 C 
ATOM     28  O   UNL     1       8.492   5.657  -2.847  1.00  0.00    -0.362 OA
ATOM     29  C   UNL     1       8.910   8.178  -4.281  1.00  0.00     0.177 C 
ATOM     30  C   UNL     1       8.801   6.823  -2.091  1.00  0.00     0.176 C 
ATOM     31  C   UNL     1       9.573   7.890  -2.918  1.00  0.00     0.177 C 
BRANCH  27  32
ATOM     32  O   UNL     1       9.665   6.230  -5.543  1.00  0.00    -0.387 OA
ATOM     33  H   UNL     1      10.439   6.411  -4.953  1.00  0.00     0.211 HD
ENDBRANCH  27  32
BRANCH  29  34
ATOM     34  O   UNL     1       9.790   8.932  -5.077  1.00  0.00    -0.387 OA
ATOM     35  H   UNL     1       9.239   9.605  -5.554  1.00  0.00     0.211 HD
ENDBRANCH  29  34
BRANCH  30  36
ATOM     36  C   UNL     1       7.594   7.334  -1.269  1.00  0.00     0.191 C 
BRANCH  36  37
ATOM     37  O   UNL     1       6.764   6.290  -0.844  1.00  0.00    -0.394 OA
ATOM     38  H   UNL     1       6.507   5.790  -1.662  1.00  0.00     0.210 HD
ENDBRANCH  36  37
ENDBRANCH  30  36
BRANCH  31  39
ATOM     39  O   UNL     1       9.780   9.070  -2.178  1.00  0.00    -0.388 OA
ATOM     40  H   UNL     1       8.912   9.345  -1.784  1.00  0.00     0.211 HD
ENDBRANCH  31  39
ENDBRANCH  10  26
TORSDOF 11
ENDMDL
MODEL 3
REMARK VINA RESULT:    -4.123      8.815     13.108
REMARK INTER + INTRA:          -6.977
REMARK INTER:                  -5.928
REMARK INTRA:                  -1.048
REMARK UNBOUND:                -1.166
REMARK SMILES O=c1cc(-c2ccc(O)c(O)c2)oc2cc(O)c([C@H]3O[C@H](CO)[C@H](O)[C@@H](O)[C@H]3O)c(O)c12
REMARK SMILES IDX 4 1 3 2 2 3 1 4 32 5 14 6 13 7 15 8 16 9 18 10 30 11 5 12
REMARK SMILES IDX 6 13 7 14 8 15 12 16 10 17 9 18 11 20 31 22 17 24 19 26
REMARK SMILES IDX 28 27 20 28 26 29 21 30 24 31 29 32 27 34 22 36 23 37 25 39
REMARK H PARENT 9 19 11 21 31 23 17 25 29 33 27 35 23 38 25 40
REMARK Flexibility Score: inf
ROOT
ATOM      1  C   UNL     1       6.915  -0.336  -7.092  1.00  0.00     0.138 A 
ATOM      2  C   UNL     1       8.293  -0.104  -7.185  1.00  0.00     0.100 A 
ATOM      3  C   UNL     1       8.797   1.168  -6.909  1.00  0.00     0.197 A 
ATOM      4  O   UNL     1      10.046   1.327  -6.922  1.00  0.00    -0.289 OA
ATOM      5  C   UNL     1       7.909   2.223  -6.585  1.00  0.00     0.107 A 
ATOM      6  C   UNL     1       6.538   1.891  -6.475  1.00  0.00     0.146 A 
ATOM      7  O   UNL     1       6.110   0.661  -6.740  1.00  0.00    -0.456 OA
ATOM      8  C   UNL     1       5.610   2.848  -6.077  1.00  0.00     0.094 A 
ATOM      9  C   UNL     1       6.013   4.143  -5.754  1.00  0.00     0.128 A 
ATOM     10  C   UNL     1       7.371   4.514  -5.854  1.00  0.00     0.068 A 
ATOM     11  C   UNL     1       8.314   3.568  -6.339  1.00  0.00     0.140 A 
ENDROOT
BRANCH   1  12
ATOM     12  C   UNL     1       6.320  -1.667  -7.378  1.00  0.00     0.021 A 
ATOM     13  C   UNL     1       7.143  -2.701  -7.855  1.00  0.00     0.016 A 
ATOM     14  C   UNL     1       6.608  -3.960  -8.139  1.00  0.00     0.051 A 
ATOM     15  C   UNL     1       5.242  -4.206  -7.960  1.00  0.00     0.157 A 
ATOM     16  C   UNL     1       4.944  -1.915  -7.212  1.00  0.00     0.062 A 
ATOM     17  C   UNL     1       4.406  -3.175  -7.498  1.00  0.00     0.158 A 
BRANCH  15  18
ATOM     18  O   UNL     1       4.711  -5.463  -8.242  1.00  0.00    -0.504 OA
ATOM     19  H   UNL     1       5.093  -6.047  -8.977  1.00  0.00     0.293 HD
ENDBRANCH  15  18
BRANCH  17  20
ATOM     20  O   UNL     1       3.038  -3.383  -7.319  1.00  0.00    -0.504 OA
ATOM     21  H   UNL     1       2.562  -4.190  -7.705  1.00  0.00     0.293 HD
ENDBRANCH  17  20
ENDBRANCH   1  12
BRANCH  11  22
ATOM     22  O   UNL     1       9.618   4.009  -6.595  1.00  0.00    -0.506 OA
ATOM     23  H   UNL     1       9.878   4.587  -7.380  1.00  0.00     0.293 HD
ENDBRANCH  11  22
BRANCH   9  24
ATOM     24  O   UNL     1       5.057   5.073  -5.342  1.00  0.00    -0.507 OA
ATOM     25  H   UNL     1       4.660   5.750  -5.982  1.00  0.00     0.293 HD
ENDBRANCH   9  24
BRANCH  10  26
ATOM     26  C   UNL     1       7.767   5.954  -5.535  1.00  0.00     0.188 C 
ATOM     27  C   UNL     1       8.114   6.102  -4.034  1.00  0.00     0.179 C 
ATOM     28  O   UNL     1       6.744   6.854  -5.937  1.00  0.00    -0.362 OA
ATOM     29  C   UNL     1       8.533   7.552  -3.723  1.00  0.00     0.177 C 
ATOM     30  C   UNL     1       7.098   8.221  -5.758  1.00  0.00     0.176 C 
ATOM     31  C   UNL     1       7.505   8.551  -4.294  1.00  0.00     0.177 C 
BRANCH  27  32
ATOM     32  O   UNL     1       7.061   5.676  -3.201  1.00  0.00    -0.387 OA
ATOM     33  H   UNL     1       6.277   6.256  -3.373  1.00  0.00     0.211 HD
ENDBRANCH  27  32
BRANCH  29  34
ATOM     34  O   UNL     1       8.647   7.742  -2.336  1.00  0.00    -0.387 OA
ATOM     35  H   UNL     1       7.985   8.438  -2.086  1.00  0.00     0.211 HD
ENDBRANCH  29  34
BRANCH  30  36
ATOM     36  C   UNL     1       8.046   8.738  -6.865  1.00  0.00     0.191 C 
BRANCH  36  37
ATOM     37  O   UNL     1       7.955  10.125  -7.035  1.00  0.00    -0.394 OA
ATOM     38  H   UNL     1       7.137  10.409  -6.550  1.00  0.00     0.210 HD
ENDBRANCH  36  37
ENDBRANCH  30  36
BRANCH  31  39
ATOM     39  O   UNL     1       7.944   9.882  -4.164  1.00  0.00    -0.388 OA
ATOM     40  H   UNL     1       8.123  10.240  -5.073  1.00  0.00     0.211 HD
ENDBRANCH  31  39
ENDBRANCH  10  26
TORSDOF 11
ENDMDL
MODEL 4
REMARK VINA RESULT:    -4.105      3.296      9.911
REMARK INTER + INTRA:          -6.951
REMARK INTER:                  -5.986
REMARK INTRA:                  -0.965
REMARK UNBOUND:                -1.166
REMARK SMILES O=c1cc(-c2ccc(O)c(O)c2)oc2cc(O)c([C@H]3O[C@H](CO)[C@H](O)[C@@H](O)[C@H]3O)c(O)c12
REMARK SMILES IDX 4 1 3 2 2 3 1 4 32 5 14 6 13 7 15 8 16 9 18 10 30 11 5 12
REMARK SMILES IDX 6 13 7 14 8 15 12 16 10 17 9 18 11 20 31 22 17 24 19 26
REMARK SMILES IDX 28 27 20 28 26 29 21 30 24 31 29 32 27 34 22 36 23 37 25 39
REMARK H PARENT 9 19 11 21 31 23 17 25 29 33 27 35 23 38 25 40
REMARK Flexibility Score: inf
ROOT
ATOM      1  C   UNL     1       8.118   5.435  -1.192  1.00  0.00     0.138 A 
ATOM      2  C   UNL     1       9.218   5.577  -0.337  1.00  0.00     0.100 A 
ATOM      3  C   UNL     1       9.009   5.888   1.008  1.00  0.00     0.197 A 
ATOM      4  O   UNL     1      10.011   5.930   1.769  1.00  0.00    -0.289 OA
ATOM      5  C   UNL     1       7.694   6.105   1.485  1.00  0.00     0.107 A 
ATOM      6  C   UNL     1       6.640   5.903   0.562  1.00  0.00     0.146 A 
ATOM      7  O   UNL     1       6.891   5.598  -0.706  1.00  0.00    -0.456 OA
ATOM      8  C   UNL     1       5.314   6.011   0.971  1.00  0.00     0.094 A 
ATOM      9  C   UNL     1       4.996   6.293   2.299  1.00  0.00     0.128 A 
ATOM     10  C   UNL     1       6.019   6.505   3.247  1.00  0.00     0.068 A 
ATOM     11  C   UNL     1       7.375   6.479   2.824  1.00  0.00     0.140 A 
ENDROOT
BRANCH   1  12
ATOM     12  C   UNL     1       8.278   5.109  -2.632  1.00  0.00     0.021 A 
ATOM     13  C   UNL     1       7.538   5.826  -3.588  1.00  0.00     0.016 A 
ATOM     14  C   UNL     1       7.665   5.535  -4.948  1.00  0.00     0.051 A 
ATOM     15  C   UNL     1       8.524   4.517  -5.377  1.00  0.00     0.157 A 
ATOM     16  C   UNL     1       9.131   4.076  -3.068  1.00  0.00     0.062 A 
ATOM     17  C   UNL     1       9.258   3.782  -4.431  1.00  0.00     0.158 A 
BRANCH  15  18
ATOM     18  O   UNL     1       8.650   4.229  -6.736  1.00  0.00    -0.504 OA
ATOM     19  H   UNL     1       8.287   3.370  -7.131  1.00  0.00     0.293 HD
ENDBRANCH  15  18
BRANCH  17  20
ATOM     20  O   UNL     1      10.114   2.753  -4.824  1.00  0.00    -0.504 OA
ATOM     21  H   UNL     1       9.805   1.994  -5.419  1.00  0.00     0.293 HD
ENDBRANCH  17  20
ENDBRANCH   1  12
BRANCH  11  22
ATOM     22  O   UNL     1       8.360   6.863   3.741  1.00  0.00    -0.506 OA
ATOM     23  H   UNL     1       8.318   7.701   4.302  1.00  0.00     0.293 HD
ENDBRANCH  11  22
BRANCH   9  24
ATOM     24  O   UNL     1       3.655   6.378   2.676  1.00  0.00    -0.507 OA
ATOM     25  H   UNL     1       3.364   6.273   3.641  1.00  0.00     0.293 HD
ENDBRANCH   9  24
BRANCH  10  26
ATOM     26  C   UNL     1       5.631   6.857   4.682  1.00  0.00     0.188 C 
ATOM     27  C   UNL     1       5.463   8.389   4.839  1.00  0.00     0.179 C 
ATOM     28  O   UNL     1       6.578   6.329   5.599  1.00  0.00    -0.362 OA
ATOM     29  C   UNL     1       5.052   8.735   6.283  1.00  0.00     0.177 C 
ATOM     30  C   UNL     1       6.217   6.538   6.961  1.00  0.00     0.176 C 
ATOM     31  C   UNL     1       5.981   8.037   7.297  1.00  0.00     0.177 C 
BRANCH  27  32
ATOM     32  O   UNL     1       6.618   9.092   4.445  1.00  0.00    -0.387 OA
ATOM     33  H   UNL     1       6.646   9.946   4.946  1.00  0.00     0.211 HD
ENDBRANCH  27  32
BRANCH  29  34
ATOM     34  O   UNL     1       5.100  10.125   6.485  1.00  0.00    -0.387 OA
ATOM     35  H   UNL     1       5.364  10.532   5.619  1.00  0.00     0.211 HD
ENDBRANCH  29  34
BRANCH  30  36
ATOM     36  C   UNL     1       5.131   5.548   7.445  1.00  0.00     0.191 C 
BRANCH  36  37
ATOM     37  O   UNL     1       5.611   4.235   7.523  1.00  0.00    -0.394 OA
ATOM     38  H   UNL     1       5.106   3.715   6.845  1.00  0.00     0.210 HD
ENDBRANCH  36  37
ENDBRANCH  30  36
BRANCH  31  39
ATOM     39  O   UNL     1       5.531   8.207   8.620  1.00  0.00    -0.388 OA
ATOM     40  H   UNL     1       6.301   8.068   9.231  1.00  0.00     0.211 HD
ENDBRANCH  31  39
ENDBRANCH  10  26
TORSDOF 11
ENDMDL
MODEL 5
REMARK VINA RESULT:    -4.016     11.326     16.188
REMARK INTER + INTRA:          -6.825
REMARK INTER:                  -5.789
REMARK INTRA:                  -1.036
REMARK UNBOUND:                -1.166
REMARK SMILES O=c1cc(-c2ccc(O)c(O)c2)oc2cc(O)c([C@H]3O[C@H](CO)[C@H](O)[C@@H](O)[C@H]3O)c(O)c12
REMARK SMILES IDX 4 1 3 2 2 3 1 4 32 5 14 6 13 7 15 8 16 9 18 10 30 11 5 12
REMARK SMILES IDX 6 13 7 14 8 15 12 16 10 17 9 18 11 20 31 22 17 24 19 26
REMARK SMILES IDX 28 27 20 28 26 29 21 30 24 31 29 32 27 34 22 36 23 37 25 39
REMARK H PARENT 9 19 11 21 31 23 17 25 29 33 27 35 23 38 25 40
REMARK Flexibility Score: inf
ROOT
ATOM      1  C   UNL     1       5.587  -4.847  -8.851  1.00  0.00     0.138 A 
ATOM      2  C   UNL     1       6.878  -4.799  -9.392  1.00  0.00     0.100 A 
ATOM      3  C   UNL     1       7.681  -3.682  -9.158  1.00  0.00     0.197 A 
ATOM      4  O   UNL     1       8.864  -3.701  -9.588  1.00  0.00    -0.289 OA
ATOM      5  C   UNL     1       7.169  -2.588  -8.418  1.00  0.00     0.107 A 
ATOM      6  C   UNL     1       5.870  -2.738  -7.876  1.00  0.00     0.146 A 
ATOM      7  O   UNL     1       5.149  -3.826  -8.121  1.00  0.00    -0.456 OA
ATOM      8  C   UNL     1       5.325  -1.747  -7.065  1.00  0.00     0.094 A 
ATOM      9  C   UNL     1       6.055  -0.601  -6.748  1.00  0.00     0.128 A 
ATOM     10  C   UNL     1       7.352  -0.414  -7.272  1.00  0.00     0.068 A 
ATOM     11  C   UNL     1       7.885  -1.380  -8.167  1.00  0.00     0.140 A 
ENDROOT
BRANCH   1  12
ATOM     12  C   UNL     1       4.685  -6.007  -9.071  1.00  0.00     0.021 A 
ATOM     13  C   UNL     1       5.233  -7.297  -9.172  1.00  0.00     0.016 A 
ATOM     14  C   UNL     1       4.408  -8.404  -9.385  1.00  0.00     0.051 A 
ATOM     15  C   UNL     1       3.024  -8.241  -9.511  1.00  0.00     0.157 A 
ATOM     16  C   UNL     1       3.292  -5.847  -9.211  1.00  0.00     0.062 A 
ATOM     17  C   UNL     1       2.465  -6.955  -9.427  1.00  0.00     0.158 A 
BRANCH  15  18
ATOM     18  O   UNL     1       2.203  -9.348  -9.722  1.00  0.00    -0.504 OA
ATOM     19  H   UNL     1       2.467 -10.089 -10.361  1.00  0.00     0.293 HD
ENDBRANCH  15  18
BRANCH  17  20
ATOM     20  O   UNL     1       1.090  -6.758  -9.560  1.00  0.00    -0.504 OA
ATOM     21  H   UNL     1       0.487  -7.445  -9.996  1.00  0.00     0.293 HD
ENDBRANCH  17  20
ENDBRANCH   1  12
BRANCH  11  22
ATOM     22  O   UNL     1       9.095  -1.089  -8.808  1.00  0.00    -0.506 OA
ATOM     23  H   UNL     1       9.423  -1.555  -9.641  1.00  0.00     0.293 HD
ENDBRANCH  11  22
BRANCH   9  24
ATOM     24  O   UNL     1       5.483   0.364  -5.918  1.00  0.00    -0.507 OA
ATOM     25  H   UNL     1       5.881   0.596  -5.016  1.00  0.00     0.293 HD
ENDBRANCH   9  24
BRANCH  10  26
ATOM     26  C   UNL     1       8.102   0.874  -6.939  1.00  0.00     0.188 C 
ATOM     27  C   UNL     1       8.848   0.735  -5.590  1.00  0.00     0.179 C 
ATOM     28  O   UNL     1       7.215   1.984  -6.945  1.00  0.00    -0.362 OA
ATOM     29  C   UNL     1       9.619   2.030  -5.271  1.00  0.00     0.177 C 
ATOM     30  C   UNL     1       7.875   3.229  -6.741  1.00  0.00     0.176 C 
ATOM     31  C   UNL     1       8.704   3.262  -5.427  1.00  0.00     0.177 C 
BRANCH  27  32
ATOM     32  O   UNL     1       7.982   0.374  -4.539  1.00  0.00    -0.387 OA
ATOM     33  H   UNL     1       8.173  -0.565  -4.291  1.00  0.00     0.211 HD
ENDBRANCH  27  32
BRANCH  29  34
ATOM     34  O   UNL     1      10.125   1.988  -3.960  1.00  0.00    -0.387 OA
ATOM     35  H   UNL     1       9.468   2.458  -3.384  1.00  0.00     0.211 HD
ENDBRANCH  29  34
BRANCH  30  36
ATOM     36  C   UNL     1       8.589   3.738  -8.016  1.00  0.00     0.191 C 
BRANCH  36  37
ATOM     37  O   UNL     1       8.667   5.135  -8.057  1.00  0.00    -0.394 OA
ATOM     38  H   UNL     1       7.738   5.460  -8.190  1.00  0.00     0.210 HD
ENDBRANCH  36  37
ENDBRANCH  30  36
BRANCH  31  39
ATOM     39  O   UNL     1       9.424   4.466  -5.298  1.00  0.00    -0.388 OA
ATOM     40  H   UNL     1       9.368   4.955  -6.160  1.00  0.00     0.211 HD
ENDBRANCH  31  39
ENDBRANCH  10  26
TORSDOF 11
ENDMDL
MODEL 6
REMARK VINA RESULT:    -4.013      6.790     12.442
REMARK INTER + INTRA:          -6.821
REMARK INTER:                  -6.540
REMARK INTRA:                  -0.281
REMARK UNBOUND:                -1.166
REMARK SMILES O=c1cc(-c2ccc(O)c(O)c2)oc2cc(O)c([C@H]3O[C@H](CO)[C@H](O)[C@@H](O)[C@H]3O)c(O)c12
REMARK SMILES IDX 4 1 3 2 2 3 1 4 32 5 14 6 13 7 15 8 16 9 18 10 30 11 5 12
REMARK SMILES IDX 6 13 7 14 8 15 12 16 10 17 9 18 11 20 31 22 17 24 19 26
REMARK SMILES IDX 28 27 20 28 26 29 21 30 24 31 29 32 27 34 22 36 23 37 25 39
REMARK H PARENT 9 19 11 21 31 23 17 25 29 33 27 35 23 38 25 40
REMARK Flexibility Score: inf
ROOT
ATOM      1  C   UNL     1       7.963   0.809  -6.146  1.00  0.00     0.138 A 
ATOM      2  C   UNL     1       8.960   0.627  -5.179  1.00  0.00     0.100 A 
ATOM      3  C   UNL     1       9.283   1.677  -4.318  1.00  0.00     0.197 A 
ATOM      4  O   UNL     1      10.125   1.460  -3.408  1.00  0.00    -0.289 OA
ATOM      5  C   UNL     1       8.638   2.930  -4.461  1.00  0.00     0.107 A 
ATOM      6  C   UNL     1       7.617   3.013  -5.438  1.00  0.00     0.146 A 
ATOM      7  O   UNL     1       7.340   1.981  -6.227  1.00  0.00    -0.456 OA
ATOM      8  C   UNL     1       6.875   4.180  -5.585  1.00  0.00     0.094 A 
ATOM      9  C   UNL     1       7.102   5.281  -4.758  1.00  0.00     0.128 A 
ATOM     10  C   UNL     1       8.113   5.237  -3.775  1.00  0.00     0.068 A 
ATOM     11  C   UNL     1       8.932   4.081  -3.672  1.00  0.00     0.140 A 
ENDROOT
BRANCH   1  12
ATOM     12  C   UNL     1       7.579  -0.271  -7.092  1.00  0.00     0.021 A 
ATOM     13  C   UNL     1       8.580  -0.959  -7.796  1.00  0.00     0.016 A 
ATOM     14  C   UNL     1       8.246  -1.974  -8.697  1.00  0.00     0.051 A 
ATOM     15  C   UNL     1       6.906  -2.311  -8.916  1.00  0.00     0.157 A 
ATOM     16  C   UNL     1       6.231  -0.605  -7.327  1.00  0.00     0.062 A 
ATOM     17  C   UNL     1       5.894  -1.620  -8.230  1.00  0.00     0.158 A 
BRANCH  15  18
ATOM     18  O   UNL     1       6.575  -3.325  -9.814  1.00  0.00    -0.504 OA
ATOM     19  H   UNL     1       6.129  -3.123 -10.701  1.00  0.00     0.293 HD
ENDBRANCH  15  18
BRANCH  17  20
ATOM     20  O   UNL     1       4.548  -1.924  -8.435  1.00  0.00    -0.504 OA
ATOM     21  H   UNL     1       3.855  -1.207  -8.610  1.00  0.00     0.293 HD
ENDBRANCH  17  20
ENDBRANCH   1  12
BRANCH  11  22
ATOM     22  O   UNL     1      10.035   4.128  -2.812  1.00  0.00    -0.506 OA
ATOM     23  H   UNL     1       9.980   4.011  -1.811  1.00  0.00     0.293 HD
ENDBRANCH  11  22
BRANCH   9  24
ATOM     24  O   UNL     1       6.326   6.430  -4.923  1.00  0.00    -0.507 OA
ATOM     25  H   UNL     1       5.540   6.456  -5.561  1.00  0.00     0.293 HD
ENDBRANCH   9  24
BRANCH  10  26
ATOM     26  C   UNL     1       8.362   6.478  -2.920  1.00  0.00     0.188 C 
ATOM     27  C   UNL     1       8.082   6.174  -1.427  1.00  0.00     0.179 C 
ATOM     28  O   UNL     1       7.592   7.574  -3.393  1.00  0.00    -0.362 OA
ATOM     29  C   UNL     1       8.356   7.423  -0.568  1.00  0.00     0.177 C 
ATOM     30  C   UNL     1       7.858   8.788  -2.698  1.00  0.00     0.176 C 
ATOM     31  C   UNL     1       7.650   8.659  -1.162  1.00  0.00     0.177 C 
BRANCH  27  32
ATOM     32  O   UNL     1       6.781   5.677  -1.222  1.00  0.00    -0.387 OA
ATOM     33  H   UNL     1       6.347   5.573  -2.105  1.00  0.00     0.211 HD
ENDBRANCH  27  32
BRANCH  29  34
ATOM     34  O   UNL     1       7.909   7.219   0.748  1.00  0.00    -0.387 OA
ATOM     35  H   UNL     1       8.470   6.495   1.132  1.00  0.00     0.211 HD
ENDBRANCH  29  34
BRANCH  30  36
ATOM     36  C   UNL     1       9.174   9.458  -3.157  1.00  0.00     0.191 C 
BRANCH  36  37
ATOM     37  O   UNL     1       9.073   9.989  -4.449  1.00  0.00    -0.394 OA
ATOM     38  H   UNL     1       8.668  10.889  -4.348  1.00  0.00     0.210 HD
ENDBRANCH  36  37
ENDBRANCH  30  36
BRANCH  31  39
ATOM     39  O   UNL     1       8.013   9.841  -0.489  1.00  0.00    -0.388 OA
ATOM     40  H   UNL     1       9.003   9.877  -0.437  1.00  0.00     0.211 HD
ENDBRANCH  31  39
ENDBRANCH  10  26
TORSDOF 11
ENDMDL
MODEL 7
REMARK VINA RESULT:    -3.996     11.507     16.308
REMARK INTER + INTRA:          -6.797
REMARK INTER:                  -5.635
REMARK INTRA:                  -1.162
REMARK UNBOUND:                -1.166
REMARK SMILES O=c1cc(-c2ccc(O)c(O)c2)oc2cc(O)c([C@H]3O[C@H](CO)[C@H](O)[C@@H](O)[C@H]3O)c(O)c12
REMARK SMILES IDX 4 1 3 2 2 3 1 4 32 5 14 6 13 7 15 8 16 9 18 10 30 11 5 12
REMARK SMILES IDX 6 13 7 14 8 15 12 16 10 17 9 18 11 20 31 22 17 24 19 26
REMARK SMILES IDX 28 27 20 28 26 29 21 30 24 31 29 32 27 34 22 36 23 37 25 39
REMARK H PARENT 9 19 11 21 31 23 17 25 29 33 27 35 23 38 25 40
REMARK Flexibility Score: inf
ROOT
ATOM      1  C   UNL     1       6.956   0.393  -7.733  1.00  0.00     0.138 A 
ATOM      2  C   UNL     1       8.143  -0.169  -8.222  1.00  0.00     0.100 A 
ATOM      3  C   UNL     1       8.254  -1.556  -8.330  1.00  0.00     0.197 A 
ATOM      4  O   UNL     1       9.300  -2.028  -8.847  1.00  0.00    -0.289 OA
ATOM      5  C   UNL     1       7.188  -2.384  -7.902  1.00  0.00     0.107 A 
ATOM      6  C   UNL     1       6.013  -1.732  -7.459  1.00  0.00     0.146 A 
ATOM      7  O   UNL     1       5.954  -0.407  -7.383  1.00  0.00    -0.456 OA
ATOM      8  C   UNL     1       4.888  -2.470  -7.103  1.00  0.00     0.094 A 
ATOM      9  C   UNL     1       4.886  -3.861  -7.199  1.00  0.00     0.128 A 
ATOM     10  C   UNL     1       6.040  -4.548  -7.633  1.00  0.00     0.068 A 
ATOM     11  C   UNL     1       7.220  -3.810  -7.920  1.00  0.00     0.140 A 
ENDROOT
BRANCH   1  12
ATOM     12  C   UNL     1       6.781   1.861  -7.591  1.00  0.00     0.021 A 
ATOM     13  C   UNL     1       7.409   2.723  -8.506  1.00  0.00     0.016 A 
ATOM     14  C   UNL     1       7.267   4.107  -8.391  1.00  0.00     0.051 A 
ATOM     15  C   UNL     1       6.502   4.657  -7.355  1.00  0.00     0.157 A 
ATOM     16  C   UNL     1       6.024   2.419  -6.542  1.00  0.00     0.062 A 
ATOM     17  C   UNL     1       5.882   3.807  -6.424  1.00  0.00     0.158 A 
BRANCH  15  18
ATOM     18  O   UNL     1       6.361   6.039  -7.243  1.00  0.00    -0.504 OA
ATOM     19  H   UNL     1       6.706   6.666  -7.960  1.00  0.00     0.293 HD
ENDBRANCH  15  18
BRANCH  17  20
ATOM     20  O   UNL     1       5.123   4.322  -5.373  1.00  0.00    -0.504 OA
ATOM     21  H   UNL     1       4.478   5.093  -5.502  1.00  0.00     0.293 HD
ENDBRANCH  17  20
ENDBRANCH   1  12
BRANCH  11  22
ATOM     22  O   UNL     1       8.397  -4.522  -8.179  1.00  0.00    -0.506 OA
ATOM     23  H   UNL     1       8.682  -4.833  -9.096  1.00  0.00     0.293 HD
ENDBRANCH  11  22
BRANCH   9  24
ATOM     24  O   UNL     1       3.735  -4.568  -6.848  1.00  0.00    -0.507 OA
ATOM     25  H   UNL     1       2.813  -4.258  -7.127  1.00  0.00     0.293 HD
ENDBRANCH   9  24
BRANCH  10  26
ATOM     26  C   UNL     1       6.015  -6.074  -7.681  1.00  0.00     0.188 C 
ATOM     27  C   UNL     1       6.498  -6.669  -6.336  1.00  0.00     0.179 C 
ATOM     28  O   UNL     1       6.778  -6.551  -8.780  1.00  0.00    -0.362 OA
ATOM     29  C   UNL     1       6.450  -8.208  -6.385  1.00  0.00     0.177 C 
ATOM     30  C   UNL     1       6.710  -7.965  -8.938  1.00  0.00     0.176 C 
ATOM     31  C   UNL     1       7.142  -8.735  -7.659  1.00  0.00     0.177 C 
BRANCH  27  32
ATOM     32  O   UNL     1       7.777  -6.200  -5.978  1.00  0.00    -0.387 OA
ATOM     33  H   UNL     1       7.793  -6.065  -4.998  1.00  0.00     0.211 HD
ENDBRANCH  27  32
BRANCH  29  34
ATOM     34  O   UNL     1       7.078  -8.754  -5.253  1.00  0.00    -0.387 OA
ATOM     35  H   UNL     1       7.579  -9.554  -5.560  1.00  0.00     0.211 HD
ENDBRANCH  29  34
BRANCH  30  36
ATOM     36  C   UNL     1       5.389  -8.424  -9.601  1.00  0.00     0.191 C 
BRANCH  36  37
ATOM     37  O   UNL     1       5.470  -9.734 -10.089  1.00  0.00    -0.394 OA
ATOM     38  H   UNL     1       4.541 -10.083 -10.098  1.00  0.00     0.210 HD
ENDBRANCH  36  37
ENDBRANCH  30  36
BRANCH  31  39
ATOM     39  O   UNL     1       6.972 -10.125  -7.808  1.00  0.00    -0.388 OA
ATOM     40  H   UNL     1       7.320 -10.570  -6.992  1.00  0.00     0.211 HD
ENDBRANCH  31  39
ENDBRANCH  10  26
TORSDOF 11
ENDMDL
MODEL 8
REMARK VINA RESULT:    -3.989      1.579      9.708
REMARK INTER + INTRA:          -6.787
REMARK INTER:                  -5.921
REMARK INTRA:                  -0.866
REMARK UNBOUND:                -1.166
REMARK SMILES O=c1cc(-c2ccc(O)c(O)c2)oc2cc(O)c([C@H]3O[C@H](CO)[C@H](O)[C@@H](O)[C@H]3O)c(O)c12
REMARK SMILES IDX 4 1 3 2 2 3 1 4 32 5 14 6 13 7 15 8 16 9 18 10 30 11 5 12
REMARK SMILES IDX 6 13 7 14 8 15 12 16 10 17 9 18 11 20 31 22 17 24 19 26
REMARK SMILES IDX 28 27 20 28 26 29 21 30 24 31 29 32 27 34 22 36 23 37 25 39
REMARK H PARENT 9 19 11 21 31 23 17 25 29 33 27 35 23 38 25 40
REMARK Flexibility Score: inf
ROOT
ATOM      1  C   UNL     1       7.072   6.953  -0.132  1.00  0.00     0.138 A 
ATOM      2  C   UNL     1       7.658   7.750   0.861  1.00  0.00     0.100 A 
ATOM      3  C   UNL     1       6.917   8.095   1.992  1.00  0.00     0.197 A 
ATOM      4  O   UNL     1       7.495   8.744   2.903  1.00  0.00    -0.289 OA
ATOM      5  C   UNL     1       5.568   7.680   2.105  1.00  0.00     0.107 A 
ATOM      6  C   UNL     1       5.069   6.847   1.076  1.00  0.00     0.146 A 
ATOM      7  O   UNL     1       5.818   6.539   0.023  1.00  0.00    -0.456 OA
ATOM      8  C   UNL     1       3.782   6.324   1.153  1.00  0.00     0.094 A 
ATOM      9  C   UNL     1       2.968   6.588   2.254  1.00  0.00     0.128 A 
ATOM     10  C   UNL     1       3.428   7.417   3.298  1.00  0.00     0.068 A 
ATOM     11  C   UNL     1       4.709   8.023   3.191  1.00  0.00     0.140 A 
ENDROOT
BRANCH   1  12
ATOM     12  C   UNL     1       7.809   6.557  -1.359  1.00  0.00     0.021 A 
ATOM     13  C   UNL     1       8.064   7.519  -2.351  1.00  0.00     0.016 A 
ATOM     14  C   UNL     1       8.748   7.172  -3.518  1.00  0.00     0.051 A 
ATOM     15  C   UNL     1       9.182   5.857  -3.719  1.00  0.00     0.157 A 
ATOM     16  C   UNL     1       8.236   5.232  -1.573  1.00  0.00     0.062 A 
ATOM     17  C   UNL     1       8.920   4.882  -2.742  1.00  0.00     0.158 A 
BRANCH  15  18
ATOM     18  O   UNL     1       9.866   5.513  -4.884  1.00  0.00    -0.504 OA
ATOM     19  H   UNL     1       9.416   4.996  -5.631  1.00  0.00     0.293 HD
ENDBRANCH  15  18
BRANCH  17  20
ATOM     20  O   UNL     1       9.328   3.559  -2.917  1.00  0.00    -0.504 OA
ATOM     21  H   UNL     1       8.780   2.778  -2.579  1.00  0.00     0.293 HD
ENDBRANCH  17  20
ENDBRANCH   1  12
BRANCH  11  22
ATOM     22  O   UNL     1       5.071   8.975   4.151  1.00  0.00    -0.506 OA
ATOM     23  H   UNL     1       5.573   8.762   5.001  1.00  0.00     0.293 HD
ENDBRANCH  11  22
BRANCH   9  24
ATOM     24  O   UNL     1       1.688   6.033   2.305  1.00  0.00    -0.507 OA
ATOM     25  H   UNL     1       1.422   5.251   1.720  1.00  0.00     0.293 HD
ENDBRANCH   9  24
BRANCH  10  26
ATOM     26  C   UNL     1       2.491   7.720   4.466  1.00  0.00     0.188 C 
ATOM     27  C   UNL     1       1.419   8.756   4.048  1.00  0.00     0.179 C 
ATOM     28  O   UNL     1       3.230   8.146   5.602  1.00  0.00    -0.362 OA
ATOM     29  C   UNL     1       0.465   9.041   5.224  1.00  0.00     0.177 C 
ATOM     30  C   UNL     1       2.419   8.346   6.755  1.00  0.00     0.176 C 
ATOM     31  C   UNL     1       1.260   9.353   6.508  1.00  0.00     0.177 C 
BRANCH  27  32
ATOM     32  O   UNL     1       1.994   9.940   3.547  1.00  0.00    -0.387 OA
ATOM     33  H   UNL     1       2.459  10.397   4.291  1.00  0.00     0.211 HD
ENDBRANCH  27  32
BRANCH  29  34
ATOM     34  O   UNL     1      -0.375  10.125   4.920  1.00  0.00    -0.387 OA
ATOM     35  H   UNL     1      -1.276   9.896   5.269  1.00  0.00     0.211 HD
ENDBRANCH  29  34
BRANCH  30  36
ATOM     36  C   UNL     1       2.036   7.017   7.449  1.00  0.00     0.191 C 
BRANCH  36  37
ATOM     37  O   UNL     1       1.595   7.215   8.763  1.00  0.00    -0.394 OA
ATOM     38  H   UNL     1       1.659   8.191   8.932  1.00  0.00     0.210 HD
ENDBRANCH  36  37
ENDBRANCH  30  36
BRANCH  31  39
ATOM     39  O   UNL     1       0.417   9.458   7.631  1.00  0.00    -0.388 OA
ATOM     40  H   UNL     1      -0.352   8.844   7.501  1.00  0.00     0.211 HD
ENDBRANCH  31  39
ENDBRANCH  10  26
TORSDOF 11
ENDMDL
MODEL 9
REMARK VINA RESULT:    -3.973      6.654      9.511
REMARK INTER + INTRA:          -6.764
REMARK INTER:                  -5.934
REMARK INTRA:                  -0.830
REMARK UNBOUND:                -1.166
REMARK SMILES O=c1cc(-c2ccc(O)c(O)c2)oc2cc(O)c([C@H]3O[C@H](CO)[C@H](O)[C@@H](O)[C@H]3O)c(O)c12
REMARK SMILES IDX 4 1 3 2 2 3 1 4 32 5 14 6 13 7 15 8 16 9 18 10 30 11 5 12
REMARK SMILES IDX 6 13 7 14 8 15 12 16 10 17 9 18 11 20 31 22 17 24 19 26
REMARK SMILES IDX 28 27 20 28 26 29 21 30 24 31 29 32 27 34 22 36 23 37 25 39
REMARK H PARENT 9 19 11 21 31 23 17 25 29 33 27 35 23 38 25 40
REMARK Flexibility Score: inf
ROOT
ATOM      1  C   UNL     1       8.931   6.018  -0.799  1.00  0.00     0.138 A 
ATOM      2  C   UNL     1       8.144   6.746  -1.701  1.00  0.00     0.100 A 
ATOM      3  C   UNL     1       7.895   6.227  -2.973  1.00  0.00     0.197 A 
ATOM      4  O   UNL     1       7.121   6.865  -3.732  1.00  0.00    -0.289 OA
ATOM      5  C   UNL     1       8.477   4.994  -3.357  1.00  0.00     0.107 A 
ATOM      6  C   UNL     1       9.224   4.308  -2.371  1.00  0.00     0.146 A 
ATOM      7  O   UNL     1       9.425   4.841  -1.171  1.00  0.00    -0.456 OA
ATOM      8  C   UNL     1       9.758   3.050  -2.637  1.00  0.00     0.094 A 
ATOM      9  C   UNL     1       9.546   2.431  -3.869  1.00  0.00     0.128 A 
ATOM     10  C   UNL     1       8.809   3.085  -4.879  1.00  0.00     0.068 A 
ATOM     11  C   UNL     1       8.331   4.403  -4.646  1.00  0.00     0.140 A 
ENDROOT
BRANCH   1  12
ATOM     12  C   UNL     1       9.234   6.521   0.565  1.00  0.00     0.021 A 
ATOM     13  C   UNL     1       9.422   7.899   0.766  1.00  0.00     0.016 A 
ATOM     14  C   UNL     1       9.715   8.398   2.037  1.00  0.00     0.051 A 
ATOM     15  C   UNL     1       9.834   7.530   3.128  1.00  0.00     0.157 A 
ATOM     16  C   UNL     1       9.368   5.650   1.664  1.00  0.00     0.062 A 
ATOM     17  C   UNL     1       9.663   6.149   2.938  1.00  0.00     0.158 A 
BRANCH  15  18
ATOM     18  O   UNL     1      10.125   8.031   4.396  1.00  0.00    -0.504 OA
ATOM     19  H   UNL     1      10.841   7.614   4.979  1.00  0.00     0.293 HD
ENDBRANCH  15  18
BRANCH  17  20
ATOM     20  O   UNL     1       9.787   5.255   4.002  1.00  0.00    -0.504 OA
ATOM     21  H   UNL     1       9.146   4.481   4.132  1.00  0.00     0.293 HD
ENDBRANCH  17  20
ENDBRANCH   1  12
BRANCH  11  22
ATOM     22  O   UNL     1       7.757   5.095  -5.719  1.00  0.00    -0.506 OA
ATOM     23  H   UNL     1       6.813   4.953  -6.046  1.00  0.00     0.293 HD
ENDBRANCH  11  22
BRANCH   9  24
ATOM     24  O   UNL     1      10.081   1.162  -4.096  1.00  0.00    -0.507 OA
ATOM     25  H   UNL     1      11.078   0.989  -4.059  1.00  0.00     0.293 HD
ENDBRANCH   9  24
BRANCH  10  26
ATOM     26  C   UNL     1       8.636   2.394  -6.230  1.00  0.00     0.188 C 
ATOM     27  C   UNL     1       7.292   1.627  -6.281  1.00  0.00     0.179 C 
ATOM     28  O   UNL     1       9.743   1.546  -6.502  1.00  0.00    -0.362 OA
ATOM     29  C   UNL     1       7.115   0.951  -7.653  1.00  0.00     0.177 C 
ATOM     30  C   UNL     1       9.689   0.951  -7.794  1.00  0.00     0.176 C 
ATOM     31  C   UNL     1       8.378   0.151  -8.034  1.00  0.00     0.177 C 
BRANCH  27  32
ATOM     32  O   UNL     1       7.168   0.703  -5.226  1.00  0.00    -0.387 OA
ATOM     33  H   UNL     1       6.448   0.065  -5.457  1.00  0.00     0.211 HD
ENDBRANCH  27  32
BRANCH  29  34
ATOM     34  O   UNL     1       6.005   0.089  -7.635  1.00  0.00    -0.387 OA
ATOM     35  H   UNL     1       6.361  -0.836  -7.576  1.00  0.00     0.211 HD
ENDBRANCH  29  34
BRANCH  30  36
ATOM     36  C   UNL     1      10.109   1.930  -8.916  1.00  0.00     0.191 C 
BRANCH  36  37
ATOM     37  O   UNL     1       9.032   2.284  -9.739  1.00  0.00    -0.394 OA
ATOM     38  H   UNL     1       8.856   1.496 -10.317  1.00  0.00     0.210 HD
ENDBRANCH  36  37
ENDBRANCH  30  36
BRANCH  31  39
ATOM     39  O   UNL     1       8.305  -0.344  -9.350  1.00  0.00    -0.388 OA
ATOM     40  H   UNL     1       8.092  -1.313  -9.306  1.00  0.00     0.211 HD
ENDBRANCH  31  39
ENDBRANCH  10  26
TORSDOF 11
ENDMDL
