MODEL 1
REMARK VINA RESULT:    -4.243      0.000      0.000
REMARK INTER + INTRA:          -6.028
REMARK INTER:                  -5.360
REMARK INTRA:                  -0.668
REMARK UNBOUND:                -0.668
REMARK SMILES O=C(C=Cc1ccc(O)cc1)c1ccc(O)cc1O
REMARK SMILES IDX 4 1 3 2 5 3 6 4 7 5 8 6 11 7 10 8 9 9 2 11 1 12 12 13 18 14
REMARK SMILES IDX 13 15 17 16 14 17 15 18 19 19 16 21
REMARK H PARENT 9 10 19 20 16 22
REMARK Flexibility Score: inf
ROOT
ATOM      1  C   UNL     1     -19.142  15.486   8.843  1.00  0.00     0.012 C 
ATOM      2  C   UNL     1     -19.609  14.746   9.861  1.00  0.00     0.053 C 
ENDROOT
BRANCH   1   3
ATOM      3  C   UNL     1     -18.170  14.986   7.841  1.00  0.00    -0.025 A 
ATOM      4  C   UNL     1     -18.659  14.314   6.707  1.00  0.00     0.012 A 
ATOM      5  C   UNL     1     -17.781  13.816   5.741  1.00  0.00     0.047 A 
ATOM      6  C   UNL     1     -16.399  13.972   5.899  1.00  0.00     0.115 A 
ATOM      7  C   UNL     1     -16.776  15.124   8.000  1.00  0.00     0.012 A 
ATOM      8  C   UNL     1     -15.901  14.624   7.030  1.00  0.00     0.047 A 
BRANCH   6   9
ATOM      9  O   UNL     1     -15.513  13.480   4.943  1.00  0.00    -0.508 OA
ATOM     10  H   UNL     1     -15.588  13.743   3.967  1.00  0.00     0.293 HD
ENDBRANCH   6   9
ENDBRANCH   1   3
BRANCH   2  11
ATOM     11  C   UNL     1     -20.565  15.286  10.854  1.00  0.00     0.189 C 
ATOM     12  O   UNL     1     -20.169  16.125  11.711  1.00  0.00    -0.289 OA
BRANCH  11  13
ATOM     13  C   UNL     1     -21.984  14.848  10.866  1.00  0.00     0.064 A 
ATOM     14  C   UNL     1     -22.540  14.222  12.003  1.00  0.00     0.130 A 
ATOM     15  C   UNL     1     -22.804  15.073   9.743  1.00  0.00     0.020 A 
ATOM     16  C   UNL     1     -23.888  13.831  12.000  1.00  0.00     0.093 A 
ATOM     17  C   UNL     1     -24.143  14.677   9.749  1.00  0.00     0.047 A 
ATOM     18  C   UNL     1     -24.688  14.056  10.875  1.00  0.00     0.119 A 
BRANCH  14  19
ATOM     19  O   UNL     1     -21.754  13.974  13.129  1.00  0.00    -0.507 OA
ATOM     20  H   UNL     1     -21.328  13.069  13.292  1.00  0.00     0.293 HD
ENDBRANCH  14  19
BRANCH  18  21
ATOM     21  O   UNL     1     -26.026  13.669  10.865  1.00  0.00    -0.508 OA
ATOM     22  H   UNL     1     -26.490  13.346  11.705  1.00  0.00     0.293 HD
ENDBRANCH  18  21
ENDBRANCH  11  13
ENDBRANCH   2  11
TORSDOF 6
ENDMDL
MODEL 2
REMARK VINA RESULT:    -4.189      6.105      8.158
REMARK INTER + INTRA:          -5.959
REMARK INTER:                  -5.212
REMARK INTRA:                  -0.747
REMARK UNBOUND:                -0.668
REMARK SMILES O=C(C=Cc1ccc(O)cc1)c1ccc(O)cc1O
REMARK SMILES IDX 4 1 3 2 5 3 6 4 7 5 8 6 11 7 10 8 9 9 2 11 1 12 12 13 18 14
REMARK SMILES IDX 13 15 17 16 14 17 15 18 19 19 16 21
REMARK H PARENT 9 10 19 20 16 22
REMARK Flexibility Score: inf
ROOT
ATOM      1  C   UNL     1     -12.971  14.167   5.199  1.00  0.00     0.012 C 
ATOM      2  C   UNL     1     -13.957  14.967   5.633  1.00  0.00     0.053 C 
ENDROOT
BRANCH   1   3
ATOM      3  C   UNL     1     -11.560  14.601   5.064  1.00  0.00    -0.025 A 
ATOM      4  C   UNL     1     -10.568  13.895   5.767  1.00  0.00     0.012 A 
ATOM      5  C   UNL     1      -9.226  14.274   5.678  1.00  0.00     0.047 A 
ATOM      6  C   UNL     1      -8.855  15.373   4.895  1.00  0.00     0.115 A 
ATOM      7  C   UNL     1     -11.179  15.717   4.290  1.00  0.00     0.012 A 
ATOM      8  C   UNL     1      -9.834  16.093   4.205  1.00  0.00     0.047 A 
BRANCH   6   9
ATOM      9  O   UNL     1      -7.521  15.761   4.798  1.00  0.00    -0.508 OA
ATOM     10  H   UNL     1      -7.183  16.610   5.238  1.00  0.00     0.293 HD
ENDBRANCH   6   9
ENDBRANCH   1   3
BRANCH   2  11
ATOM     11  C   UNL     1     -15.360  14.504   5.737  1.00  0.00     0.189 C 
ATOM     12  O   UNL     1     -16.254  15.058   5.040  1.00  0.00    -0.289 OA
BRANCH  11  13
ATOM     13  C   UNL     1     -15.734  13.400   6.658  1.00  0.00     0.064 A 
ATOM     14  C   UNL     1     -16.376  12.239   6.174  1.00  0.00     0.130 A 
ATOM     15  C   UNL     1     -15.432  13.490   8.031  1.00  0.00     0.020 A 
ATOM     16  C   UNL     1     -16.706  11.200   7.058  1.00  0.00     0.093 A 
ATOM     17  C   UNL     1     -15.768  12.452   8.903  1.00  0.00     0.047 A 
ATOM     18  C   UNL     1     -16.405  11.306   8.420  1.00  0.00     0.119 A 
BRANCH  14  19
ATOM     19  O   UNL     1     -16.699  12.121   4.822  1.00  0.00    -0.507 OA
ATOM     20  H   UNL     1     -16.204  11.482   4.210  1.00  0.00     0.293 HD
ENDBRANCH  14  19
BRANCH  18  21
ATOM     21  O   UNL     1     -16.732  10.279   9.302  1.00  0.00    -0.508 OA
ATOM     22  H   UNL     1     -16.511   9.312   9.096  1.00  0.00     0.293 HD
ENDBRANCH  18  21
ENDBRANCH  11  13
ENDBRANCH   2  11
TORSDOF 6
ENDMDL
MODEL 3
REMARK VINA RESULT:    -4.176      5.829      8.290
REMARK INTER + INTRA:          -5.942
REMARK INTER:                  -5.385
REMARK INTRA:                  -0.557
REMARK UNBOUND:                -0.668
REMARK SMILES O=C(C=Cc1ccc(O)cc1)c1ccc(O)cc1O
REMARK SMILES IDX 4 1 3 2 5 3 6 4 7 5 8 6 11 7 10 8 9 9 2 11 1 12 12 13 18 14
REMARK SMILES IDX 13 15 17 16 14 17 15 18 19 19 16 21
REMARK H PARENT 9 10 19 20 16 22
REMARK Flexibility Score: inf
ROOT
ATOM      1  C   UNL     1     -12.520  15.006   5.397  1.00  0.00     0.012 C 
ATOM      2  C   UNL     1     -13.329  13.940   5.294  1.00  0.00     0.053 C 
ENDROOT
BRANCH   1   3
ATOM      3  C   UNL     1     -11.073  14.974   5.070  1.00  0.00    -0.025 A 
ATOM      4  C   UNL     1     -10.314  13.867   5.485  1.00  0.00     0.012 A 
ATOM      5  C   UNL     1      -8.945  13.798   5.208  1.00  0.00     0.047 A 
ATOM      6  C   UNL     1      -8.313  14.842   4.522  1.00  0.00     0.115 A 
ATOM      7  C   UNL     1     -10.425  16.028   4.393  1.00  0.00     0.012 A 
ATOM      8  C   UNL     1      -9.055  15.955   4.118  1.00  0.00     0.047 A 
BRANCH   6   9
ATOM      9  O   UNL     1      -6.951  14.785   4.240  1.00  0.00    -0.508 OA
ATOM     10  H   UNL     1      -6.258  14.749   4.979  1.00  0.00     0.293 HD
ENDBRANCH   6   9
ENDBRANCH   1   3
BRANCH   2  11
ATOM     11  C   UNL     1     -14.765  14.004   5.648  1.00  0.00     0.189 C 
ATOM     12  O   UNL     1     -15.505  14.869   5.101  1.00  0.00    -0.289 OA
BRANCH  11  13
ATOM     13  C   UNL     1     -15.349  13.071   6.644  1.00  0.00     0.064 A 
ATOM     14  C   UNL     1     -15.611  13.493   7.967  1.00  0.00     0.130 A 
ATOM     15  C   UNL     1     -15.672  11.751   6.274  1.00  0.00     0.020 A 
ATOM     16  C   UNL     1     -16.179  12.600   8.888  1.00  0.00     0.093 A 
ATOM     17  C   UNL     1     -16.235  10.869   7.200  1.00  0.00     0.047 A 
ATOM     18  C   UNL     1     -16.490  11.290   8.507  1.00  0.00     0.119 A 
BRANCH  14  19
ATOM     19  O   UNL     1     -15.294  14.790   8.371  1.00  0.00    -0.507 OA
ATOM     20  H   UNL     1     -15.971  15.543   8.321  1.00  0.00     0.293 HD
ENDBRANCH  14  19
BRANCH  18  21
ATOM     21  O   UNL     1     -17.052  10.398   9.418  1.00  0.00    -0.508 OA
ATOM     22  H   UNL     1     -17.422  10.713  10.307  1.00  0.00     0.293 HD
ENDBRANCH  18  21
ENDBRANCH  11  13
ENDBRANCH   2  11
TORSDOF 6
ENDMDL
MODEL 4
REMARK VINA RESULT:    -4.161      1.764      2.893
REMARK INTER + INTRA:          -5.923
REMARK INTER:                  -5.622
REMARK INTRA:                  -0.301
REMARK UNBOUND:                -0.668
REMARK SMILES O=C(C=Cc1ccc(O)cc1)c1ccc(O)cc1O
REMARK SMILES IDX 4 1 3 2 5 3 6 4 7 5 8 6 11 7 10 8 9 9 2 11 1 12 12 13 18 14
REMARK SMILES IDX 13 15 17 16 14 17 15 18 19 19 16 21
REMARK H PARENT 9 10 19 20 16 22
REMARK Flexibility Score: inf
ROOT
ATOM      1  C   UNL     1     -18.482  14.562   8.020  1.00  0.00     0.012 C 
ATOM      2  C   UNL     1     -19.335  15.519   7.623  1.00  0.00     0.053 C 
ENDROOT
BRANCH   1   3
ATOM      3  C   UNL     1     -17.129  14.376   7.441  1.00  0.00    -0.025 A 
ATOM      4  C   UNL     1     -16.721  13.078   7.088  1.00  0.00     0.012 A 
ATOM      5  C   UNL     1     -15.452  12.853   6.548  1.00  0.00     0.047 A 
ATOM      6  C   UNL     1     -14.566  13.921   6.364  1.00  0.00     0.115 A 
ATOM      7  C   UNL     1     -16.224  15.443   7.266  1.00  0.00     0.012 A 
ATOM      8  C   UNL     1     -14.955  15.213   6.725  1.00  0.00     0.047 A 
BRANCH   6   9
ATOM      9  O   UNL     1     -13.299  13.710   5.827  1.00  0.00    -0.508 OA
ATOM     10  H   UNL     1     -12.675  13.003   6.202  1.00  0.00     0.293 HD
ENDBRANCH   6   9
ENDBRANCH   1   3
BRANCH   2  11
ATOM     11  C   UNL     1     -20.686  15.663   8.212  1.00  0.00     0.189 C 
ATOM     12  O   UNL     1     -21.628  16.125   7.509  1.00  0.00    -0.289 OA
BRANCH  11  13
ATOM     13  C   UNL     1     -20.950  15.281   9.622  1.00  0.00     0.064 A 
ATOM     14  C   UNL     1     -22.201  14.748  10.007  1.00  0.00     0.130 A 
ATOM     15  C   UNL     1     -19.943  15.425  10.596  1.00  0.00     0.020 A 
ATOM     16  C   UNL     1     -22.424  14.377  11.342  1.00  0.00     0.093 A 
ATOM     17  C   UNL     1     -20.177  15.055  11.923  1.00  0.00     0.047 A 
ATOM     18  C   UNL     1     -21.415  14.531  12.299  1.00  0.00     0.119 A 
BRANCH  14  19
ATOM     19  O   UNL     1     -23.225  14.601   9.071  1.00  0.00    -0.507 OA
ATOM     20  H   UNL     1     -23.293  15.202   8.258  1.00  0.00     0.293 HD
ENDBRANCH  14  19
BRANCH  18  21
ATOM     21  O   UNL     1     -21.632  14.167  13.626  1.00  0.00    -0.508 OA
ATOM     22  H   UNL     1     -22.163  13.339  13.868  1.00  0.00     0.293 HD
ENDBRANCH  18  21
ENDBRANCH  11  13
ENDBRANCH   2  11
TORSDOF 6
ENDMDL
MODEL 5
REMARK VINA RESULT:    -4.118      2.007      7.504
REMARK INTER + INTRA:          -5.869
REMARK INTER:                  -5.308
REMARK INTRA:                  -0.561
REMARK UNBOUND:                -0.668
REMARK SMILES O=C(C=Cc1ccc(O)cc1)c1ccc(O)cc1O
REMARK SMILES IDX 4 1 3 2 5 3 6 4 7 5 8 6 11 7 10 8 9 9 2 11 1 12 12 13 18 14
REMARK SMILES IDX 13 15 17 16 14 17 15 18 19 19 16 21
REMARK H PARENT 9 10 19 20 16 22
REMARK Flexibility Score: inf
ROOT
ATOM      1  C   UNL     1     -20.221  15.366   9.070  1.00  0.00     0.012 C 
ATOM      2  C   UNL     1     -20.364  15.354   7.736  1.00  0.00     0.053 C 
ENDROOT
BRANCH   1   3
ATOM      3  C   UNL     1     -21.360  15.341  10.020  1.00  0.00    -0.025 A 
ATOM      4  C   UNL     1     -22.523  16.059   9.694  1.00  0.00     0.012 A 
ATOM      5  C   UNL     1     -23.618  16.072  10.563  1.00  0.00     0.047 A 
ATOM      6  C   UNL     1     -23.562  15.377  11.777  1.00  0.00     0.115 A 
ATOM      7  C   UNL     1     -21.306  14.657  11.252  1.00  0.00     0.012 A 
ATOM      8  C   UNL     1     -22.404  14.673  12.118  1.00  0.00     0.047 A 
BRANCH   6   9
ATOM      9  O   UNL     1     -24.646  15.383  12.651  1.00  0.00    -0.508 OA
ATOM     10  H   UNL     1     -24.712  16.054  13.408  1.00  0.00     0.293 HD
ENDBRANCH   6   9
ENDBRANCH   1   3
BRANCH   2  11
ATOM     11  C   UNL     1     -19.203  15.400   6.818  1.00  0.00     0.189 C 
ATOM     12  O   UNL     1     -19.252  16.124   5.785  1.00  0.00    -0.289 OA
BRANCH  11  13
ATOM     13  C   UNL     1     -17.983  14.598   7.089  1.00  0.00     0.064 A 
ATOM     14  C   UNL     1     -17.892  13.252   6.670  1.00  0.00     0.130 A 
ATOM     15  C   UNL     1     -16.885  15.181   7.752  1.00  0.00     0.020 A 
ATOM     16  C   UNL     1     -16.723  12.517   6.921  1.00  0.00     0.093 A 
ATOM     17  C   UNL     1     -15.728  14.439   7.999  1.00  0.00     0.047 A 
ATOM     18  C   UNL     1     -15.643  13.108   7.585  1.00  0.00     0.119 A 
BRANCH  14  19
ATOM     19  O   UNL     1     -18.964  12.640   6.020  1.00  0.00    -0.507 OA
ATOM     20  H   UNL     1     -18.880  11.718   5.607  1.00  0.00     0.293 HD
ENDBRANCH  14  19
BRANCH  18  21
ATOM     21  O   UNL     1     -14.481  12.383   7.838  1.00  0.00    -0.508 OA
ATOM     22  H   UNL     1     -14.478  11.370   7.838  1.00  0.00     0.293 HD
ENDBRANCH  18  21
ENDBRANCH  11  13
ENDBRANCH   2  11
TORSDOF 6
ENDMDL
MODEL 6
REMARK VINA RESULT:    -3.769      6.277     11.387
REMARK INTER + INTRA:          -5.428
REMARK INTER:                  -4.860
REMARK INTRA:                  -0.568
REMARK UNBOUND:                -0.668
REMARK SMILES O=C(C=Cc1ccc(O)cc1)c1ccc(O)cc1O
REMARK SMILES IDX 4 1 3 2 5 3 6 4 7 5 8 6 11 7 10 8 9 9 2 11 1 12 12 13 18 14
REMARK SMILES IDX 13 15 17 16 14 17 15 18 19 19 16 21
REMARK H PARENT 9 10 19 20 16 22
REMARK Flexibility Score: inf
ROOT
ATOM      1  C   UNL     1     -13.539  14.353   5.953  1.00  0.00     0.012 C 
ATOM      2  C   UNL     1     -12.406  13.880   5.411  1.00  0.00     0.053 C 
ENDROOT
BRANCH   1   3
ATOM      3  C   UNL     1     -14.787  13.560   6.069  1.00  0.00    -0.025 A 
ATOM      4  C   UNL     1     -14.975  12.765   7.213  1.00  0.00     0.012 A 
ATOM      5  C   UNL     1     -16.131  11.994   7.362  1.00  0.00     0.047 A 
ATOM      6  C   UNL     1     -17.111  11.995   6.363  1.00  0.00     0.115 A 
ATOM      7  C   UNL     1     -15.773  13.543   5.061  1.00  0.00     0.012 A 
ATOM      8  C   UNL     1     -16.928  12.769   5.214  1.00  0.00     0.047 A 
BRANCH   6   9
ATOM      9  O   UNL     1     -18.267  11.231   6.500  1.00  0.00    -0.508 OA
ATOM     10  H   UNL     1     -18.971  11.454   7.195  1.00  0.00     0.293 HD
ENDBRANCH   6   9
ENDBRANCH   1   3
BRANCH   2  11
ATOM     11  C   UNL     1     -11.184  14.708   5.294  1.00  0.00     0.189 C 
ATOM     12  O   UNL     1     -11.241  15.830   4.718  1.00  0.00    -0.289 OA
BRANCH  11  13
ATOM     13  C   UNL     1      -9.885  14.234   5.837  1.00  0.00     0.064 A 
ATOM     14  C   UNL     1      -9.359  14.773   7.032  1.00  0.00     0.130 A 
ATOM     15  C   UNL     1      -9.168  13.218   5.175  1.00  0.00     0.020 A 
ATOM     16  C   UNL     1      -8.139  14.299   7.538  1.00  0.00     0.093 A 
ATOM     17  C   UNL     1      -7.953  12.757   5.685  1.00  0.00     0.047 A 
ATOM     18  C   UNL     1      -7.435  13.294   6.865  1.00  0.00     0.119 A 
BRANCH  14  19
ATOM     19  O   UNL     1     -10.038  15.787   7.709  1.00  0.00    -0.507 OA
ATOM     20  H   UNL     1     -11.015  15.697   7.961  1.00  0.00     0.293 HD
ENDBRANCH  14  19
BRANCH  18  21
ATOM     21  O   UNL     1      -6.222  12.822   7.362  1.00  0.00    -0.508 OA
ATOM     22  H   UNL     1      -5.352  13.310   7.188  1.00  0.00     0.293 HD
ENDBRANCH  18  21
ENDBRANCH  11  13
ENDBRANCH   2  11
TORSDOF 6
ENDMDL
MODEL 7
REMARK VINA RESULT:    -3.755      1.777      7.721
REMARK INTER + INTRA:          -5.411
REMARK INTER:                  -4.948
REMARK INTRA:                  -0.463
REMARK UNBOUND:                -0.668
REMARK SMILES O=C(C=Cc1ccc(O)cc1)c1ccc(O)cc1O
REMARK SMILES IDX 4 1 3 2 5 3 6 4 7 5 8 6 11 7 10 8 9 9 2 11 1 12 12 13 18 14
REMARK SMILES IDX 13 15 17 16 14 17 15 18 19 19 16 21
REMARK H PARENT 9 10 19 20 16 22
REMARK Flexibility Score: inf
ROOT
ATOM      1  C   UNL     1     -19.835  15.318   8.273  1.00  0.00     0.012 C 
ATOM      2  C   UNL     1     -19.949  14.624   7.130  1.00  0.00     0.053 C 
ENDROOT
BRANCH   1   3
ATOM      3  C   UNL     1     -20.788  15.203   9.403  1.00  0.00    -0.025 A 
ATOM      4  C   UNL     1     -22.151  15.451   9.163  1.00  0.00     0.012 A 
ATOM      5  C   UNL     1     -23.084  15.364  10.199  1.00  0.00     0.047 A 
ATOM      6  C   UNL     1     -22.667  15.040  11.496  1.00  0.00     0.115 A 
ATOM      7  C   UNL     1     -20.376  14.892  10.716  1.00  0.00     0.012 A 
ATOM      8  C   UNL     1     -21.313  14.807  11.750  1.00  0.00     0.047 A 
BRANCH   6   9
ATOM      9  O   UNL     1     -23.587  14.950  12.537  1.00  0.00    -0.508 OA
ATOM     10  H   UNL     1     -24.424  15.524  12.556  1.00  0.00     0.293 HD
ENDBRANCH   6   9
ENDBRANCH   1   3
BRANCH   2  11
ATOM     11  C   UNL     1     -18.988  14.778   6.015  1.00  0.00     0.189 C 
ATOM     12  O   UNL     1     -19.381  15.256   4.913  1.00  0.00    -0.289 OA
BRANCH  11  13
ATOM     13  C   UNL     1     -17.568  14.372   6.167  1.00  0.00     0.064 A 
ATOM     14  C   UNL     1     -17.206  13.008   6.220  1.00  0.00     0.130 A 
ATOM     15  C   UNL     1     -16.556  15.350   6.240  1.00  0.00     0.020 A 
ATOM     16  C   UNL     1     -15.856  12.646   6.347  1.00  0.00     0.093 A 
ATOM     17  C   UNL     1     -15.216  14.978   6.369  1.00  0.00     0.047 A 
ATOM     18  C   UNL     1     -14.862  13.628   6.423  1.00  0.00     0.119 A 
BRANCH  14  19
ATOM     19  O   UNL     1     -18.183  12.014   6.161  1.00  0.00    -0.507 OA
ATOM     20  H   UNL     1     -19.170  12.235   6.217  1.00  0.00     0.293 HD
ENDBRANCH  14  19
BRANCH  18  21
ATOM     21  O   UNL     1     -13.521  13.274   6.552  1.00  0.00    -0.508 OA
ATOM     22  H   UNL     1     -12.811  13.655   5.938  1.00  0.00     0.293 HD
ENDBRANCH  18  21
ENDBRANCH  11  13
ENDBRANCH   2  11
TORSDOF 6
ENDMDL
MODEL 8
REMARK VINA RESULT:    -3.684      4.607      7.644
REMARK INTER + INTRA:          -5.320
REMARK INTER:                  -4.665
REMARK INTRA:                  -0.656
REMARK UNBOUND:                -0.668
REMARK SMILES O=C(C=Cc1ccc(O)cc1)c1ccc(O)cc1O
REMARK SMILES IDX 4 1 3 2 5 3 6 4 7 5 8 6 11 7 10 8 9 9 2 11 1 12 12 13 18 14
REMARK SMILES IDX 13 15 17 16 14 17 15 18 19 19 16 21
REMARK H PARENT 9 10 19 20 16 22
REMARK Flexibility Score: inf
ROOT
ATOM      1  C   UNL     1     -19.717  13.053   5.370  1.00  0.00     0.012 C 
ATOM      2  C   UNL     1     -18.776  13.251   4.435  1.00  0.00     0.053 C 
ENDROOT
BRANCH   1   3
ATOM      3  C   UNL     1     -21.172  13.050   5.084  1.00  0.00    -0.025 A 
ATOM      4  C   UNL     1     -21.679  12.097   4.184  1.00  0.00     0.012 A 
ATOM      5  C   UNL     1     -23.042  12.063   3.877  1.00  0.00     0.047 A 
ATOM      6  C   UNL     1     -23.918  12.989   4.455  1.00  0.00     0.115 A 
ATOM      7  C   UNL     1     -22.059  13.990   5.649  1.00  0.00     0.012 A 
ATOM      8  C   UNL     1     -23.422  13.952   5.338  1.00  0.00     0.047 A 
BRANCH   6   9
ATOM      9  O   UNL     1     -25.278  12.965   4.157  1.00  0.00    -0.508 OA
ATOM     10  H   UNL     1     -25.923  13.628   4.573  1.00  0.00     0.293 HD
ENDBRANCH   6   9
ENDBRANCH   1   3
BRANCH   2  11
ATOM     11  C   UNL     1     -17.331  13.266   4.760  1.00  0.00     0.189 C 
ATOM     12  O   UNL     1     -16.501  13.676   3.902  1.00  0.00    -0.289 OA
BRANCH  11  13
ATOM     13  C   UNL     1     -16.841  12.797   6.081  1.00  0.00     0.064 A 
ATOM     14  C   UNL     1     -16.499  13.718   7.096  1.00  0.00     0.130 A 
ATOM     15  C   UNL     1     -16.729  11.418   6.347  1.00  0.00     0.020 A 
ATOM     16  C   UNL     1     -16.054  13.253   8.343  1.00  0.00     0.093 A 
ATOM     17  C   UNL     1     -16.282  10.966   7.590  1.00  0.00     0.047 A 
ATOM     18  C   UNL     1     -15.943  11.880   8.590  1.00  0.00     0.119 A 
BRANCH  14  19
ATOM     19  O   UNL     1     -16.588  15.090   6.865  1.00  0.00    -0.507 OA
ATOM     20  H   UNL     1     -17.482  15.562   6.795  1.00  0.00     0.293 HD
ENDBRANCH  14  19
BRANCH  18  21
ATOM     21  O   UNL     1     -15.499  11.414   9.826  1.00  0.00    -0.508 OA
ATOM     22  H   UNL     1     -14.683  10.820   9.906  1.00  0.00     0.293 HD
ENDBRANCH  18  21
ENDBRANCH  11  13
ENDBRANCH   2  11
TORSDOF 6
ENDMDL
MODEL 9
REMARK VINA RESULT:    -3.617      1.544      2.077
REMARK INTER + INTRA:          -5.236
REMARK INTER:                  -4.574
REMARK INTRA:                  -0.662
REMARK UNBOUND:                -0.668
REMARK SMILES O=C(C=Cc1ccc(O)cc1)c1ccc(O)cc1O
REMARK SMILES IDX 4 1 3 2 5 3 6 4 7 5 8 6 11 7 10 8 9 9 2 11 1 12 12 13 18 14
REMARK SMILES IDX 13 15 17 16 14 17 15 18 19 19 16 21
REMARK H PARENT 9 10 19 20 16 22
REMARK Flexibility Score: inf
ROOT
ATOM      1  C   UNL     1     -18.386  15.559   8.664  1.00  0.00     0.012 C 
ATOM      2  C   UNL     1     -19.398  14.840   9.174  1.00  0.00     0.053 C 
ENDROOT
BRANCH   1   3
ATOM      3  C   UNL     1     -17.219  14.961   7.973  1.00  0.00    -0.025 A 
ATOM      4  C   UNL     1     -16.086  15.762   7.748  1.00  0.00     0.012 A 
ATOM      5  C   UNL     1     -14.966  15.244   7.092  1.00  0.00     0.047 A 
ATOM      6  C   UNL     1     -14.966  13.920   6.639  1.00  0.00     0.115 A 
ATOM      7  C   UNL     1     -17.216  13.633   7.498  1.00  0.00     0.012 A 
ATOM      8  C   UNL     1     -16.093  13.119   6.842  1.00  0.00     0.047 A 
BRANCH   6   9
ATOM      9  O   UNL     1     -13.857  13.392   5.983  1.00  0.00    -0.508 OA
ATOM     10  H   UNL     1     -13.455  12.502   6.255  1.00  0.00     0.293 HD
ENDBRANCH   6   9
ENDBRANCH   1   3
BRANCH   2  11
ATOM     11  C   UNL     1     -20.539  15.471   9.874  1.00  0.00     0.189 C 
ATOM     12  O   UNL     1     -20.337  16.125  10.935  1.00  0.00    -0.289 OA
BRANCH  11  13
ATOM     13  C   UNL     1     -21.924  15.339   9.353  1.00  0.00     0.064 A 
ATOM     14  C   UNL     1     -22.973  14.895  10.188  1.00  0.00     0.130 A 
ATOM     15  C   UNL     1     -22.213  15.678   8.017  1.00  0.00     0.020 A 
ATOM     16  C   UNL     1     -24.278  14.794   9.680  1.00  0.00     0.093 A 
ATOM     17  C   UNL     1     -23.514  15.571   7.521  1.00  0.00     0.047 A 
ATOM     18  C   UNL     1     -24.549  15.129   8.349  1.00  0.00     0.119 A 
BRANCH  14  19
ATOM     19  O   UNL     1     -22.721  14.541  11.514  1.00  0.00    -0.507 OA
ATOM     20  H   UNL     1     -22.713  13.573  11.814  1.00  0.00     0.293 HD
ENDBRANCH  14  19
BRANCH  18  21
ATOM     21  O   UNL     1     -25.841  15.029   7.839  1.00  0.00    -0.508 OA
ATOM     22  H   UNL     1     -26.635  14.849   8.442  1.00  0.00     0.293 HD
ENDBRANCH  18  21
ENDBRANCH  11  13
ENDBRANCH   2  11
TORSDOF 6
ENDMDL
