MODEL 1
REMARK VINA RESULT:    -5.523      0.000      0.000
REMARK INTER + INTRA:         -12.483
REMARK INTER:                 -10.689
REMARK INTRA:                  -1.794
REMARK UNBOUND:                -1.794
REMARK SMILES CCCCCCCCCCCCCCCCCC(=O)[O-]
REMARK SMILES IDX 10 1 11 2 12 3 13 4 14 5 15 6 16 7 17 8 18 9 19 10 20 11
REMARK SMILES IDX 9 12 8 13 7 14 6 15 5 16 4 17 3 18 2 19 1 20
REMARK H PARENT
REMARK Flexibility Score: inf
ROOT
ATOM      1  C   UNL     1      93.428 121.501 121.135  1.00  0.00     0.000 C 
ENDROOT
BRANCH   1   2
ATOM      2  C   UNL     1      92.787 122.022 122.428  1.00  0.00     0.000 C 
BRANCH   2   3
ATOM      3  C   UNL     1      93.085 123.513 122.628  1.00  0.00     0.000 C 
BRANCH   3   4
ATOM      4  C   UNL     1      93.204 123.855 124.118  1.00  0.00     0.000 C 
BRANCH   4   5
ATOM      5  C   UNL     1      93.716 122.649 124.919  1.00  0.00     0.000 C 
BRANCH   5   6
ATOM      6  C   UNL     1      95.107 122.886 125.535  1.00  0.00     0.000 C 
BRANCH   6   7
ATOM      7  C   UNL     1      96.173 123.420 124.555  1.00  0.00     0.006 C 
BRANCH   7   8
ATOM      8  C   UNL     1      96.660 124.846 124.856  1.00  0.00     0.053 C 
BRANCH   8   9
ATOM      9  C   UNL     1      97.503 124.900 126.094  1.00  0.00     0.041 C 
ATOM     10  O   UNL     1      98.333 123.984 126.335  1.00  0.00    -0.550 OA
ATOM     11  O   UNL     1      97.351 125.947 126.994  1.00  0.00    -0.550 OA
ENDBRANCH   8   9
ENDBRANCH   7   8
ENDBRANCH   6   7
ENDBRANCH   5   6
ENDBRANCH   4   5
ENDBRANCH   3   4
ENDBRANCH   2   3
ENDBRANCH   1   2
BRANCH   1  12
ATOM     12  C   UNL     1      94.711 122.278 120.806  1.00  0.00     0.000 C 
BRANCH  12  13
ATOM     13  C   UNL     1      95.266 121.919 119.419  1.00  0.00    -0.000 C 
BRANCH  13  14
ATOM     14  C   UNL     1      94.668 120.615 118.863  1.00  0.00    -0.000 C 
BRANCH  14  15
ATOM     15  C   UNL     1      94.140 120.786 117.423  1.00  0.00    -0.000 C 
BRANCH  15  16
ATOM     16  C   UNL     1      92.601 120.799 117.328  1.00  0.00    -0.000 C 
BRANCH  16  17
ATOM     17  C   UNL     1      91.987 122.180 117.036  1.00  0.00    -0.000 C 
BRANCH  17  18
ATOM     18  C   UNL     1      92.360 123.229 118.096  1.00  0.00    -0.000 C 
BRANCH  18  19
ATOM     19  C   UNL     1      93.182 124.388 117.512  1.00  0.00    -0.003 C 
ATOM     20  C   UNL     1      92.529 125.011 116.278  1.00  0.00     0.004 C 
ENDBRANCH  18  19
ENDBRANCH  17  18
ENDBRANCH  16  17
ENDBRANCH  15  16
ENDBRANCH  14  15
ENDBRANCH  13  14
ENDBRANCH  12  13
ENDBRANCH   1  12
TORSDOF 16
ENDMDL
MODEL 2
REMARK VINA RESULT:    -5.332      1.216      2.050
REMARK INTER + INTRA:         -12.112
REMARK INTER:                 -10.948
REMARK INTRA:                  -1.165
REMARK UNBOUND:                -1.794
REMARK SMILES CCCCCCCCCCCCCCCCCC(=O)[O-]
REMARK SMILES IDX 10 1 11 2 12 3 13 4 14 5 15 6 16 7 17 8 18 9 19 10 20 11
REMARK SMILES IDX 9 12 8 13 7 14 6 15 5 16 4 17 3 18 2 19 1 20
REMARK H PARENT
REMARK Flexibility Score: inf
ROOT
ATOM      1  C   UNL     1      93.511 121.727 122.140  1.00  0.00     0.000 C 
ENDROOT
BRANCH   1   2
ATOM      2  C   UNL     1      92.852 123.111 122.094  1.00  0.00     0.000 C 
BRANCH   2   3
ATOM      3  C   UNL     1      93.101 123.882 123.397  1.00  0.00     0.000 C 
BRANCH   3   4
ATOM      4  C   UNL     1      92.961 122.963 124.616  1.00  0.00     0.000 C 
BRANCH   4   5
ATOM      5  C   UNL     1      94.301 122.825 125.356  1.00  0.00     0.000 C 
BRANCH   5   6
ATOM      6  C   UNL     1      95.347 123.858 124.898  1.00  0.00     0.000 C 
BRANCH   6   7
ATOM      7  C   UNL     1      96.805 123.355 124.900  1.00  0.00     0.006 C 
BRANCH   7   8
ATOM      8  C   UNL     1      97.693 123.975 125.992  1.00  0.00     0.053 C 
BRANCH   8   9
ATOM      9  C   UNL     1      97.509 125.459 126.086  1.00  0.00     0.041 C 
ATOM     10  O   UNL     1      97.241 125.996 127.193  1.00  0.00    -0.550 OA
ATOM     11  O   UNL     1      97.605 126.244 124.944  1.00  0.00    -0.550 OA
ENDBRANCH   8   9
ENDBRANCH   7   8
ENDBRANCH   6   7
ENDBRANCH   5   6
ENDBRANCH   4   5
ENDBRANCH   3   4
ENDBRANCH   2   3
ENDBRANCH   1   2
BRANCH   1  12
ATOM     12  C   UNL     1      93.332 120.989 120.805  1.00  0.00     0.000 C 
BRANCH  12  13
ATOM     13  C   UNL     1      94.661 120.825 120.051  1.00  0.00    -0.000 C 
BRANCH  13  14
ATOM     14  C   UNL     1      94.627 121.465 118.652  1.00  0.00    -0.000 C 
BRANCH  14  15
ATOM     15  C   UNL     1      94.562 123.005 118.718  1.00  0.00    -0.000 C 
BRANCH  15  16
ATOM     16  C   UNL     1      93.198 123.584 118.295  1.00  0.00    -0.000 C 
BRANCH  16  17
ATOM     17  C   UNL     1      92.133 122.529 117.945  1.00  0.00    -0.000 C 
BRANCH  17  18
ATOM     18  C   UNL     1      92.076 122.223 116.439  1.00  0.00    -0.000 C 
BRANCH  18  19
ATOM     19  C   UNL     1      92.550 120.800 116.111  1.00  0.00    -0.003 C 
ATOM     20  C   UNL     1      93.202 120.698 114.732  1.00  0.00     0.004 C 
ENDBRANCH  18  19
ENDBRANCH  17  18
ENDBRANCH  16  17
ENDBRANCH  15  16
ENDBRANCH  14  15
ENDBRANCH  13  14
ENDBRANCH  12  13
ENDBRANCH   1  12
TORSDOF 16
ENDMDL
MODEL 3
REMARK VINA RESULT:    -5.313      2.729      4.040
REMARK INTER + INTRA:         -12.075
REMARK INTER:                 -11.188
REMARK INTRA:                  -0.887
REMARK UNBOUND:                -1.794
REMARK SMILES CCCCCCCCCCCCCCCCCC(=O)[O-]
REMARK SMILES IDX 10 1 11 2 12 3 13 4 14 5 15 6 16 7 17 8 18 9 19 10 20 11
REMARK SMILES IDX 9 12 8 13 7 14 6 15 5 16 4 17 3 18 2 19 1 20
REMARK H PARENT
REMARK Flexibility Score: inf
ROOT
ATOM      1  C   UNL     1      93.608 123.565 124.004  1.00  0.00     0.000 C 
ENDROOT
BRANCH   1   2
ATOM      2  C   UNL     1      94.664 123.077 125.004  1.00  0.00     0.000 C 
BRANCH   2   3
ATOM      3  C   UNL     1      96.081 123.382 124.501  1.00  0.00     0.000 C 
BRANCH   3   4
ATOM      4  C   UNL     1      96.688 124.571 125.254  1.00  0.00     0.000 C 
BRANCH   4   5
ATOM      5  C   UNL     1      97.874 124.123 126.122  1.00  0.00     0.000 C 
BRANCH   5   6
ATOM      6  C   UNL     1      98.137 122.608 126.040  1.00  0.00     0.000 C 
BRANCH   6   7
ATOM      7  C   UNL     1      99.626 122.203 126.047  1.00  0.00     0.006 C 
BRANCH   7   8
ATOM      8  C   UNL     1      99.887 120.739 126.439  1.00  0.00     0.053 C 
BRANCH   8   9
ATOM      9  C   UNL     1     100.908 120.097 125.549  1.00  0.00     0.041 C 
ATOM     10  O   UNL     1     102.005 120.672 125.324  1.00  0.00    -0.550 OA
ATOM     11  O   UNL     1     100.634 118.875 124.947  1.00  0.00    -0.550 OA
ENDBRANCH   8   9
ENDBRANCH   7   8
ENDBRANCH   6   7
ENDBRANCH   5   6
ENDBRANCH   4   5
ENDBRANCH   3   4
ENDBRANCH   2   3
ENDBRANCH   1   2
BRANCH   1  12
ATOM     12  C   UNL     1      93.124 122.414 123.110  1.00  0.00     0.000 C 
BRANCH  12  13
ATOM     13  C   UNL     1      93.503 122.626 121.636  1.00  0.00    -0.000 C 
BRANCH  13  14
ATOM     14  C   UNL     1      93.849 121.308 120.921  1.00  0.00    -0.000 C 
BRANCH  14  15
ATOM     15  C   UNL     1      94.441 121.548 119.516  1.00  0.00    -0.000 C 
BRANCH  15  16
ATOM     16  C   UNL     1      94.097 122.932 118.930  1.00  0.00    -0.000 C 
BRANCH  16  17
ATOM     17  C   UNL     1      92.836 122.960 118.047  1.00  0.00    -0.000 C 
BRANCH  17  18
ATOM     18  C   UNL     1      92.517 121.589 117.427  1.00  0.00    -0.000 C 
BRANCH  18  19
ATOM     19  C   UNL     1      92.414 121.649 115.896  1.00  0.00    -0.003 C 
ATOM     20  C   UNL     1      92.988 120.405 115.217  1.00  0.00     0.004 C 
ENDBRANCH  18  19
ENDBRANCH  17  18
ENDBRANCH  16  17
ENDBRANCH  15  16
ENDBRANCH  14  15
ENDBRANCH  13  14
ENDBRANCH  12  13
ENDBRANCH   1  12
TORSDOF 16
ENDMDL
MODEL 4
REMARK VINA RESULT:    -5.282      3.556      8.174
REMARK INTER + INTRA:         -12.017
REMARK INTER:                 -10.785
REMARK INTRA:                  -1.232
REMARK UNBOUND:                -1.794
REMARK SMILES CCCCCCCCCCCCCCCCCC(=O)[O-]
REMARK SMILES IDX 10 1 11 2 12 3 13 4 14 5 15 6 16 7 17 8 18 9 19 10 20 11
REMARK SMILES IDX 9 12 8 13 7 14 6 15 5 16 4 17 3 18 2 19 1 20
REMARK H PARENT
REMARK Flexibility Score: inf
ROOT
ATOM      1  C   UNL     1      92.781 122.209 122.571  1.00  0.00     0.000 C 
ENDROOT
BRANCH   1   2
ATOM      2  C   UNL     1      92.898 122.126 121.044  1.00  0.00     0.000 C 
BRANCH   2   3
ATOM      3  C   UNL     1      94.355 121.914 120.614  1.00  0.00     0.000 C 
BRANCH   3   4
ATOM      4  C   UNL     1      94.488 120.683 119.709  1.00  0.00     0.000 C 
BRANCH   4   5
ATOM      5  C   UNL     1      94.758 121.098 118.255  1.00  0.00     0.000 C 
BRANCH   5   6
ATOM      6  C   UNL     1      93.631 120.679 117.293  1.00  0.00     0.000 C 
BRANCH   6   7
ATOM      7  C   UNL     1      92.298 121.434 117.482  1.00  0.00     0.006 C 
BRANCH   7   8
ATOM      8  C   UNL     1      92.025 122.520 116.429  1.00  0.00     0.053 C 
BRANCH   8   9
ATOM      9  C   UNL     1      92.514 123.864 116.873  1.00  0.00     0.041 C 
ATOM     10  O   UNL     1      92.423 124.858 116.104  1.00  0.00    -0.550 OA
ATOM     11  O   UNL     1      93.097 124.013 118.125  1.00  0.00    -0.550 OA
ENDBRANCH   8   9
ENDBRANCH   7   8
ENDBRANCH   6   7
ENDBRANCH   5   6
ENDBRANCH   4   5
ENDBRANCH   3   4
ENDBRANCH   2   3
ENDBRANCH   1   2
BRANCH   1  12
ATOM     12  C   UNL     1      93.047 123.639 123.066  1.00  0.00     0.000 C 
BRANCH  12  13
ATOM     13  C   UNL     1      94.256 123.709 124.011  1.00  0.00    -0.000 C 
BRANCH  13  14
ATOM     14  C   UNL     1      94.065 122.858 125.279  1.00  0.00    -0.000 C 
BRANCH  14  15
ATOM     15  C   UNL     1      95.352 122.780 126.126  1.00  0.00    -0.000 C 
BRANCH  15  16
ATOM     16  C   UNL     1      96.646 122.856 125.292  1.00  0.00    -0.000 C 
BRANCH  16  17
ATOM     17  C   UNL     1      97.895 123.289 126.080  1.00  0.00    -0.000 C 
BRANCH  17  18
ATOM     18  C   UNL     1      97.972 124.812 126.277  1.00  0.00    -0.000 C 
BRANCH  18  19
ATOM     19  C   UNL     1      97.275 125.585 125.148  1.00  0.00    -0.003 C 
ATOM     20  C   UNL     1      97.726 127.044 125.065  1.00  0.00     0.004 C 
ENDBRANCH  18  19
ENDBRANCH  17  18
ENDBRANCH  16  17
ENDBRANCH  15  16
ENDBRANCH  14  15
ENDBRANCH  13  14
ENDBRANCH  12  13
ENDBRANCH   1  12
TORSDOF 16
ENDMDL
MODEL 5
REMARK VINA RESULT:    -5.216      4.394      8.721
REMARK INTER + INTRA:         -11.888
REMARK INTER:                 -10.952
REMARK INTRA:                  -0.936
REMARK UNBOUND:                -1.794
REMARK SMILES CCCCCCCCCCCCCCCCCC(=O)[O-]
REMARK SMILES IDX 10 1 11 2 12 3 13 4 14 5 15 6 16 7 17 8 18 9 19 10 20 11
REMARK SMILES IDX 9 12 8 13 7 14 6 15 5 16 4 17 3 18 2 19 1 20
REMARK H PARENT
REMARK Flexibility Score: inf
ROOT
ATOM      1  C   UNL     1      94.436 124.065 124.105  1.00  0.00     0.000 C 
ENDROOT
BRANCH   1   2
ATOM      2  C   UNL     1      93.072 123.746 123.479  1.00  0.00     0.000 C 
BRANCH   2   3
ATOM      3  C   UNL     1      92.986 122.270 123.071  1.00  0.00     0.000 C 
BRANCH   3   4
ATOM      4  C   UNL     1      92.786 122.129 121.557  1.00  0.00     0.000 C 
BRANCH   4   5
ATOM      5  C   UNL     1      94.092 122.418 120.802  1.00  0.00     0.000 C 
BRANCH   5   6
ATOM      6  C   UNL     1      94.616 121.198 120.022  1.00  0.00     0.000 C 
BRANCH   6   7
ATOM      7  C   UNL     1      94.515 121.312 118.486  1.00  0.00     0.006 C 
BRANCH   7   8
ATOM      8  C   UNL     1      93.085 121.208 117.931  1.00  0.00     0.053 C 
BRANCH   8   9
ATOM      9  C   UNL     1      92.606 122.513 117.372  1.00  0.00     0.041 C 
ATOM     10  O   UNL     1      91.886 122.535 116.339  1.00  0.00    -0.550 OA
ATOM     11  O   UNL     1      92.981 123.707 117.976  1.00  0.00    -0.550 OA
ENDBRANCH   8   9
ENDBRANCH   7   8
ENDBRANCH   6   7
ENDBRANCH   5   6
ENDBRANCH   4   5
ENDBRANCH   3   4
ENDBRANCH   2   3
ENDBRANCH   1   2
BRANCH   1  12
ATOM     12  C   UNL     1      94.936 122.892 124.960  1.00  0.00     0.000 C 
BRANCH  12  13
ATOM     13  C   UNL     1      95.879 123.353 126.082  1.00  0.00    -0.000 C 
BRANCH  13  14
ATOM     14  C   UNL     1      96.950 124.339 125.584  1.00  0.00    -0.000 C 
BRANCH  14  15
ATOM     15  C   UNL     1      98.369 123.934 126.041  1.00  0.00    -0.000 C 
BRANCH  15  16
ATOM     16  C   UNL     1      98.500 122.439 126.393  1.00  0.00    -0.000 C 
BRANCH  16  17
ATOM     17  C   UNL     1      99.852 121.807 126.014  1.00  0.00    -0.000 C 
BRANCH  17  18
ATOM     18  C   UNL     1      99.990 120.360 126.517  1.00  0.00    -0.000 C 
BRANCH  18  19
ATOM     19  C   UNL     1     101.261 119.676 125.994  1.00  0.00    -0.003 C 
ATOM     20  C   UNL     1     101.126 119.209 124.544  1.00  0.00     0.004 C 
ENDBRANCH  18  19
ENDBRANCH  17  18
ENDBRANCH  16  17
ENDBRANCH  15  16
ENDBRANCH  14  15
ENDBRANCH  13  14
ENDBRANCH  12  13
ENDBRANCH   1  12
TORSDOF 16
ENDMDL
MODEL 6
REMARK VINA RESULT:    -5.066      3.528      8.079
REMARK INTER + INTRA:         -11.598
REMARK INTER:                  -9.933
REMARK INTRA:                  -1.665
REMARK UNBOUND:                -1.794
REMARK SMILES CCCCCCCCCCCCCCCCCC(=O)[O-]
REMARK SMILES IDX 10 1 11 2 12 3 13 4 14 5 15 6 16 7 17 8 18 9 19 10 20 11
REMARK SMILES IDX 9 12 8 13 7 14 6 15 5 16 4 17 3 18 2 19 1 20
REMARK H PARENT
REMARK Flexibility Score: inf
ROOT
ATOM      1  C   UNL     1      94.180 122.655 120.842  1.00  0.00     0.000 C 
ENDROOT
BRANCH   1   2
ATOM      2  C   UNL     1      95.233 121.738 120.208  1.00  0.00     0.000 C 
BRANCH   2   3
ATOM      3  C   UNL     1      94.571 120.593 119.432  1.00  0.00     0.000 C 
BRANCH   3   4
ATOM      4  C   UNL     1      94.976 120.623 117.954  1.00  0.00     0.000 C 
BRANCH   4   5
ATOM      5  C   UNL     1      93.737 120.605 117.045  1.00  0.00     0.000 C 
BRANCH   5   6
ATOM      6  C   UNL     1      92.415 120.629 117.834  1.00  0.00     0.000 C 
BRANCH   6   7
ATOM      7  C   UNL     1      91.619 121.947 117.736  1.00  0.00     0.006 C 
BRANCH   7   8
ATOM      8  C   UNL     1      91.926 122.787 116.486  1.00  0.00     0.053 C 
BRANCH   8   9
ATOM      9  C   UNL     1      92.603 124.078 116.833  1.00  0.00     0.041 C 
ATOM     10  O   UNL     1      93.387 124.139 117.816  1.00  0.00    -0.550 OA
ATOM     11  O   UNL     1      92.344 125.220 116.086  1.00  0.00    -0.550 OA
ENDBRANCH   8   9
ENDBRANCH   7   8
ENDBRANCH   6   7
ENDBRANCH   5   6
ENDBRANCH   4   5
ENDBRANCH   3   4
ENDBRANCH   2   3
ENDBRANCH   1   2
BRANCH   1  12
ATOM     12  C   UNL     1      92.963 121.848 121.317  1.00  0.00     0.000 C 
BRANCH  12  13
ATOM     13  C   UNL     1      92.612 122.139 122.785  1.00  0.00    -0.000 C 
BRANCH  13  14
ATOM     14  C   UNL     1      93.617 123.092 123.454  1.00  0.00    -0.000 C 
BRANCH  14  15
ATOM     15  C   UNL     1      93.718 122.855 124.976  1.00  0.00    -0.000 C 
BRANCH  15  16
ATOM     16  C   UNL     1      95.158 122.934 125.519  1.00  0.00    -0.000 C 
BRANCH  16  17
ATOM     17  C   UNL     1      96.194 123.469 124.514  1.00  0.00    -0.000 C 
BRANCH  17  18
ATOM     18  C   UNL     1      96.704 124.873 124.882  1.00  0.00    -0.000 C 
BRANCH  18  19
ATOM     19  C   UNL     1      97.534 124.876 126.174  1.00  0.00    -0.003 C 
ATOM     20  C   UNL     1      98.513 123.704 126.249  1.00  0.00     0.004 C 
ENDBRANCH  18  19
ENDBRANCH  17  18
ENDBRANCH  16  17
ENDBRANCH  15  16
ENDBRANCH  14  15
ENDBRANCH  13  14
ENDBRANCH  12  13
ENDBRANCH   1  12
TORSDOF 16
ENDMDL
MODEL 7
REMARK VINA RESULT:    -4.949      4.156      8.465
REMARK INTER + INTRA:         -11.371
REMARK INTER:                 -10.665
REMARK INTRA:                  -0.707
REMARK UNBOUND:                -1.794
REMARK SMILES CCCCCCCCCCCCCCCCCC(=O)[O-]
REMARK SMILES IDX 10 1 11 2 12 3 13 4 14 5 15 6 16 7 17 8 18 9 19 10 20 11
REMARK SMILES IDX 9 12 8 13 7 14 6 15 5 16 4 17 3 18 2 19 1 20
REMARK H PARENT
REMARK Flexibility Score: inf
ROOT
ATOM      1  C   UNL     1      92.994 121.596 121.778  1.00  0.00     0.000 C 
ENDROOT
BRANCH   1   2
ATOM      2  C   UNL     1      93.621 121.066 120.483  1.00  0.00     0.000 C 
BRANCH   2   3
ATOM      3  C   UNL     1      94.880 121.862 120.115  1.00  0.00     0.000 C 
BRANCH   3   4
ATOM      4  C   UNL     1      94.604 122.820 118.950  1.00  0.00     0.000 C 
BRANCH   4   5
ATOM      5  C   UNL     1      93.095 123.031 118.758  1.00  0.00     0.000 C 
BRANCH   5   6
ATOM      6  C   UNL     1      92.755 123.782 117.458  1.00  0.00     0.000 C 
BRANCH   6   7
ATOM      7  C   UNL     1      92.317 122.886 116.281  1.00  0.00     0.006 C 
BRANCH   7   8
ATOM      8  C   UNL     1      92.049 121.420 116.660  1.00  0.00     0.053 C 
BRANCH   8   9
ATOM      9  C   UNL     1      92.823 120.469 115.799  1.00  0.00     0.041 C 
ATOM     10  O   UNL     1      94.061 120.322 115.971  1.00  0.00    -0.550 OA
ATOM     11  O   UNL     1      92.179 119.768 114.787  1.00  0.00    -0.550 OA
ENDBRANCH   8   9
ENDBRANCH   7   8
ENDBRANCH   6   7
ENDBRANCH   5   6
ENDBRANCH   4   5
ENDBRANCH   3   4
ENDBRANCH   2   3
ENDBRANCH   1   2
BRANCH   1  12
ATOM     12  C   UNL     1      93.760 122.821 122.299  1.00  0.00     0.000 C 
BRANCH  12  13
ATOM     13  C   UNL     1      92.929 123.644 123.296  1.00  0.00    -0.000 C 
BRANCH  13  14
ATOM     14  C   UNL     1      92.833 122.975 124.677  1.00  0.00    -0.000 C 
BRANCH  14  15
ATOM     15  C   UNL     1      94.219 122.576 125.227  1.00  0.00    -0.000 C 
BRANCH  15  16
ATOM     16  C   UNL     1      95.228 123.741 125.262  1.00  0.00    -0.000 C 
BRANCH  16  17
ATOM     17  C   UNL     1      96.664 123.360 124.863  1.00  0.00    -0.000 C 
BRANCH  17  18
ATOM     18  C   UNL     1      97.686 123.657 125.973  1.00  0.00    -0.000 C 
BRANCH  18  19
ATOM     19  C   UNL     1      97.742 125.149 126.334  1.00  0.00    -0.003 C 
ATOM     20  C   UNL     1      97.521 126.057 125.125  1.00  0.00     0.004 C 
ENDBRANCH  18  19
ENDBRANCH  17  18
ENDBRANCH  16  17
ENDBRANCH  15  16
ENDBRANCH  14  15
ENDBRANCH  13  14
ENDBRANCH  12  13
ENDBRANCH   1  12
TORSDOF 16
ENDMDL
MODEL 8
REMARK VINA RESULT:    -4.568     10.771     12.332
REMARK INTER + INTRA:         -10.635
REMARK INTER:                  -8.370
REMARK INTRA:                  -2.266
REMARK UNBOUND:                -1.794
REMARK SMILES CCCCCCCCCCCCCCCCCC(=O)[O-]
REMARK SMILES IDX 10 1 11 2 12 3 13 4 14 5 15 6 16 7 17 8 18 9 19 10 20 11
REMARK SMILES IDX 9 12 8 13 7 14 6 15 5 16 4 17 3 18 2 19 1 20
REMARK H PARENT
REMARK Flexibility Score: inf
ROOT
ATOM      1  C   UNL     1      85.423 127.107 129.438  1.00  0.00     0.000 C 
ENDROOT
BRANCH   1   2
ATOM      2  C   UNL     1      83.972 126.892 129.885  1.00  0.00     0.000 C 
BRANCH   2   3
ATOM      3  C   UNL     1      83.880 126.763 131.411  1.00  0.00     0.000 C 
BRANCH   3   4
ATOM      4  C   UNL     1      84.823 125.671 131.929  1.00  0.00     0.000 C 
BRANCH   4   5
ATOM      5  C   UNL     1      84.289 124.274 131.578  1.00  0.00     0.000 C 
BRANCH   5   6
ATOM      6  C   UNL     1      85.400 123.211 131.493  1.00  0.00     0.000 C 
BRANCH   6   7
ATOM      7  C   UNL     1      86.802 123.759 131.151  1.00  0.00     0.006 C 
BRANCH   7   8
ATOM      8  C   UNL     1      87.492 123.054 129.972  1.00  0.00     0.053 C 
BRANCH   8   9
ATOM      9  C   UNL     1      87.670 121.587 130.224  1.00  0.00     0.041 C 
ATOM     10  O   UNL     1      88.694 121.166 130.822  1.00  0.00    -0.550 OA
ATOM     11  O   UNL     1      86.716 120.684 129.772  1.00  0.00    -0.550 OA
ENDBRANCH   8   9
ENDBRANCH   7   8
ENDBRANCH   6   7
ENDBRANCH   5   6
ENDBRANCH   4   5
ENDBRANCH   3   4
ENDBRANCH   2   3
ENDBRANCH   1   2
BRANCH   1  12
ATOM     12  C   UNL     1      85.826 126.084 128.365  1.00  0.00     0.000 C 
BRANCH  12  13
ATOM     13  C   UNL     1      84.626 125.261 127.871  1.00  0.00    -0.000 C 
BRANCH  13  14
ATOM     14  C   UNL     1      85.019 123.829 127.468  1.00  0.00    -0.000 C 
BRANCH  14  15
ATOM     15  C   UNL     1      84.032 122.779 128.021  1.00  0.00    -0.000 C 
BRANCH  15  16
ATOM     16  C   UNL     1      83.281 122.000 126.923  1.00  0.00    -0.000 C 
BRANCH  16  17
ATOM     17  C   UNL     1      83.361 122.628 125.520  1.00  0.00    -0.000 C 
BRANCH  17  18
ATOM     18  C   UNL     1      83.778 121.616 124.441  1.00  0.00    -0.000 C 
BRANCH  18  19
ATOM     19  C   UNL     1      82.582 120.838 123.873  1.00  0.00    -0.003 C 
ATOM     20  C   UNL     1      82.280 121.198 122.418  1.00  0.00     0.004 C 
ENDBRANCH  18  19
ENDBRANCH  17  18
ENDBRANCH  16  17
ENDBRANCH  15  16
ENDBRANCH  14  15
ENDBRANCH  13  14
ENDBRANCH  12  13
ENDBRANCH   1  12
TORSDOF 16
ENDMDL
MODEL 9
REMARK VINA RESULT:    -4.529     11.651     14.409
REMARK INTER + INTRA:         -10.559
REMARK INTER:                  -7.870
REMARK INTRA:                  -2.690
REMARK UNBOUND:                -1.794
REMARK SMILES CCCCCCCCCCCCCCCCCC(=O)[O-]
REMARK SMILES IDX 10 1 11 2 12 3 13 4 14 5 15 6 16 7 17 8 18 9 19 10 20 11
REMARK SMILES IDX 9 12 8 13 7 14 6 15 5 16 4 17 3 18 2 19 1 20
REMARK H PARENT
REMARK Flexibility Score: inf
ROOT
ATOM      1  C   UNL     1      82.209 126.597 130.115  1.00  0.00     0.000 C 
ENDROOT
BRANCH   1   2
ATOM      2  C   UNL     1      82.118 125.072 130.245  1.00  0.00     0.000 C 
BRANCH   2   3
ATOM      3  C   UNL     1      82.204 124.396 128.871  1.00  0.00     0.000 C 
BRANCH   3   4
ATOM      4  C   UNL     1      83.211 123.240 128.888  1.00  0.00     0.000 C 
BRANCH   4   5
ATOM      5  C   UNL     1      84.344 123.484 127.879  1.00  0.00     0.000 C 
BRANCH   5   6
ATOM      6  C   UNL     1      84.042 124.640 126.908  1.00  0.00     0.000 C 
BRANCH   6   7
ATOM      7  C   UNL     1      83.769 124.215 125.450  1.00  0.00     0.006 C 
BRANCH   7   8
ATOM      8  C   UNL     1      82.557 123.286 125.272  1.00  0.00     0.053 C 
BRANCH   8   9
ATOM      9  C   UNL     1      82.860 122.142 124.354  1.00  0.00     0.041 C 
ATOM     10  O   UNL     1      83.786 121.335 124.630  1.00  0.00    -0.550 OA
ATOM     11  O   UNL     1      82.136 121.984 123.179  1.00  0.00    -0.550 OA
ENDBRANCH   8   9
ENDBRANCH   7   8
ENDBRANCH   6   7
ENDBRANCH   5   6
ENDBRANCH   4   5
ENDBRANCH   3   4
ENDBRANCH   2   3
ENDBRANCH   1   2
BRANCH   1  12
ATOM     12  C   UNL     1      83.525 127.122 130.708  1.00  0.00     0.000 C 
BRANCH  12  13
ATOM     13  C   UNL     1      84.657 127.151 129.669  1.00  0.00    -0.000 C 
BRANCH  13  14
ATOM     14  C   UNL     1      85.734 126.087 129.941  1.00  0.00    -0.000 C 
BRANCH  14  15
ATOM     15  C   UNL     1      85.612 125.485 131.357  1.00  0.00    -0.000 C 
BRANCH  15  16
ATOM     16  C   UNL     1      85.983 123.990 131.426  1.00  0.00    -0.000 C 
BRANCH  16  17
ATOM     17  C   UNL     1      87.264 123.610 130.661  1.00  0.00    -0.000 C 
BRANCH  17  18
ATOM     18  C   UNL     1      87.219 122.176 130.107  1.00  0.00    -0.000 C 
BRANCH  18  19
ATOM     19  C   UNL     1      85.970 121.410 130.566  1.00  0.00    -0.003 C 
ATOM     20  C   UNL     1      86.306 120.064 131.209  1.00  0.00     0.004 C 
ENDBRANCH  18  19
ENDBRANCH  17  18
ENDBRANCH  16  17
ENDBRANCH  15  16
ENDBRANCH  14  15
ENDBRANCH  13  14
ENDBRANCH  12  13
ENDBRANCH   1  12
TORSDOF 16
ENDMDL
