MODEL 1
REMARK VINA RESULT:    -4.381      0.000      0.000
REMARK INTER + INTRA:          -4.978
REMARK INTER:                  -4.765
REMARK INTRA:                  -0.212
REMARK UNBOUND:                -0.212
REMARK SMILES O=C([O-])c1ccccc1O
REMARK SMILES IDX 4 1 9 2 5 3 8 4 6 5 7 6 2 7 1 8 3 9 10 10
REMARK H PARENT 10 11
REMARK Flexibility Score: inf
ROOT
ATOM      1  C   UNL     1     147.205 159.465 161.201  1.00  0.00     0.039 A 
ATOM      2  C   UNL     1     146.468 160.639 161.487  1.00  0.00     0.124 A 
ATOM      3  C   UNL     1     148.492 159.591 160.641  1.00  0.00     0.014 A 
ATOM      4  C   UNL     1     147.024 161.899 161.211  1.00  0.00     0.047 A 
ATOM      5  C   UNL     1     149.033 160.850 160.372  1.00  0.00     0.001 A 
ATOM      6  C   UNL     1     148.300 162.002 160.656  1.00  0.00     0.004 A 
ENDROOT
BRANCH   1   7
ATOM      7  C   UNL     1     146.663 158.111 161.475  1.00  0.00     0.075 C 
ATOM      8  O   UNL     1     145.664 157.672 160.846  1.00  0.00    -0.545 OA
ATOM      9  O   UNL     1     147.254 157.299 162.438  1.00  0.00    -0.545 OA
ENDBRANCH   1   7
BRANCH   2  10
ATOM     10  O   UNL     1     145.191 160.563 162.042  1.00  0.00    -0.507 OA
ATOM     11  H   UNL     1     144.510 159.885 161.720  1.00  0.00     0.293 HD
ENDBRANCH   2  10
TORSDOF 2
ENDMDL
MODEL 2
REMARK VINA RESULT:    -3.950     19.903     21.145
REMARK INTER + INTRA:          -4.508
REMARK INTER:                  -4.425
REMARK INTRA:                  -0.083
REMARK UNBOUND:                -0.212
REMARK SMILES O=C([O-])c1ccccc1O
REMARK SMILES IDX 4 1 9 2 5 3 8 4 6 5 7 6 2 7 1 8 3 9 10 10
REMARK H PARENT 10 11
REMARK Flexibility Score: inf
ROOT
ATOM      1  C   UNL     1     159.506 146.047 170.400  1.00  0.00     0.039 A 
ATOM      2  C   UNL     1     160.395 145.250 171.160  1.00  0.00     0.124 A 
ATOM      3  C   UNL     1     159.450 147.431 170.652  1.00  0.00     0.014 A 
ATOM      4  C   UNL     1     161.201 145.846 172.143  1.00  0.00     0.047 A 
ATOM      5  C   UNL     1     160.257 148.010 171.634  1.00  0.00     0.001 A 
ATOM      6  C   UNL     1     161.131 147.219 172.378  1.00  0.00     0.004 A 
ENDROOT
BRANCH   1   7
ATOM      7  C   UNL     1     158.634 145.466 169.348  1.00  0.00     0.075 C 
ATOM      8  O   UNL     1     157.497 145.002 169.629  1.00  0.00    -0.545 OA
ATOM      9  O   UNL     1     159.062 145.425 168.025  1.00  0.00    -0.545 OA
ENDBRANCH   1   7
BRANCH   2  10
ATOM     10  O   UNL     1     160.484 143.875 170.943  1.00  0.00    -0.507 OA
ATOM     11  H   UNL     1     161.231 143.470 170.392  1.00  0.00     0.293 HD
ENDBRANCH   2  10
TORSDOF 2
ENDMDL
MODEL 3
REMARK VINA RESULT:    -3.537      2.037      3.128
REMARK INTER + INTRA:          -4.060
REMARK INTER:                  -3.829
REMARK INTRA:                  -0.231
REMARK UNBOUND:                -0.212
REMARK SMILES O=C([O-])c1ccccc1O
REMARK SMILES IDX 4 1 9 2 5 3 8 4 6 5 7 6 2 7 1 8 3 9 10 10
REMARK H PARENT 10 11
REMARK Flexibility Score: inf
ROOT
ATOM      1  C   UNL     1     147.551 161.658 160.873  1.00  0.00     0.039 A 
ATOM      2  C   UNL     1     148.944 161.772 160.646  1.00  0.00     0.124 A 
ATOM      3  C   UNL     1     146.742 162.799 160.708  1.00  0.00     0.014 A 
ATOM      4  C   UNL     1     149.491 163.007 160.263  1.00  0.00     0.047 A 
ATOM      5  C   UNL     1     147.300 164.021 160.326  1.00  0.00     0.001 A 
ATOM      6  C   UNL     1     148.672 164.125 160.104  1.00  0.00     0.004 A 
ENDROOT
BRANCH   1   7
ATOM      7  C   UNL     1     146.924 160.376 161.279  1.00  0.00     0.075 C 
ATOM      8  O   UNL     1     147.390 159.272 160.890  1.00  0.00    -0.545 OA
ATOM      9  O   UNL     1     145.801 160.373 162.100  1.00  0.00    -0.545 OA
ENDBRANCH   1   7
BRANCH   2  10
ATOM     10  O   UNL     1     149.784 160.669 160.797  1.00  0.00    -0.507 OA
ATOM     11  H   UNL     1     150.053 160.326 161.712  1.00  0.00     0.293 HD
ENDBRANCH   2  10
TORSDOF 2
ENDMDL
MODEL 4
REMARK VINA RESULT:    -3.332      2.473      4.161
REMARK INTER + INTRA:          -3.837
REMARK INTER:                  -3.618
REMARK INTRA:                  -0.219
REMARK UNBOUND:                -0.212
REMARK SMILES O=C([O-])c1ccccc1O
REMARK SMILES IDX 4 1 9 2 5 3 8 4 6 5 7 6 2 7 1 8 3 9 10 10
REMARK H PARENT 10 11
REMARK Flexibility Score: inf
ROOT
ATOM      1  C   UNL     1     147.447 161.155 160.986  1.00  0.00     0.039 A 
ATOM      2  C   UNL     1     148.107 159.926 160.744  1.00  0.00     0.124 A 
ATOM      3  C   UNL     1     146.178 161.136 161.595  1.00  0.00     0.014 A 
ATOM      4  C   UNL     1     147.492 158.719 161.112  1.00  0.00     0.047 A 
ATOM      5  C   UNL     1     145.578 159.927 161.956  1.00  0.00     0.001 A 
ATOM      6  C   UNL     1     146.234 158.721 161.715  1.00  0.00     0.004 A 
ENDROOT
BRANCH   1   7
ATOM      7  C   UNL     1     148.054 162.459 160.616  1.00  0.00     0.075 C 
ATOM      8  O   UNL     1     147.336 163.462 160.365  1.00  0.00    -0.545 OA
ATOM      9  O   UNL     1     149.437 162.593 160.542  1.00  0.00    -0.545 OA
ENDBRANCH   1   7
BRANCH   2  10
ATOM     10  O   UNL     1     149.365 159.898 160.143  1.00  0.00    -0.507 OA
ATOM     11  H   UNL     1     149.805 159.027 159.869  1.00  0.00     0.293 HD
ENDBRANCH   2  10
TORSDOF 2
ENDMDL
MODEL 5
REMARK VINA RESULT:    -3.287     13.687     14.904
REMARK INTER + INTRA:          -3.788
REMARK INTER:                  -3.551
REMARK INTRA:                  -0.237
REMARK UNBOUND:                -0.212
REMARK SMILES O=C([O-])c1ccccc1O
REMARK SMILES IDX 4 1 9 2 5 3 8 4 6 5 7 6 2 7 1 8 3 9 10 10
REMARK H PARENT 10 11
REMARK Flexibility Score: inf
ROOT
ATOM      1  C   UNL     1     148.348 144.955 161.032  1.00  0.00     0.039 A 
ATOM      2  C   UNL     1     147.439 145.858 160.429  1.00  0.00     0.124 A 
ATOM      3  C   UNL     1     148.254 144.721 162.418  1.00  0.00     0.014 A 
ATOM      4  C   UNL     1     146.468 146.499 161.213  1.00  0.00     0.047 A 
ATOM      5  C   UNL     1     147.282 145.367 163.185  1.00  0.00     0.001 A 
ATOM      6  C   UNL     1     146.391 146.254 162.584  1.00  0.00     0.004 A 
ENDROOT
BRANCH   1   7
ATOM      7  C   UNL     1     149.393 144.250 160.247  1.00  0.00     0.075 C 
ATOM      8  O   UNL     1     149.176 143.875 159.065  1.00  0.00    -0.545 OA
ATOM      9  O   UNL     1     150.638 143.992 160.810  1.00  0.00    -0.545 OA
ENDBRANCH   1   7
BRANCH   2  10
ATOM     10  O   UNL     1     147.495 146.119 159.060  1.00  0.00    -0.507 OA
ATOM     11  H   UNL     1     148.288 145.837 158.496  1.00  0.00     0.293 HD
ENDBRANCH   2  10
TORSDOF 2
ENDMDL
MODEL 6
REMARK VINA RESULT:    -3.287     13.767     14.793
REMARK INTER + INTRA:          -3.788
REMARK INTER:                  -3.538
REMARK INTRA:                  -0.250
REMARK UNBOUND:                -0.212
REMARK SMILES O=C([O-])c1ccccc1O
REMARK SMILES IDX 4 1 9 2 5 3 8 4 6 5 7 6 2 7 1 8 3 9 10 10
REMARK H PARENT 10 11
REMARK Flexibility Score: inf
ROOT
ATOM      1  C   UNL     1     147.780 145.055 161.553  1.00  0.00     0.039 A 
ATOM      2  C   UNL     1     147.122 145.941 160.667  1.00  0.00     0.124 A 
ATOM      3  C   UNL     1     148.698 144.126 161.026  1.00  0.00     0.014 A 
ATOM      4  C   UNL     1     147.392 145.882 159.290  1.00  0.00     0.047 A 
ATOM      5  C   UNL     1     148.957 144.078 159.654  1.00  0.00     0.001 A 
ATOM      6  C   UNL     1     148.305 144.954 158.788  1.00  0.00     0.004 A 
ENDROOT
BRANCH   1   7
ATOM      7  C   UNL     1     147.530 145.077 163.016  1.00  0.00     0.075 C 
ATOM      8  O   UNL     1     147.511 146.161 163.656  1.00  0.00    -0.545 OA
ATOM      9  O   UNL     1     147.311 143.891 163.709  1.00  0.00    -0.545 OA
ENDBRANCH   1   7
BRANCH   2  10
ATOM     10  O   UNL     1     146.205 146.878 161.144  1.00  0.00    -0.507 OA
ATOM     11  H   UNL     1     145.351 147.091 160.642  1.00  0.00     0.293 HD
ENDBRANCH   2  10
TORSDOF 2
ENDMDL
MODEL 7
REMARK VINA RESULT:    -3.287     13.848     14.829
REMARK INTER + INTRA:          -3.788
REMARK INTER:                  -3.674
REMARK INTRA:                  -0.114
REMARK UNBOUND:                -0.212
REMARK SMILES O=C([O-])c1ccccc1O
REMARK SMILES IDX 4 1 9 2 5 3 8 4 6 5 7 6 2 7 1 8 3 9 10 10
REMARK H PARENT 10 11
REMARK Flexibility Score: inf
ROOT
ATOM      1  C   UNL     1     160.695 163.319 164.888  1.00  0.00     0.039 A 
ATOM      2  C   UNL     1     160.644 162.537 166.068  1.00  0.00     0.124 A 
ATOM      3  C   UNL     1     159.579 164.110 164.549  1.00  0.00     0.014 A 
ATOM      4  C   UNL     1     159.494 162.563 166.873  1.00  0.00     0.047 A 
ATOM      5  C   UNL     1     158.443 164.125 165.360  1.00  0.00     0.001 A 
ATOM      6  C   UNL     1     158.400 163.353 166.520  1.00  0.00     0.004 A 
ENDROOT
BRANCH   1   7
ATOM      7  C   UNL     1     161.886 163.328 164.003  1.00  0.00     0.075 C 
ATOM      8  O   UNL     1     162.895 162.621 164.263  1.00  0.00    -0.545 OA
ATOM      9  O   UNL     1     161.907 164.125 162.863  1.00  0.00    -0.545 OA
ENDBRANCH   1   7
BRANCH   2  10
ATOM     10  O   UNL     1     161.724 161.740 166.443  1.00  0.00    -0.507 OA
ATOM     11  H   UNL     1     162.047 160.973 165.863  1.00  0.00     0.293 HD
ENDBRANCH   2  10
TORSDOF 2
ENDMDL
MODEL 8
REMARK VINA RESULT:    -3.123     14.342     15.143
REMARK INTER + INTRA:          -3.610
REMARK INTER:                  -3.378
REMARK INTRA:                  -0.232
REMARK UNBOUND:                -0.212
REMARK SMILES O=C([O-])c1ccccc1O
REMARK SMILES IDX 4 1 9 2 5 3 8 4 6 5 7 6 2 7 1 8 3 9 10 10
REMARK H PARENT 10 11
REMARK Flexibility Score: inf
ROOT
ATOM      1  C   UNL     1     148.123 144.984 160.382  1.00  0.00     0.039 A 
ATOM      2  C   UNL     1     148.530 144.741 161.716  1.00  0.00     0.124 A 
ATOM      3  C   UNL     1     147.050 145.866 160.150  1.00  0.00     0.014 A 
ATOM      4  C   UNL     1     147.864 145.378 162.776  1.00  0.00     0.047 A 
ATOM      5  C   UNL     1     146.397 146.492 161.214  1.00  0.00     0.001 A 
ATOM      6  C   UNL     1     146.804 146.248 162.525  1.00  0.00     0.004 A 
ENDROOT
BRANCH   1   7
ATOM      7  C   UNL     1     148.793 144.337 159.226  1.00  0.00     0.075 C 
ATOM      8  O   UNL     1     148.156 144.064 158.175  1.00  0.00    -0.545 OA
ATOM      9  O   UNL     1     150.146 144.019 159.287  1.00  0.00    -0.545 OA
ENDBRANCH   1   7
BRANCH   2  10
ATOM     10  O   UNL     1     149.587 143.876 161.994  1.00  0.00    -0.507 OA
ATOM     11  H   UNL     1     149.495 142.872 161.892  1.00  0.00     0.293 HD
ENDBRANCH   2  10
TORSDOF 2
ENDMDL
MODEL 9
REMARK VINA RESULT:    -3.120     13.841     15.024
REMARK INTER + INTRA:          -3.606
REMARK INTER:                  -3.379
REMARK INTRA:                  -0.228
REMARK UNBOUND:                -0.212
REMARK SMILES O=C([O-])c1ccccc1O
REMARK SMILES IDX 4 1 9 2 5 3 8 4 6 5 7 6 2 7 1 8 3 9 10 10
REMARK H PARENT 10 11
REMARK Flexibility Score: inf
ROOT
ATOM      1  C   UNL     1     147.799 145.319 161.193  1.00  0.00     0.039 A 
ATOM      2  C   UNL     1     148.900 144.471 160.923  1.00  0.00     0.124 A 
ATOM      3  C   UNL     1     147.108 145.899 160.112  1.00  0.00     0.014 A 
ATOM      4  C   UNL     1     149.282 144.224 159.595  1.00  0.00     0.047 A 
ATOM      5  C   UNL     1     147.499 145.643 158.795  1.00  0.00     0.001 A 
ATOM      6  C   UNL     1     148.585 144.808 158.538  1.00  0.00     0.004 A 
ENDROOT
BRANCH   1   7
ATOM      7  C   UNL     1     147.354 145.612 162.579  1.00  0.00     0.075 C 
ATOM      8  O   UNL     1     147.499 144.766 163.501  1.00  0.00    -0.545 OA
ATOM      9  O   UNL     1     146.764 146.835 162.883  1.00  0.00    -0.545 OA
ENDBRANCH   1   7
BRANCH   2  10
ATOM     10  O   UNL     1     149.614 143.875 161.963  1.00  0.00    -0.507 OA
ATOM     11  H   UNL     1     149.740 142.871 162.015  1.00  0.00     0.293 HD
ENDBRANCH   2  10
TORSDOF 2
ENDMDL
