MODEL 1
REMARK VINA RESULT:     5.090      0.000      0.000
REMARK INTER + INTRA:           8.090
REMARK INTER:                   7.769
REMARK INTRA:                   0.321
REMARK UNBOUND:                 0.321
REMARK SMILES O=C([O-])CCCCCCCCC(=O)[O-]
REMARK SMILES IDX 7 1 6 2 5 3 4 4 2 5 1 6 3 7 8 8 9 9 10 10 11 11 12 12 13 13
REMARK SMILES IDX 14 14
REMARK H PARENT
REMARK Flexibility Score: inf
ROOT
ATOM      1  C   UNL     1     -13.049  17.841 -10.622  1.00  0.00     0.000 C 
ENDROOT
BRANCH   1   2
ATOM      2  C   UNL     1     -13.100  19.203 -11.338  1.00  0.00     0.000 C 
BRANCH   2   3
ATOM      3  C   UNL     1     -13.086  19.075 -12.870  1.00  0.00     0.006 C 
BRANCH   3   4
ATOM      4  C   UNL     1     -11.863  19.780 -13.467  1.00  0.00     0.053 C 
BRANCH   4   5
ATOM      5  C   UNL     1     -11.625  19.317 -14.869  1.00  0.00     0.041 C 
ATOM      6  O   UNL     1     -12.315  18.382 -15.353  1.00  0.00    -0.550 OA
ATOM      7  O   UNL     1     -10.608  19.884 -15.625  1.00  0.00    -0.550 OA
ENDBRANCH   4   5
ENDBRANCH   3   4
ENDBRANCH   2   3
ENDBRANCH   1   2
BRANCH   1   8
ATOM      8  C   UNL     1     -12.297  17.839  -9.280  1.00  0.00     0.000 C 
BRANCH   8   9
ATOM      9  C   UNL     1     -13.237  17.856  -8.065  1.00  0.00     0.000 C 
BRANCH   9  10
ATOM     10  C   UNL     1     -13.519  19.292  -7.608  1.00  0.00     0.006 C 
BRANCH  10  11
ATOM     11  C   UNL     1     -12.846  20.307  -8.538  1.00  0.00     0.053 C 
BRANCH  11  12
ATOM     12  C   UNL     1     -11.980  21.242  -7.755  1.00  0.00     0.041 C 
ATOM     13  O   UNL     1     -10.896  21.660  -8.241  1.00  0.00    -0.550 OA
ATOM     14  O   UNL     1     -12.346  21.613  -6.467  1.00  0.00    -0.550 OA
ENDBRANCH  11  12
ENDBRANCH  10  11
ENDBRANCH   9  10
ENDBRANCH   8   9
ENDBRANCH   1   8
TORSDOF 9
ENDMDL
MODEL 2
REMARK VINA RESULT:     5.116      0.072      6.288
REMARK INTER + INTRA:           8.130
REMARK INTER:                   8.016
REMARK INTRA:                   0.114
REMARK UNBOUND:                 0.321
REMARK SMILES O=C([O-])CCCCCCCCC(=O)[O-]
REMARK SMILES IDX 7 1 6 2 5 3 4 4 2 5 1 6 3 7 8 8 9 9 10 10 11 11 12 12 13 13
REMARK SMILES IDX 14 14
REMARK H PARENT
REMARK Flexibility Score: inf
ROOT
ATOM      1  C   UNL     1     -12.324  17.848  -9.257  1.00  0.00     0.000 C 
ENDROOT
BRANCH   1   2
ATOM      2  C   UNL     1     -13.334  17.914  -8.097  1.00  0.00     0.000 C 
BRANCH   2   3
ATOM      3  C   UNL     1     -13.538  19.340  -7.561  1.00  0.00     0.006 C 
BRANCH   3   4
ATOM      4  C   UNL     1     -12.882  20.371  -8.485  1.00  0.00     0.053 C 
BRANCH   4   5
ATOM      5  C   UNL     1     -11.965  21.263  -7.707  1.00  0.00     0.041 C 
ATOM      6  O   UNL     1     -10.876  21.644  -8.210  1.00  0.00    -0.550 OA
ATOM      7  O   UNL     1     -12.291  21.631  -6.409  1.00  0.00    -0.550 OA
ENDBRANCH   4   5
ENDBRANCH   3   4
ENDBRANCH   2   3
ENDBRANCH   1   2
BRANCH   1   8
ATOM      8  C   UNL     1     -12.949  17.781 -10.661  1.00  0.00     0.000 C 
BRANCH   8   9
ATOM      9  C   UNL     1     -13.103  19.162 -11.316  1.00  0.00     0.000 C 
BRANCH   9  10
ATOM     10  C   UNL     1     -13.108  19.048 -12.845  1.00  0.00     0.006 C 
BRANCH  10  11
ATOM     11  C   UNL     1     -11.908  19.780 -13.454  1.00  0.00     0.053 C 
BRANCH  11  12
ATOM     12  C   UNL     1     -11.659  19.305 -14.851  1.00  0.00     0.041 C 
ATOM     13  O   UNL     1     -12.382  18.404 -15.352  1.00  0.00    -0.550 OA
ATOM     14  O   UNL     1     -10.598  19.823 -15.582  1.00  0.00    -0.550 OA
ENDBRANCH  11  12
ENDBRANCH  10  11
ENDBRANCH   9  10
ENDBRANCH   8   9
ENDBRANCH   1   8
TORSDOF 9
ENDMDL
MODEL 3
REMARK VINA RESULT:     6.124     14.711     16.797
REMARK INTER + INTRA:           9.667
REMARK INTER:                   9.862
REMARK INTRA:                  -0.195
REMARK UNBOUND:                 0.321
REMARK SMILES O=C([O-])CCCCCCCCC(=O)[O-]
REMARK SMILES IDX 7 1 6 2 5 3 4 4 2 5 1 6 3 7 8 8 9 9 10 10 11 11 12 12 13 13
REMARK SMILES IDX 14 14
REMARK H PARENT
REMARK Flexibility Score: inf
ROOT
ATOM      1  C   UNL     1     -16.193   7.905  -3.802  1.00  0.00     0.000 C 
ENDROOT
BRANCH   1   2
ATOM      2  C   UNL     1     -14.891   8.296  -3.079  1.00  0.00     0.000 C 
BRANCH   2   3
ATOM      3  C   UNL     1     -13.714   7.369  -3.419  1.00  0.00     0.006 C 
BRANCH   3   4
ATOM      4  C   UNL     1     -12.380   8.012  -3.029  1.00  0.00     0.053 C 
BRANCH   4   5
ATOM      5  C   UNL     1     -11.308   6.973  -2.925  1.00  0.00     0.041 C 
ATOM      6  O   UNL     1     -10.096   7.313  -2.913  1.00  0.00    -0.550 OA
ATOM      7  O   UNL     1     -11.647   5.627  -2.893  1.00  0.00    -0.550 OA
ENDBRANCH   4   5
ENDBRANCH   3   4
ENDBRANCH   2   3
ENDBRANCH   1   2
BRANCH   1   8
ATOM      8  C   UNL     1     -17.374   7.565  -2.877  1.00  0.00     0.000 C 
BRANCH   8   9
ATOM      9  C   UNL     1     -18.572   6.966  -3.629  1.00  0.00     0.000 C 
BRANCH   9  10
ATOM     10  C   UNL     1     -18.837   5.524  -3.181  1.00  0.00     0.006 C 
BRANCH  10  11
ATOM     11  C   UNL     1     -20.292   5.124  -3.444  1.00  0.00     0.053 C 
BRANCH  11  12
ATOM     12  C   UNL     1     -20.509   3.683  -3.104  1.00  0.00     0.041 C 
ATOM     13  O   UNL     1     -19.526   2.905  -2.984  1.00  0.00    -0.550 OA
ATOM     14  O   UNL     1     -21.800   3.189  -2.968  1.00  0.00    -0.550 OA
ENDBRANCH  11  12
ENDBRANCH  10  11
ENDBRANCH   9  10
ENDBRANCH   8   9
ENDBRANCH   1   8
TORSDOF 9
ENDMDL
MODEL 4
REMARK VINA RESULT:     7.198     14.602     17.831
REMARK INTER + INTRA:          11.306
REMARK INTER:                  11.486
REMARK INTRA:                  -0.180
REMARK UNBOUND:                 0.321
REMARK SMILES O=C([O-])CCCCCCCCC(=O)[O-]
REMARK SMILES IDX 7 1 6 2 5 3 4 4 2 5 1 6 3 7 8 8 9 9 10 10 11 11 12 12 13 13
REMARK SMILES IDX 14 14
REMARK H PARENT
REMARK Flexibility Score: inf
ROOT
ATOM      1  C   UNL     1      -8.550   5.155 -19.396  1.00  0.00     0.000 C 
ENDROOT
BRANCH   1   2
ATOM      2  C   UNL     1      -7.283   5.992 -19.143  1.00  0.00     0.000 C 
BRANCH   2   3
ATOM      3  C   UNL     1      -7.532   7.192 -18.215  1.00  0.00     0.006 C 
BRANCH   3   4
ATOM      4  C   UNL     1      -7.935   8.432 -19.020  1.00  0.00     0.053 C 
BRANCH   4   5
ATOM      5  C   UNL     1      -7.990   9.636 -18.133  1.00  0.00     0.041 C 
ATOM      6  O   UNL     1      -7.781  10.783 -18.609  1.00  0.00    -0.550 OA
ATOM      7  O   UNL     1      -8.222   9.487 -16.772  1.00  0.00    -0.550 OA
ENDBRANCH   4   5
ENDBRANCH   3   4
ENDBRANCH   2   3
ENDBRANCH   1   2
BRANCH   1   8
ATOM      8  C   UNL     1      -8.384   4.016 -20.416  1.00  0.00     0.000 C 
BRANCH   8   9
ATOM      9  C   UNL     1      -6.985   3.976 -21.050  1.00  0.00     0.000 C 
BRANCH   9  10
ATOM     10  C   UNL     1      -7.060   4.209 -22.563  1.00  0.00     0.006 C 
BRANCH  10  11
ATOM     11  C   UNL     1      -8.487   4.001 -23.081  1.00  0.00     0.053 C 
BRANCH  11  12
ATOM     12  C   UNL     1      -9.234   5.297 -23.095  1.00  0.00     0.041 C 
ATOM     13  O   UNL     1     -10.493   5.303 -23.125  1.00  0.00    -0.550 OA
ATOM     14  O   UNL     1      -8.539   6.499 -23.125  1.00  0.00    -0.550 OA
ENDBRANCH  11  12
ENDBRANCH  10  11
ENDBRANCH   9  10
ENDBRANCH   8   9
ENDBRANCH   1   8
TORSDOF 9
ENDMDL
