MODEL 1
REMARK VINA RESULT:    -5.450      0.000      0.000
REMARK INTER + INTRA:         -10.133
REMARK INTER:                  -8.158
REMARK INTRA:                  -1.975
REMARK UNBOUND:                -1.975
REMARK SMILES C=C(CC[C@H](C(=O)[O-])[C@@H]1[C@@H](O)C[C@@]2(C)C3=C(CC[C@]12C)[C@]1(C)CC[C@@H](OC(C)=O)C(C)(C)[C@@H]1CC3)C(C)C
REMARK SMILES IDX 4 1 5 2 6 3 7 4 8 5 9 6 10 7 19 8 12 9 13 10 18 11 20 12
REMARK SMILES IDX 14 13 15 14 17 15 16 16 35 17 21 18 34 19 33 20 23 21 22 22
REMARK SMILES IDX 30 23 24 24 25 25 31 26 32 27 11 28 26 30 27 31 29 32 28 33
REMARK SMILES IDX 3 34 2 35 1 36 36 37 37 38 38 39
REMARK H PARENT 11 29
REMARK Flexibility Score: inf
ROOT
ATOM      1  C   UNL     1      -3.072 -15.268 -32.135  1.00  0.00     0.014 C 
ENDROOT
BRANCH   1   2
ATOM      2  C   UNL     1      -2.463 -16.041 -33.338  1.00  0.00     0.042 C 
BRANCH   2   3
ATOM      3  C   UNL     1      -2.139 -17.448 -32.886  1.00  0.00     0.045 C 
ATOM      4  O   UNL     1      -1.047 -17.681 -32.301  1.00  0.00    -0.550 OA
ATOM      5  O   UNL     1      -3.007 -18.503 -33.154  1.00  0.00    -0.550 OA
ENDBRANCH   2   3
BRANCH   2   6
ATOM      6  C   UNL     1      -1.228 -15.340 -34.014  1.00  0.00     0.033 C 
ATOM      7  C   UNL     1      -0.591 -14.190 -33.170  1.00  0.00     0.119 C 
ATOM      8  C   UNL     1      -1.465 -14.683 -35.426  1.00  0.00    -0.017 C 
ATOM      9  C   UNL     1      -0.460 -12.958 -34.088  1.00  0.00     0.043 C 
ATOM     10  C   UNL     1      -1.556 -13.155 -35.138  1.00  0.00    -0.003 C 
ATOM     11  C   UNL     1      -2.713 -15.068 -36.252  1.00  0.00     0.012 C 
ATOM     12  C   UNL     1      -0.210 -15.066 -36.292  1.00  0.00     0.013 C 
ATOM     13  C   UNL     1      -2.897 -12.664 -34.504  1.00  0.00     0.017 C 
ATOM     14  C   UNL     1      -1.423 -12.395 -36.449  1.00  0.00    -0.064 C 
ATOM     15  C   UNL     1      -2.858 -14.185 -37.526  1.00  0.00     0.032 C 
ATOM     16  C   UNL     1      -2.135 -12.815 -37.540  1.00  0.00    -0.064 C 
ATOM     17  C   UNL     1      -0.733 -11.057 -36.494  1.00  0.00     0.032 C 
ATOM     18  C   UNL     1      -2.049 -11.999 -38.862  1.00  0.00    -0.008 C 
ATOM     19  C   UNL     1      -1.689 -10.055 -37.113  1.00  0.00     0.009 C 
ATOM     20  C   UNL     1      -2.081 -10.416 -38.591  1.00  0.00     0.009 C 
ATOM     21  C   UNL     1      -0.730 -12.464 -39.545  1.00  0.00     0.015 C 
ATOM     22  C   UNL     1      -3.254 -12.380 -39.771  1.00  0.00     0.016 C 
ATOM     23  C   UNL     1      -1.412  -9.500 -39.730  1.00  0.00     0.005 C 
ATOM     24  C   UNL     1      -0.277 -11.587 -40.703  1.00  0.00     0.047 C 
ATOM     25  C   UNL     1      -0.091 -10.135 -40.256  1.00  0.00     0.182 C 
ATOM     26  C   UNL     1      -1.076  -8.073 -39.209  1.00  0.00     0.015 C 
ATOM     27  C   UNL     1      -2.407  -9.264 -40.913  1.00  0.00     0.015 C 
BRANCH   7  28
ATOM     28  O   UNL     1       0.672 -14.569 -32.686  1.00  0.00    -0.393 OA
ATOM     29  H   UNL     1       0.766 -15.540 -32.867  1.00  0.00     0.210 HD
ENDBRANCH   7  28
BRANCH  25  30
ATOM     30  O   UNL     1       0.427  -9.391 -41.366  1.00  0.00    -0.462 OA
BRANCH  30  31
ATOM     31  C   UNL     1       1.557  -9.756 -42.106  1.00  0.00     0.302 C 
ATOM     32  O   UNL     1       2.608 -10.154 -41.533  1.00  0.00    -0.253 OA
ATOM     33  C   UNL     1       1.532  -9.622 -43.590  1.00  0.00     0.139 C 
ENDBRANCH  30  31
ENDBRANCH  25  30
ENDBRANCH   2   6
ENDBRANCH   1   2
BRANCH   1  34
ATOM     34  C   UNL     1      -4.569 -15.533 -31.890  1.00  0.00     0.031 C 
BRANCH  34  35
ATOM     35  C   UNL     1      -5.416 -14.391 -32.417  1.00  0.00    -0.075 C 
ATOM     36  C   UNL     1      -5.279 -13.169 -31.875  1.00  0.00     0.008 C 
BRANCH  35  37
ATOM     37  C   UNL     1      -6.379 -14.598 -33.580  1.00  0.00     0.008 C 
ATOM     38  C   UNL     1      -7.823 -14.740 -33.089  1.00  0.00     0.012 C 
ATOM     39  C   UNL     1      -5.965 -15.801 -34.436  1.00  0.00     0.012 C 
ENDBRANCH  35  37
ENDBRANCH  34  35
ENDBRANCH   1  34
TORSDOF 9
ENDMDL
MODEL 2
REMARK VINA RESULT:    -5.416      2.174      4.493
REMARK INTER + INTRA:         -10.083
REMARK INTER:                  -7.982
REMARK INTRA:                  -2.101
REMARK UNBOUND:                -1.975
REMARK SMILES C=C(CC[C@H](C(=O)[O-])[C@@H]1[C@@H](O)C[C@@]2(C)C3=C(CC[C@]12C)[C@]1(C)CC[C@@H](OC(C)=O)C(C)(C)[C@@H]1CC3)C(C)C
REMARK SMILES IDX 4 1 5 2 6 3 7 4 8 5 9 6 10 7 19 8 12 9 13 10 18 11 20 12
REMARK SMILES IDX 14 13 15 14 17 15 16 16 35 17 21 18 34 19 33 20 23 21 22 22
REMARK SMILES IDX 30 23 24 24 25 25 31 26 32 27 11 28 26 30 27 31 29 32 28 33
REMARK SMILES IDX 3 34 2 35 1 36 36 37 37 38 38 39
REMARK H PARENT 11 29
REMARK Flexibility Score: inf
ROOT
ATOM      1  C   UNL     1      -1.142 -16.083 -33.724  1.00  0.00     0.014 C 
ENDROOT
BRANCH   1   2
ATOM      2  C   UNL     1      -2.344 -15.099 -33.680  1.00  0.00     0.042 C 
BRANCH   2   3
ATOM      3  C   UNL     1      -3.265 -15.519 -32.557  1.00  0.00     0.045 C 
ATOM      4  O   UNL     1      -3.893 -14.644 -31.902  1.00  0.00    -0.550 OA
ATOM      5  O   UNL     1      -3.392 -16.859 -32.199  1.00  0.00    -0.550 OA
ENDBRANCH   2   3
BRANCH   2   6
ATOM      6  C   UNL     1      -3.112 -14.937 -35.044  1.00  0.00     0.033 C 
ATOM      7  C   UNL     1      -2.913 -16.118 -36.046  1.00  0.00     0.119 C 
ATOM      8  C   UNL     1      -2.784 -13.656 -35.900  1.00  0.00    -0.017 C 
ATOM      9  C   UNL     1      -2.515 -15.510 -37.406  1.00  0.00     0.043 C 
ATOM     10  C   UNL     1      -1.861 -14.175 -37.043  1.00  0.00    -0.003 C 
ATOM     11  C   UNL     1      -2.067 -12.456 -35.242  1.00  0.00     0.012 C 
ATOM     12  C   UNL     1      -4.168 -13.128 -36.427  1.00  0.00     0.013 C 
ATOM     13  C   UNL     1      -0.384 -14.479 -36.634  1.00  0.00     0.017 C 
ATOM     14  C   UNL     1      -1.773 -13.113 -38.129  1.00  0.00    -0.064 C 
ATOM     15  C   UNL     1      -1.676 -11.372 -36.289  1.00  0.00     0.032 C 
ATOM     16  C   UNL     1      -1.564 -11.809 -37.771  1.00  0.00    -0.064 C 
ATOM     17  C   UNL     1      -1.653 -13.505 -39.578  1.00  0.00     0.032 C 
ATOM     18  C   UNL     1      -1.408 -10.733 -38.885  1.00  0.00    -0.008 C 
ATOM     19  C   UNL     1      -0.422 -12.830 -40.149  1.00  0.00     0.009 C 
ATOM     20  C   UNL     1      -0.508 -11.261 -40.106  1.00  0.00     0.009 C 
ATOM     21  C   UNL     1      -2.861 -10.380 -39.319  1.00  0.00     0.015 C 
ATOM     22  C   UNL     1      -0.738  -9.467 -38.275  1.00  0.00     0.016 C 
ATOM     23  C   UNL     1      -0.760 -10.542 -41.521  1.00  0.00     0.005 C 
ATOM     24  C   UNL     1      -2.956  -9.574 -40.606  1.00  0.00     0.047 C 
ATOM     25  C   UNL     1      -2.281 -10.307 -41.768  1.00  0.00     0.182 C 
ATOM     26  C   UNL     1      -0.212 -11.383 -42.710  1.00  0.00     0.015 C 
ATOM     27  C   UNL     1       0.016  -9.187 -41.605  1.00  0.00     0.015 C 
BRANCH   7  28
ATOM     28  O   UNL     1      -4.095 -16.865 -36.178  1.00  0.00    -0.393 OA
ATOM     29  H   UNL     1      -3.825 -17.782 -36.442  1.00  0.00     0.210 HD
ENDBRANCH   7  28
BRANCH  25  30
ATOM     30  O   UNL     1      -2.492  -9.541 -42.960  1.00  0.00    -0.462 OA
BRANCH  30  31
ATOM     31  C   UNL     1      -3.749  -9.243 -43.497  1.00  0.00     0.302 C 
ATOM     32  O   UNL     1      -4.691 -10.079 -43.448  1.00  0.00    -0.253 OA
ATOM     33  C   UNL     1      -3.957  -7.937 -44.184  1.00  0.00     0.139 C 
ENDBRANCH  30  31
ENDBRANCH  25  30
ENDBRANCH   2   6
ENDBRANCH   1   2
BRANCH   1  34
ATOM     34  C   UNL     1      -0.023 -15.779 -32.710  1.00  0.00     0.031 C 
BRANCH  34  35
ATOM     35  C   UNL     1       1.134 -15.062 -33.377  1.00  0.00    -0.075 C 
ATOM     36  C   UNL     1       1.880 -15.721 -34.280  1.00  0.00     0.008 C 
BRANCH  35  37
ATOM     37  C   UNL     1       1.430 -13.598 -33.076  1.00  0.00     0.008 C 
ATOM     38  C   UNL     1       0.236 -12.915 -32.403  1.00  0.00     0.012 C 
ATOM     39  C   UNL     1       1.855 -12.846 -34.343  1.00  0.00     0.012 C 
ENDBRANCH  35  37
ENDBRANCH  34  35
ENDBRANCH   1  34
TORSDOF 9
ENDMDL
MODEL 3
REMARK VINA RESULT:    -5.330      2.779      9.472
REMARK INTER + INTRA:          -9.954
REMARK INTER:                  -7.725
REMARK INTRA:                  -2.229
REMARK UNBOUND:                -1.975
REMARK SMILES C=C(CC[C@H](C(=O)[O-])[C@@H]1[C@@H](O)C[C@@]2(C)C3=C(CC[C@]12C)[C@]1(C)CC[C@@H](OC(C)=O)C(C)(C)[C@@H]1CC3)C(C)C
REMARK SMILES IDX 4 1 5 2 6 3 7 4 8 5 9 6 10 7 19 8 12 9 13 10 18 11 20 12
REMARK SMILES IDX 14 13 15 14 17 15 16 16 35 17 21 18 34 19 33 20 23 21 22 22
REMARK SMILES IDX 30 23 24 24 25 25 31 26 32 27 11 28 26 30 27 31 29 32 28 33
REMARK SMILES IDX 3 34 2 35 1 36 36 37 37 38 38 39
REMARK H PARENT 11 29
REMARK Flexibility Score: inf
ROOT
ATOM      1  C   UNL     1      -1.487  -9.553 -42.269  1.00  0.00     0.014 C 
ENDROOT
BRANCH   1   2
ATOM      2  C   UNL     1      -0.942 -10.525 -41.186  1.00  0.00     0.042 C 
BRANCH   2   3
ATOM      3  C   UNL     1       0.546 -10.689 -41.397  1.00  0.00     0.045 C 
ATOM      4  O   UNL     1       1.101 -11.785 -41.115  1.00  0.00    -0.550 OA
ATOM      5  O   UNL     1       1.326  -9.629 -41.851  1.00  0.00    -0.550 OA
ENDBRANCH   2   3
BRANCH   2   6
ATOM      6  C   UNL     1      -1.683 -11.910 -41.111  1.00  0.00     0.033 C 
ATOM      7  C   UNL     1      -2.987 -11.996 -41.967  1.00  0.00     0.119 C 
ATOM      8  C   UNL     1      -2.138 -12.401 -39.684  1.00  0.00    -0.017 C 
ATOM      9  C   UNL     1      -4.106 -12.536 -41.055  1.00  0.00     0.043 C 
ATOM     10  C   UNL     1      -3.671 -12.130 -39.646  1.00  0.00    -0.003 C 
ATOM     11  C   UNL     1      -1.526 -11.755 -38.420  1.00  0.00     0.012 C 
ATOM     12  C   UNL     1      -1.788 -13.932 -39.629  1.00  0.00     0.013 C 
ATOM     13  C   UNL     1      -4.090 -10.638 -39.444  1.00  0.00     0.017 C 
ATOM     14  C   UNL     1      -4.278 -12.885 -38.473  1.00  0.00    -0.064 C 
ATOM     15  C   UNL     1      -2.230 -12.249 -37.122  1.00  0.00     0.032 C 
ATOM     16  C   UNL     1      -3.657 -12.837 -37.255  1.00  0.00    -0.064 C 
ATOM     17  C   UNL     1      -5.666 -13.461 -38.567  1.00  0.00     0.032 C 
ATOM     18  C   UNL     1      -4.313 -13.555 -36.040  1.00  0.00    -0.008 C 
ATOM     19  C   UNL     1      -6.480 -12.921 -37.407  1.00  0.00     0.009 C 
ATOM     20  C   UNL     1      -5.904 -13.342 -36.007  1.00  0.00     0.009 C 
ATOM     21  C   UNL     1      -3.912 -15.052 -36.184  1.00  0.00     0.015 C 
ATOM     22  C   UNL     1      -3.700 -12.989 -34.726  1.00  0.00     0.016 C 
ATOM     23  C   UNL     1      -6.743 -14.467 -35.223  1.00  0.00     0.005 C 
ATOM     24  C   UNL     1      -4.686 -16.003 -35.283  1.00  0.00     0.047 C 
ATOM     25  C   UNL     1      -6.192 -15.892 -35.529  1.00  0.00     0.182 C 
ATOM     26  C   UNL     1      -8.250 -14.449 -35.611  1.00  0.00     0.015 C 
ATOM     27  C   UNL     1      -6.729 -14.203 -33.682  1.00  0.00     0.015 C 
BRANCH   7  28
ATOM     28  O   UNL     1      -2.805 -12.851 -43.067  1.00  0.00    -0.393 OA
ATOM     29  H   UNL     1      -2.499 -12.283 -43.821  1.00  0.00     0.210 HD
ENDBRANCH   7  28
BRANCH  25  30
ATOM     30  O   UNL     1      -6.848 -16.877 -34.722  1.00  0.00    -0.462 OA
BRANCH  30  31
ATOM     31  C   UNL     1      -7.332 -18.100 -35.201  1.00  0.00     0.302 C 
ATOM     32  O   UNL     1      -7.700 -19.008 -34.409  1.00  0.00    -0.253 OA
ATOM     33  C   UNL     1      -7.361 -18.346 -36.671  1.00  0.00     0.139 C 
ENDBRANCH  30  31
ENDBRANCH  25  30
ENDBRANCH   2   6
ENDBRANCH   1   2
BRANCH   1  34
ATOM     34  C   UNL     1      -2.290  -8.359 -41.719  1.00  0.00     0.031 C 
BRANCH  34  35
ATOM     35  C   UNL     1      -3.591  -8.184 -42.477  1.00  0.00    -0.075 C 
ATOM     36  C   UNL     1      -4.530  -7.357 -41.984  1.00  0.00     0.008 C 
BRANCH  35  37
ATOM     37  C   UNL     1      -3.828  -8.888 -43.807  1.00  0.00     0.008 C 
ATOM     38  C   UNL     1      -3.728  -7.910 -44.981  1.00  0.00     0.012 C 
ATOM     39  C   UNL     1      -5.173  -9.624 -43.813  1.00  0.00     0.012 C 
ENDBRANCH  35  37
ENDBRANCH  34  35
ENDBRANCH   1  34
TORSDOF 9
ENDMDL
MODEL 4
REMARK VINA RESULT:    -5.235      5.464      8.509
REMARK INTER + INTRA:          -9.812
REMARK INTER:                  -7.702
REMARK INTRA:                  -2.110
REMARK UNBOUND:                -1.975
REMARK SMILES C=C(CC[C@H](C(=O)[O-])[C@@H]1[C@@H](O)C[C@@]2(C)C3=C(CC[C@]12C)[C@]1(C)CC[C@@H](OC(C)=O)C(C)(C)[C@@H]1CC3)C(C)C
REMARK SMILES IDX 4 1 5 2 6 3 7 4 8 5 9 6 10 7 19 8 12 9 13 10 18 11 20 12
REMARK SMILES IDX 14 13 15 14 17 15 16 16 35 17 21 18 34 19 33 20 23 21 22 22
REMARK SMILES IDX 30 23 24 24 25 25 31 26 32 27 11 28 26 30 27 31 29 32 28 33
REMARK SMILES IDX 3 34 2 35 1 36 36 37 37 38 38 39
REMARK H PARENT 11 29
REMARK Flexibility Score: inf
ROOT
ATOM      1  C   UNL     1       5.506 -20.794 -33.016  1.00  0.00     0.014 C 
ENDROOT
BRANCH   1   2
ATOM      2  C   UNL     1       3.955 -20.699 -33.022  1.00  0.00     0.042 C 
BRANCH   2   3
ATOM      3  C   UNL     1       3.391 -22.098 -32.925  1.00  0.00     0.045 C 
ATOM      4  O   UNL     1       4.153 -23.061 -32.642  1.00  0.00    -0.550 OA
ATOM      5  O   UNL     1       2.049 -22.349 -33.195  1.00  0.00    -0.550 OA
ENDBRANCH   2   3
BRANCH   2   6
ATOM      6  C   UNL     1       3.349 -19.902 -34.236  1.00  0.00     0.033 C 
ATOM      7  C   UNL     1       4.394 -19.091 -35.067  1.00  0.00     0.119 C 
ATOM      8  C   UNL     1       2.228 -18.844 -33.907  1.00  0.00    -0.017 C 
ATOM      9  C   UNL     1       3.857 -17.653 -35.212  1.00  0.00     0.043 C 
ATOM     10  C   UNL     1       2.950 -17.467 -33.993  1.00  0.00    -0.003 C 
ATOM     11  C   UNL     1       1.500 -18.896 -32.545  1.00  0.00     0.012 C 
ATOM     12  C   UNL     1       1.131 -19.027 -35.018  1.00  0.00     0.013 C 
ATOM     13  C   UNL     1       3.870 -17.108 -32.782  1.00  0.00     0.017 C 
ATOM     14  C   UNL     1       1.905 -16.363 -34.052  1.00  0.00    -0.064 C 
ATOM     15  C   UNL     1       0.562 -17.670 -32.345  1.00  0.00     0.032 C 
ATOM     16  C   UNL     1       0.845 -16.401 -33.188  1.00  0.00    -0.064 C 
ATOM     17  C   UNL     1       2.154 -15.114 -34.855  1.00  0.00     0.032 C 
ATOM     18  C   UNL     1      -0.188 -15.237 -33.204  1.00  0.00    -0.008 C 
ATOM     19  C   UNL     1       1.979 -13.920 -33.936  1.00  0.00     0.009 C 
ATOM     20  C   UNL     1       0.525 -13.806 -33.351  1.00  0.00     0.009 C 
ATOM     21  C   UNL     1      -1.145 -15.555 -34.390  1.00  0.00     0.015 C 
ATOM     22  C   UNL     1      -1.000 -15.263 -31.876  1.00  0.00     0.016 C 
ATOM     23  C   UNL     1      -0.382 -12.634 -33.974  1.00  0.00     0.005 C 
ATOM     24  C   UNL     1      -2.054 -14.403 -34.794  1.00  0.00     0.047 C 
ATOM     25  C   UNL     1      -1.239 -13.162 -35.164  1.00  0.00     0.182 C 
ATOM     26  C   UNL     1       0.476 -11.447 -34.498  1.00  0.00     0.015 C 
ATOM     27  C   UNL     1      -1.306 -12.002 -32.882  1.00  0.00     0.015 C 
BRANCH   7  28
ATOM     28  O   UNL     1       4.578 -19.668 -36.335  1.00  0.00    -0.393 OA
ATOM     29  H   UNL     1       3.755 -19.479 -36.855  1.00  0.00     0.210 HD
ENDBRANCH   7  28
BRANCH  25  30
ATOM     30  O   UNL     1      -2.148 -12.154 -35.624  1.00  0.00    -0.462 OA
BRANCH  30  31
ATOM     31  C   UNL     1      -2.162 -11.633 -36.923  1.00  0.00     0.302 C 
ATOM     32  O   UNL     1      -1.681 -10.495 -37.171  1.00  0.00    -0.253 OA
ATOM     33  C   UNL     1      -2.802 -12.418 -38.016  1.00  0.00     0.139 C 
ENDBRANCH  30  31
ENDBRANCH  25  30
ENDBRANCH   2   6
ENDBRANCH   1   2
BRANCH   1  34
ATOM     34  C   UNL     1       6.194 -20.018 -31.877  1.00  0.00     0.031 C 
BRANCH  34  35
ATOM     35  C   UNL     1       7.423 -19.287 -32.382  1.00  0.00    -0.075 C 
ATOM     36  C   UNL     1       8.639 -19.804 -32.136  1.00  0.00     0.008 C 
BRANCH  35  37
ATOM     37  C   UNL     1       7.297 -18.010 -33.202  1.00  0.00     0.008 C 
ATOM     38  C   UNL     1       7.967 -18.158 -34.572  1.00  0.00     0.012 C 
ATOM     39  C   UNL     1       7.859 -16.803 -32.440  1.00  0.00     0.012 C 
ENDBRANCH  35  37
ENDBRANCH  34  35
ENDBRANCH   1  34
TORSDOF 9
ENDMDL
MODEL 5
REMARK VINA RESULT:    -5.221     11.120     13.266
REMARK INTER + INTRA:          -9.791
REMARK INTER:                  -8.255
REMARK INTRA:                  -1.537
REMARK UNBOUND:                -1.975
REMARK SMILES C=C(CC[C@H](C(=O)[O-])[C@@H]1[C@@H](O)C[C@@]2(C)C3=C(CC[C@]12C)[C@]1(C)CC[C@@H](OC(C)=O)C(C)(C)[C@@H]1CC3)C(C)C
REMARK SMILES IDX 4 1 5 2 6 3 7 4 8 5 9 6 10 7 19 8 12 9 13 10 18 11 20 12
REMARK SMILES IDX 14 13 15 14 17 15 16 16 35 17 21 18 34 19 33 20 23 21 22 22
REMARK SMILES IDX 30 23 24 24 25 25 31 26 32 27 11 28 26 30 27 31 29 32 28 33
REMARK SMILES IDX 3 34 2 35 1 36 36 37 37 38 38 39
REMARK H PARENT 11 29
REMARK Flexibility Score: inf
ROOT
ATOM      1  C   UNL     1      -1.239 -27.125 -45.295  1.00  0.00     0.014 C 
ENDROOT
BRANCH   1   2
ATOM      2  C   UNL     1      -0.345 -25.888 -45.587  1.00  0.00     0.042 C 
BRANCH   2   3
ATOM      3  C   UNL     1       0.418 -26.141 -46.867  1.00  0.00     0.045 C 
ATOM      4  O   UNL     1      -0.205 -26.481 -47.909  1.00  0.00    -0.550 OA
ATOM      5  O   UNL     1       1.807 -26.057 -46.902  1.00  0.00    -0.550 OA
ENDBRANCH   2   3
BRANCH   2   6
ATOM      6  C   UNL     1       0.608 -25.470 -44.406  1.00  0.00     0.033 C 
ATOM      7  C   UNL     1       0.331 -26.207 -43.056  1.00  0.00     0.119 C 
ATOM      8  C   UNL     1       0.623 -23.946 -44.006  1.00  0.00    -0.017 C 
ATOM      9  C   UNL     1       0.224 -25.134 -41.955  1.00  0.00     0.043 C 
ATOM     10  C   UNL     1      -0.224 -23.875 -42.700  1.00  0.00    -0.003 C 
ATOM     11  C   UNL     1       0.053 -22.891 -44.980  1.00  0.00     0.012 C 
ATOM     12  C   UNL     1       2.134 -23.581 -43.772  1.00  0.00     0.013 C 
ATOM     13  C   UNL     1      -1.772 -23.976 -42.891  1.00  0.00     0.017 C 
ATOM     14  C   UNL     1       0.016 -22.532 -42.027  1.00  0.00    -0.064 C 
ATOM     15  C   UNL     1      -0.004 -21.477 -44.332  1.00  0.00     0.032 C 
ATOM     16  C   UNL     1      -0.002 -21.393 -42.785  1.00  0.00    -0.064 C 
ATOM     17  C   UNL     1       0.015 -22.416 -40.525  1.00  0.00     0.032 C 
ATOM     18  C   UNL     1       0.178 -20.014 -42.085  1.00  0.00    -0.008 C 
ATOM     19  C   UNL     1      -0.994 -21.353 -40.136  1.00  0.00     0.009 C 
ATOM     20  C   UNL     1      -0.638 -19.932 -40.705  1.00  0.00     0.009 C 
ATOM     21  C   UNL     1       1.714 -19.855 -41.885  1.00  0.00     0.015 C 
ATOM     22  C   UNL     1      -0.329 -18.893 -43.039  1.00  0.00     0.016 C 
ATOM     23  C   UNL     1      -0.084 -18.874 -39.628  1.00  0.00     0.005 C 
ATOM     24  C   UNL     1       2.114 -18.724 -40.949  1.00  0.00     0.047 C 
ATOM     25  C   UNL     1       1.473 -18.897 -39.569  1.00  0.00     0.182 C 
ATOM     26  C   UNL     1      -0.616 -19.165 -38.196  1.00  0.00     0.015 C 
ATOM     27  C   UNL     1      -0.590 -17.430 -39.952  1.00  0.00     0.015 C 
BRANCH   7  28
ATOM     28  O   UNL     1       1.370 -27.105 -42.758  1.00  0.00    -0.393 OA
ATOM     29  H   UNL     1       2.180 -26.557 -42.590  1.00  0.00     0.210 HD
ENDBRANCH   7  28
BRANCH  25  30
ATOM     30  O   UNL     1       1.966 -17.858 -38.716  1.00  0.00    -0.462 OA
BRANCH  30  31
ATOM     31  C   UNL     1       2.977 -18.028 -37.763  1.00  0.00     0.302 C 
ATOM     32  O   UNL     1       4.076 -18.565 -38.071  1.00  0.00    -0.253 OA
ATOM     33  C   UNL     1       2.727 -17.615 -36.354  1.00  0.00     0.139 C 
ENDBRANCH  30  31
ENDBRANCH  25  30
ENDBRANCH   2   6
ENDBRANCH   1   2
BRANCH   1  34
ATOM     34  C   UNL     1      -2.604 -26.798 -44.660  1.00  0.00     0.031 C 
BRANCH  34  35
ATOM     35  C   UNL     1      -3.614 -26.399 -45.718  1.00  0.00    -0.075 C 
ATOM     36  C   UNL     1      -3.402 -26.761 -46.995  1.00  0.00     0.008 C 
BRANCH  35  37
ATOM     37  C   UNL     1      -4.882 -25.640 -45.348  1.00  0.00     0.008 C 
ATOM     38  C   UNL     1      -4.943 -25.356 -43.844  1.00  0.00     0.012 C 
ATOM     39  C   UNL     1      -6.134 -26.389 -45.820  1.00  0.00     0.012 C 
ENDBRANCH  35  37
ENDBRANCH  34  35
ENDBRANCH   1  34
TORSDOF 9
ENDMDL
MODEL 6
REMARK VINA RESULT:    -5.111      9.366     11.920
REMARK INTER + INTRA:          -9.626
REMARK INTER:                  -7.686
REMARK INTRA:                  -1.940
REMARK UNBOUND:                -1.975
REMARK SMILES C=C(CC[C@H](C(=O)[O-])[C@@H]1[C@@H](O)C[C@@]2(C)C3=C(CC[C@]12C)[C@]1(C)CC[C@@H](OC(C)=O)C(C)(C)[C@@H]1CC3)C(C)C
REMARK SMILES IDX 4 1 5 2 6 3 7 4 8 5 9 6 10 7 19 8 12 9 13 10 18 11 20 12
REMARK SMILES IDX 14 13 15 14 17 15 16 16 35 17 21 18 34 19 33 20 23 21 22 22
REMARK SMILES IDX 30 23 24 24 25 25 31 26 32 27 11 28 26 30 27 31 29 32 28 33
REMARK SMILES IDX 3 34 2 35 1 36 36 37 37 38 38 39
REMARK H PARENT 11 29
REMARK Flexibility Score: inf
ROOT
ATOM      1  C   UNL     1      -0.873 -24.583 -44.241  1.00  0.00     0.014 C 
ENDROOT
BRANCH   1   2
ATOM      2  C   UNL     1       0.272 -24.505 -43.193  1.00  0.00     0.042 C 
BRANCH   2   3
ATOM      3  C   UNL     1       0.812 -25.900 -42.972  1.00  0.00     0.045 C 
ATOM      4  O   UNL     1       1.962 -26.055 -42.480  1.00  0.00    -0.550 OA
ATOM      5  O   UNL     1       0.077 -27.020 -43.351  1.00  0.00    -0.550 OA
ENDBRANCH   2   3
BRANCH   2   6
ATOM      6  C   UNL     1      -0.119 -23.802 -41.841  1.00  0.00     0.033 C 
ATOM      7  C   UNL     1      -1.608 -23.335 -41.759  1.00  0.00     0.119 C 
ATOM      8  C   UNL     1       0.701 -22.517 -41.442  1.00  0.00    -0.017 C 
ATOM      9  C   UNL     1      -1.607 -21.861 -41.307  1.00  0.00     0.043 C 
ATOM     10  C   UNL     1      -0.250 -21.327 -41.769  1.00  0.00    -0.003 C 
ATOM     11  C   UNL     1       2.054 -22.225 -42.128  1.00  0.00     0.012 C 
ATOM     12  C   UNL     1       0.992 -22.658 -39.903  1.00  0.00     0.013 C 
ATOM     13  C   UNL     1      -0.385 -20.967 -43.284  1.00  0.00     0.017 C 
ATOM     14  C   UNL     1       0.281 -20.070 -41.098  1.00  0.00    -0.064 C 
ATOM     15  C   UNL     1       2.616 -20.830 -41.728  1.00  0.00     0.032 C 
ATOM     16  C   UNL     1       1.615 -19.779 -41.186  1.00  0.00    -0.064 C 
ATOM     17  C   UNL     1      -0.665 -19.025 -40.569  1.00  0.00     0.032 C 
ATOM     18  C   UNL     1       2.147 -18.459 -40.555  1.00  0.00    -0.008 C 
ATOM     19  C   UNL     1      -0.297 -17.694 -41.197  1.00  0.00     0.009 C 
ATOM     20  C   UNL     1       1.156 -17.224 -40.827  1.00  0.00     0.009 C 
ATOM     21  C   UNL     1       2.316 -18.769 -39.039  1.00  0.00     0.015 C 
ATOM     22  C   UNL     1       3.541 -18.132 -41.166  1.00  0.00     0.016 C 
ATOM     23  C   UNL     1       1.246 -16.012 -39.775  1.00  0.00     0.005 C 
ATOM     24  C   UNL     1       2.535 -17.543 -38.165  1.00  0.00     0.047 C 
ATOM     25  C   UNL     1       1.384 -16.545 -38.317  1.00  0.00     0.182 C 
ATOM     26  C   UNL     1      -0.012 -15.098 -39.828  1.00  0.00     0.015 C 
ATOM     27  C   UNL     1       2.439 -15.062 -40.118  1.00  0.00     0.015 C 
BRANCH   7  28
ATOM     28  O   UNL     1      -2.326 -24.121 -40.843  1.00  0.00    -0.393 OA
ATOM     29  H   UNL     1      -1.954 -25.039 -40.903  1.00  0.00     0.210 HD
ENDBRANCH   7  28
BRANCH  25  30
ATOM     30  O   UNL     1       1.606 -15.467 -37.399  1.00  0.00    -0.462 OA
BRANCH  30  31
ATOM     31  C   UNL     1       0.956 -15.330 -36.167  1.00  0.00     0.302 C 
ATOM     32  O   UNL     1      -0.196 -15.808 -35.984  1.00  0.00    -0.253 OA
ATOM     33  C   UNL     1       1.619 -14.562 -35.076  1.00  0.00     0.139 C 
ENDBRANCH  30  31
ENDBRANCH  25  30
ENDBRANCH   2   6
ENDBRANCH   1   2
BRANCH   1  34
ATOM     34  C   UNL     1      -0.519 -24.010 -45.627  1.00  0.00     0.031 C 
BRANCH  34  35
ATOM     35  C   UNL     1      -0.211 -25.121 -46.612  1.00  0.00    -0.075 C 
ATOM     36  C   UNL     1      -1.227 -25.747 -47.230  1.00  0.00     0.008 C 
BRANCH  35  37
ATOM     37  C   UNL     1       1.226 -25.500 -46.946  1.00  0.00     0.008 C 
ATOM     38  C   UNL     1       1.517 -26.959 -46.579  1.00  0.00     0.012 C 
ATOM     39  C   UNL     1       2.222 -24.551 -46.269  1.00  0.00     0.012 C 
ENDBRANCH  35  37
ENDBRANCH  34  35
ENDBRANCH   1  34
TORSDOF 9
ENDMDL
MODEL 7
REMARK VINA RESULT:    -5.031      4.489      6.798
REMARK INTER + INTRA:          -9.506
REMARK INTER:                  -7.431
REMARK INTRA:                  -2.075
REMARK UNBOUND:                -1.975
REMARK SMILES C=C(CC[C@H](C(=O)[O-])[C@@H]1[C@@H](O)C[C@@]2(C)C3=C(CC[C@]12C)[C@]1(C)CC[C@@H](OC(C)=O)C(C)(C)[C@@H]1CC3)C(C)C
REMARK SMILES IDX 4 1 5 2 6 3 7 4 8 5 9 6 10 7 19 8 12 9 13 10 18 11 20 12
REMARK SMILES IDX 14 13 15 14 17 15 16 16 35 17 21 18 34 19 33 20 23 21 22 22
REMARK SMILES IDX 30 23 24 24 25 25 31 26 32 27 11 28 26 30 27 31 29 32 28 33
REMARK SMILES IDX 3 34 2 35 1 36 36 37 37 38 38 39
REMARK H PARENT 11 29
REMARK Flexibility Score: inf
ROOT
ATOM      1  C   UNL     1      -1.419 -12.530 -33.555  1.00  0.00     0.014 C 
ENDROOT
BRANCH   1   2
ATOM      2  C   UNL     1      -1.817 -14.023 -33.725  1.00  0.00     0.042 C 
BRANCH   2   3
ATOM      3  C   UNL     1      -2.562 -14.463 -32.485  1.00  0.00     0.045 C 
ATOM      4  O   UNL     1      -3.300 -13.643 -31.875  1.00  0.00    -0.550 OA
ATOM      5  O   UNL     1      -2.407 -15.748 -31.975  1.00  0.00    -0.550 OA
ENDBRANCH   2   3
BRANCH   2   6
ATOM      6  C   UNL     1      -0.623 -14.988 -34.069  1.00  0.00     0.033 C 
ATOM      7  C   UNL     1       0.742 -14.270 -34.315  1.00  0.00     0.119 C 
ATOM      8  C   UNL     1      -0.794 -15.914 -35.332  1.00  0.00    -0.017 C 
ATOM      9  C   UNL     1       1.311 -14.799 -35.647  1.00  0.00     0.043 C 
ATOM     10  C   UNL     1       0.075 -15.239 -36.435  1.00  0.00    -0.003 C 
ATOM     11  C   UNL     1      -2.199 -16.142 -35.932  1.00  0.00     0.012 C 
ATOM     12  C   UNL     1      -0.247 -17.325 -34.904  1.00  0.00     0.013 C 
ATOM     13  C   UNL     1      -0.537 -13.959 -37.089  1.00  0.00     0.017 C 
ATOM     14  C   UNL     1       0.278 -16.223 -37.576  1.00  0.00    -0.064 C 
ATOM     15  C   UNL     1      -2.135 -16.936 -37.269  1.00  0.00     0.032 C 
ATOM     16  C   UNL     1      -0.794 -16.931 -38.046  1.00  0.00    -0.064 C 
ATOM     17  C   UNL     1       1.566 -16.237 -38.357  1.00  0.00     0.032 C 
ATOM     18  C   UNL     1      -0.599 -17.889 -39.258  1.00  0.00    -0.008 C 
ATOM     19  C   UNL     1       1.229 -16.072 -39.826  1.00  0.00     0.009 C 
ATOM     20  C   UNL     1       0.342 -17.242 -40.386  1.00  0.00     0.009 C 
ATOM     21  C   UNL     1      -0.002 -19.194 -38.655  1.00  0.00     0.015 C 
ATOM     22  C   UNL     1      -1.990 -18.206 -39.881  1.00  0.00     0.016 C 
ATOM     23  C   UNL     1       1.098 -18.285 -41.347  1.00  0.00     0.005 C 
ATOM     24  C   UNL     1       0.557 -20.166 -39.684  1.00  0.00     0.047 C 
ATOM     25  C   UNL     1       1.640 -19.501 -40.538  1.00  0.00     0.182 C 
ATOM     26  C   UNL     1       2.302 -17.633 -42.085  1.00  0.00     0.015 C 
ATOM     27  C   UNL     1       0.153 -18.776 -42.492  1.00  0.00     0.015 C 
BRANCH   7  28
ATOM     28  O   UNL     1       1.640 -14.534 -33.267  1.00  0.00    -0.393 OA
ATOM     29  H   UNL     1       2.345 -15.124 -33.639  1.00  0.00     0.210 HD
ENDBRANCH   7  28
BRANCH  25  30
ATOM     30  O   UNL     1       2.186 -20.494 -41.414  1.00  0.00    -0.462 OA
BRANCH  30  31
ATOM     31  C   UNL     1       3.470 -21.039 -41.292  1.00  0.00     0.302 C 
ATOM     32  O   UNL     1       3.727 -22.197 -41.717  1.00  0.00    -0.253 OA
ATOM     33  C   UNL     1       4.531 -20.253 -40.601  1.00  0.00     0.139 C 
ENDBRANCH  30  31
ENDBRANCH  25  30
ENDBRANCH   2   6
ENDBRANCH   1   2
BRANCH   1  34
ATOM     34  C   UNL     1      -2.028 -11.578 -34.602  1.00  0.00     0.031 C 
BRANCH  34  35
ATOM     35  C   UNL     1      -0.965 -10.676 -35.199  1.00  0.00    -0.075 C 
ATOM     36  C   UNL     1       0.310 -10.812 -34.796  1.00  0.00     0.008 C 
BRANCH  35  37
ATOM     37  C   UNL     1      -1.312  -9.658 -36.277  1.00  0.00     0.008 C 
ATOM     38  C   UNL     1      -1.267 -10.288 -37.673  1.00  0.00     0.012 C 
ATOM     39  C   UNL     1      -0.399  -8.429 -36.196  1.00  0.00     0.012 C 
ENDBRANCH  35  37
ENDBRANCH  34  35
ENDBRANCH   1  34
TORSDOF 9
ENDMDL
MODEL 8
REMARK VINA RESULT:    -4.986      4.215      7.803
REMARK INTER + INTRA:          -9.439
REMARK INTER:                  -7.171
REMARK INTRA:                  -2.268
REMARK UNBOUND:                -1.975
REMARK SMILES C=C(CC[C@H](C(=O)[O-])[C@@H]1[C@@H](O)C[C@@]2(C)C3=C(CC[C@]12C)[C@]1(C)CC[C@@H](OC(C)=O)C(C)(C)[C@@H]1CC3)C(C)C
REMARK SMILES IDX 4 1 5 2 6 3 7 4 8 5 9 6 10 7 19 8 12 9 13 10 18 11 20 12
REMARK SMILES IDX 14 13 15 14 17 15 16 16 35 17 21 18 34 19 33 20 23 21 22 22
REMARK SMILES IDX 30 23 24 24 25 25 31 26 32 27 11 28 26 30 27 31 29 32 28 33
REMARK SMILES IDX 3 34 2 35 1 36 36 37 37 38 38 39
REMARK H PARENT 11 29
REMARK Flexibility Score: inf
ROOT
ATOM      1  C   UNL     1      -4.344 -13.307 -35.081  1.00  0.00     0.014 C 
ENDROOT
BRANCH   1   2
ATOM      2  C   UNL     1      -3.651 -13.507 -33.704  1.00  0.00     0.042 C 
BRANCH   2   3
ATOM      3  C   UNL     1      -4.403 -12.699 -32.670  1.00  0.00     0.045 C 
ATOM      4  O   UNL     1      -5.190 -13.279 -31.875  1.00  0.00    -0.550 OA
ATOM      5  O   UNL     1      -4.278 -11.314 -32.616  1.00  0.00    -0.550 OA
ENDBRANCH   2   3
BRANCH   2   6
ATOM      6  C   UNL     1      -2.109 -13.194 -33.690  1.00  0.00     0.033 C 
ATOM      7  C   UNL     1      -1.536 -12.694 -35.055  1.00  0.00     0.119 C 
ATOM      8  C   UNL     1      -1.145 -14.373 -33.286  1.00  0.00    -0.017 C 
ATOM      9  C   UNL     1      -0.292 -13.547 -35.375  1.00  0.00     0.043 C 
ATOM     10  C   UNL     1      -0.538 -14.863 -34.634  1.00  0.00    -0.003 C 
ATOM     11  C   UNL     1      -1.713 -15.614 -32.561  1.00  0.00     0.012 C 
ATOM     12  C   UNL     1      -0.072 -13.738 -32.330  1.00  0.00     0.013 C 
ATOM     13  C   UNL     1      -1.484 -15.728 -35.528  1.00  0.00     0.017 C 
ATOM     14  C   UNL     1       0.666 -15.746 -34.343  1.00  0.00    -0.064 C 
ATOM     15  C   UNL     1      -0.642 -16.734 -32.410  1.00  0.00     0.032 C 
ATOM     16  C   UNL     1       0.570 -16.708 -33.375  1.00  0.00    -0.064 C 
ATOM     17  C   UNL     1       1.856 -15.750 -35.267  1.00  0.00     0.032 C 
ATOM     18  C   UNL     1       1.780 -17.654 -33.123  1.00  0.00    -0.008 C 
ATOM     19  C   UNL     1       2.112 -17.181 -35.698  1.00  0.00     0.009 C 
ATOM     20  C   UNL     1       2.464 -18.130 -34.495  1.00  0.00     0.009 C 
ATOM     21  C   UNL     1       2.752 -16.842 -32.218  1.00  0.00     0.015 C 
ATOM     22  C   UNL     1       1.287 -18.908 -32.343  1.00  0.00     0.016 C 
ATOM     23  C   UNL     1       4.006 -18.573 -34.390  1.00  0.00     0.005 C 
ATOM     24  C   UNL     1       4.143 -17.445 -32.087  1.00  0.00     0.047 C 
ATOM     25  C   UNL     1       4.803 -17.611 -33.459  1.00  0.00     0.182 C 
ATOM     26  C   UNL     1       4.708 -18.577 -35.778  1.00  0.00     0.015 C 
ATOM     27  C   UNL     1       4.130 -20.046 -33.880  1.00  0.00     0.015 C 
BRANCH   7  28
ATOM     28  O   UNL     1      -1.185 -11.336 -34.979  1.00  0.00    -0.393 OA
ATOM     29  H   UNL     1      -1.436 -11.028 -34.071  1.00  0.00     0.210 HD
ENDBRANCH   7  28
BRANCH  25  30
ATOM     30  O   UNL     1       6.138 -18.090 -33.254  1.00  0.00    -0.462 OA
BRANCH  30  31
ATOM     31  C   UNL     1       7.292 -17.326 -33.462  1.00  0.00     0.302 C 
ATOM     32  O   UNL     1       7.753 -17.148 -34.622  1.00  0.00    -0.253 OA
ATOM     33  C   UNL     1       8.013 -16.762 -32.286  1.00  0.00     0.139 C 
ENDBRANCH  30  31
ENDBRANCH  25  30
ENDBRANCH   2   6
ENDBRANCH   1   2
BRANCH   1  34
ATOM     34  C   UNL     1      -5.694 -14.033 -35.235  1.00  0.00     0.031 C 
BRANCH  34  35
ATOM     35  C   UNL     1      -5.489 -15.492 -35.590  1.00  0.00    -0.075 C 
ATOM     36  C   UNL     1      -4.996 -15.809 -36.800  1.00  0.00     0.008 C 
BRANCH  35  37
ATOM     37  C   UNL     1      -5.785 -16.596 -34.583  1.00  0.00     0.008 C 
ATOM     38  C   UNL     1      -6.564 -16.057 -33.379  1.00  0.00     0.012 C 
ATOM     39  C   UNL     1      -4.497 -17.300 -34.137  1.00  0.00     0.012 C 
ENDBRANCH  35  37
ENDBRANCH  34  35
ENDBRANCH   1  34
TORSDOF 9
ENDMDL
