MODEL 1
REMARK VINA RESULT:    -4.257      0.000      0.000
REMARK INTER + INTRA:          -4.878
REMARK INTER:                  -4.630
REMARK INTRA:                  -0.248
REMARK UNBOUND:                -0.248
REMARK SMILES O=C([O-])c1ccccc1O
REMARK SMILES IDX 4 1 9 2 5 3 8 4 6 5 7 6 2 7 1 8 3 9 10 10
REMARK H PARENT 10 11
REMARK Flexibility Score: inf
ROOT
ATOM      1  C   UNL     1      52.504 -50.506 -10.859  1.00  0.00     0.039 A 
ATOM      2  C   UNL     1      53.185 -50.948  -9.695  1.00  0.00     0.124 A 
ATOM      3  C   UNL     1      51.743 -49.325 -10.795  1.00  0.00     0.014 A 
ATOM      4  C   UNL     1      53.036 -50.238  -8.496  1.00  0.00     0.047 A 
ATOM      5  C   UNL     1      51.622 -48.618  -9.596  1.00  0.00     0.001 A 
ATOM      6  C   UNL     1      52.260 -49.080  -8.446  1.00  0.00     0.004 A 
ENDROOT
BRANCH   1   7
ATOM      7  C   UNL     1      52.532 -51.254 -12.136  1.00  0.00     0.075 C 
ATOM      8  O   UNL     1      53.588 -51.813 -12.536  1.00  0.00    -0.545 OA
ATOM      9  O   UNL     1      51.367 -51.408 -12.878  1.00  0.00    -0.545 OA
ENDBRANCH   1   7
BRANCH   2  10
ATOM     10  O   UNL     1      54.038 -52.054  -9.692  1.00  0.00    -0.507 OA
ATOM     11  H   UNL     1      55.007 -52.011  -9.412  1.00  0.00     0.293 HD
ENDBRANCH   2  10
TORSDOF 2
ENDMDL
MODEL 2
REMARK VINA RESULT:    -4.182      1.929      2.285
REMARK INTER + INTRA:          -4.797
REMARK INTER:                  -4.551
REMARK INTRA:                  -0.245
REMARK UNBOUND:                -0.248
REMARK SMILES O=C([O-])c1ccccc1O
REMARK SMILES IDX 4 1 9 2 5 3 8 4 6 5 7 6 2 7 1 8 3 9 10 10
REMARK H PARENT 10 11
REMARK Flexibility Score: inf
ROOT
ATOM      1  C   UNL     1      52.078 -50.600 -10.237  1.00  0.00     0.039 A 
ATOM      2  C   UNL     1      52.110 -49.411  -9.464  1.00  0.00     0.124 A 
ATOM      3  C   UNL     1      51.602 -51.784  -9.645  1.00  0.00     0.014 A 
ATOM      4  C   UNL     1      51.730 -49.451  -8.117  1.00  0.00     0.047 A 
ATOM      5  C   UNL     1      51.207 -51.802  -8.305  1.00  0.00     0.001 A 
ATOM      6  C   UNL     1      51.280 -50.639  -7.539  1.00  0.00     0.004 A 
ENDROOT
BRANCH   1   7
ATOM      7  C   UNL     1      52.554 -50.660 -11.637  1.00  0.00     0.075 C 
ATOM      8  O   UNL     1      53.324 -51.580 -12.021  1.00  0.00    -0.545 OA
ATOM      9  O   UNL     1      52.097 -49.734 -12.568  1.00  0.00    -0.545 OA
ENDBRANCH   1   7
BRANCH   2  10
ATOM     10  O   UNL     1      52.476 -48.173  -9.998  1.00  0.00    -0.507 OA
ATOM     11  H   UNL     1      53.314 -47.676  -9.733  1.00  0.00     0.293 HD
ENDBRANCH   2  10
TORSDOF 2
ENDMDL
MODEL 3
REMARK VINA RESULT:    -4.131      0.773      1.233
REMARK INTER + INTRA:          -4.742
REMARK INTER:                  -4.527
REMARK INTRA:                  -0.215
REMARK UNBOUND:                -0.248
REMARK SMILES O=C([O-])c1ccccc1O
REMARK SMILES IDX 4 1 9 2 5 3 8 4 6 5 7 6 2 7 1 8 3 9 10 10
REMARK H PARENT 10 11
REMARK Flexibility Score: inf
ROOT
ATOM      1  C   UNL     1      52.156 -49.982 -10.867  1.00  0.00     0.039 A 
ATOM      2  C   UNL     1      52.953 -50.678  -9.921  1.00  0.00     0.124 A 
ATOM      3  C   UNL     1      51.418 -48.863 -10.442  1.00  0.00     0.014 A 
ATOM      4  C   UNL     1      52.940 -50.278  -8.579  1.00  0.00     0.047 A 
ATOM      5  C   UNL     1      51.432 -48.465  -9.103  1.00  0.00     0.001 A 
ATOM      6  C   UNL     1      52.185 -49.178  -8.171  1.00  0.00     0.004 A 
ENDROOT
BRANCH   1   7
ATOM      7  C   UNL     1      52.040 -50.402 -12.281  1.00  0.00     0.075 C 
ATOM      8  O   UNL     1      51.162 -49.905 -13.035  1.00  0.00    -0.545 OA
ATOM      9  O   UNL     1      52.952 -51.305 -12.816  1.00  0.00    -0.545 OA
ENDBRANCH   1   7
BRANCH   2  10
ATOM     10  O   UNL     1      53.790 -51.739 -10.274  1.00  0.00    -0.507 OA
ATOM     11  H   UNL     1      54.412 -52.198  -9.625  1.00  0.00     0.293 HD
ENDBRANCH   2  10
TORSDOF 2
ENDMDL
MODEL 4
REMARK VINA RESULT:    -4.102      1.075      2.256
REMARK INTER + INTRA:          -4.710
REMARK INTER:                  -4.459
REMARK INTRA:                  -0.251
REMARK UNBOUND:                -0.248
REMARK SMILES O=C([O-])c1ccccc1O
REMARK SMILES IDX 4 1 9 2 5 3 8 4 6 5 7 6 2 7 1 8 3 9 10 10
REMARK H PARENT 10 11
REMARK Flexibility Score: inf
ROOT
ATOM      1  C   UNL     1      52.158 -50.447 -10.778  1.00  0.00     0.039 A 
ATOM      2  C   UNL     1      51.365 -49.314 -10.461  1.00  0.00     0.124 A 
ATOM      3  C   UNL     1      53.056 -50.941  -9.814  1.00  0.00     0.014 A 
ATOM      4  C   UNL     1      51.535 -48.674  -9.226  1.00  0.00     0.047 A 
ATOM      5  C   UNL     1      53.198 -50.303  -8.580  1.00  0.00     0.001 A 
ATOM      6  C   UNL     1      52.446 -49.165  -8.290  1.00  0.00     0.004 A 
ENDROOT
BRANCH   1   7
ATOM      7  C   UNL     1      52.106 -51.118 -12.096  1.00  0.00     0.075 C 
ATOM      8  O   UNL     1      53.160 -51.506 -12.667  1.00  0.00    -0.545 OA
ATOM      9  O   UNL     1      50.880 -51.392 -12.691  1.00  0.00    -0.545 OA
ENDBRANCH   1   7
BRANCH   2  10
ATOM     10  O   UNL     1      50.382 -48.816 -11.320  1.00  0.00    -0.507 OA
ATOM     11  H   UNL     1      49.694 -48.131 -11.042  1.00  0.00     0.293 HD
ENDBRANCH   2  10
TORSDOF 2
ENDMDL
MODEL 5
REMARK VINA RESULT:    -4.021      1.421      2.393
REMARK INTER + INTRA:          -4.621
REMARK INTER:                  -4.399
REMARK INTRA:                  -0.222
REMARK UNBOUND:                -0.248
REMARK SMILES O=C([O-])c1ccccc1O
REMARK SMILES IDX 4 1 9 2 5 3 8 4 6 5 7 6 2 7 1 8 3 9 10 10
REMARK H PARENT 10 11
REMARK Flexibility Score: inf
ROOT
ATOM      1  C   UNL     1      52.245 -49.823 -10.391  1.00  0.00     0.039 A 
ATOM      2  C   UNL     1      52.241 -49.073  -9.186  1.00  0.00     0.124 A 
ATOM      3  C   UNL     1      51.401 -49.425 -11.443  1.00  0.00     0.014 A 
ATOM      4  C   UNL     1      51.358 -47.995  -9.046  1.00  0.00     0.047 A 
ATOM      5  C   UNL     1      50.541 -48.335 -11.294  1.00  0.00     0.001 A 
ATOM      6  C   UNL     1      50.512 -47.627 -10.093  1.00  0.00     0.004 A 
ENDROOT
BRANCH   1   7
ATOM      7  C   UNL     1      53.078 -51.032 -10.579  1.00  0.00     0.075 C 
ATOM      8  O   UNL     1      53.319 -51.479 -11.732  1.00  0.00    -0.545 OA
ATOM      9  O   UNL     1      53.666 -51.651  -9.482  1.00  0.00    -0.545 OA
ENDBRANCH   1   7
BRANCH   2  10
ATOM     10  O   UNL     1      53.114 -49.338  -8.128  1.00  0.00    -0.507 OA
ATOM     11  H   UNL     1      52.959 -50.067  -7.447  1.00  0.00     0.293 HD
ENDBRANCH   2  10
TORSDOF 2
ENDMDL
MODEL 6
REMARK VINA RESULT:    -3.991      2.713      3.644
REMARK INTER + INTRA:          -4.589
REMARK INTER:                  -4.340
REMARK INTRA:                  -0.249
REMARK UNBOUND:                -0.248
REMARK SMILES O=C([O-])c1ccccc1O
REMARK SMILES IDX 4 1 9 2 5 3 8 4 6 5 7 6 2 7 1 8 3 9 10 10
REMARK H PARENT 10 11
REMARK Flexibility Score: inf
ROOT
ATOM      1  C   UNL     1      51.745 -49.012  -9.724  1.00  0.00     0.039 A 
ATOM      2  C   UNL     1      51.981 -49.915 -10.793  1.00  0.00     0.124 A 
ATOM      3  C   UNL     1      51.598 -49.522  -8.422  1.00  0.00     0.014 A 
ATOM      4  C   UNL     1      52.000 -51.293 -10.542  1.00  0.00     0.047 A 
ATOM      5  C   UNL     1      51.641 -50.898  -8.186  1.00  0.00     0.001 A 
ATOM      6  C   UNL     1      51.832 -51.783  -9.246  1.00  0.00     0.004 A 
ENDROOT
BRANCH   1   7
ATOM      7  C   UNL     1      51.613 -47.551  -9.923  1.00  0.00     0.075 C 
ATOM      8  O   UNL     1      52.427 -46.921 -10.650  1.00  0.00    -0.545 OA
ATOM      9  O   UNL     1      50.541 -46.866  -9.363  1.00  0.00    -0.545 OA
ENDBRANCH   1   7
BRANCH   2  10
ATOM     10  O   UNL     1      52.233 -49.490 -12.099  1.00  0.00    -0.507 OA
ATOM     11  H   UNL     1      52.516 -48.550 -12.336  1.00  0.00     0.293 HD
ENDBRANCH   2  10
TORSDOF 2
ENDMDL
MODEL 7
REMARK VINA RESULT:    -3.987      1.307      3.049
REMARK INTER + INTRA:          -4.585
REMARK INTER:                  -4.357
REMARK INTRA:                  -0.228
REMARK UNBOUND:                -0.248
REMARK SMILES O=C([O-])c1ccccc1O
REMARK SMILES IDX 4 1 9 2 5 3 8 4 6 5 7 6 2 7 1 8 3 9 10 10
REMARK H PARENT 10 11
REMARK Flexibility Score: inf
ROOT
ATOM      1  C   UNL     1      52.094 -50.180  -9.507  1.00  0.00     0.039 A 
ATOM      2  C   UNL     1      52.138 -49.957 -10.908  1.00  0.00     0.124 A 
ATOM      3  C   UNL     1      51.519 -49.199  -8.680  1.00  0.00     0.014 A 
ATOM      4  C   UNL     1      51.667 -48.746 -11.430  1.00  0.00     0.047 A 
ATOM      5  C   UNL     1      51.036 -48.004  -9.220  1.00  0.00     0.001 A 
ATOM      6  C   UNL     1      51.119 -47.774 -10.592  1.00  0.00     0.004 A 
ENDROOT
BRANCH   1   7
ATOM      7  C   UNL     1      52.659 -51.391  -8.870  1.00  0.00     0.075 C 
ATOM      8  O   UNL     1      51.950 -52.125  -8.132  1.00  0.00    -0.545 OA
ATOM      9  O   UNL     1      53.969 -51.772  -9.138  1.00  0.00    -0.545 OA
ENDBRANCH   1   7
BRANCH   2  10
ATOM     10  O   UNL     1      52.602 -50.916 -11.811  1.00  0.00    -0.507 OA
ATOM     11  H   UNL     1      53.093 -51.754 -11.533  1.00  0.00     0.293 HD
ENDBRANCH   2  10
TORSDOF 2
ENDMDL
MODEL 8
REMARK VINA RESULT:    -3.878      2.719      3.567
REMARK INTER + INTRA:          -4.467
REMARK INTER:                  -4.246
REMARK INTRA:                  -0.221
REMARK UNBOUND:                -0.248
REMARK SMILES O=C([O-])c1ccccc1O
REMARK SMILES IDX 4 1 9 2 5 3 8 4 6 5 7 6 2 7 1 8 3 9 10 10
REMARK H PARENT 10 11
REMARK Flexibility Score: inf
ROOT
ATOM      1  C   UNL     1      51.596 -49.174  -9.998  1.00  0.00     0.039 A 
ATOM      2  C   UNL     1      52.223 -49.551  -8.782  1.00  0.00     0.124 A 
ATOM      3  C   UNL     1      51.860 -49.923 -11.160  1.00  0.00     0.014 A 
ATOM      4  C   UNL     1      53.135 -50.615  -8.775  1.00  0.00     0.047 A 
ATOM      5  C   UNL     1      52.756 -50.994 -11.130  1.00  0.00     0.001 A 
ATOM      6  C   UNL     1      53.400 -51.333  -9.941  1.00  0.00     0.004 A 
ENDROOT
BRANCH   1   7
ATOM      7  C   UNL     1      50.697 -48.004 -10.107  1.00  0.00     0.075 C 
ATOM      8  O   UNL     1      49.921 -47.873 -11.091  1.00  0.00    -0.545 OA
ATOM      9  O   UNL     1      50.650 -47.065  -9.084  1.00  0.00    -0.545 OA
ENDBRANCH   1   7
BRANCH   2  10
ATOM     10  O   UNL     1      51.946 -48.926  -7.564  1.00  0.00    -0.507 OA
ATOM     11  H   UNL     1      52.253 -49.283  -6.671  1.00  0.00     0.293 HD
ENDBRANCH   2  10
TORSDOF 2
ENDMDL
MODEL 9
REMARK VINA RESULT:    -3.765     14.501     15.761
REMARK INTER + INTRA:          -4.343
REMARK INTER:                  -4.095
REMARK INTRA:                  -0.249
REMARK UNBOUND:                -0.248
REMARK SMILES O=C([O-])c1ccccc1O
REMARK SMILES IDX 4 1 9 2 5 3 8 4 6 5 7 6 2 7 1 8 3 9 10 10
REMARK H PARENT 10 11
REMARK Flexibility Score: inf
ROOT
ATOM      1  C   UNL     1      37.951 -49.456 -14.128  1.00  0.00     0.039 A 
ATOM      2  C   UNL     1      36.918 -50.416 -13.963  1.00  0.00     0.124 A 
ATOM      3  C   UNL     1      38.352 -49.106 -15.430  1.00  0.00     0.014 A 
ATOM      4  C   UNL     1      36.366 -51.038 -15.090  1.00  0.00     0.047 A 
ATOM      5  C   UNL     1      37.776 -49.721 -16.544  1.00  0.00     0.001 A 
ATOM      6  C   UNL     1      36.792 -50.693 -16.374  1.00  0.00     0.004 A 
ENDROOT
BRANCH   1   7
ATOM      7  C   UNL     1      38.650 -48.827 -12.986  1.00  0.00     0.075 C 
ATOM      8  O   UNL     1      38.985 -49.505 -11.978  1.00  0.00    -0.545 OA
ATOM      9  O   UNL     1      39.010 -47.485 -13.043  1.00  0.00    -0.545 OA
ENDBRANCH   1   7
BRANCH   2  10
ATOM     10  O   UNL     1      36.392 -50.752 -12.714  1.00  0.00    -0.507 OA
ATOM     11  H   UNL     1      35.526 -51.255 -12.590  1.00  0.00     0.293 HD
ENDBRANCH   2  10
TORSDOF 2
ENDMDL
