MODEL 1
REMARK VINA RESULT:    -3.826      0.000      0.000
REMARK INTER + INTRA:          -5.530
REMARK INTER:                  -5.169
REMARK INTRA:                  -0.362
REMARK UNBOUND:                -0.362
REMARK SMILES CCCCCCCC(=O)[O-]
REMARK SMILES IDX 5 1 6 2 7 3 8 4 9 5 10 6 4 7 3 8 2 9 1 10
REMARK H PARENT
REMARK Flexibility Score: inf
ROOT
ATOM      1  C   UNL     1      17.348 -38.718  26.869  1.00  0.00     0.000 C 
ENDROOT
BRANCH   1   2
ATOM      2  C   UNL     1      17.820 -37.259  26.726  1.00  0.00     0.006 C 
BRANCH   2   3
ATOM      3  C   UNL     1      17.040 -36.442  25.683  1.00  0.00     0.053 C 
BRANCH   3   4
ATOM      4  C   UNL     1      17.885 -36.091  24.498  1.00  0.00     0.041 C 
ATOM      5  O   UNL     1      19.128 -35.935  24.628  1.00  0.00    -0.550 OA
ATOM      6  O   UNL     1      17.295 -35.901  23.254  1.00  0.00    -0.550 OA
ENDBRANCH   3   4
ENDBRANCH   2   3
ENDBRANCH   1   2
BRANCH   1   7
ATOM      7  C   UNL     1      16.038 -38.845  27.660  1.00  0.00     0.000 C 
BRANCH   7   8
ATOM      8  C   UNL     1      16.188 -38.247  29.067  1.00  0.00    -0.000 C 
BRANCH   8   9
ATOM      9  C   UNL     1      17.206 -39.011  29.929  1.00  0.00    -0.003 C 
ATOM     10  C   UNL     1      18.367 -38.132  30.392  1.00  0.00     0.004 C 
ENDBRANCH   8   9
ENDBRANCH   7   8
ENDBRANCH   1   7
TORSDOF 6
ENDMDL
MODEL 2
REMARK VINA RESULT:    -3.748      1.601      2.036
REMARK INTER + INTRA:          -5.424
REMARK INTER:                  -5.065
REMARK INTRA:                  -0.359
REMARK UNBOUND:                -0.362
REMARK SMILES CCCCCCCC(=O)[O-]
REMARK SMILES IDX 5 1 6 2 7 3 8 4 9 5 10 6 4 7 3 8 2 9 1 10
REMARK H PARENT
REMARK Flexibility Score: inf
ROOT
ATOM      1  C   UNL     1      16.583 -37.737  28.350  1.00  0.00     0.000 C 
ENDROOT
BRANCH   1   2
ATOM      2  C   UNL     1      16.515 -37.862  26.817  1.00  0.00     0.006 C 
BRANCH   2   3
ATOM      3  C   UNL     1      17.856 -38.213  26.151  1.00  0.00     0.053 C 
BRANCH   3   4
ATOM      4  C   UNL     1      18.829 -37.077  26.213  1.00  0.00     0.041 C 
ATOM      5  O   UNL     1      20.051 -37.299  26.417  1.00  0.00    -0.550 OA
ATOM      6  O   UNL     1      18.381 -35.768  26.080  1.00  0.00    -0.550 OA
ENDBRANCH   3   4
ENDBRANCH   2   3
ENDBRANCH   1   2
BRANCH   1   7
ATOM      7  C   UNL     1      16.454 -39.090  29.064  1.00  0.00     0.000 C 
BRANCH   7   8
ATOM      8  C   UNL     1      17.320 -39.125  30.333  1.00  0.00    -0.000 C 
BRANCH   8   9
ATOM      9  C   UNL     1      18.671 -38.417  30.146  1.00  0.00    -0.003 C 
ATOM     10  C   UNL     1      19.815 -39.125  30.869  1.00  0.00     0.004 C 
ENDBRANCH   8   9
ENDBRANCH   7   8
ENDBRANCH   1   7
TORSDOF 6
ENDMDL
MODEL 3
REMARK VINA RESULT:    -3.720      1.167      1.813
REMARK INTER + INTRA:          -5.387
REMARK INTER:                  -5.073
REMARK INTRA:                  -0.314
REMARK UNBOUND:                -0.362
REMARK SMILES CCCCCCCC(=O)[O-]
REMARK SMILES IDX 5 1 6 2 7 3 8 4 9 5 10 6 4 7 3 8 2 9 1 10
REMARK H PARENT
REMARK Flexibility Score: inf
ROOT
ATOM      1  C   UNL     1      17.937 -37.509  26.091  1.00  0.00     0.000 C 
ENDROOT
BRANCH   1   2
ATOM      2  C   UNL     1      16.848 -36.438  25.903  1.00  0.00     0.006 C 
BRANCH   2   3
ATOM      3  C   UNL     1      17.292 -35.222  25.073  1.00  0.00     0.053 C 
BRANCH   3   4
ATOM      4  C   UNL     1      16.856 -35.326  23.645  1.00  0.00     0.041 C 
ATOM      5  O   UNL     1      17.503 -36.039  22.834  1.00  0.00    -0.550 OA
ATOM      6  O   UNL     1      15.752 -34.608  23.200  1.00  0.00    -0.550 OA
ENDBRANCH   3   4
ENDBRANCH   2   3
ENDBRANCH   1   2
BRANCH   1   7
ATOM      7  C   UNL     1      17.431 -38.748  26.844  1.00  0.00     0.000 C 
BRANCH   7   8
ATOM      8  C   UNL     1      15.956 -38.582  27.242  1.00  0.00    -0.000 C 
BRANCH   8   9
ATOM      9  C   UNL     1      15.659 -39.123  28.649  1.00  0.00    -0.003 C 
ATOM     10  C   UNL     1      16.876 -39.075  29.571  1.00  0.00     0.004 C 
ENDBRANCH   8   9
ENDBRANCH   7   8
ENDBRANCH   1   7
TORSDOF 6
ENDMDL
MODEL 4
REMARK VINA RESULT:    -3.703      7.312      9.017
REMARK INTER + INTRA:          -5.364
REMARK INTER:                  -5.198
REMARK INTRA:                  -0.166
REMARK UNBOUND:                -0.362
REMARK SMILES CCCCCCCC(=O)[O-]
REMARK SMILES IDX 5 1 6 2 7 3 8 4 9 5 10 6 4 7 3 8 2 9 1 10
REMARK H PARENT
REMARK Flexibility Score: inf
ROOT
ATOM      1  C   UNL     1      13.196 -31.596  22.653  1.00  0.00     0.000 C 
ENDROOT
BRANCH   1   2
ATOM      2  C   UNL     1      13.695 -31.694  21.200  1.00  0.00     0.006 C 
BRANCH   2   3
ATOM      3  C   UNL     1      14.223 -33.083  20.805  1.00  0.00     0.053 C 
BRANCH   3   4
ATOM      4  C   UNL     1      15.408 -33.489  21.625  1.00  0.00     0.041 C 
ATOM      5  O   UNL     1      16.468 -32.811  21.586  1.00  0.00    -0.550 OA
ATOM      6  O   UNL     1      15.354 -34.636  22.408  1.00  0.00    -0.550 OA
ENDBRANCH   3   4
ENDBRANCH   2   3
ENDBRANCH   1   2
BRANCH   1   7
ATOM      7  C   UNL     1      12.480 -30.270  22.948  1.00  0.00     0.000 C 
BRANCH   7   8
ATOM      8  C   UNL     1      13.056 -29.605  24.207  1.00  0.00    -0.000 C 
BRANCH   8   9
ATOM      9  C   UNL     1      12.230 -28.393  24.667  1.00  0.00    -0.003 C 
ATOM     10  C   UNL     1      13.083 -27.311  25.326  1.00  0.00     0.004 C 
ENDBRANCH   8   9
ENDBRANCH   7   8
ENDBRANCH   1   7
TORSDOF 6
ENDMDL
MODEL 5
REMARK VINA RESULT:    -3.656     12.417     14.482
REMARK INTER + INTRA:          -5.300
REMARK INTER:                  -4.992
REMARK INTRA:                  -0.308
REMARK UNBOUND:                -0.362
REMARK SMILES CCCCCCCC(=O)[O-]
REMARK SMILES IDX 5 1 6 2 7 3 8 4 9 5 10 6 4 7 3 8 2 9 1 10
REMARK H PARENT
REMARK Flexibility Score: inf
ROOT
ATOM      1  C   UNL     1      23.289 -26.910  19.728  1.00  0.00     0.000 C 
ENDROOT
BRANCH   1   2
ATOM      2  C   UNL     1      23.052 -25.390  19.691  1.00  0.00     0.006 C 
BRANCH   2   3
ATOM      3  C   UNL     1      23.204 -24.693  21.053  1.00  0.00     0.053 C 
BRANCH   3   4
ATOM      4  C   UNL     1      24.103 -23.498  20.976  1.00  0.00     0.041 C 
ATOM      5  O   UNL     1      24.739 -23.249  19.917  1.00  0.00    -0.550 OA
ATOM      6  O   UNL     1      24.267 -22.677  22.085  1.00  0.00    -0.550 OA
ENDBRANCH   3   4
ENDBRANCH   2   3
ENDBRANCH   1   2
BRANCH   1   7
ATOM      7  C   UNL     1      22.854 -27.549  21.055  1.00  0.00     0.000 C 
BRANCH   7   8
ATOM      8  C   UNL     1      21.634 -28.459  20.851  1.00  0.00    -0.000 C 
BRANCH   8   9
ATOM      9  C   UNL     1      20.303 -27.718  21.060  1.00  0.00    -0.003 C 
ATOM     10  C   UNL     1      19.087 -28.631  20.907  1.00  0.00     0.004 C 
ENDBRANCH   8   9
ENDBRANCH   7   8
ENDBRANCH   1   7
TORSDOF 6
ENDMDL
MODEL 6
REMARK VINA RESULT:    -3.618      5.986      7.612
REMARK INTER + INTRA:          -5.249
REMARK INTER:                  -4.734
REMARK INTRA:                  -0.515
REMARK UNBOUND:                -0.362
REMARK SMILES CCCCCCCC(=O)[O-]
REMARK SMILES IDX 5 1 6 2 7 3 8 4 9 5 10 6 4 7 3 8 2 9 1 10
REMARK H PARENT
REMARK Flexibility Score: inf
ROOT
ATOM      1  C   UNL     1      14.053 -32.715  24.420  1.00  0.00     0.000 C 
ENDROOT
BRANCH   1   2
ATOM      2  C   UNL     1      13.725 -31.318  23.863  1.00  0.00     0.006 C 
BRANCH   2   3
ATOM      3  C   UNL     1      12.899 -31.331  22.567  1.00  0.00     0.053 C 
BRANCH   3   4
ATOM      4  C   UNL     1      13.740 -31.641  21.367  1.00  0.00     0.041 C 
ATOM      5  O   UNL     1      13.284 -32.363  20.442  1.00  0.00    -0.550 OA
ATOM      6  O   UNL     1      15.042 -31.160  21.287  1.00  0.00    -0.550 OA
ENDBRANCH   3   4
ENDBRANCH   2   3
ENDBRANCH   1   2
BRANCH   1   7
ATOM      7  C   UNL     1      15.531 -33.095  24.244  1.00  0.00     0.000 C 
BRANCH   7   8
ATOM      8  C   UNL     1      15.666 -34.510  23.662  1.00  0.00    -0.000 C 
BRANCH   8   9
ATOM      9  C   UNL     1      16.378 -34.524  22.300  1.00  0.00    -0.003 C 
ATOM     10  C   UNL     1      15.479 -35.017  21.167  1.00  0.00     0.004 C 
ENDBRANCH   8   9
ENDBRANCH   7   8
ENDBRANCH   1   7
TORSDOF 6
ENDMDL
MODEL 7
REMARK VINA RESULT:    -3.611      7.359      8.855
REMARK INTER + INTRA:          -5.240
REMARK INTER:                  -4.954
REMARK INTRA:                  -0.286
REMARK UNBOUND:                -0.362
REMARK SMILES CCCCCCCC(=O)[O-]
REMARK SMILES IDX 5 1 6 2 7 3 8 4 9 5 10 6 4 7 3 8 2 9 1 10
REMARK H PARENT
REMARK Flexibility Score: inf
ROOT
ATOM      1  C   UNL     1      15.386 -31.174  23.659  1.00  0.00     0.000 C 
ENDROOT
BRANCH   1   2
ATOM      2  C   UNL     1      14.697 -32.498  23.282  1.00  0.00     0.006 C 
BRANCH   2   3
ATOM      3  C   UNL     1      15.266 -33.172  22.022  1.00  0.00     0.053 C 
BRANCH   3   4
ATOM      4  C   UNL     1      14.318 -33.095  20.866  1.00  0.00     0.041 C 
ATOM      5  O   UNL     1      14.360 -33.960  19.953  1.00  0.00    -0.550 OA
ATOM      6  O   UNL     1      13.409 -32.047  20.780  1.00  0.00    -0.550 OA
ENDBRANCH   3   4
ENDBRANCH   2   3
ENDBRANCH   1   2
BRANCH   1   7
ATOM      7  C   UNL     1      14.473 -29.953  23.472  1.00  0.00     0.000 C 
BRANCH   7   8
ATOM      8  C   UNL     1      13.147 -30.141  24.226  1.00  0.00    -0.000 C 
BRANCH   8   9
ATOM      9  C   UNL     1      12.271 -28.878  24.204  1.00  0.00    -0.003 C 
ATOM     10  C   UNL     1      12.716 -27.831  25.224  1.00  0.00     0.004 C 
ENDBRANCH   8   9
ENDBRANCH   7   8
ENDBRANCH   1   7
TORSDOF 6
ENDMDL
MODEL 8
REMARK VINA RESULT:    -3.585      6.246      8.277
REMARK INTER + INTRA:          -5.204
REMARK INTER:                  -4.787
REMARK INTRA:                  -0.417
REMARK UNBOUND:                -0.362
REMARK SMILES CCCCCCCC(=O)[O-]
REMARK SMILES IDX 5 1 6 2 7 3 8 4 9 5 10 6 4 7 3 8 2 9 1 10
REMARK H PARENT
REMARK Flexibility Score: inf
ROOT
ATOM      1  C   UNL     1      13.666 -31.780  21.433  1.00  0.00     0.000 C 
ENDROOT
BRANCH   1   2
ATOM      2  C   UNL     1      14.197 -33.103  20.854  1.00  0.00     0.006 C 
BRANCH   2   3
ATOM      3  C   UNL     1      15.652 -33.423  21.236  1.00  0.00     0.053 C 
BRANCH   3   4
ATOM      4  C   UNL     1      15.734 -34.429  22.342  1.00  0.00     0.041 C 
ATOM      5  O   UNL     1      15.045 -34.284  23.385  1.00  0.00    -0.550 OA
ATOM      6  O   UNL     1      16.600 -35.511  22.234  1.00  0.00    -0.550 OA
ENDBRANCH   3   4
ENDBRANCH   2   3
ENDBRANCH   1   2
BRANCH   1   7
ATOM      7  C   UNL     1      14.769 -30.731  21.632  1.00  0.00     0.000 C 
BRANCH   7   8
ATOM      8  C   UNL     1      14.924 -30.374  23.119  1.00  0.00    -0.000 C 
BRANCH   8   9
ATOM      9  C   UNL     1      13.653 -30.665  23.932  1.00  0.00    -0.003 C 
ATOM     10  C   UNL     1      12.915 -29.395  24.351  1.00  0.00     0.004 C 
ENDBRANCH   8   9
ENDBRANCH   7   8
ENDBRANCH   1   7
TORSDOF 6
ENDMDL
MODEL 9
REMARK VINA RESULT:    -3.572     10.676     13.098
REMARK INTER + INTRA:          -5.187
REMARK INTER:                  -4.888
REMARK INTRA:                  -0.299
REMARK UNBOUND:                -0.362
REMARK SMILES CCCCCCCC(=O)[O-]
REMARK SMILES IDX 5 1 6 2 7 3 8 4 9 5 10 6 4 7 3 8 2 9 1 10
REMARK H PARENT
REMARK Flexibility Score: inf
ROOT
ATOM      1  C   UNL     1      20.584 -27.081  21.175  1.00  0.00     0.000 C 
ENDROOT
BRANCH   1   2
ATOM      2  C   UNL     1      21.006 -25.999  20.165  1.00  0.00     0.006 C 
BRANCH   2   3
ATOM      3  C   UNL     1      22.490 -26.052  19.765  1.00  0.00     0.053 C 
BRANCH   3   4
ATOM      4  C   UNL     1      23.247 -24.857  20.256  1.00  0.00     0.041 C 
ATOM      5  O   UNL     1      23.161 -24.502  21.461  1.00  0.00    -0.550 OA
ATOM      6  O   UNL     1      24.021 -24.113  19.373  1.00  0.00    -0.550 OA
ENDBRANCH   3   4
ENDBRANCH   2   3
ENDBRANCH   1   2
BRANCH   1   7
ATOM      7  C   UNL     1      21.380 -28.385  21.019  1.00  0.00     0.000 C 
BRANCH   7   8
ATOM      8  C   UNL     1      20.480 -29.608  21.257  1.00  0.00    -0.000 C 
BRANCH   8   9
ATOM      9  C   UNL     1      18.990 -29.294  21.053  1.00  0.00    -0.003 C 
ATOM     10  C   UNL     1      18.102 -30.531  21.174  1.00  0.00     0.004 C 
ENDBRANCH   8   9
ENDBRANCH   7   8
ENDBRANCH   1   7
TORSDOF 6
ENDMDL
