MODEL 1
REMARK VINA RESULT:    -4.377      0.000      0.000
REMARK INTER + INTRA:          -6.927
REMARK INTER:                  -6.679
REMARK INTRA:                  -0.247
REMARK UNBOUND:                -0.247
REMARK SMILES CC1=CCC[C@@H](C)C(=O)C[C@H](C(C)C)C(=O)C1
REMARK SMILES IDX 8 1 9 2 6 3 7 4 5 5 4 6 3 7 2 8 1 9 10 11 11 12 15 13 16 14
REMARK SMILES IDX 17 15 12 17 13 18 14 19
REMARK H PARENT
REMARK Flexibility Score: 70.00
ROOT
ATOM      1  C   UNL     1      26.173  50.133  16.490  1.00  0.00     0.136 C 
ATOM      2  O   UNL     1      25.598  49.270  17.139  1.00  0.00    -0.299 OA
ENDROOT
BRANCH   1   3
ATOM      3  C   UNL     1      27.408  49.738  15.687  1.00  0.00     0.053 C 
ATOM      4  C   UNL     1      27.095  48.533  14.785  1.00  0.00     0.016 C 
BRANCH   3   5
ATOM      5  C   UNL     1      28.610  49.418  16.606  1.00  0.00     0.015 C 
BRANCH   5   6
ATOM      6  C   UNL     1      29.659  50.542  16.694  1.00  0.00     0.028 C 
BRANCH   6   7
ATOM      7  C   UNL     1      29.799  51.306  15.398  1.00  0.00    -0.028 C 
ATOM      8  C   UNL     1      29.499  52.613  15.198  1.00  0.00    -0.070 CG0
ATOM      9  C   UNL     1      29.725  53.177  13.817  1.00  0.00     0.039 C 
ATOM     10  G   UNL     1      28.892  53.523  16.256  1.00  0.00     0.000 G0
ENDBRANCH   6   7
ENDBRANCH   5   6
ENDBRANCH   3   5
ENDBRANCH   1   3
BRANCH   1  11
ATOM     11  C   UNL     1      25.689  51.563  16.644  1.00  0.00     0.087 C 
BRANCH  11  12
ATOM     12  C   UNL     1      26.660  52.566  17.328  1.00  0.00     0.066 C 
BRANCH  12  13
ATOM     13  C   UNL     1      27.391  53.439  16.306  1.00  0.00     0.140 C 
ATOM     14  O   UNL     1      26.751  54.110  15.507  1.00  0.00    -0.299 OA
BRANCH  13  15
ATOM     15  C   UNL     1      28.899  53.530  16.263  1.00  0.00     0.106 CG0
ATOM     16  G   UNL     1      29.476  52.596  15.209  1.00  0.00     0.000 G0
ENDBRANCH  13  15
ENDBRANCH  12  13
BRANCH  12  17
ATOM     17  C   UNL     1      25.992  53.401  18.479  1.00  0.00    -0.006 C 
ATOM     18  C   UNL     1      27.038  54.256  19.224  1.00  0.00     0.008 C 
ATOM     19  C   UNL     1      25.267  52.526  19.520  1.00  0.00     0.008 C 
ENDBRANCH  12  17
ENDBRANCH  11  12
ENDBRANCH   1  11
TORSDOF 1
ENDMDL
MODEL 2
REMARK VINA RESULT:    -4.230      5.125      7.601
REMARK INTER + INTRA:          -6.703
REMARK INTER:                  -6.597
REMARK INTRA:                  -0.106
REMARK UNBOUND:                -0.247
REMARK SMILES CC1=CCC[C@@H](C)C(=O)C[C@H](C(C)C)C(=O)C1
REMARK SMILES IDX 8 1 9 2 6 3 7 4 5 5 4 6 3 7 2 8 1 9 10 11 11 12 15 13 16 14
REMARK SMILES IDX 17 15 12 17 13 18 14 19
REMARK H PARENT
REMARK Flexibility Score: 70.00
ROOT
ATOM      1  C   UNL     1      25.255  55.763  10.548  1.00  0.00     0.136 C 
ATOM      2  O   UNL     1      24.857  56.671   9.831  1.00  0.00    -0.299 OA
ENDROOT
BRANCH   1   3
ATOM      3  C   UNL     1      26.325  56.071  11.589  1.00  0.00     0.053 C 
ATOM      4  C   UNL     1      25.855  57.200  12.520  1.00  0.00     0.016 C 
BRANCH   3   5
ATOM      5  C   UNL     1      27.672  56.449  10.929  1.00  0.00     0.015 C 
BRANCH   5   6
ATOM      6  C   UNL     1      28.761  55.367  11.043  1.00  0.00     0.028 C 
BRANCH   6   7
ATOM      7  C   UNL     1      28.625  54.539  12.299  1.00  0.00    -0.028 C 
ATOM      8  C   UNL     1      28.266  53.233  12.368  1.00  0.00    -0.070 CG0
ATOM      9  C   UNL     1      28.202  52.597  13.735  1.00  0.00     0.039 C 
ATOM     10  G   UNL     1      27.865  52.392  11.164  1.00  0.00     0.000 G0
ENDBRANCH   6   7
ENDBRANCH   5   6
ENDBRANCH   3   5
ENDBRANCH   1   3
BRANCH   1  11
ATOM     11  C   UNL     1      24.745  54.364  10.250  1.00  0.00     0.087 C 
BRANCH  11  12
ATOM     12  C   UNL     1      25.788  53.325   9.752  1.00  0.00     0.066 C 
BRANCH  12  13
ATOM     13  C   UNL     1      26.365  52.499  10.903  1.00  0.00     0.140 C 
ATOM     14  O   UNL     1      25.615  51.879  11.646  1.00  0.00    -0.299 OA
BRANCH  13  15
ATOM     15  C   UNL     1      27.853  52.393  11.147  1.00  0.00     0.106 CG0
ATOM     16  G   UNL     1      28.270  53.212  12.361  1.00  0.00     0.000 G0
ENDBRANCH  13  15
ENDBRANCH  12  13
BRANCH  12  17
ATOM     17  C   UNL     1      25.272  52.438   8.562  1.00  0.00    -0.006 C 
ATOM     18  C   UNL     1      26.402  51.548   8.002  1.00  0.00     0.008 C 
ATOM     19  C   UNL     1      24.698  53.264   7.395  1.00  0.00     0.008 C 
ENDBRANCH  12  17
ENDBRANCH  11  12
ENDBRANCH   1  11
TORSDOF 1
ENDMDL
MODEL 3
REMARK VINA RESULT:    -4.156      2.159      4.698
REMARK INTER + INTRA:          -6.590
REMARK INTER:                  -6.690
REMARK INTRA:                   0.099
REMARK UNBOUND:                -0.247
REMARK SMILES CC1=CCC[C@@H](C)C(=O)C[C@H](C(C)C)C(=O)C1
REMARK SMILES IDX 8 1 9 2 6 3 7 4 5 5 4 6 3 7 2 8 1 9 10 11 11 12 15 13 16 14
REMARK SMILES IDX 17 15 12 17 13 18 14 19
REMARK H PARENT
REMARK Flexibility Score: 70.00
ROOT
ATOM      1  C   UNL     1      26.142  53.600  18.640  1.00  0.00     0.136 C 
ATOM      2  O   UNL     1      27.059  53.894  19.396  1.00  0.00    -0.299 OA
ENDROOT
BRANCH   1   3
ATOM      3  C   UNL     1      24.758  53.361  19.232  1.00  0.00     0.053 C 
ATOM      4  C   UNL     1      24.851  53.194  20.758  1.00  0.00     0.016 C 
BRANCH   3   5
ATOM      5  C   UNL     1      24.071  52.128  18.601  1.00  0.00     0.015 C 
BRANCH   5   6
ATOM      6  C   UNL     1      24.879  50.822  18.715  1.00  0.00     0.028 C 
BRANCH   6   7
ATOM      7  C   UNL     1      24.863  50.019  17.436  1.00  0.00    -0.028 C 
ATOM      8  C   UNL     1      25.938  49.689  16.678  1.00  0.00    -0.070 CG0
ATOM      9  C   UNL     1      25.692  48.867  15.437  1.00  0.00     0.039 C 
ATOM     10  G   UNL     1      27.360  50.149  16.966  1.00  0.00     0.000 G0
ENDBRANCH   6   7
ENDBRANCH   5   6
ENDBRANCH   3   5
ENDBRANCH   1   3
BRANCH   1  11
ATOM     11  C   UNL     1      26.488  53.364  17.181  1.00  0.00     0.087 C 
BRANCH  11  12
ATOM     12  C   UNL     1      27.879  52.741  16.878  1.00  0.00     0.066 C 
BRANCH  12  13
ATOM     13  C   UNL     1      27.757  51.377  16.197  1.00  0.00     0.140 C 
ATOM     14  O   UNL     1      27.985  51.269  15.000  1.00  0.00    -0.299 OA
BRANCH  13  15
ATOM     15  C   UNL     1      27.388  50.128  16.965  1.00  0.00     0.106 CG0
ATOM     16  G   UNL     1      25.954  49.708  16.674  1.00  0.00     0.000 G0
ENDBRANCH  13  15
ENDBRANCH  12  13
BRANCH  12  17
ATOM     17  C   UNL     1      28.853  53.716  16.124  1.00  0.00    -0.006 C 
ATOM     18  C   UNL     1      29.463  54.751  17.092  1.00  0.00     0.008 C 
ATOM     19  C   UNL     1      28.171  54.485  14.976  1.00  0.00     0.008 C 
ENDBRANCH  12  17
ENDBRANCH  11  12
ENDBRANCH   1  11
TORSDOF 1
ENDMDL
MODEL 4
REMARK VINA RESULT:    -4.153      4.907      7.224
REMARK INTER + INTRA:          -6.586
REMARK INTER:                  -6.478
REMARK INTRA:                  -0.108
REMARK UNBOUND:                -0.247
REMARK SMILES CC1=CCC[C@@H](C)C(=O)C[C@H](C(C)C)C(=O)C1
REMARK SMILES IDX 8 1 9 2 6 3 7 4 5 5 4 6 3 7 2 8 1 9 10 11 11 12 15 13 16 14
REMARK SMILES IDX 17 15 12 17 13 18 14 19
REMARK H PARENT
REMARK Flexibility Score: 70.00
ROOT
ATOM      1  C   UNL     1      26.205  56.383  12.274  1.00  0.00     0.136 C 
ATOM      2  O   UNL     1      25.335  57.241  12.349  1.00  0.00    -0.299 OA
ENDROOT
BRANCH   1   3
ATOM      3  C   UNL     1      27.664  56.824  12.264  1.00  0.00     0.053 C 
ATOM      4  C   UNL     1      27.801  58.232  12.865  1.00  0.00     0.016 C 
BRANCH   3   5
ATOM      5  C   UNL     1      28.261  56.793  10.837  1.00  0.00     0.015 C 
BRANCH   5   6
ATOM      6  C   UNL     1      29.585  56.017  10.719  1.00  0.00     0.028 C 
BRANCH   6   7
ATOM      7  C   UNL     1      29.838  55.119  11.907  1.00  0.00    -0.028 C 
ATOM      8  C   UNL     1      29.496  53.812  12.015  1.00  0.00    -0.070 CG0
ATOM      9  C   UNL     1      29.856  53.100  13.297  1.00  0.00     0.039 C 
ATOM     10  G   UNL     1      28.721  53.040  10.957  1.00  0.00     0.000 G0
ENDBRANCH   6   7
ENDBRANCH   5   6
ENDBRANCH   3   5
ENDBRANCH   1   3
BRANCH   1  11
ATOM     11  C   UNL     1      25.756  54.948  12.061  1.00  0.00     0.087 C 
BRANCH  11  12
ATOM     12  C   UNL     1      26.335  54.204  10.825  1.00  0.00     0.066 C 
BRANCH  12  13
ATOM     13  C   UNL     1      27.237  53.039  11.234  1.00  0.00     0.140 C 
ATOM     14  O   UNL     1      26.755  52.057  11.784  1.00  0.00    -0.299 OA
BRANCH  13  15
ATOM     15  C   UNL     1      28.723  53.037  10.953  1.00  0.00     0.106 CG0
ATOM     16  G   UNL     1      29.484  53.809  12.021  1.00  0.00     0.000 G0
ENDBRANCH  13  15
ENDBRANCH  12  13
BRANCH  12  17
ATOM     17  C   UNL     1      25.246  53.794   9.771  1.00  0.00    -0.006 C 
ATOM     18  C   UNL     1      25.877  53.031   8.588  1.00  0.00     0.008 C 
ATOM     19  C   UNL     1      24.473  54.999   9.199  1.00  0.00     0.008 C 
ENDBRANCH  12  17
ENDBRANCH  11  12
ENDBRANCH   1  11
TORSDOF 1
ENDMDL
MODEL 5
REMARK VINA RESULT:    -4.151      1.745      4.212
REMARK INTER + INTRA:          -6.582
REMARK INTER:                  -6.539
REMARK INTRA:                  -0.043
REMARK UNBOUND:                -0.247
REMARK SMILES CC1=CCC[C@@H](C)C(=O)C[C@H](C(C)C)C(=O)C1
REMARK SMILES IDX 8 1 9 2 6 3 7 4 5 5 4 6 3 7 2 8 1 9 10 11 11 12 15 13 16 14
REMARK SMILES IDX 17 15 12 17 13 18 14 19
REMARK H PARENT
REMARK Flexibility Score: 70.00
ROOT
ATOM      1  C   UNL     1      26.079  49.983  17.302  1.00  0.00     0.136 C 
ATOM      2  O   UNL     1      25.297  49.252  16.708  1.00  0.00    -0.299 OA
ENDROOT
BRANCH   1   3
ATOM      3  C   UNL     1      25.521  50.976  18.315  1.00  0.00     0.053 C 
ATOM      4  C   UNL     1      24.489  50.289  19.224  1.00  0.00     0.016 C 
BRANCH   3   5
ATOM      5  C   UNL     1      24.888  52.206  17.623  1.00  0.00     0.015 C 
BRANCH   5   6
ATOM      6  C   UNL     1      25.841  53.402  17.455  1.00  0.00     0.028 C 
BRANCH   6   7
ATOM      7  C   UNL     1      26.048  53.778  16.006  1.00  0.00    -0.028 C 
ATOM      8  C   UNL     1      27.067  53.375  15.207  1.00  0.00    -0.070 CG0
ATOM      9  C   UNL     1      27.071  53.868  13.781  1.00  0.00     0.039 C 
ATOM     10  G   UNL     1      28.232  52.515  15.675  1.00  0.00     0.000 G0
ENDBRANCH   6   7
ENDBRANCH   5   6
ENDBRANCH   3   5
ENDBRANCH   1   3
BRANCH   1  11
ATOM     11  C   UNL     1      27.537  49.937  16.880  1.00  0.00     0.087 C 
BRANCH  11  12
ATOM     12  C   UNL     1      27.829  49.909  15.354  1.00  0.00     0.066 C 
BRANCH  12  13
ATOM     13  C   UNL     1      28.378  51.246  14.855  1.00  0.00     0.140 C 
ATOM     14  O   UNL     1      28.913  51.314  13.756  1.00  0.00    -0.299 OA
BRANCH  13  15
ATOM     15  C   UNL     1      28.259  52.516  15.667  1.00  0.00     0.106 CG0
ATOM     16  G   UNL     1      27.071  53.350  15.208  1.00  0.00     0.000 G0
ENDBRANCH  13  15
ENDBRANCH  12  13
BRANCH  12  17
ATOM     17  C   UNL     1      28.701  48.683  14.904  1.00  0.00    -0.006 C 
ATOM     18  C   UNL     1      27.833  47.603  14.225  1.00  0.00     0.008 C 
ATOM     19  C   UNL     1      29.459  48.017  16.070  1.00  0.00     0.008 C 
ENDBRANCH  12  17
ENDBRANCH  11  12
ENDBRANCH   1  11
TORSDOF 1
ENDMDL
MODEL 6
REMARK VINA RESULT:    -4.127      4.645      6.883
REMARK INTER + INTRA:          -6.546
REMARK INTER:                  -6.411
REMARK INTRA:                  -0.135
REMARK UNBOUND:                -0.247
REMARK SMILES CC1=CCC[C@@H](C)C(=O)C[C@H](C(C)C)C(=O)C1
REMARK SMILES IDX 8 1 9 2 6 3 7 4 5 5 4 6 3 7 2 8 1 9 10 11 11 12 15 13 16 14
REMARK SMILES IDX 17 15 12 17 13 18 14 19
REMARK H PARENT
REMARK Flexibility Score: 70.00
ROOT
ATOM      1  C   UNL     1      26.106  55.944  10.332  1.00  0.00     0.136 C 
ATOM      2  O   UNL     1      25.493  56.907  10.772  1.00  0.00    -0.299 OA
ENDROOT
BRANCH   1   3
ATOM      3  C   UNL     1      25.312  54.777   9.756  1.00  0.00     0.053 C 
ATOM      4  C   UNL     1      23.947  55.262   9.241  1.00  0.00     0.016 C 
BRANCH   3   5
ATOM      5  C   UNL     1      25.119  53.647  10.795  1.00  0.00     0.015 C 
BRANCH   5   6
ATOM      6  C   UNL     1      25.959  52.386  10.525  1.00  0.00     0.028 C 
BRANCH   6   7
ATOM      7  C   UNL     1      26.697  51.909  11.754  1.00  0.00    -0.028 C 
ATOM      8  C   UNL     1      27.924  52.316  12.165  1.00  0.00    -0.070 CG0
ATOM      9  C   UNL     1      28.470  51.710  13.435  1.00  0.00     0.039 C 
ATOM     10  G   UNL     1      28.804  53.291  11.396  1.00  0.00     0.000 G0
ENDBRANCH   6   7
ENDBRANCH   5   6
ENDBRANCH   3   5
ENDBRANCH   1   3
BRANCH   1  11
ATOM     11  C   UNL     1      27.612  55.928  10.520  1.00  0.00     0.087 C 
BRANCH  11  12
ATOM     12  C   UNL     1      28.140  55.820  11.978  1.00  0.00     0.066 C 
BRANCH  12  13
ATOM     13  C   UNL     1      29.014  54.581  12.178  1.00  0.00     0.140 C 
ATOM     14  O   UNL     1      29.909  54.593  13.013  1.00  0.00    -0.299 OA
BRANCH  13  15
ATOM     15  C   UNL     1      28.793  53.309  11.392  1.00  0.00     0.106 CG0
ATOM     16  G   UNL     1      27.929  52.327  12.169  1.00  0.00     0.000 G0
ENDBRANCH  13  15
ENDBRANCH  12  13
BRANCH  12  17
ATOM     17  C   UNL     1      28.818  57.138  12.499  1.00  0.00    -0.006 C 
ATOM     18  C   UNL     1      27.794  58.046  13.210  1.00  0.00     0.008 C 
ATOM     19  C   UNL     1      29.484  57.960  11.379  1.00  0.00     0.008 C 
ENDBRANCH  12  17
ENDBRANCH  11  12
ENDBRANCH   1  11
TORSDOF 1
ENDMDL
MODEL 7
REMARK VINA RESULT:    -4.035      5.858      7.842
REMARK INTER + INTRA:          -6.406
REMARK INTER:                  -6.914
REMARK INTRA:                   0.508
REMARK UNBOUND:                -0.247
REMARK SMILES CC1=CCC[C@@H](C)C(=O)C[C@H](C(C)C)C(=O)C1
REMARK SMILES IDX 8 1 9 2 6 3 7 4 5 5 4 6 3 7 2 8 1 9 10 11 11 12 15 13 16 14
REMARK SMILES IDX 17 15 12 17 13 18 14 19
REMARK H PARENT
REMARK Flexibility Score: 70.00
ROOT
ATOM      1  C   UNL     1      25.818  52.532   8.398  1.00  0.00     0.136 C 
ATOM      2  O   UNL     1      26.494  51.788   7.701  1.00  0.00    -0.299 OA
ENDROOT
BRANCH   1   3
ATOM      3  C   UNL     1      24.791  53.431   7.720  1.00  0.00     0.053 C 
ATOM      4  C   UNL     1      24.935  53.350   6.192  1.00  0.00     0.016 C 
BRANCH   3   5
ATOM      5  C   UNL     1      24.916  54.899   8.191  1.00  0.00     0.015 C 
BRANCH   5   6
ATOM      6  C   UNL     1      24.445  55.146   9.635  1.00  0.00     0.028 C 
BRANCH   6   7
ATOM      7  C   UNL     1      25.230  56.240  10.321  1.00  0.00    -0.028 C 
ATOM      8  C   UNL     1      26.187  56.073  11.267  1.00  0.00    -0.070 CG0
ATOM      9  C   UNL     1      26.853  57.312  11.813  1.00  0.00     0.039 C 
ATOM     10  G   UNL     1      26.583  54.725  11.854  1.00  0.00     0.000 G0
ENDBRANCH   6   7
ENDBRANCH   5   6
ENDBRANCH   3   5
ENDBRANCH   1   3
BRANCH   1  11
ATOM     11  C   UNL     1      26.152  52.598   9.878  1.00  0.00     0.087 C 
BRANCH  11  12
ATOM     12  C   UNL     1      27.633  52.880  10.254  1.00  0.00     0.066 C 
BRANCH  12  13
ATOM     13  C   UNL     1      27.772  54.126  11.129  1.00  0.00     0.140 C 
ATOM     14  O   UNL     1      28.857  54.684  11.231  1.00  0.00    -0.299 OA
BRANCH  13  15
ATOM     15  C   UNL     1      26.594  54.726  11.863  1.00  0.00     0.106 CG0
ATOM     16  G   UNL     1      26.204  56.072  11.267  1.00  0.00     0.000 G0
ENDBRANCH  13  15
ENDBRANCH  12  13
BRANCH  12  17
ATOM     17  C   UNL     1      28.379  51.631  10.847  1.00  0.00    -0.006 C 
ATOM     18  C   UNL     1      28.143  51.513  12.367  1.00  0.00     0.008 C 
ATOM     19  C   UNL     1      29.900  51.662  10.604  1.00  0.00     0.008 C 
ENDBRANCH  12  17
ENDBRANCH  11  12
ENDBRANCH   1  11
TORSDOF 1
ENDMDL
MODEL 8
REMARK VINA RESULT:    -3.986      2.040      4.909
REMARK INTER + INTRA:          -6.331
REMARK INTER:                  -6.052
REMARK INTRA:                  -0.279
REMARK UNBOUND:                -0.247
REMARK SMILES CC1=CCC[C@@H](C)C(=O)C[C@H](C(C)C)C(=O)C1
REMARK SMILES IDX 8 1 9 2 6 3 7 4 5 5 4 6 3 7 2 8 1 9 10 11 11 12 15 13 16 14
REMARK SMILES IDX 17 15 12 17 13 18 14 19
REMARK H PARENT
REMARK Flexibility Score: 70.00
ROOT
ATOM      1  C   UNL     1      29.015  52.009  14.419  1.00  0.00     0.136 C 
ATOM      2  O   UNL     1      30.217  51.865  14.238  1.00  0.00    -0.299 OA
ENDROOT
BRANCH   1   3
ATOM      3  C   UNL     1      28.490  53.401  14.749  1.00  0.00     0.053 C 
ATOM      4  C   UNL     1      28.867  54.392  13.636  1.00  0.00     0.016 C 
BRANCH   3   5
ATOM      5  C   UNL     1      29.019  53.904  16.112  1.00  0.00     0.015 C 
BRANCH   5   6
ATOM      6  C   UNL     1      28.094  53.598  17.305  1.00  0.00     0.028 C 
BRANCH   6   7
ATOM      7  C   UNL     1      26.638  53.542  16.908  1.00  0.00    -0.028 C 
ATOM      8  C   UNL     1      25.814  52.471  17.016  1.00  0.00    -0.070 CG0
ATOM      9  C   UNL     1      24.384  52.641  16.565  1.00  0.00     0.039 C 
ATOM     10  G   UNL     1      26.257  51.097  17.502  1.00  0.00     0.000 G0
ENDBRANCH   6   7
ENDBRANCH   5   6
ENDBRANCH   3   5
ENDBRANCH   1   3
BRANCH   1  11
ATOM     11  C   UNL     1      28.156  50.757  14.434  1.00  0.00     0.087 C 
BRANCH  11  12
ATOM     12  C   UNL     1      27.998  50.027  15.797  1.00  0.00     0.066 C 
BRANCH  12  13
ATOM     13  C   UNL     1      26.581  50.167  16.357  1.00  0.00     0.140 C 
ATOM     14  O   UNL     1      25.669  49.501  15.885  1.00  0.00    -0.299 OA
BRANCH  13  15
ATOM     15  C   UNL     1      26.263  51.089  17.512  1.00  0.00     0.106 CG0
ATOM     16  G   UNL     1      25.826  52.460  17.015  1.00  0.00     0.000 G0
ENDBRANCH  13  15
ENDBRANCH  12  13
BRANCH  12  17
ATOM     17  C   UNL     1      28.503  48.540  15.775  1.00  0.00    -0.006 C 
ATOM     18  C   UNL     1      30.000  48.456  16.140  1.00  0.00     0.008 C 
ATOM     19  C   UNL     1      28.309  47.854  14.409  1.00  0.00     0.008 C 
ENDBRANCH  12  17
ENDBRANCH  11  12
ENDBRANCH   1  11
TORSDOF 1
ENDMDL
MODEL 9
REMARK VINA RESULT:    -3.948      4.656      7.160
REMARK INTER + INTRA:          -6.272
REMARK INTER:                  -5.992
REMARK INTRA:                  -0.280
REMARK UNBOUND:                -0.247
REMARK SMILES CC1=CCC[C@@H](C)C(=O)C[C@H](C(C)C)C(=O)C1
REMARK SMILES IDX 8 1 9 2 6 3 7 4 5 5 4 6 3 7 2 8 1 9 10 11 11 12 15 13 16 14
REMARK SMILES IDX 17 15 12 17 13 18 14 19
REMARK H PARENT
REMARK Flexibility Score: 70.00
ROOT
ATOM      1  C   UNL     1      28.820  55.282  12.127  1.00  0.00     0.136 C 
ATOM      2  O   UNL     1      28.849  55.751  13.257  1.00  0.00    -0.299 OA
ENDROOT
BRANCH   1   3
ATOM      3  C   UNL     1      28.288  56.151  10.993  1.00  0.00     0.053 C 
ATOM      4  C   UNL     1      29.207  57.364  10.774  1.00  0.00     0.016 C 
BRANCH   3   5
ATOM      5  C   UNL     1      26.839  56.620  11.261  1.00  0.00     0.015 C 
BRANCH   5   6
ATOM      6  C   UNL     1      25.789  55.495  11.220  1.00  0.00     0.028 C 
BRANCH   6   7
ATOM      7  C   UNL     1      25.692  54.844   9.861  1.00  0.00    -0.028 C 
ATOM      8  C   UNL     1      25.739  53.514   9.599  1.00  0.00    -0.070 CG0
ATOM      9  C   UNL     1      25.613  53.080   8.160  1.00  0.00     0.039 C 
ATOM     10  G   UNL     1      25.974  52.443  10.655  1.00  0.00     0.000 G0
ENDBRANCH   6   7
ENDBRANCH   5   6
ENDBRANCH   3   5
ENDBRANCH   1   3
BRANCH   1  11
ATOM     11  C   UNL     1      29.190  53.818  11.967  1.00  0.00     0.087 C 
BRANCH  11  12
ATOM     12  C   UNL     1      28.074  52.774  12.251  1.00  0.00     0.066 C 
BRANCH  12  13
ATOM     13  C   UNL     1      27.445  52.247  10.959  1.00  0.00     0.140 C 
ATOM     14  O   UNL     1      28.133  51.638  10.150  1.00  0.00    -0.299 OA
BRANCH  13  15
ATOM     15  C   UNL     1      25.976  52.425  10.652  1.00  0.00     0.106 CG0
ATOM     16  G   UNL     1      25.761  53.514   9.610  1.00  0.00     0.000 G0
ENDBRANCH  13  15
ENDBRANCH  12  13
BRANCH  12  17
ATOM     17  C   UNL     1      28.521  51.627  13.226  1.00  0.00    -0.006 C 
ATOM     18  C   UNL     1      27.308  51.021  13.963  1.00  0.00     0.008 C 
ATOM     19  C   UNL     1      29.535  52.095  14.288  1.00  0.00     0.008 C 
ENDBRANCH  12  17
ENDBRANCH  11  12
ENDBRANCH   1  11
TORSDOF 1
ENDMDL
