MODEL 1
REMARK VINA RESULT:    -4.977      0.000      0.000
REMARK INTER + INTRA:         -10.789
REMARK INTER:                  -8.759
REMARK INTRA:                  -2.030
REMARK UNBOUND:                -2.030
REMARK SMILES CCCCCCCCCCCCCCC(=O)[O-]
REMARK SMILES IDX 9 1 10 2 11 3 12 4 13 5 14 6 15 7 16 8 17 9 8 10 7 11 6 12
REMARK SMILES IDX 5 13 4 14 3 15 2 16 1 17
REMARK H PARENT
REMARK Flexibility Score: inf
ROOT
ATOM      1  C   UNL     1     141.656 139.079 112.802  1.00  0.00     0.000 C 
ENDROOT
BRANCH   1   2
ATOM      2  C   UNL     1     140.310 139.687 112.369  1.00  0.00     0.000 C 
BRANCH   2   3
ATOM      3  C   UNL     1     139.344 139.886 113.546  1.00  0.00     0.000 C 
BRANCH   3   4
ATOM      4  C   UNL     1     139.948 139.344 114.850  1.00  0.00     0.000 C 
BRANCH   4   5
ATOM      5  C   UNL     1     140.021 140.402 115.966  1.00  0.00     0.006 C 
BRANCH   5   6
ATOM      6  C   UNL     1     141.342 140.384 116.758  1.00  0.00     0.053 C 
BRANCH   6   7
ATOM      7  C   UNL     1     141.242 141.111 118.065  1.00  0.00     0.041 C 
ATOM      8  O   UNL     1     140.868 142.312 118.098  1.00  0.00    -0.550 OA
ATOM      9  O   UNL     1     141.596 140.469 119.246  1.00  0.00    -0.550 OA
ENDBRANCH   6   7
ENDBRANCH   5   6
ENDBRANCH   4   5
ENDBRANCH   3   4
ENDBRANCH   2   3
ENDBRANCH   1   2
BRANCH   1  10
ATOM     10  C   UNL     1     142.860 139.807 112.179  1.00  0.00     0.000 C 
BRANCH  10  11
ATOM     11  C   UNL     1     143.917 140.211 113.223  1.00  0.00    -0.000 C 
BRANCH  11  12
ATOM     12  C   UNL     1     143.518 141.388 114.137  1.00  0.00    -0.000 C 
BRANCH  12  13
ATOM     13  C   UNL     1     142.642 142.468 113.471  1.00  0.00    -0.000 C 
BRANCH  13  14
ATOM     14  C   UNL     1     141.871 143.370 114.453  1.00  0.00    -0.000 C 
BRANCH  14  15
ATOM     15  C   UNL     1     140.355 143.375 114.191  1.00  0.00    -0.000 C 
BRANCH  15  16
ATOM     16  C   UNL     1     139.560 143.995 115.349  1.00  0.00    -0.003 C 
ATOM     17  C   UNL     1     139.429 145.513 115.227  1.00  0.00     0.004 C 
ENDBRANCH  15  16
ENDBRANCH  14  15
ENDBRANCH  13  14
ENDBRANCH  12  13
ENDBRANCH  11  12
ENDBRANCH  10  11
ENDBRANCH   1  10
TORSDOF 13
ENDMDL
MODEL 2
REMARK VINA RESULT:    -4.749      1.639      3.000
REMARK INTER + INTRA:         -10.388
REMARK INTER:                  -8.556
REMARK INTRA:                  -1.832
REMARK UNBOUND:                -2.030
REMARK SMILES CCCCCCCCCCCCCCC(=O)[O-]
REMARK SMILES IDX 9 1 10 2 11 3 12 4 13 5 14 6 15 7 16 8 17 9 8 10 7 11 6 12
REMARK SMILES IDX 5 13 4 14 3 15 2 16 1 17
REMARK H PARENT
REMARK Flexibility Score: inf
ROOT
ATOM      1  C   UNL     1     140.834 139.136 112.592  1.00  0.00     0.000 C 
ENDROOT
BRANCH   1   2
ATOM      2  C   UNL     1     140.366 138.939 114.045  1.00  0.00     0.000 C 
BRANCH   2   3
ATOM      3  C   UNL     1     139.281 139.943 114.460  1.00  0.00     0.000 C 
BRANCH   3   4
ATOM      4  C   UNL     1     139.435 140.337 115.937  1.00  0.00     0.000 C 
BRANCH   4   5
ATOM      5  C   UNL     1     139.641 141.849 116.139  1.00  0.00     0.006 C 
BRANCH   5   6
ATOM      6  C   UNL     1     140.363 142.212 117.449  1.00  0.00     0.053 C 
BRANCH   6   7
ATOM      7  C   UNL     1     140.606 141.020 118.325  1.00  0.00     0.041 C 
ATOM      8  O   UNL     1     139.829 140.764 119.282  1.00  0.00    -0.550 OA
ATOM      9  O   UNL     1     141.713 140.209 118.104  1.00  0.00    -0.550 OA
ENDBRANCH   6   7
ENDBRANCH   5   6
ENDBRANCH   4   5
ENDBRANCH   3   4
ENDBRANCH   2   3
ENDBRANCH   1   2
BRANCH   1  10
ATOM     10  C   UNL     1     139.808 139.905 111.741  1.00  0.00     0.000 C 
BRANCH  10  11
ATOM     11  C   UNL     1     140.417 141.131 111.037  1.00  0.00    -0.000 C 
BRANCH  11  12
ATOM     12  C   UNL     1     141.717 141.670 111.668  1.00  0.00    -0.000 C 
BRANCH  12  13
ATOM     13  C   UNL     1     141.528 142.501 112.953  1.00  0.00    -0.000 C 
BRANCH  13  14
ATOM     14  C   UNL     1     142.818 142.760 113.752  1.00  0.00    -0.000 C 
BRANCH  14  15
ATOM     15  C   UNL     1     142.913 141.899 115.023  1.00  0.00    -0.000 C 
BRANCH  15  16
ATOM     16  C   UNL     1     143.550 140.526 114.759  1.00  0.00    -0.003 C 
ATOM     17  C   UNL     1     144.679 140.590 113.731  1.00  0.00     0.004 C 
ENDBRANCH  15  16
ENDBRANCH  14  15
ENDBRANCH  13  14
ENDBRANCH  12  13
ENDBRANCH  11  12
ENDBRANCH  10  11
ENDBRANCH   1  10
TORSDOF 13
ENDMDL
MODEL 3
REMARK VINA RESULT:    -4.739      7.083      9.174
REMARK INTER + INTRA:         -10.370
REMARK INTER:                  -8.690
REMARK INTRA:                  -1.681
REMARK UNBOUND:                -2.030
REMARK SMILES CCCCCCCCCCCCCCC(=O)[O-]
REMARK SMILES IDX 9 1 10 2 11 3 12 4 13 5 14 6 15 7 16 8 17 9 8 10 7 11 6 12
REMARK SMILES IDX 5 13 4 14 3 15 2 16 1 17
REMARK H PARENT
REMARK Flexibility Score: inf
ROOT
ATOM      1  C   UNL     1     135.131 137.075 111.687  1.00  0.00     0.000 C 
ENDROOT
BRANCH   1   2
ATOM      2  C   UNL     1     134.202 137.236 112.903  1.00  0.00     0.000 C 
BRANCH   2   3
ATOM      3  C   UNL     1     132.805 136.645 112.663  1.00  0.00     0.000 C 
BRANCH   3   4
ATOM      4  C   UNL     1     132.309 135.886 113.902  1.00  0.00     0.000 C 
BRANCH   4   5
ATOM      5  C   UNL     1     133.452 135.435 114.830  1.00  0.00     0.006 C 
BRANCH   5   6
ATOM      6  C   UNL     1     133.556 133.908 114.997  1.00  0.00     0.053 C 
BRANCH   6   7
ATOM      7  C   UNL     1     134.633 133.305 114.147  1.00  0.00     0.041 C 
ATOM      8  O   UNL     1     135.366 132.389 114.605  1.00  0.00    -0.550 OA
ATOM      9  O   UNL     1     134.849 133.778 112.859  1.00  0.00    -0.550 OA
ENDBRANCH   6   7
ENDBRANCH   5   6
ENDBRANCH   4   5
ENDBRANCH   3   4
ENDBRANCH   2   3
ENDBRANCH   1   2
BRANCH   1  10
ATOM     10  C   UNL     1     136.499 136.482 112.064  1.00  0.00     0.000 C 
BRANCH  10  11
ATOM     11  C   UNL     1     137.434 137.511 112.725  1.00  0.00    -0.000 C 
BRANCH  11  12
ATOM     12  C   UNL     1     137.715 137.272 114.222  1.00  0.00    -0.000 C 
BRANCH  12  13
ATOM     13  C   UNL     1     137.104 135.983 114.808  1.00  0.00    -0.000 C 
BRANCH  13  14
ATOM     14  C   UNL     1     137.010 135.952 116.344  1.00  0.00    -0.000 C 
BRANCH  14  15
ATOM     15  C   UNL     1     136.777 134.535 116.897  1.00  0.00    -0.000 C 
BRANCH  15  16
ATOM     16  C   UNL     1     135.644 134.488 117.934  1.00  0.00    -0.003 C 
ATOM     17  C   UNL     1     135.842 135.493 119.068  1.00  0.00     0.004 C 
ENDBRANCH  15  16
ENDBRANCH  14  15
ENDBRANCH  13  14
ENDBRANCH  12  13
ENDBRANCH  11  12
ENDBRANCH  10  11
ENDBRANCH   1  10
TORSDOF 13
ENDMDL
MODEL 4
REMARK VINA RESULT:    -4.733      1.251      3.582
REMARK INTER + INTRA:         -10.360
REMARK INTER:                  -8.435
REMARK INTRA:                  -1.925
REMARK UNBOUND:                -2.030
REMARK SMILES CCCCCCCCCCCCCCC(=O)[O-]
REMARK SMILES IDX 9 1 10 2 11 3 12 4 13 5 14 6 15 7 16 8 17 9 8 10 7 11 6 12
REMARK SMILES IDX 5 13 4 14 3 15 2 16 1 17
REMARK H PARENT
REMARK Flexibility Score: inf
ROOT
ATOM      1  C   UNL     1     142.441 143.067 113.954  1.00  0.00     0.000 C 
ENDROOT
BRANCH   1   2
ATOM      2  C   UNL     1     140.912 142.939 113.831  1.00  0.00     0.000 C 
BRANCH   2   3
ATOM      3  C   UNL     1     140.166 143.603 114.997  1.00  0.00     0.000 C 
BRANCH   3   4
ATOM      4  C   UNL     1     139.465 142.553 115.870  1.00  0.00     0.000 C 
BRANCH   4   5
ATOM      5  C   UNL     1     140.199 142.281 117.195  1.00  0.00     0.006 C 
BRANCH   5   6
ATOM      6  C   UNL     1     139.727 141.010 117.924  1.00  0.00     0.053 C 
BRANCH   6   7
ATOM      7  C   UNL     1     140.577 140.674 119.111  1.00  0.00     0.041 C 
ATOM      8  O   UNL     1     141.779 140.333 118.957  1.00  0.00    -0.550 OA
ATOM      9  O   UNL     1     140.031 140.705 120.389  1.00  0.00    -0.550 OA
ENDBRANCH   6   7
ENDBRANCH   5   6
ENDBRANCH   4   5
ENDBRANCH   3   4
ENDBRANCH   2   3
ENDBRANCH   1   2
BRANCH   1  10
ATOM     10  C   UNL     1     143.057 141.962 114.830  1.00  0.00     0.000 C 
BRANCH  10  11
ATOM     11  C   UNL     1     143.846 140.924 114.013  1.00  0.00    -0.000 C 
BRANCH  11  12
ATOM     12  C   UNL     1     143.433 140.806 112.531  1.00  0.00    -0.000 C 
BRANCH  12  13
ATOM     13  C   UNL     1     143.354 139.366 111.985  1.00  0.00    -0.000 C 
BRANCH  13  14
ATOM     14  C   UNL     1     141.947 138.742 112.006  1.00  0.00    -0.000 C 
BRANCH  14  15
ATOM     15  C   UNL     1     140.829 139.797 111.940  1.00  0.00    -0.000 C 
BRANCH  15  16
ATOM     16  C   UNL     1     139.819 139.656 113.090  1.00  0.00    -0.003 C 
ATOM     17  C   UNL     1     140.480 139.257 114.408  1.00  0.00     0.004 C 
ENDBRANCH  15  16
ENDBRANCH  14  15
ENDBRANCH  13  14
ENDBRANCH  12  13
ENDBRANCH  11  12
ENDBRANCH  10  11
ENDBRANCH   1  10
TORSDOF 13
ENDMDL
MODEL 5
REMARK VINA RESULT:    -4.731      6.600      8.931
REMARK INTER + INTRA:         -10.357
REMARK INTER:                  -8.112
REMARK INTRA:                  -2.245
REMARK UNBOUND:                -2.030
REMARK SMILES CCCCCCCCCCCCCCC(=O)[O-]
REMARK SMILES IDX 9 1 10 2 11 3 12 4 13 5 14 6 15 7 16 8 17 9 8 10 7 11 6 12
REMARK SMILES IDX 5 13 4 14 3 15 2 16 1 17
REMARK H PARENT
REMARK Flexibility Score: inf
ROOT
ATOM      1  C   UNL     1     135.534 137.442 113.643  1.00  0.00     0.000 C 
ENDROOT
BRANCH   1   2
ATOM      2  C   UNL     1     137.056 137.421 113.871  1.00  0.00     0.000 C 
BRANCH   2   3
ATOM      3  C   UNL     1     137.453 136.673 115.152  1.00  0.00     0.000 C 
BRANCH   3   4
ATOM      4  C   UNL     1     136.243 135.954 115.766  1.00  0.00     0.000 C 
BRANCH   4   5
ATOM      5  C   UNL     1     136.598 134.584 116.371  1.00  0.00     0.006 C 
BRANCH   5   6
ATOM      6  C   UNL     1     135.839 134.258 117.670  1.00  0.00     0.053 C 
BRANCH   6   7
ATOM      7  C   UNL     1     135.877 135.383 118.659  1.00  0.00     0.041 C 
ATOM      8  O   UNL     1     136.941 135.655 119.275  1.00  0.00    -0.550 OA
ATOM      9  O   UNL     1     134.725 136.114 118.926  1.00  0.00    -0.550 OA
ENDBRANCH   6   7
ENDBRANCH   5   6
ENDBRANCH   4   5
ENDBRANCH   3   4
ENDBRANCH   2   3
ENDBRANCH   1   2
BRANCH   1  10
ATOM     10  C   UNL     1     135.156 137.235 112.166  1.00  0.00     0.000 C 
BRANCH  10  11
ATOM     11  C   UNL     1     136.025 136.171 111.472  1.00  0.00    -0.000 C 
BRANCH  11  12
ATOM     12  C   UNL     1     135.444 134.742 111.484  1.00  0.00    -0.000 C 
BRANCH  12  13
ATOM     13  C   UNL     1     135.831 133.886 112.708  1.00  0.00    -0.000 C 
BRANCH  13  14
ATOM     14  C   UNL     1     134.650 133.461 113.598  1.00  0.00    -0.000 C 
BRANCH  14  15
ATOM     15  C   UNL     1     133.335 134.163 113.217  1.00  0.00    -0.000 C 
BRANCH  15  16
ATOM     16  C   UNL     1     132.802 135.065 114.340  1.00  0.00    -0.003 C 
ATOM     17  C   UNL     1     131.648 135.956 113.882  1.00  0.00     0.004 C 
ENDBRANCH  15  16
ENDBRANCH  14  15
ENDBRANCH  13  14
ENDBRANCH  12  13
ENDBRANCH  11  12
ENDBRANCH  10  11
ENDBRANCH   1  10
TORSDOF 13
ENDMDL
MODEL 6
REMARK VINA RESULT:    -4.728      3.470      4.510
REMARK INTER + INTRA:         -10.351
REMARK INTER:                  -8.343
REMARK INTRA:                  -2.008
REMARK UNBOUND:                -2.030
REMARK SMILES CCCCCCCCCCCCCCC(=O)[O-]
REMARK SMILES IDX 9 1 10 2 11 3 12 4 13 5 14 6 15 7 16 8 17 9 8 10 7 11 6 12
REMARK SMILES IDX 5 13 4 14 3 15 2 16 1 17
REMARK H PARENT
REMARK Flexibility Score: inf
ROOT
ATOM      1  C   UNL     1     142.477 139.587 112.863  1.00  0.00     0.000 C 
ENDROOT
BRANCH   1   2
ATOM      2  C   UNL     1     141.224 139.123 113.625  1.00  0.00     0.000 C 
BRANCH   2   3
ATOM      3  C   UNL     1     139.920 139.596 112.966  1.00  0.00     0.000 C 
BRANCH   3   4
ATOM      4  C   UNL     1     138.727 139.410 113.915  1.00  0.00     0.000 C 
BRANCH   4   5
ATOM      5  C   UNL     1     138.533 137.949 114.361  1.00  0.00     0.006 C 
BRANCH   5   6
ATOM      6  C   UNL     1     137.059 137.522 114.481  1.00  0.00     0.053 C 
BRANCH   6   7
ATOM      7  C   UNL     1     136.844 136.080 114.131  1.00  0.00     0.041 C 
ATOM      8  O   UNL     1     136.456 135.757 112.977  1.00  0.00    -0.550 OA
ATOM      9  O   UNL     1     137.042 135.095 115.090  1.00  0.00    -0.550 OA
ENDBRANCH   6   7
ENDBRANCH   5   6
ENDBRANCH   4   5
ENDBRANCH   3   4
ENDBRANCH   2   3
ENDBRANCH   1   2
BRANCH   1  10
ATOM     10  C   UNL     1     142.561 141.118 112.741  1.00  0.00     0.000 C 
BRANCH  10  11
ATOM     11  C   UNL     1     143.291 141.771 113.929  1.00  0.00    -0.000 C 
BRANCH  11  12
ATOM     12  C   UNL     1     142.509 142.892 114.643  1.00  0.00    -0.000 C 
BRANCH  12  13
ATOM     13  C   UNL     1     141.019 143.002 114.255  1.00  0.00    -0.000 C 
BRANCH  13  14
ATOM     14  C   UNL     1     140.035 142.478 115.317  1.00  0.00    -0.000 C 
BRANCH  14  15
ATOM     15  C   UNL     1     140.725 142.134 116.649  1.00  0.00    -0.000 C 
BRANCH  15  16
ATOM     16  C   UNL     1     140.650 140.636 116.980  1.00  0.00    -0.003 C 
ATOM     17  C   UNL     1     142.014 139.949 116.914  1.00  0.00     0.004 C 
ENDBRANCH  15  16
ENDBRANCH  14  15
ENDBRANCH  13  14
ENDBRANCH  12  13
ENDBRANCH  11  12
ENDBRANCH  10  11
ENDBRANCH   1  10
TORSDOF 13
ENDMDL
MODEL 7
REMARK VINA RESULT:    -4.619      5.552      8.523
REMARK INTER + INTRA:         -10.159
REMARK INTER:                  -8.430
REMARK INTRA:                  -1.729
REMARK UNBOUND:                -2.030
REMARK SMILES CCCCCCCCCCCCCCC(=O)[O-]
REMARK SMILES IDX 9 1 10 2 11 3 12 4 13 5 14 6 15 7 16 8 17 9 8 10 7 11 6 12
REMARK SMILES IDX 5 13 4 14 3 15 2 16 1 17
REMARK H PARENT
REMARK Flexibility Score: inf
ROOT
ATOM      1  C   UNL     1     135.965 136.091 116.220  1.00  0.00     0.000 C 
ENDROOT
BRANCH   1   2
ATOM      2  C   UNL     1     137.142 136.428 115.288  1.00  0.00     0.000 C 
BRANCH   2   3
ATOM      3  C   UNL     1     136.797 137.524 114.269  1.00  0.00     0.000 C 
BRANCH   3   4
ATOM      4  C   UNL     1     137.908 137.667 113.220  1.00  0.00     0.000 C 
BRANCH   4   5
ATOM      5  C   UNL     1     139.125 138.457 113.733  1.00  0.00     0.006 C 
BRANCH   5   6
ATOM      6  C   UNL     1     138.759 139.692 114.577  1.00  0.00     0.053 C 
BRANCH   6   7
ATOM      7  C   UNL     1     139.956 140.343 115.200  1.00  0.00     0.041 C 
ATOM      8  O   UNL     1     139.953 141.578 115.446  1.00  0.00    -0.550 OA
ATOM      9  O   UNL     1     141.090 139.590 115.481  1.00  0.00    -0.550 OA
ENDBRANCH   6   7
ENDBRANCH   5   6
ENDBRANCH   4   5
ENDBRANCH   3   4
ENDBRANCH   2   3
ENDBRANCH   1   2
BRANCH   1  10
ATOM     10  C   UNL     1     134.664 136.803 115.809  1.00  0.00     0.000 C 
BRANCH  10  11
ATOM     11  C   UNL     1     133.503 135.824 115.557  1.00  0.00    -0.000 C 
BRANCH  11  12
ATOM     12  C   UNL     1     132.881 135.895 114.148  1.00  0.00    -0.000 C 
BRANCH  12  13
ATOM     13  C   UNL     1     133.132 134.662 113.256  1.00  0.00    -0.000 C 
BRANCH  13  14
ATOM     14  C   UNL     1     134.376 134.759 112.354  1.00  0.00    -0.000 C 
BRANCH  14  15
ATOM     15  C   UNL     1     135.604 134.056 112.958  1.00  0.00    -0.000 C 
BRANCH  15  16
ATOM     16  C   UNL     1     135.236 133.126 114.125  1.00  0.00    -0.003 C 
ATOM     17  C   UNL     1     136.456 132.677 114.927  1.00  0.00     0.004 C 
ENDBRANCH  15  16
ENDBRANCH  14  15
ENDBRANCH  13  14
ENDBRANCH  12  13
ENDBRANCH  11  12
ENDBRANCH  10  11
ENDBRANCH   1  10
TORSDOF 13
ENDMDL
MODEL 8
REMARK VINA RESULT:    -4.596      2.150      5.014
REMARK INTER + INTRA:         -10.119
REMARK INTER:                  -8.636
REMARK INTRA:                  -1.483
REMARK UNBOUND:                -2.030
REMARK SMILES CCCCCCCCCCCCCCC(=O)[O-]
REMARK SMILES IDX 9 1 10 2 11 3 12 4 13 5 14 6 15 7 16 8 17 9 8 10 7 11 6 12
REMARK SMILES IDX 5 13 4 14 3 15 2 16 1 17
REMARK H PARENT
REMARK Flexibility Score: inf
ROOT
ATOM      1  C   UNL     1     143.374 140.153 112.743  1.00  0.00     0.000 C 
ENDROOT
BRANCH   1   2
ATOM      2  C   UNL     1     143.980 140.652 114.067  1.00  0.00     0.000 C 
BRANCH   2   3
ATOM      3  C   UNL     1     142.914 140.954 115.130  1.00  0.00     0.000 C 
BRANCH   3   4
ATOM      4  C   UNL     1     142.792 142.465 115.371  1.00  0.00     0.000 C 
BRANCH   4   5
ATOM      5  C   UNL     1     142.093 143.206 114.217  1.00  0.00     0.006 C 
BRANCH   5   6
ATOM      6  C   UNL     1     140.597 142.872 114.074  1.00  0.00     0.053 C 
BRANCH   6   7
ATOM      7  C   UNL     1     139.819 143.157 115.323  1.00  0.00     0.041 C 
ATOM      8  O   UNL     1     139.420 144.325 115.571  1.00  0.00    -0.550 OA
ATOM      9  O   UNL     1     139.562 142.137 116.231  1.00  0.00    -0.550 OA
ENDBRANCH   6   7
ENDBRANCH   5   6
ENDBRANCH   4   5
ENDBRANCH   3   4
ENDBRANCH   2   3
ENDBRANCH   1   2
BRANCH   1  10
ATOM     10  C   UNL     1     142.048 139.402 112.948  1.00  0.00     0.000 C 
BRANCH  10  11
ATOM     11  C   UNL     1     140.968 139.811 111.929  1.00  0.00    -0.000 C 
BRANCH  11  12
ATOM     12  C   UNL     1     139.514 139.672 112.425  1.00  0.00    -0.000 C 
BRANCH  12  13
ATOM     13  C   UNL     1     139.358 139.409 113.937  1.00  0.00    -0.000 C 
BRANCH  13  14
ATOM     14  C   UNL     1     138.786 138.026 114.296  1.00  0.00    -0.000 C 
BRANCH  14  15
ATOM     15  C   UNL     1     137.277 137.915 114.013  1.00  0.00    -0.000 C 
BRANCH  15  16
ATOM     16  C   UNL     1     136.796 136.458 113.946  1.00  0.00    -0.003 C 
ATOM     17  C   UNL     1     136.977 135.716 115.269  1.00  0.00     0.004 C 
ENDBRANCH  15  16
ENDBRANCH  14  15
ENDBRANCH  13  14
ENDBRANCH  12  13
ENDBRANCH  11  12
ENDBRANCH  10  11
ENDBRANCH   1  10
TORSDOF 13
ENDMDL
MODEL 9
REMARK VINA RESULT:    -4.536      5.477      8.148
REMARK INTER + INTRA:         -10.012
REMARK INTER:                  -8.151
REMARK INTRA:                  -1.861
REMARK UNBOUND:                -2.030
REMARK SMILES CCCCCCCCCCCCCCC(=O)[O-]
REMARK SMILES IDX 9 1 10 2 11 3 12 4 13 5 14 6 15 7 16 8 17 9 8 10 7 11 6 12
REMARK SMILES IDX 5 13 4 14 3 15 2 16 1 17
REMARK H PARENT
REMARK Flexibility Score: inf
ROOT
ATOM      1  C   UNL     1     134.910 136.854 113.814  1.00  0.00     0.000 C 
ENDROOT
BRANCH   1   2
ATOM      2  C   UNL     1     135.833 136.520 112.629  1.00  0.00     0.000 C 
BRANCH   2   3
ATOM      3  C   UNL     1     137.218 137.170 112.754  1.00  0.00     0.000 C 
BRANCH   3   4
ATOM      4  C   UNL     1     137.649 137.266 114.225  1.00  0.00     0.000 C 
BRANCH   4   5
ATOM      5  C   UNL     1     138.261 138.631 114.588  1.00  0.00     0.006 C 
BRANCH   5   6
ATOM      6  C   UNL     1     139.742 138.777 114.194  1.00  0.00     0.053 C 
BRANCH   6   7
ATOM      7  C   UNL     1     140.228 140.192 114.285  1.00  0.00     0.041 C 
ATOM      8  O   UNL     1     139.459 141.105 114.684  1.00  0.00    -0.550 OA
ATOM      9  O   UNL     1     141.525 140.508 113.897  1.00  0.00    -0.550 OA
ENDBRANCH   6   7
ENDBRANCH   5   6
ENDBRANCH   4   5
ENDBRANCH   3   4
ENDBRANCH   2   3
ENDBRANCH   1   2
BRANCH   1  10
ATOM     10  C   UNL     1     133.585 136.074 113.769  1.00  0.00     0.000 C 
BRANCH  10  11
ATOM     11  C   UNL     1     133.777 134.594 113.395  1.00  0.00    -0.000 C 
BRANCH  11  12
ATOM     12  C   UNL     1     134.110 133.658 114.575  1.00  0.00    -0.000 C 
BRANCH  12  13
ATOM     13  C   UNL     1     135.557 133.125 114.602  1.00  0.00    -0.000 C 
BRANCH  13  14
ATOM     14  C   UNL     1     136.556 134.007 115.373  1.00  0.00    -0.000 C 
BRANCH  14  15
ATOM     15  C   UNL     1     136.148 134.224 116.840  1.00  0.00    -0.000 C 
BRANCH  15  16
ATOM     16  C   UNL     1     136.148 135.708 117.238  1.00  0.00    -0.003 C 
ATOM     17  C   UNL     1     134.739 136.289 117.340  1.00  0.00     0.004 C 
ENDBRANCH  15  16
ENDBRANCH  14  15
ENDBRANCH  13  14
ENDBRANCH  12  13
ENDBRANCH  11  12
ENDBRANCH  10  11
ENDBRANCH   1  10
TORSDOF 13
ENDMDL
