MODEL 1
REMARK VINA RESULT:    -2.627      0.000      0.000
REMARK INTER + INTRA:          -3.030
REMARK INTER:                  -3.087
REMARK INTRA:                   0.057
REMARK UNBOUND:                 0.057
REMARK SMILES C=CC(C)=CCC=C(C)C
REMARK SMILES IDX 5 1 3 2 4 3 6 4 7 5 9 6 8 7 10 8 2 9 1 10
REMARK H PARENT
REMARK Flexibility Score: inf
ROOT
ATOM      1  C   UNL     1       7.573   6.265  13.283  1.00  0.00    -0.020 C 
ATOM      2  C   UNL     1       7.619   7.602  13.121  1.00  0.00    -0.055 C 
ATOM      3  C   UNL     1       6.998   8.279  11.919  1.00  0.00     0.044 C 
ENDROOT
BRANCH   1   4
ATOM      4  C   UNL     1       6.926   5.323  12.299  1.00  0.00     0.055 C 
BRANCH   4   5
ATOM      5  C   UNL     1       5.569   4.875  12.782  1.00  0.00    -0.024 C 
ATOM      6  C   UNL     1       3.125   4.955  13.043  1.00  0.00     0.039 C 
ATOM      7  C   UNL     1       4.414   5.522  12.506  1.00  0.00    -0.080 C 
ATOM      8  C   UNL     1       4.389   6.791  11.688  1.00  0.00     0.039 C 
ENDBRANCH   4   5
ENDBRANCH   1   4
BRANCH   2   9
ATOM      9  C   UNL     1       8.238   8.412  14.202  1.00  0.00    -0.005 C 
ATOM     10  C   UNL     1       9.548   8.634  14.299  1.00  0.00     0.009 C 
ENDBRANCH   2   9
TORSDOF 3
ENDMDL
MODEL 2
REMARK VINA RESULT:    -1.978      1.340      1.783
REMARK INTER + INTRA:          -2.269
REMARK INTER:                  -3.091
REMARK INTRA:                   0.823
REMARK UNBOUND:                 0.057
REMARK SMILES C=CC(C)=CCC=C(C)C
REMARK SMILES IDX 5 1 3 2 4 3 6 4 7 5 9 6 8 7 10 8 2 9 1 10
REMARK H PARENT
REMARK Flexibility Score: inf
ROOT
ATOM      1  C   UNL     1       7.391   6.667  12.266  1.00  0.00    -0.020 C 
ATOM      2  C   UNL     1       7.836   7.410  13.299  1.00  0.00    -0.055 C 
ATOM      3  C   UNL     1       7.149   7.389  14.647  1.00  0.00     0.044 C 
ENDROOT
BRANCH   1   4
ATOM      4  C   UNL     1       6.182   5.770  12.339  1.00  0.00     0.055 C 
BRANCH   4   5
ATOM      5  C   UNL     1       5.047   6.440  13.071  1.00  0.00    -0.024 C 
ATOM      6  C   UNL     1       3.273   8.100  13.452  1.00  0.00     0.039 C 
ATOM      7  C   UNL     1       4.401   7.541  12.624  1.00  0.00    -0.080 C 
ATOM      8  C   UNL     1       4.788   8.220  11.332  1.00  0.00     0.039 C 
ENDBRANCH   4   5
ENDBRANCH   1   4
BRANCH   2   9
ATOM      9  C   UNL     1       9.076   8.205  13.102  1.00  0.00    -0.005 C 
ATOM     10  C   UNL     1       9.909   8.529  14.090  1.00  0.00     0.009 C 
ENDBRANCH   2   9
TORSDOF 3
ENDMDL
MODEL 3
REMARK VINA RESULT:    -1.813      1.347      4.550
REMARK INTER + INTRA:          -2.074
REMARK INTER:                  -2.382
REMARK INTRA:                   0.308
REMARK UNBOUND:                 0.057
REMARK SMILES C=CC(C)=CCC=C(C)C
REMARK SMILES IDX 5 1 3 2 4 3 6 4 7 5 9 6 8 7 10 8 2 9 1 10
REMARK H PARENT
REMARK Flexibility Score: inf
ROOT
ATOM      1  C   UNL     1       5.980   7.173  12.208  1.00  0.00    -0.020 C 
ATOM      2  C   UNL     1       4.793   6.604  12.501  1.00  0.00    -0.055 C 
ATOM      3  C   UNL     1       4.644   5.105  12.643  1.00  0.00     0.044 C 
ENDROOT
BRANCH   1   4
ATOM      4  C   UNL     1       7.249   6.392  11.980  1.00  0.00     0.055 C 
BRANCH   4   5
ATOM      5  C   UNL     1       8.458   7.172  12.435  1.00  0.00    -0.024 C 
ATOM      6  C   UNL     1       9.809   8.568  13.942  1.00  0.00     0.039 C 
ATOM      7  C   UNL     1       8.533   7.840  13.608  1.00  0.00    -0.080 C 
ATOM      8  C   UNL     1       7.374   7.880  14.575  1.00  0.00     0.039 C 
ENDBRANCH   4   5
ENDBRANCH   1   4
BRANCH   2   9
ATOM      9  C   UNL     1       3.637   7.500  12.758  1.00  0.00    -0.005 C 
ATOM     10  C   UNL     1       3.469   8.181  13.892  1.00  0.00     0.009 C 
ENDBRANCH   2   9
TORSDOF 3
ENDMDL
MODEL 4
REMARK VINA RESULT:    -1.371      1.462      2.884
REMARK INTER + INTRA:          -1.555
REMARK INTER:                  -2.275
REMARK INTRA:                   0.720
REMARK UNBOUND:                 0.057
REMARK SMILES C=CC(C)=CCC=C(C)C
REMARK SMILES IDX 5 1 3 2 4 3 6 4 7 5 9 6 8 7 10 8 2 9 1 10
REMARK H PARENT
REMARK Flexibility Score: inf
ROOT
ATOM      1  C   UNL     1       6.629   7.431  11.573  1.00  0.00    -0.020 C 
ATOM      2  C   UNL     1       7.591   7.352  12.514  1.00  0.00    -0.055 C 
ATOM      3  C   UNL     1       7.916   8.520  13.419  1.00  0.00     0.044 C 
ENDROOT
BRANCH   1   4
ATOM      4  C   UNL     1       5.804   8.668  11.321  1.00  0.00     0.055 C 
BRANCH   4   5
ATOM      5  C   UNL     1       4.669   8.779  12.307  1.00  0.00    -0.024 C 
ATOM      6  C   UNL     1       2.920   7.974  13.837  1.00  0.00     0.039 C 
ATOM      7  C   UNL     1       4.031   7.718  12.852  1.00  0.00    -0.080 C 
ATOM      8  C   UNL     1       4.398   6.298  12.492  1.00  0.00     0.039 C 
ENDBRANCH   4   5
ENDBRANCH   1   4
BRANCH   2   9
ATOM      9  C   UNL     1       8.284   6.049  12.691  1.00  0.00    -0.005 C 
ATOM     10  C   UNL     1       7.739   4.875  12.375  1.00  0.00     0.009 C 
ENDBRANCH   2   9
TORSDOF 3
ENDMDL
MODEL 5
REMARK VINA RESULT:    -0.978      1.298      1.770
REMARK INTER + INTRA:          -1.093
REMARK INTER:                  -1.319
REMARK INTRA:                   0.225
REMARK UNBOUND:                 0.057
REMARK SMILES C=CC(C)=CCC=C(C)C
REMARK SMILES IDX 5 1 3 2 4 3 6 4 7 5 9 6 8 7 10 8 2 9 1 10
REMARK H PARENT
REMARK Flexibility Score: inf
ROOT
ATOM      1  C   UNL     1       7.713   8.096  14.357  1.00  0.00    -0.020 C 
ATOM      2  C   UNL     1       8.495   7.945  13.270  1.00  0.00    -0.055 C 
ATOM      3  C   UNL     1       7.917   7.583  11.920  1.00  0.00     0.044 C 
ENDROOT
BRANCH   1   4
ATOM      4  C   UNL     1       6.216   7.911  14.345  1.00  0.00     0.055 C 
BRANCH   4   5
ATOM      5  C   UNL     1       5.840   6.536  13.854  1.00  0.00    -0.024 C 
ATOM      6  C   UNL     1       4.729   4.876  12.420  1.00  0.00     0.039 C 
ATOM      7  C   UNL     1       5.009   6.303  12.813  1.00  0.00    -0.080 C 
ATOM      8  C   UNL     1       4.357   7.431  12.048  1.00  0.00     0.039 C 
ENDBRANCH   4   5
ENDBRANCH   1   4
BRANCH   2   9
ATOM      9  C   UNL     1       9.949   8.216  13.416  1.00  0.00    -0.005 C 
ATOM     10  C   UNL     1      10.525   8.542  14.573  1.00  0.00     0.009 C 
ENDBRANCH   2   9
TORSDOF 3
ENDMDL
