MODEL 1
REMARK VINA RESULT:    -7.029      0.000      0.000
REMARK INTER + INTRA:          -8.377
REMARK INTER:                  -8.056
REMARK INTRA:                  -0.321
REMARK UNBOUND:                -0.321
REMARK SMILES O=C1C[C@@H](c2ccc(O)cc2)Oc2cc(O)cc(O)c21
REMARK SMILES IDX 3 1 4 2 12 3 13 4 14 5 15 6 17 7 18 8 20 9 2 10 1 11 5 12
REMARK SMILES IDX 6 13 11 14 7 15 10 16 8 17 9 18 19 20 16 22
REMARK H PARENT 9 19 19 21 16 23
REMARK Flexibility Score: inf
ROOT
ATOM      1  C   UNL     1      15.168  21.072  30.847  1.00  0.00     0.131 C 
ATOM      2  C   UNL     1      15.347  21.802  29.509  1.00  0.00     0.211 C 
ATOM      3  O   UNL     1      15.376  20.866  28.425  1.00  0.00    -0.484 OA
ATOM      4  C   UNL     1      14.544  19.739  28.378  1.00  0.00     0.138 A 
ATOM      5  C   UNL     1      14.429  19.034  27.178  1.00  0.00     0.093 A 
ATOM      6  C   UNL     1      13.595  17.916  27.095  1.00  0.00     0.123 A 
ATOM      7  C   UNL     1      12.898  17.485  28.225  1.00  0.00     0.093 A 
ATOM      8  C   UNL     1      13.029  18.153  29.449  1.00  0.00     0.133 A 
ATOM      9  C   UNL     1      13.838  19.319  29.526  1.00  0.00     0.102 A 
ATOM     10  C   UNL     1      13.994  20.145  30.748  1.00  0.00     0.174 C 
ATOM     11  O   UNL     1      13.141  20.127  31.675  1.00  0.00    -0.294 OA
ENDROOT
BRANCH   2  12
ATOM     12  C   UNL     1      16.612  22.626  29.514  1.00  0.00    -0.007 A 
ATOM     13  C   UNL     1      16.963  23.376  30.650  1.00  0.00     0.011 A 
ATOM     14  C   UNL     1      17.481  22.609  28.409  1.00  0.00     0.011 A 
ATOM     15  C   UNL     1      18.149  24.115  30.669  1.00  0.00     0.046 A 
ATOM     16  C   UNL     1      18.667  23.349  28.431  1.00  0.00     0.046 A 
ATOM     17  C   UNL     1      19.003  24.106  29.562  1.00  0.00     0.115 A 
BRANCH  17  18
ATOM     18  O   UNL     1      20.182  24.847  29.596  1.00  0.00    -0.508 OA
ATOM     19  H   UNL     1      20.409  25.514  28.867  1.00  0.00     0.293 HD
ENDBRANCH  17  18
ENDBRANCH   2  12
BRANCH   8  20
ATOM     20  O   UNL     1      12.373  17.605  30.553  1.00  0.00    -0.507 OA
ATOM     21  H   UNL     1      12.847  17.195  31.344  1.00  0.00     0.293 HD
ENDBRANCH   8  20
BRANCH   6  22
ATOM     22  O   UNL     1      13.459  17.219  25.896  1.00  0.00    -0.508 OA
ATOM     23  H   UNL     1      14.159  16.555  25.587  1.00  0.00     0.293 HD
ENDBRANCH   6  22
TORSDOF 4
ENDMDL
MODEL 2
REMARK VINA RESULT:    -6.971      3.895      9.596
REMARK INTER + INTRA:          -8.311
REMARK INTER:                  -8.003
REMARK INTRA:                  -0.308
REMARK UNBOUND:                -0.321
REMARK SMILES O=C1C[C@@H](c2ccc(O)cc2)Oc2cc(O)cc(O)c21
REMARK SMILES IDX 3 1 4 2 12 3 13 4 14 5 15 6 17 7 18 8 20 9 2 10 1 11 5 12
REMARK SMILES IDX 6 13 11 14 7 15 10 16 8 17 9 18 19 20 16 22
REMARK H PARENT 9 19 19 21 16 23
REMARK Flexibility Score: inf
ROOT
ATOM      1  C   UNL     1      18.452  26.225  31.941  1.00  0.00     0.131 C 
ATOM      2  C   UNL     1      19.232  25.482  30.849  1.00  0.00     0.211 C 
ATOM      3  O   UNL     1      19.705  26.398  29.856  1.00  0.00    -0.484 OA
ATOM      4  C   UNL     1      20.201  27.669  30.176  1.00  0.00     0.138 A 
ATOM      5  C   UNL     1      20.895  28.391  29.201  1.00  0.00     0.093 A 
ATOM      6  C   UNL     1      21.414  29.654  29.496  1.00  0.00     0.123 A 
ATOM      7  C   UNL     1      21.213  30.209  30.760  1.00  0.00     0.093 A 
ATOM      8  C   UNL     1      20.487  29.521  31.741  1.00  0.00     0.133 A 
ATOM      9  C   UNL     1      19.998  28.217  31.462  1.00  0.00     0.102 A 
ATOM     10  C   UNL     1      19.280  27.370  32.445  1.00  0.00     0.174 C 
ATOM     11  O   UNL     1      19.389  27.553  33.686  1.00  0.00    -0.294 OA
ENDROOT
BRANCH   2  12
ATOM     12  C   UNL     1      18.373  24.421  30.205  1.00  0.00    -0.007 A 
ATOM     13  C   UNL     1      18.710  23.910  28.940  1.00  0.00     0.011 A 
ATOM     14  C   UNL     1      17.262  23.891  30.885  1.00  0.00     0.011 A 
ATOM     15  C   UNL     1      17.933  22.905  28.355  1.00  0.00     0.046 A 
ATOM     16  C   UNL     1      16.488  22.886  30.297  1.00  0.00     0.046 A 
ATOM     17  C   UNL     1      16.820  22.391  29.029  1.00  0.00     0.115 A 
BRANCH  17  18
ATOM     18  O   UNL     1      16.057  21.390  28.434  1.00  0.00    -0.508 OA
ATOM     19  H   UNL     1      15.973  20.470  28.850  1.00  0.00     0.293 HD
ENDBRANCH  17  18
ENDBRANCH   2  12
BRANCH   8  20
ATOM     20  O   UNL     1      20.250  30.183  32.947  1.00  0.00    -0.507 OA
ATOM     21  H   UNL     1      19.340  30.498  33.248  1.00  0.00     0.293 HD
ENDBRANCH   8  20
BRANCH   6  22
ATOM     22  O   UNL     1      22.125  30.370  28.535  1.00  0.00    -0.508 OA
ATOM     23  H   UNL     1      23.115  30.216  28.384  1.00  0.00     0.293 HD
ENDBRANCH   6  22
TORSDOF 4
ENDMDL
MODEL 3
REMARK VINA RESULT:    -6.946      7.431     11.403
REMARK INTER + INTRA:          -8.282
REMARK INTER:                  -7.970
REMARK INTRA:                  -0.312
REMARK UNBOUND:                -0.321
REMARK SMILES O=C1C[C@@H](c2ccc(O)cc2)Oc2cc(O)cc(O)c21
REMARK SMILES IDX 3 1 4 2 12 3 13 4 14 5 15 6 17 7 18 8 20 9 2 10 1 11 5 12
REMARK SMILES IDX 6 13 11 14 7 15 10 16 8 17 9 18 19 20 16 22
REMARK H PARENT 9 19 19 21 16 23
REMARK Flexibility Score: inf
ROOT
ATOM      1  C   UNL     1       8.698  16.170  22.264  1.00  0.00     0.131 C 
ATOM      2  C   UNL     1       8.244  17.272  23.230  1.00  0.00     0.211 C 
ATOM      3  O   UNL     1       8.702  16.997  24.558  1.00  0.00    -0.484 OA
ATOM      4  C   UNL     1       9.970  16.463  24.824  1.00  0.00     0.138 A 
ATOM      5  C   UNL     1      10.451  16.482  26.136  1.00  0.00     0.093 A 
ATOM      6  C   UNL     1      11.718  15.971  26.429  1.00  0.00     0.123 A 
ATOM      7  C   UNL     1      12.493  15.411  25.413  1.00  0.00     0.093 A 
ATOM      8  C   UNL     1      12.015  15.345  24.098  1.00  0.00     0.133 A 
ATOM      9  C   UNL     1      10.749  15.907  23.785  1.00  0.00     0.102 A 
ATOM     10  C   UNL     1      10.175  15.957  22.418  1.00  0.00     0.174 C 
ATOM     11  O   UNL     1      10.898  15.880  21.391  1.00  0.00    -0.294 OA
ENDROOT
BRANCH   2  12
ATOM     12  C   UNL     1       6.741  17.407  23.219  1.00  0.00    -0.007 A 
ATOM     13  C   UNL     1       6.064  17.863  24.364  1.00  0.00     0.011 A 
ATOM     14  C   UNL     1       6.007  17.133  22.051  1.00  0.00     0.011 A 
ATOM     15  C   UNL     1       4.674  18.018  24.346  1.00  0.00     0.046 A 
ATOM     16  C   UNL     1       4.617  17.290  22.038  1.00  0.00     0.046 A 
ATOM     17  C   UNL     1       3.947  17.731  23.187  1.00  0.00     0.115 A 
BRANCH  17  18
ATOM     18  O   UNL     1       2.564  17.891  23.185  1.00  0.00    -0.508 OA
ATOM     19  H   UNL     1       2.135  18.798  23.037  1.00  0.00     0.293 HD
ENDBRANCH  17  18
ENDBRANCH   2  12
BRANCH   8  20
ATOM     20  O   UNL     1      12.811  14.687  23.158  1.00  0.00    -0.507 OA
ATOM     21  H   UNL     1      12.459  14.014  22.493  1.00  0.00     0.293 HD
ENDBRANCH   8  20
BRANCH   6  22
ATOM     22  O   UNL     1      12.213  16.005  27.731  1.00  0.00    -0.508 OA
ATOM     23  H   UNL     1      13.195  15.857  27.929  1.00  0.00     0.293 HD
ENDBRANCH   6  22
TORSDOF 4
ENDMDL
MODEL 4
REMARK VINA RESULT:    -6.938      4.157      6.065
REMARK INTER + INTRA:          -8.273
REMARK INTER:                  -7.963
REMARK INTRA:                  -0.311
REMARK UNBOUND:                -0.321
REMARK SMILES O=C1C[C@@H](c2ccc(O)cc2)Oc2cc(O)cc(O)c21
REMARK SMILES IDX 3 1 4 2 12 3 13 4 14 5 15 6 17 7 18 8 20 9 2 10 1 11 5 12
REMARK SMILES IDX 6 13 11 14 7 15 10 16 8 17 9 18 19 20 16 22
REMARK H PARENT 9 19 19 21 16 23
REMARK Flexibility Score: inf
ROOT
ATOM      1  C   UNL     1      14.216  17.918  33.095  1.00  0.00     0.131 C 
ATOM      2  C   UNL     1      13.360  17.639  31.853  1.00  0.00     0.211 C 
ATOM      3  O   UNL     1      13.970  16.632  31.038  1.00  0.00    -0.484 OA
ATOM      4  C   UNL     1      14.612  15.509  31.579  1.00  0.00     0.138 A 
ATOM      5  C   UNL     1      14.933  14.443  30.736  1.00  0.00     0.093 A 
ATOM      6  C   UNL     1      15.560  13.304  31.249  1.00  0.00     0.123 A 
ATOM      7  C   UNL     1      15.892  13.245  32.603  1.00  0.00     0.093 A 
ATOM      8  C   UNL     1      15.616  14.319  33.459  1.00  0.00     0.133 A 
ATOM      9  C   UNL     1      14.936  15.458  32.952  1.00  0.00     0.102 A 
ATOM     10  C   UNL     1      14.529  16.621  33.779  1.00  0.00     0.174 C 
ATOM     11  O   UNL     1      14.389  16.531  35.028  1.00  0.00    -0.294 OA
ENDROOT
BRANCH   2  12
ATOM     12  C   UNL     1      13.156  18.900  31.050  1.00  0.00    -0.007 A 
ATOM     13  C   UNL     1      12.901  18.825  29.669  1.00  0.00     0.011 A 
ATOM     14  C   UNL     1      13.163  20.158  31.679  1.00  0.00     0.011 A 
ATOM     15  C   UNL     1      12.680  19.991  28.928  1.00  0.00     0.046 A 
ATOM     16  C   UNL     1      12.941  21.321  30.934  1.00  0.00     0.046 A 
ATOM     17  C   UNL     1      12.702  21.240  29.556  1.00  0.00     0.115 A 
BRANCH  17  18
ATOM     18  O   UNL     1      12.480  22.391  28.805  1.00  0.00    -0.508 OA
ATOM     19  H   UNL     1      12.116  22.345  27.860  1.00  0.00     0.293 HD
ENDBRANCH  17  18
ENDBRANCH   2  12
BRANCH   8  20
ATOM     20  O   UNL     1      16.064  14.221  34.778  1.00  0.00    -0.507 OA
ATOM     21  H   UNL     1      16.357  13.358  35.211  1.00  0.00     0.293 HD
ENDBRANCH   8  20
BRANCH   6  22
ATOM     22  O   UNL     1      15.865  12.227  30.419  1.00  0.00    -0.508 OA
ATOM     23  H   UNL     1      15.464  12.142  29.492  1.00  0.00     0.293 HD
ENDBRANCH   6  22
TORSDOF 4
ENDMDL
MODEL 5
REMARK VINA RESULT:    -6.856      4.274      7.177
REMARK INTER + INTRA:          -8.179
REMARK INTER:                  -7.863
REMARK INTRA:                  -0.316
REMARK UNBOUND:                -0.321
REMARK SMILES O=C1C[C@@H](c2ccc(O)cc2)Oc2cc(O)cc(O)c21
REMARK SMILES IDX 3 1 4 2 12 3 13 4 14 5 15 6 17 7 18 8 20 9 2 10 1 11 5 12
REMARK SMILES IDX 6 13 11 14 7 15 10 16 8 17 9 18 19 20 16 22
REMARK H PARENT 9 19 19 21 16 23
REMARK Flexibility Score: inf
ROOT
ATOM      1  C   UNL     1      14.807  18.755  34.031  1.00  0.00     0.131 C 
ATOM      2  C   UNL     1      15.063  17.737  32.912  1.00  0.00     0.211 C 
ATOM      3  O   UNL     1      14.036  17.814  31.917  1.00  0.00    -0.484 OA
ATOM      4  C   UNL     1      13.483  19.030  31.495  1.00  0.00     0.138 A 
ATOM      5  C   UNL     1      12.698  19.052  30.339  1.00  0.00     0.093 A 
ATOM      6  C   UNL     1      12.146  20.252  29.885  1.00  0.00     0.123 A 
ATOM      7  C   UNL     1      12.356  21.429  30.605  1.00  0.00     0.093 A 
ATOM      8  C   UNL     1      13.106  21.424  31.788  1.00  0.00     0.133 A 
ATOM      9  C   UNL     1      13.709  20.216  32.228  1.00  0.00     0.102 A 
ATOM     10  C   UNL     1      14.581  20.108  33.423  1.00  0.00     0.174 C 
ATOM     11  O   UNL     1      15.175  21.108  33.905  1.00  0.00    -0.294 OA
ENDROOT
BRANCH   2  12
ATOM     12  C   UNL     1      15.137  16.337  33.470  1.00  0.00    -0.007 A 
ATOM     13  C   UNL     1      16.071  16.024  34.474  1.00  0.00     0.011 A 
ATOM     14  C   UNL     1      14.240  15.345  33.036  1.00  0.00     0.011 A 
ATOM     15  C   UNL     1      16.121  14.736  35.015  1.00  0.00     0.046 A 
ATOM     16  C   UNL     1      14.293  14.058  33.580  1.00  0.00     0.046 A 
ATOM     17  C   UNL     1      15.236  13.749  34.569  1.00  0.00     0.115 A 
BRANCH  17  18
ATOM     18  O   UNL     1      15.298  12.471  35.118  1.00  0.00    -0.508 OA
ATOM     19  H   UNL     1      14.478  12.022  35.509  1.00  0.00     0.293 HD
ENDBRANCH  17  18
ENDBRANCH   2  12
BRANCH   8  20
ATOM     20  O   UNL     1      13.192  22.623  32.499  1.00  0.00    -0.507 OA
ATOM     21  H   UNL     1      12.560  23.400  32.373  1.00  0.00     0.293 HD
ENDBRANCH   8  20
BRANCH   6  22
ATOM     22  O   UNL     1      11.379  20.286  28.722  1.00  0.00    -0.508 OA
ATOM     23  H   UNL     1      11.758  20.630  27.847  1.00  0.00     0.293 HD
ENDBRANCH   6  22
TORSDOF 4
ENDMDL
MODEL 6
REMARK VINA RESULT:    -6.801      2.023      7.296
REMARK INTER + INTRA:          -8.116
REMARK INTER:                  -7.818
REMARK INTRA:                  -0.297
REMARK UNBOUND:                -0.321
REMARK SMILES O=C1C[C@@H](c2ccc(O)cc2)Oc2cc(O)cc(O)c21
REMARK SMILES IDX 3 1 4 2 12 3 13 4 14 5 15 6 17 7 18 8 20 9 2 10 1 11 5 12
REMARK SMILES IDX 6 13 11 14 7 15 10 16 8 17 9 18 19 20 16 22
REMARK H PARENT 9 19 19 21 16 23
REMARK Flexibility Score: inf
ROOT
ATOM      1  C   UNL     1      17.897  21.075  29.922  1.00  0.00     0.131 C 
ATOM      2  C   UNL     1      17.074  21.712  28.795  1.00  0.00     0.211 C 
ATOM      3  O   UNL     1      16.890  23.112  29.035  1.00  0.00    -0.484 OA
ATOM      4  C   UNL     1      17.901  23.926  29.563  1.00  0.00     0.138 A 
ATOM      5  C   UNL     1      17.749  25.314  29.510  1.00  0.00     0.093 A 
ATOM      6  C   UNL     1      18.747  26.152  30.014  1.00  0.00     0.123 A 
ATOM      7  C   UNL     1      19.887  25.599  30.599  1.00  0.00     0.093 A 
ATOM      8  C   UNL     1      20.043  24.211  30.700  1.00  0.00     0.133 A 
ATOM      9  C   UNL     1      19.054  23.355  30.146  1.00  0.00     0.102 A 
ATOM     10  C   UNL     1      19.148  21.875  30.130  1.00  0.00     0.174 C 
ATOM     11  O   UNL     1      20.252  21.278  30.234  1.00  0.00    -0.294 OA
ENDROOT
BRANCH   2  12
ATOM     12  C   UNL     1      15.734  21.031  28.660  1.00  0.00    -0.007 A 
ATOM     13  C   UNL     1      15.371  20.002  29.546  1.00  0.00     0.011 A 
ATOM     14  C   UNL     1      14.811  21.454  27.686  1.00  0.00     0.011 A 
ATOM     15  C   UNL     1      14.117  19.391  29.443  1.00  0.00     0.046 A 
ATOM     16  C   UNL     1      13.558  20.841  27.587  1.00  0.00     0.046 A 
ATOM     17  C   UNL     1      13.209  19.806  28.464  1.00  0.00     0.115 A 
BRANCH  17  18
ATOM     18  O   UNL     1      11.965  19.187  28.374  1.00  0.00    -0.508 OA
ATOM     19  H   UNL     1      11.649  18.527  29.076  1.00  0.00     0.293 HD
ENDBRANCH  17  18
ENDBRANCH   2  12
BRANCH   8  20
ATOM     20  O   UNL     1      21.166  23.739  31.382  1.00  0.00    -0.507 OA
ATOM     21  H   UNL     1      21.749  24.312  31.974  1.00  0.00     0.293 HD
ENDBRANCH   8  20
BRANCH   6  22
ATOM     22  O   UNL     1      18.611  27.537  29.946  1.00  0.00    -0.508 OA
ATOM     23  H   UNL     1      18.135  27.986  29.173  1.00  0.00     0.293 HD
ENDBRANCH   6  22
TORSDOF 4
ENDMDL
MODEL 7
REMARK VINA RESULT:    -6.744      3.782      6.056
REMARK INTER + INTRA:          -8.051
REMARK INTER:                  -7.760
REMARK INTRA:                  -0.291
REMARK UNBOUND:                -0.321
REMARK SMILES O=C1C[C@@H](c2ccc(O)cc2)Oc2cc(O)cc(O)c21
REMARK SMILES IDX 3 1 4 2 12 3 13 4 14 5 15 6 17 7 18 8 20 9 2 10 1 11 5 12
REMARK SMILES IDX 6 13 11 14 7 15 10 16 8 17 9 18 19 20 16 22
REMARK H PARENT 9 19 19 21 16 23
REMARK Flexibility Score: inf
ROOT
ATOM      1  C   UNL     1      13.934  18.514  31.883  1.00  0.00     0.131 C 
ATOM      2  C   UNL     1      15.231  18.178  31.136  1.00  0.00     0.211 C 
ATOM      3  O   UNL     1      15.083  18.428  29.734  1.00  0.00    -0.484 OA
ATOM      4  C   UNL     1      14.382  19.534  29.233  1.00  0.00     0.138 A 
ATOM      5  C   UNL     1      14.514  19.864  27.883  1.00  0.00     0.093 A 
ATOM      6  C   UNL     1      13.840  20.970  27.359  1.00  0.00     0.123 A 
ATOM      7  C   UNL     1      13.007  21.729  28.182  1.00  0.00     0.093 A 
ATOM      8  C   UNL     1      12.828  21.393  29.530  1.00  0.00     0.133 A 
ATOM      9  C   UNL     1      13.549  20.299  30.079  1.00  0.00     0.102 A 
ATOM     10  C   UNL     1      13.492  19.897  31.505  1.00  0.00     0.174 C 
ATOM     11  O   UNL     1      13.136  20.699  32.408  1.00  0.00    -0.294 OA
ENDROOT
BRANCH   2  12
ATOM     12  C   UNL     1      15.622  16.738  31.365  1.00  0.00    -0.007 A 
ATOM     13  C   UNL     1      14.797  15.698  30.903  1.00  0.00     0.011 A 
ATOM     14  C   UNL     1      16.841  16.420  31.990  1.00  0.00     0.011 A 
ATOM     15  C   UNL     1      15.173  14.364  31.087  1.00  0.00     0.046 A 
ATOM     16  C   UNL     1      17.214  15.084  32.171  1.00  0.00     0.046 A 
ATOM     17  C   UNL     1      16.379  14.053  31.722  1.00  0.00     0.115 A 
BRANCH  17  18
ATOM     18  O   UNL     1      16.740  12.719  31.897  1.00  0.00    -0.508 OA
ATOM     19  H   UNL     1      16.239  12.115  32.539  1.00  0.00     0.293 HD
ENDBRANCH  17  18
ENDBRANCH   2  12
BRANCH   8  20
ATOM     20  O   UNL     1      11.907  22.145  30.263  1.00  0.00    -0.507 OA
ATOM     21  H   UNL     1      10.943  22.273  29.995  1.00  0.00     0.293 HD
ENDBRANCH   8  20
BRANCH   6  22
ATOM     22  O   UNL     1      13.983  21.319  26.017  1.00  0.00    -0.508 OA
ATOM     23  H   UNL     1      13.347  21.967  25.567  1.00  0.00     0.293 HD
ENDBRANCH   6  22
TORSDOF 4
ENDMDL
MODEL 8
REMARK VINA RESULT:    -6.743      3.838      6.918
REMARK INTER + INTRA:          -8.049
REMARK INTER:                  -7.747
REMARK INTRA:                  -0.302
REMARK UNBOUND:                -0.321
REMARK SMILES O=C1C[C@@H](c2ccc(O)cc2)Oc2cc(O)cc(O)c21
REMARK SMILES IDX 3 1 4 2 12 3 13 4 14 5 15 6 17 7 18 8 20 9 2 10 1 11 5 12
REMARK SMILES IDX 6 13 11 14 7 15 10 16 8 17 9 18 19 20 16 22
REMARK H PARENT 9 19 19 21 16 23
REMARK Flexibility Score: inf
ROOT
ATOM      1  C   UNL     1      16.396  17.991  31.501  1.00  0.00     0.131 C 
ATOM      2  C   UNL     1      15.713  16.989  30.560  1.00  0.00     0.211 C 
ATOM      3  O   UNL     1      14.359  17.379  30.308  1.00  0.00    -0.484 OA
ATOM      4  C   UNL     1      13.979  18.716  30.126  1.00  0.00     0.138 A 
ATOM      5  C   UNL     1      12.709  18.995  29.614  1.00  0.00     0.093 A 
ATOM      6  C   UNL     1      12.308  20.317  29.406  1.00  0.00     0.123 A 
ATOM      7  C   UNL     1      13.169  21.363  29.740  1.00  0.00     0.093 A 
ATOM      8  C   UNL     1      14.430  21.109  30.293  1.00  0.00     0.133 A 
ATOM      9  C   UNL     1      14.861  19.766  30.460  1.00  0.00     0.102 A 
ATOM     10  C   UNL     1      16.201  19.379  30.968  1.00  0.00     0.174 C 
ATOM     11  O   UNL     1      17.184  20.164  30.913  1.00  0.00    -0.294 OA
ENDROOT
BRANCH   2  12
ATOM     12  C   UNL     1      15.750  15.598  31.143  1.00  0.00    -0.007 A 
ATOM     13  C   UNL     1      14.732  15.167  32.011  1.00  0.00     0.011 A 
ATOM     14  C   UNL     1      16.769  14.698  30.781  1.00  0.00     0.011 A 
ATOM     15  C   UNL     1      14.748  13.867  32.527  1.00  0.00     0.046 A 
ATOM     16  C   UNL     1      16.781  13.399  31.299  1.00  0.00     0.046 A 
ATOM     17  C   UNL     1      15.771  12.981  32.175  1.00  0.00     0.115 A 
BRANCH  17  18
ATOM     18  O   UNL     1      15.772  11.690  32.698  1.00  0.00    -0.508 OA
ATOM     19  H   UNL     1      15.050  11.021  32.458  1.00  0.00     0.293 HD
ENDBRANCH  17  18
ENDBRANCH   2  12
BRANCH   8  20
ATOM     20  O   UNL     1      15.193  22.210  30.687  1.00  0.00    -0.507 OA
ATOM     21  H   UNL     1      15.759  22.234  31.522  1.00  0.00     0.293 HD
ENDBRANCH   8  20
BRANCH   6  22
ATOM     22  O   UNL     1      11.052  20.603  28.876  1.00  0.00    -0.508 OA
ATOM     23  H   UNL     1      10.662  20.061  28.113  1.00  0.00     0.293 HD
ENDBRANCH   6  22
TORSDOF 4
ENDMDL
MODEL 9
REMARK VINA RESULT:    -6.724      1.453      2.802
REMARK INTER + INTRA:          -8.027
REMARK INTER:                  -7.715
REMARK INTRA:                  -0.312
REMARK UNBOUND:                -0.321
REMARK SMILES O=C1C[C@@H](c2ccc(O)cc2)Oc2cc(O)cc(O)c21
REMARK SMILES IDX 3 1 4 2 12 3 13 4 14 5 15 6 17 7 18 8 20 9 2 10 1 11 5 12
REMARK SMILES IDX 6 13 11 14 7 15 10 16 8 17 9 18 19 20 16 22
REMARK H PARENT 9 19 19 21 16 23
REMARK Flexibility Score: inf
ROOT
ATOM      1  C   UNL     1      15.195  21.218  27.950  1.00  0.00     0.131 C 
ATOM      2  C   UNL     1      16.091  21.089  29.189  1.00  0.00     0.211 C 
ATOM      3  O   UNL     1      15.373  20.479  30.268  1.00  0.00    -0.484 OA
ATOM      4  C   UNL     1      14.475  19.421  30.074  1.00  0.00     0.138 A 
ATOM      5  C   UNL     1      14.029  18.700  31.185  1.00  0.00     0.093 A 
ATOM      6  C   UNL     1      13.146  17.630  31.023  1.00  0.00     0.123 A 
ATOM      7  C   UNL     1      12.684  17.299  29.748  1.00  0.00     0.093 A 
ATOM      8  C   UNL     1      13.085  18.033  28.625  1.00  0.00     0.133 A 
ATOM      9  C   UNL     1      14.021  19.091  28.779  1.00  0.00     0.102 A 
ATOM     10  C   UNL     1      14.570  19.887  27.654  1.00  0.00     0.174 C 
ATOM     11  O   UNL     1      14.572  19.453  26.472  1.00  0.00    -0.294 OA
ENDROOT
BRANCH   2  12
ATOM     12  C   UNL     1      16.613  22.439  29.614  1.00  0.00    -0.007 A 
ATOM     13  C   UNL     1      16.449  22.876  30.941  1.00  0.00     0.011 A 
ATOM     14  C   UNL     1      17.318  23.251  28.708  1.00  0.00     0.011 A 
ATOM     15  C   UNL     1      16.959  24.113  31.345  1.00  0.00     0.046 A 
ATOM     16  C   UNL     1      17.828  24.488  29.116  1.00  0.00     0.046 A 
ATOM     17  C   UNL     1      17.648  24.923  30.436  1.00  0.00     0.115 A 
BRANCH  17  18
ATOM     18  O   UNL     1      18.150  26.153  30.854  1.00  0.00    -0.508 OA
ATOM     19  H   UNL     1      18.854  26.218  31.580  1.00  0.00     0.293 HD
ENDBRANCH  17  18
ENDBRANCH   2  12
BRANCH   8  20
ATOM     20  O   UNL     1      12.506  17.699  27.398  1.00  0.00    -0.507 OA
ATOM     21  H   UNL     1      11.668  17.145  27.303  1.00  0.00     0.293 HD
ENDBRANCH   8  20
BRANCH   6  22
ATOM     22  O   UNL     1      12.713  16.893  32.123  1.00  0.00    -0.508 OA
ATOM     23  H   UNL     1      12.840  15.889  32.172  1.00  0.00     0.293 HD
ENDBRANCH   6  22
TORSDOF 4
ENDMDL
