MODEL 1
REMARK VINA RESULT:     2.912      0.000      0.000
REMARK INTER + INTRA:           4.560
REMARK INTER:                   4.445
REMARK INTRA:                   0.116
REMARK UNBOUND:                 0.116
REMARK SMILES CC1=CCC[C@@H](C)C(=O)C[C@H](C(C)C)C(=O)C1
REMARK SMILES IDX 8 1 9 2 6 3 7 4 5 5 4 6 3 7 2 8 1 9 10 11 11 12 15 13 16 14
REMARK SMILES IDX 17 15 12 17 13 18 14 19
REMARK H PARENT
REMARK Flexibility Score: 70.00
ROOT
ATOM      1  C   UNL     1      25.256  28.342  27.774  1.00  0.00     0.136 C 
ATOM      2  O   UNL     1      26.118  28.792  28.517  1.00  0.00    -0.299 OA
ENDROOT
BRANCH   1   3
ATOM      3  C   UNL     1      23.796  28.448  28.174  1.00  0.00     0.053 C 
ATOM      4  C   UNL     1      23.672  28.922  29.629  1.00  0.00     0.016 C 
BRANCH   3   5
ATOM      5  C   UNL     1      23.078  27.093  27.972  1.00  0.00     0.015 C 
BRANCH   5   6
ATOM      6  C   UNL     1      23.978  25.908  28.375  1.00  0.00     0.028 C 
BRANCH   6   7
ATOM      7  C   UNL     1      23.855  24.726  27.446  1.00  0.00    -0.028 C 
ATOM      8  C   UNL     1      24.886  24.118  26.809  1.00  0.00    -0.070 CG0
ATOM      9  C   UNL     1      24.552  23.008  25.840  1.00  0.00     0.039 C 
ATOM     10  G   UNL     1      26.350  24.460  27.051  1.00  0.00     0.000 G0
ENDBRANCH   6   7
ENDBRANCH   5   6
ENDBRANCH   3   5
ENDBRANCH   1   3
BRANCH   1  11
ATOM     11  C   UNL     1      25.674  27.706  26.468  1.00  0.00     0.087 C 
BRANCH  11  12
ATOM     12  C   UNL     1      27.035  26.968  26.581  1.00  0.00     0.066 C 
BRANCH  12  13
ATOM     13  C   UNL     1      26.922  25.525  26.113  1.00  0.00     0.140 C 
ATOM     14  O   UNL     1      27.314  25.202  25.001  1.00  0.00    -0.299 OA
BRANCH  13  15
ATOM     15  C   UNL     1      26.377  24.470  27.046  1.00  0.00     0.106 CG0
ATOM     16  G   UNL     1      24.913  24.127  26.802  1.00  0.00     0.000 G0
ENDBRANCH  13  15
ENDBRANCH  12  13
BRANCH  12  17
ATOM     17  C   UNL     1      28.211  27.719  25.873  1.00  0.00    -0.006 C 
ATOM     18  C   UNL     1      29.119  28.431  26.889  1.00  0.00     0.008 C 
ATOM     19  C   UNL     1      27.751  28.722  24.798  1.00  0.00     0.008 C 
ENDBRANCH  12  17
ENDBRANCH  11  12
ENDBRANCH   1  11
TORSDOF 1
ENDMDL
MODEL 2
REMARK VINA RESULT:     3.992      1.710      4.011
REMARK INTER + INTRA:           6.209
REMARK INTER:                   0.513
REMARK INTRA:                   5.696
REMARK UNBOUND:                 0.116
REMARK SMILES CC1=CCC[C@@H](C)C(=O)C[C@H](C(C)C)C(=O)C1
REMARK SMILES IDX 8 1 9 2 6 3 7 4 5 5 4 6 3 7 2 8 1 9 10 11 11 12 15 13 16 14
REMARK SMILES IDX 17 15 12 17 13 18 14 19
REMARK H PARENT
REMARK Flexibility Score: 70.00
ROOT
ATOM      1  C   UNL     1      28.328  25.134  25.651  1.00  0.00     0.136 C 
ATOM      2  O   UNL     1      28.662  25.192  26.826  1.00  0.00    -0.299 OA
ENDROOT
BRANCH   1   3
ATOM      3  C   UNL     1      27.990  23.787  25.037  1.00  0.00     0.053 C 
ATOM      4  C   UNL     1      29.095  23.349  24.066  1.00  0.00     0.016 C 
BRANCH   3   5
ATOM      5  C   UNL     1      26.620  23.844  24.324  1.00  0.00     0.015 C 
BRANCH   5   6
ATOM      6  C   UNL     1      25.584  22.931  25.010  1.00  0.00     0.028 C 
BRANCH   6   7
ATOM      7  C   UNL     1      24.633  23.680  25.909  1.00  0.00    -0.028 C 
ATOM      8  C   UNL     1      24.977  24.680  26.759  1.00  0.00    -0.070 CG0
ATOM      9  C   UNL     1      23.897  25.242  27.650  1.00  0.00     0.039 C 
ATOM     10  G   UNL     1      26.372  25.288  26.826  1.00  0.00     0.000 G0
ENDBRANCH   6   7
ENDBRANCH   5   6
ENDBRANCH   3   5
ENDBRANCH   1   3
BRANCH   1  11
ATOM     11  C   UNL     1      28.246  26.411  24.846  1.00  0.00     0.087 C 
BRANCH  11  12
ATOM     12  C   UNL     1      27.075  27.321  25.305  1.00  0.00     0.066 C 
BRANCH  12  13
ATOM     13  C   UNL     1      26.414  26.776  26.562  1.00  0.00     0.140 C 
ATOM     14  O   UNL     1      25.880  27.534  27.360  1.00  0.00    -0.299 OA
BRANCH  13  15
ATOM     15  C   UNL     1      26.361  25.286  26.801  1.00  0.00     0.106 CG0
ATOM     16  G   UNL     1      24.955  24.702  26.752  1.00  0.00     0.000 G0
ENDBRANCH  13  15
ENDBRANCH  12  13
BRANCH  12  17
ATOM     17  C   UNL     1      27.480  28.823  25.465  1.00  0.00    -0.006 C 
ATOM     18  C   UNL     1      27.408  29.573  24.124  1.00  0.00     0.008 C 
ATOM     19  C   UNL     1      28.868  29.030  26.101  1.00  0.00     0.008 C 
ENDBRANCH  12  17
ENDBRANCH  11  12
ENDBRANCH   1  11
TORSDOF 1
ENDMDL
MODEL 3
REMARK VINA RESULT:     4.388      2.028      4.225
REMARK INTER + INTRA:           6.812
REMARK INTER:                   5.857
REMARK INTRA:                   0.955
REMARK UNBOUND:                 0.116
REMARK SMILES CC1=CCC[C@@H](C)C(=O)C[C@H](C(C)C)C(=O)C1
REMARK SMILES IDX 8 1 9 2 6 3 7 4 5 5 4 6 3 7 2 8 1 9 10 11 11 12 15 13 16 14
REMARK SMILES IDX 17 15 12 17 13 18 14 19
REMARK H PARENT
REMARK Flexibility Score: 70.00
ROOT
ATOM      1  C   UNL     1      23.993  25.368  27.873  1.00  0.00     0.136 C 
ATOM      2  O   UNL     1      23.061  24.614  27.628  1.00  0.00    -0.299 OA
ENDROOT
BRANCH   1   3
ATOM      3  C   UNL     1      23.709  26.752  28.428  1.00  0.00     0.053 C 
ATOM      4  C   UNL     1      22.211  27.072  28.324  1.00  0.00     0.016 C 
BRANCH   3   5
ATOM      5  C   UNL     1      24.553  27.817  27.690  1.00  0.00     0.015 C 
BRANCH   5   6
ATOM      6  C   UNL     1      25.588  28.470  28.628  1.00  0.00     0.028 C 
BRANCH   6   7
ATOM      7  C   UNL     1      26.781  29.033  27.896  1.00  0.00    -0.028 C 
ATOM      8  C   UNL     1      27.255  28.588  26.707  1.00  0.00    -0.070 CG0
ATOM      9  C   UNL     1      28.522  29.216  26.180  1.00  0.00     0.039 C 
ATOM     10  G   UNL     1      26.558  27.530  25.862  1.00  0.00     0.000 G0
ENDBRANCH   6   7
ENDBRANCH   5   6
ENDBRANCH   3   5
ENDBRANCH   1   3
BRANCH   1  11
ATOM     11  C   UNL     1      25.407  24.890  27.629  1.00  0.00     0.087 C 
BRANCH  11  12
ATOM     12  C   UNL     1      25.842  25.072  26.150  1.00  0.00     0.066 C 
BRANCH  12  13
ATOM     13  C   UNL     1      26.981  26.073  26.029  1.00  0.00     0.140 C 
ATOM     14  O   UNL     1      28.143  25.704  26.120  1.00  0.00    -0.299 OA
BRANCH  13  15
ATOM     15  C   UNL     1      26.682  27.524  25.736  1.00  0.00     0.106 CG0
ATOM     16  G   UNL     1      27.261  28.493  26.758  1.00  0.00     0.000 G0
ENDBRANCH  13  15
ENDBRANCH  12  13
BRANCH  12  17
ATOM     17  C   UNL     1      26.173  23.724  25.429  1.00  0.00    -0.006 C 
ATOM     18  C   UNL     1      24.910  22.875  25.212  1.00  0.00     0.008 C 
ATOM     19  C   UNL     1      27.247  22.882  26.143  1.00  0.00     0.008 C 
ENDBRANCH  12  17
ENDBRANCH  11  12
ENDBRANCH   1  11
TORSDOF 1
ENDMDL
