MODEL 1
REMARK VINA RESULT:    -7.927      0.000      0.000
REMARK INTER + INTRA:          -9.396
REMARK INTER:                  -9.549
REMARK INTRA:                   0.153
REMARK UNBOUND:                 0.153
REMARK SMILES O=c1c(O)c(-c2ccc(O)cc2O)oc2cc(O)cc(O)c12
REMARK SMILES IDX 5 1 3 2 2 3 1 4 22 5 20 6 19 7 17 8 16 9 15 10 14 11 6 12
REMARK SMILES IDX 8 13 7 14 9 15 11 16 12 17 10 18 13 20 4 22 21 24 18 26
REMARK H PARENT 10 19 13 21 4 23 21 25 18 27
REMARK Flexibility Score: inf
ROOT
ATOM      1  C   UNL     1      15.581   7.240  16.122  1.00  0.00     0.184 A 
ATOM      2  C   UNL     1      14.400   6.812  15.493  1.00  0.00     0.208 A 
ATOM      3  C   UNL     1      14.317   5.490  15.025  1.00  0.00     0.238 A 
ATOM      4  O   UNL     1      13.238   5.096  14.514  1.00  0.00    -0.285 OA
ATOM      5  C   UNL     1      15.426   4.620  15.176  1.00  0.00     0.111 A 
ATOM      6  C   UNL     1      15.467   3.273  14.705  1.00  0.00     0.134 A 
ATOM      7  C   UNL     1      16.566   2.465  15.023  1.00  0.00     0.093 A 
ATOM      8  C   UNL     1      17.653   2.974  15.737  1.00  0.00     0.123 A 
ATOM      9  C   UNL     1      17.647   4.305  16.150  1.00  0.00     0.094 A 
ATOM     10  C   UNL     1      16.549   5.126  15.880  1.00  0.00     0.146 A 
ATOM     11  O   UNL     1      16.579   6.384  16.302  1.00  0.00    -0.451 OA
ENDROOT
BRANCH   1  12
ATOM     12  C   UNL     1      15.744   8.627  16.616  1.00  0.00     0.063 A 
ATOM     13  C   UNL     1      15.274  11.007  16.413  1.00  0.00     0.047 A 
ATOM     14  C   UNL     1      15.099   9.696  15.965  1.00  0.00     0.020 A 
ATOM     15  C   UNL     1      16.103  11.272  17.509  1.00  0.00     0.119 A 
ATOM     16  C   UNL     1      16.759  10.219  18.154  1.00  0.00     0.093 A 
ATOM     17  C   UNL     1      16.587   8.899  17.712  1.00  0.00     0.130 A 
BRANCH  15  18
ATOM     18  O   UNL     1      16.284  12.576  17.964  1.00  0.00    -0.508 OA
ATOM     19  H   UNL     1      16.049  12.844  18.912  1.00  0.00     0.293 HD
ENDBRANCH  15  18
BRANCH  17  20
ATOM     20  O   UNL     1      17.242   7.857  18.369  1.00  0.00    -0.507 OA
ATOM     21  H   UNL     1      17.346   6.942  17.945  1.00  0.00     0.293 HD
ENDBRANCH  17  20
ENDBRANCH   1  12
BRANCH   2  22
ATOM     22  O   UNL     1      13.316   7.685  15.367  1.00  0.00    -0.502 OA
ATOM     23  H   UNL     1      13.009   8.044  14.472  1.00  0.00     0.293 HD
ENDBRANCH   2  22
BRANCH   6  24
ATOM     24  O   UNL     1      14.477   2.693  13.906  1.00  0.00    -0.507 OA
ATOM     25  H   UNL     1      13.494   2.910  13.962  1.00  0.00     0.293 HD
ENDBRANCH   6  24
BRANCH   8  26
ATOM     26  O   UNL     1      18.749   2.168  16.035  1.00  0.00    -0.508 OA
ATOM     27  H   UNL     1      19.656   2.565  16.253  1.00  0.00     0.293 HD
ENDBRANCH   8  26
TORSDOF 6
ENDMDL
MODEL 2
REMARK VINA RESULT:    -7.419      1.447      7.225
REMARK INTER + INTRA:          -8.784
REMARK INTER:                  -8.730
REMARK INTRA:                  -0.054
REMARK UNBOUND:                 0.153
REMARK SMILES O=c1c(O)c(-c2ccc(O)cc2O)oc2cc(O)cc(O)c12
REMARK SMILES IDX 5 1 3 2 2 3 1 4 22 5 20 6 19 7 17 8 16 9 15 10 14 11 6 12
REMARK SMILES IDX 8 13 7 14 9 15 11 16 12 17 10 18 13 20 4 22 21 24 18 26
REMARK H PARENT 10 19 13 21 4 23 21 25 18 27
REMARK Flexibility Score: inf
ROOT
ATOM      1  C   UNL     1      15.658   7.655  16.307  1.00  0.00     0.184 A 
ATOM      2  C   UNL     1      16.543   8.055  17.321  1.00  0.00     0.208 A 
ATOM      3  C   UNL     1      16.574   9.406  17.706  1.00  0.00     0.238 A 
ATOM      4  O   UNL     1      17.327   9.747  18.653  1.00  0.00    -0.285 OA
ATOM      5  C   UNL     1      15.732  10.341  17.056  1.00  0.00     0.111 A 
ATOM      6  C   UNL     1      15.709  11.741  17.337  1.00  0.00     0.134 A 
ATOM      7  C   UNL     1      14.746  12.552  16.723  1.00  0.00     0.093 A 
ATOM      8  C   UNL     1      13.850  12.026  15.790  1.00  0.00     0.123 A 
ATOM      9  C   UNL     1      13.903  10.672  15.466  1.00  0.00     0.094 A 
ATOM     10  C   UNL     1      14.829   9.831  16.088  1.00  0.00     0.146 A 
ATOM     11  O   UNL     1      14.839   8.545  15.759  1.00  0.00    -0.451 OA
ENDROOT
BRANCH   1  12
ATOM     12  C   UNL     1      15.591   6.252  15.836  1.00  0.00     0.063 A 
ATOM     13  C   UNL     1      16.708   4.176  15.229  1.00  0.00     0.047 A 
ATOM     14  C   UNL     1      16.766   5.490  15.699  1.00  0.00     0.020 A 
ATOM     15  C   UNL     1      15.478   3.608  14.879  1.00  0.00     0.119 A 
ATOM     16  C   UNL     1      14.307   4.361  14.998  1.00  0.00     0.093 A 
ATOM     17  C   UNL     1      14.355   5.680  15.471  1.00  0.00     0.130 A 
BRANCH  15  18
ATOM     18  O   UNL     1      15.409   2.298  14.409  1.00  0.00    -0.508 OA
ATOM     19  H   UNL     1      14.532   1.888  14.112  1.00  0.00     0.293 HD
ENDBRANCH  15  18
BRANCH  17  20
ATOM     20  O   UNL     1      13.178   6.418  15.592  1.00  0.00    -0.507 OA
ATOM     21  H   UNL     1      13.190   7.422  15.726  1.00  0.00     0.293 HD
ENDBRANCH  17  20
ENDBRANCH   1  12
BRANCH   2  22
ATOM     22  O   UNL     1      17.354   7.111  17.957  1.00  0.00    -0.502 OA
ATOM     23  H   UNL     1      17.100   6.681  18.837  1.00  0.00     0.293 HD
ENDBRANCH   2  22
BRANCH   6  24
ATOM     24  O   UNL     1      16.618  12.384  18.183  1.00  0.00    -0.507 OA
ATOM     25  H   UNL     1      16.377  12.818  19.060  1.00  0.00     0.293 HD
ENDBRANCH   6  24
BRANCH   8  26
ATOM     26  O   UNL     1      12.905  12.843  15.172  1.00  0.00    -0.508 OA
ATOM     27  H   UNL     1      11.926  12.586  15.132  1.00  0.00     0.293 HD
ENDBRANCH   8  26
TORSDOF 6
ENDMDL
MODEL 3
REMARK VINA RESULT:    -5.894      1.368      3.246
REMARK INTER + INTRA:          -6.946
REMARK INTER:                  -7.239
REMARK INTRA:                   0.293
REMARK UNBOUND:                 0.153
REMARK SMILES O=c1c(O)c(-c2ccc(O)cc2O)oc2cc(O)cc(O)c12
REMARK SMILES IDX 5 1 3 2 2 3 1 4 22 5 20 6 19 7 17 8 16 9 15 10 14 11 6 12
REMARK SMILES IDX 8 13 7 14 9 15 11 16 12 17 10 18 13 20 4 22 21 24 18 26
REMARK H PARENT 10 19 13 21 4 23 21 25 18 27
REMARK Flexibility Score: inf
ROOT
ATOM      1  C   UNL     1      15.718   8.085  16.494  1.00  0.00     0.184 A 
ATOM      2  C   UNL     1      16.687   7.586  17.379  1.00  0.00     0.208 A 
ATOM      3  C   UNL     1      17.025   6.224  17.324  1.00  0.00     0.238 A 
ATOM      4  O   UNL     1      17.933   5.795  18.081  1.00  0.00    -0.285 OA
ATOM      5  C   UNL     1      16.373   5.375  16.396  1.00  0.00     0.111 A 
ATOM      6  C   UNL     1      16.607   3.971  16.280  1.00  0.00     0.134 A 
ATOM      7  C   UNL     1      15.999   3.255  15.241  1.00  0.00     0.093 A 
ATOM      8  C   UNL     1      15.117   3.877  14.356  1.00  0.00     0.123 A 
ATOM      9  C   UNL     1      14.836   5.234  14.498  1.00  0.00     0.094 A 
ATOM     10  C   UNL     1      15.455   5.984  15.502  1.00  0.00     0.146 A 
ATOM     11  O   UNL     1      15.169   7.277  15.595  1.00  0.00    -0.451 OA
ENDROOT
BRANCH   1  12
ATOM     12  C   UNL     1      15.298   9.506  16.515  1.00  0.00     0.063 A 
ATOM     13  C   UNL     1      15.756  11.832  17.066  1.00  0.00     0.047 A 
ATOM     14  C   UNL     1      16.161  10.496  17.020  1.00  0.00     0.020 A 
ATOM     15  C   UNL     1      14.480  12.197  16.619  1.00  0.00     0.119 A 
ATOM     16  C   UNL     1      13.611  11.218  16.129  1.00  0.00     0.093 A 
ATOM     17  C   UNL     1      14.010   9.875  16.077  1.00  0.00     0.130 A 
BRANCH  15  18
ATOM     18  O   UNL     1      14.066  13.526  16.661  1.00  0.00    -0.508 OA
ATOM     19  H   UNL     1      14.732  14.287  16.722  1.00  0.00     0.293 HD
ENDBRANCH  15  18
BRANCH  17  20
ATOM     20  O   UNL     1      13.135   8.910  15.578  1.00  0.00    -0.507 OA
ATOM     21  H   UNL     1      12.168   9.128  15.363  1.00  0.00     0.293 HD
ENDBRANCH  17  20
ENDBRANCH   1  12
BRANCH   2  22
ATOM     22  O   UNL     1      17.326   8.446  18.277  1.00  0.00    -0.502 OA
ATOM     23  H   UNL     1      17.645   9.369  18.012  1.00  0.00     0.293 HD
ENDBRANCH   2  22
BRANCH   6  24
ATOM     24  O   UNL     1      17.398   3.235  17.166  1.00  0.00    -0.507 OA
ATOM     25  H   UNL     1      17.252   3.188  18.163  1.00  0.00     0.293 HD
ENDBRANCH   6  24
BRANCH   8  26
ATOM     26  O   UNL     1      14.504   3.153  13.336  1.00  0.00    -0.508 OA
ATOM     27  H   UNL     1      15.037   2.775  12.560  1.00  0.00     0.293 HD
ENDBRANCH   8  26
TORSDOF 6
ENDMDL
MODEL 4
REMARK VINA RESULT:    -5.230      1.415      7.047
REMARK INTER + INTRA:          -6.147
REMARK INTER:                  -6.403
REMARK INTRA:                   0.256
REMARK UNBOUND:                 0.153
REMARK SMILES O=c1c(O)c(-c2ccc(O)cc2O)oc2cc(O)cc(O)c12
REMARK SMILES IDX 5 1 3 2 2 3 1 4 22 5 20 6 19 7 17 8 16 9 15 10 14 11 6 12
REMARK SMILES IDX 8 13 7 14 9 15 11 16 12 17 10 18 13 20 4 22 21 24 18 26
REMARK H PARENT 10 19 13 21 4 23 21 25 18 27
REMARK Flexibility Score: inf
ROOT
ATOM      1  C   UNL     1      15.759   6.342  16.076  1.00  0.00     0.184 A 
ATOM      2  C   UNL     1      16.606   6.504  17.184  1.00  0.00     0.208 A 
ATOM      3  C   UNL     1      16.765   7.784  17.740  1.00  0.00     0.238 A 
ATOM      4  O   UNL     1      17.480   7.913  18.766  1.00  0.00    -0.285 OA
ATOM      5  C   UNL     1      16.088   8.888  17.165  1.00  0.00     0.111 A 
ATOM      6  C   UNL     1      16.206  10.236  17.622  1.00  0.00     0.134 A 
ATOM      7  C   UNL     1      15.392  11.228  17.060  1.00  0.00     0.093 A 
ATOM      8  C   UNL     1      14.513  10.933  16.016  1.00  0.00     0.123 A 
ATOM      9  C   UNL     1      14.434   9.632  15.524  1.00  0.00     0.094 A 
ATOM     10  C   UNL     1      15.207   8.613  16.088  1.00  0.00     0.146 A 
ATOM     11  O   UNL     1      15.092   7.385  15.598  1.00  0.00    -0.451 OA
ENDROOT
BRANCH   1  12
ATOM     12  C   UNL     1      15.566   5.024  15.426  1.00  0.00     0.063 A 
ATOM     13  C   UNL     1      16.407   2.813  14.850  1.00  0.00     0.047 A 
ATOM     14  C   UNL     1      16.576   4.045  15.486  1.00  0.00     0.020 A 
ATOM     15  C   UNL     1      15.233   2.544  14.137  1.00  0.00     0.119 A 
ATOM     16  C   UNL     1      14.230   3.515  14.060  1.00  0.00     0.093 A 
ATOM     17  C   UNL     1      14.390   4.754  14.697  1.00  0.00     0.130 A 
BRANCH  15  18
ATOM     18  O   UNL     1      15.054   1.319  13.500  1.00  0.00    -0.508 OA
ATOM     19  H   UNL     1      14.131   0.970  13.271  1.00  0.00     0.293 HD
ENDBRANCH  15  18
BRANCH  17  20
ATOM     20  O   UNL     1      13.378   5.711  14.618  1.00  0.00    -0.507 OA
ATOM     21  H   UNL     1      13.564   6.696  14.766  1.00  0.00     0.293 HD
ENDBRANCH  17  20
ENDBRANCH   1  12
BRANCH   2  22
ATOM     22  O   UNL     1      17.253   5.397  17.741  1.00  0.00    -0.502 OA
ATOM     23  H   UNL     1      16.765   4.705  18.296  1.00  0.00     0.293 HD
ENDBRANCH   2  22
BRANCH   6  24
ATOM     24  O   UNL     1      17.118  10.655  18.596  1.00  0.00    -0.507 OA
ATOM     25  H   UNL     1      17.983  11.135  18.403  1.00  0.00     0.293 HD
ENDBRANCH   6  24
BRANCH   8  26
ATOM     26  O   UNL     1      13.719  11.929  15.452  1.00  0.00    -0.508 OA
ATOM     27  H   UNL     1      14.125  12.711  14.950  1.00  0.00     0.293 HD
ENDBRANCH   8  26
TORSDOF 6
ENDMDL
MODEL 5
REMARK VINA RESULT:    -5.129      1.628      6.653
REMARK INTER + INTRA:          -6.026
REMARK INTER:                  -6.139
REMARK INTRA:                   0.114
REMARK UNBOUND:                 0.153
REMARK SMILES O=c1c(O)c(-c2ccc(O)cc2O)oc2cc(O)cc(O)c12
REMARK SMILES IDX 5 1 3 2 2 3 1 4 22 5 20 6 19 7 17 8 16 9 15 10 14 11 6 12
REMARK SMILES IDX 8 13 7 14 9 15 11 16 12 17 10 18 13 20 4 22 21 24 18 26
REMARK H PARENT 10 19 13 21 4 23 21 25 18 27
REMARK Flexibility Score: inf
ROOT
ATOM      1  C   UNL     1      15.715   8.132  16.416  1.00  0.00     0.184 A 
ATOM      2  C   UNL     1      14.423   8.434  15.956  1.00  0.00     0.208 A 
ATOM      3  C   UNL     1      13.960   9.757  16.042  1.00  0.00     0.238 A 
ATOM      4  O   UNL     1      12.824  10.031  15.577  1.00  0.00    -0.285 OA
ATOM      5  C   UNL     1      14.790  10.757  16.605  1.00  0.00     0.111 A 
ATOM      6  C   UNL     1      14.409  12.122  16.778  1.00  0.00     0.134 A 
ATOM      7  C   UNL     1      15.357  13.051  17.229  1.00  0.00     0.093 A 
ATOM      8  C   UNL     1      16.650  12.651  17.574  1.00  0.00     0.123 A 
ATOM      9  C   UNL     1      17.013  11.311  17.464  1.00  0.00     0.094 A 
ATOM     10  C   UNL     1      16.101  10.367  16.983  1.00  0.00     0.146 A 
ATOM     11  O   UNL     1      16.491   9.103  16.883  1.00  0.00    -0.451 OA
ENDROOT
BRANCH   1  12
ATOM     12  C   UNL     1      16.256   6.753  16.377  1.00  0.00     0.063 A 
ATOM     13  C   UNL     1      16.357   4.556  15.334  1.00  0.00     0.047 A 
ATOM     14  C   UNL     1      15.869   5.865  15.356  1.00  0.00     0.020 A 
ATOM     15  C   UNL     1      17.228   4.112  16.336  1.00  0.00     0.119 A 
ATOM     16  C   UNL     1      17.607   4.983  17.361  1.00  0.00     0.093 A 
ATOM     17  C   UNL     1      17.124   6.300  17.391  1.00  0.00     0.130 A 
BRANCH  15  18
ATOM     18  O   UNL     1      17.720   2.809  16.323  1.00  0.00    -0.508 OA
ATOM     19  H   UNL     1      17.373   2.106  16.964  1.00  0.00     0.293 HD
ENDBRANCH  15  18
BRANCH  17  20
ATOM     20  O   UNL     1      17.517   7.160  18.416  1.00  0.00    -0.507 OA
ATOM     21  H   UNL     1      17.131   8.093  18.505  1.00  0.00     0.293 HD
ENDBRANCH  17  20
ENDBRANCH   1  12
BRANCH   2  22
ATOM     22  O   UNL     1      13.627   7.432  15.392  1.00  0.00    -0.502 OA
ATOM     23  H   UNL     1      12.763   7.635  14.905  1.00  0.00     0.293 HD
ENDBRANCH   2  22
BRANCH   6  24
ATOM     24  O   UNL     1      13.119  12.609  16.551  1.00  0.00    -0.507 OA
ATOM     25  H   UNL     1      12.886  13.329  15.885  1.00  0.00     0.293 HD
ENDBRANCH   6  24
BRANCH   8  26
ATOM     26  O   UNL     1      17.581  13.579  18.036  1.00  0.00    -0.508 OA
ATOM     27  H   UNL     1      17.445  14.076  18.909  1.00  0.00     0.293 HD
ENDBRANCH   8  26
TORSDOF 6
ENDMDL
