MODEL 1
REMARK VINA RESULT:    -4.489      0.000      0.000
REMARK INTER + INTRA:          -7.100
REMARK INTER:                  -6.851
REMARK INTRA:                  -0.249
REMARK UNBOUND:                -0.249
REMARK SMILES CCCCCCCCCCC(=O)[O-]
REMARK SMILES IDX 7 1 8 2 9 3 10 4 11 5 12 6 13 7 6 8 5 9 4 10 3 11 2 12 1 13
REMARK H PARENT
REMARK Flexibility Score: inf
ROOT
ATOM      1  C   UNL     1      11.031  14.775  23.920  1.00  0.00     0.000 C 
ENDROOT
BRANCH   1   2
ATOM      2  C   UNL     1      11.439  16.175  24.422  1.00  0.00     0.000 C 
BRANCH   2   3
ATOM      3  C   UNL     1      12.903  16.297  24.883  1.00  0.00     0.006 C 
BRANCH   3   4
ATOM      4  C   UNL     1      13.780  17.055  23.880  1.00  0.00     0.053 C 
BRANCH   4   5
ATOM      5  C   UNL     1      14.111  18.417  24.401  1.00  0.00     0.041 C 
ATOM      6  O   UNL     1      15.210  18.958  24.111  1.00  0.00    -0.550 OA
ATOM      7  O   UNL     1      13.184  19.112  25.169  1.00  0.00    -0.550 OA
ENDBRANCH   4   5
ENDBRANCH   3   4
ENDBRANCH   2   3
ENDBRANCH   1   2
BRANCH   1   8
ATOM      8  C   UNL     1      10.239  14.757  22.597  1.00  0.00     0.000 C 
BRANCH   8   9
ATOM      9  C   UNL     1       9.315  13.540  22.401  1.00  0.00    -0.000 C 
BRANCH   9  10
ATOM     10  C   UNL     1       7.824  13.915  22.405  1.00  0.00    -0.000 C 
BRANCH  10  11
ATOM     11  C   UNL     1       6.940  12.850  23.077  1.00  0.00    -0.000 C 
BRANCH  11  12
ATOM     12  C   UNL     1       6.521  11.680  22.168  1.00  0.00    -0.003 C 
ATOM     13  C   UNL     1       5.376  10.850  22.747  1.00  0.00     0.004 C 
ENDBRANCH  11  12
ENDBRANCH  10  11
ENDBRANCH   9  10
ENDBRANCH   8   9
ENDBRANCH   1   8
TORSDOF 9
ENDMDL
MODEL 2
REMARK VINA RESULT:    -4.459      1.000      1.566
REMARK INTER + INTRA:          -7.055
REMARK INTER:                  -6.679
REMARK INTRA:                  -0.376
REMARK UNBOUND:                -0.249
REMARK SMILES CCCCCCCCCCC(=O)[O-]
REMARK SMILES IDX 7 1 8 2 9 3 10 4 11 5 12 6 13 7 6 8 5 9 4 10 3 11 2 12 1 13
REMARK H PARENT
REMARK Flexibility Score: inf
ROOT
ATOM      1  C   UNL     1      10.219  14.731  22.753  1.00  0.00     0.000 C 
ENDROOT
BRANCH   1   2
ATOM      2  C   UNL     1      11.360  14.602  23.782  1.00  0.00     0.000 C 
BRANCH   2   3
ATOM      3  C   UNL     1      11.416  15.725  24.833  1.00  0.00     0.006 C 
BRANCH   3   4
ATOM      4  C   UNL     1      11.808  17.081  24.233  1.00  0.00     0.053 C 
BRANCH   4   5
ATOM      5  C   UNL     1      13.013  17.630  24.927  1.00  0.00     0.041 C 
ATOM      6  O   UNL     1      12.924  18.060  26.107  1.00  0.00    -0.550 OA
ATOM      7  O   UNL     1      14.247  17.622  24.289  1.00  0.00    -0.550 OA
ENDBRANCH   4   5
ENDBRANCH   3   4
ENDBRANCH   2   3
ENDBRANCH   1   2
BRANCH   1   8
ATOM      8  C   UNL     1      10.073  13.542  21.782  1.00  0.00     0.000 C 
BRANCH   8   9
ATOM      9  C   UNL     1       8.719  12.811  21.839  1.00  0.00    -0.000 C 
BRANCH   9  10
ATOM     10  C   UNL     1       7.664  13.570  22.660  1.00  0.00    -0.000 C 
BRANCH  10  11
ATOM     11  C   UNL     1       6.507  12.669  23.128  1.00  0.00    -0.000 C 
BRANCH  11  12
ATOM     12  C   UNL     1       6.266  11.416  22.266  1.00  0.00    -0.003 C 
ATOM     13  C   UNL     1       4.964  10.693  22.611  1.00  0.00     0.004 C 
ENDBRANCH  11  12
ENDBRANCH  10  11
ENDBRANCH   9  10
ENDBRANCH   8   9
ENDBRANCH   1   8
TORSDOF 9
ENDMDL
MODEL 3
REMARK VINA RESULT:    -4.326      3.784      5.512
REMARK INTER + INTRA:          -6.851
REMARK INTER:                  -5.625
REMARK INTRA:                  -1.226
REMARK UNBOUND:                -0.249
REMARK SMILES CCCCCCCCCCC(=O)[O-]
REMARK SMILES IDX 7 1 8 2 9 3 10 4 11 5 12 6 13 7 6 8 5 9 4 10 3 11 2 12 1 13
REMARK H PARENT
REMARK Flexibility Score: inf
ROOT
ATOM      1  C   UNL     1      10.783  16.983  22.402  1.00  0.00     0.000 C 
ENDROOT
BRANCH   1   2
ATOM      2  C   UNL     1      11.700  17.901  21.569  1.00  0.00     0.000 C 
BRANCH   2   3
ATOM      3  C   UNL     1      13.208  17.644  21.743  1.00  0.00     0.006 C 
BRANCH   3   4
ATOM      4  C   UNL     1      14.073  18.776  21.178  1.00  0.00     0.053 C 
BRANCH   4   5
ATOM      5  C   UNL     1      14.350  19.798  22.235  1.00  0.00     0.041 C 
ATOM      6  O   UNL     1      13.644  20.838  22.312  1.00  0.00    -0.550 OA
ATOM      7  O   UNL     1      15.357  19.579  23.167  1.00  0.00    -0.550 OA
ENDBRANCH   4   5
ENDBRANCH   3   4
ENDBRANCH   2   3
ENDBRANCH   1   2
BRANCH   1   8
ATOM      8  C   UNL     1      11.498  15.825  23.127  1.00  0.00     0.000 C 
BRANCH   8   9
ATOM      9  C   UNL     1      11.477  15.901  24.665  1.00  0.00    -0.000 C 
BRANCH   9  10
ATOM     10  C   UNL     1      12.743  16.551  25.248  1.00  0.00    -0.000 C 
BRANCH  10  11
ATOM     11  C   UNL     1      12.450  17.852  26.016  1.00  0.00    -0.000 C 
BRANCH  11  12
ATOM     12  C   UNL     1      12.275  19.104  25.136  1.00  0.00    -0.003 C 
ATOM     13  C   UNL     1      10.823  19.572  25.041  1.00  0.00     0.004 C 
ENDBRANCH  11  12
ENDBRANCH  10  11
ENDBRANCH   9  10
ENDBRANCH   8   9
ENDBRANCH   1   8
TORSDOF 9
ENDMDL
MODEL 4
REMARK VINA RESULT:    -4.322      4.328      7.783
REMARK INTER + INTRA:          -6.844
REMARK INTER:                  -6.526
REMARK INTRA:                  -0.318
REMARK UNBOUND:                -0.249
REMARK SMILES CCCCCCCCCCC(=O)[O-]
REMARK SMILES IDX 7 1 8 2 9 3 10 4 11 5 12 6 13 7 6 8 5 9 4 10 3 11 2 12 1 13
REMARK H PARENT
REMARK Flexibility Score: inf
ROOT
ATOM      1  C   UNL     1      10.112  14.779  22.407  1.00  0.00     0.000 C 
ENDROOT
BRANCH   1   2
ATOM      2  C   UNL     1       9.078  13.693  22.048  1.00  0.00     0.000 C 
BRANCH   2   3
ATOM      3  C   UNL     1       7.610  14.089  22.293  1.00  0.00     0.006 C 
BRANCH   3   4
ATOM      4  C   UNL     1       6.846  13.054  23.127  1.00  0.00     0.053 C 
BRANCH   4   5
ATOM      5  C   UNL     1       7.053  11.681  22.570  1.00  0.00     0.041 C 
ATOM      6  O   UNL     1       7.505  10.761  23.301  1.00  0.00    -0.550 OA
ATOM      7  O   UNL     1       6.700  11.404  21.255  1.00  0.00    -0.550 OA
ENDBRANCH   4   5
ENDBRANCH   3   4
ENDBRANCH   2   3
ENDBRANCH   1   2
BRANCH   1   8
ATOM      8  C   UNL     1      11.122  14.387  23.504  1.00  0.00     0.000 C 
BRANCH   8   9
ATOM      9  C   UNL     1      11.289  15.414  24.639  1.00  0.00    -0.000 C 
BRANCH   9  10
ATOM     10  C   UNL     1      12.708  16.002  24.708  1.00  0.00    -0.000 C 
BRANCH  10  11
ATOM     11  C   UNL     1      12.863  17.064  25.812  1.00  0.00    -0.000 C 
BRANCH  11  12
ATOM     12  C   UNL     1      12.866  18.523  25.318  1.00  0.00    -0.003 C 
ATOM     13  C   UNL     1      11.514  19.215  25.486  1.00  0.00     0.004 C 
ENDBRANCH  11  12
ENDBRANCH  10  11
ENDBRANCH   9  10
ENDBRANCH   8   9
ENDBRANCH   1   8
TORSDOF 9
ENDMDL
MODEL 5
REMARK VINA RESULT:    -4.291      4.690      6.082
REMARK INTER + INTRA:          -6.798
REMARK INTER:                  -5.634
REMARK INTRA:                  -1.164
REMARK UNBOUND:                -0.249
REMARK SMILES CCCCCCCCCCC(=O)[O-]
REMARK SMILES IDX 7 1 8 2 9 3 10 4 11 5 12 6 13 7 6 8 5 9 4 10 3 11 2 12 1 13
REMARK H PARENT
REMARK Flexibility Score: inf
ROOT
ATOM      1  C   UNL     1      12.225  17.048  22.262  1.00  0.00     0.000 C 
ENDROOT
BRANCH   1   2
ATOM      2  C   UNL     1      11.478  18.304  21.770  1.00  0.00     0.000 C 
BRANCH   2   3
ATOM      3  C   UNL     1      12.173  19.066  20.627  1.00  0.00     0.006 C 
BRANCH   3   4
ATOM      4  C   UNL     1      12.128  20.587  20.816  1.00  0.00     0.053 C 
BRANCH   4   5
ATOM      5  C   UNL     1      12.901  20.985  22.033  1.00  0.00     0.041 C 
ATOM      6  O   UNL     1      14.105  20.640  22.161  1.00  0.00    -0.550 OA
ATOM      7  O   UNL     1      12.305  21.779  23.006  1.00  0.00    -0.550 OA
ENDBRANCH   4   5
ENDBRANCH   3   4
ENDBRANCH   2   3
ENDBRANCH   1   2
BRANCH   1   8
ATOM      8  C   UNL     1      13.721  17.254  22.573  1.00  0.00     0.000 C 
BRANCH   8   9
ATOM      9  C   UNL     1      14.088  17.249  24.069  1.00  0.00    -0.000 C 
BRANCH   9  10
ATOM     10  C   UNL     1      12.937  16.761  24.964  1.00  0.00    -0.000 C 
BRANCH  10  11
ATOM     11  C   UNL     1      12.538  17.788  26.039  1.00  0.00    -0.000 C 
BRANCH  11  12
ATOM     12  C   UNL     1      12.311  19.221  25.521  1.00  0.00    -0.003 C 
ATOM     13  C   UNL     1      10.862  19.489  25.115  1.00  0.00     0.004 C 
ENDBRANCH  11  12
ENDBRANCH  10  11
ENDBRANCH   9  10
ENDBRANCH   8   9
ENDBRANCH   1   8
TORSDOF 9
ENDMDL
MODEL 6
REMARK VINA RESULT:    -4.278      5.427      6.728
REMARK INTER + INTRA:          -6.778
REMARK INTER:                  -5.668
REMARK INTRA:                  -1.110
REMARK UNBOUND:                -0.249
REMARK SMILES CCCCCCCCCCC(=O)[O-]
REMARK SMILES IDX 7 1 8 2 9 3 10 4 11 5 12 6 13 7 6 8 5 9 4 10 3 11 2 12 1 13
REMARK H PARENT
REMARK Flexibility Score: inf
ROOT
ATOM      1  C   UNL     1      15.178  19.423  22.753  1.00  0.00     0.000 C 
ENDROOT
BRANCH   1   2
ATOM      2  C   UNL     1      14.139  20.373  22.126  1.00  0.00     0.000 C 
BRANCH   2   3
ATOM      3  C   UNL     1      13.694  19.999  20.700  1.00  0.00     0.006 C 
BRANCH   3   4
ATOM      4  C   UNL     1      13.257  18.534  20.580  1.00  0.00     0.053 C 
BRANCH   4   5
ATOM      5  C   UNL     1      11.792  18.403  20.853  1.00  0.00     0.041 C 
ATOM      6  O   UNL     1      10.966  19.131  20.242  1.00  0.00    -0.550 OA
ATOM      7  O   UNL     1      11.334  17.442  21.746  1.00  0.00    -0.550 OA
ENDBRANCH   4   5
ENDBRANCH   3   4
ENDBRANCH   2   3
ENDBRANCH   1   2
BRANCH   1   8
ATOM      8  C   UNL     1      14.766  18.794  24.099  1.00  0.00     0.000 C 
BRANCH   8   9
ATOM      9  C   UNL     1      14.072  17.423  23.999  1.00  0.00    -0.000 C 
BRANCH   9  10
ATOM     10  C   UNL     1      13.003  17.214  25.085  1.00  0.00    -0.000 C 
BRANCH  10  11
ATOM     11  C   UNL     1      12.593  18.524  25.781  1.00  0.00    -0.000 C 
BRANCH  11  12
ATOM     12  C   UNL     1      11.214  19.076  25.373  1.00  0.00    -0.003 C 
ATOM     13  C   UNL     1      11.281  20.038  24.188  1.00  0.00     0.004 C 
ENDBRANCH  11  12
ENDBRANCH  10  11
ENDBRANCH   9  10
ENDBRANCH   8   9
ENDBRANCH   1   8
TORSDOF 9
ENDMDL
MODEL 7
REMARK VINA RESULT:    -4.244      3.859      7.615
REMARK INTER + INTRA:          -6.727
REMARK INTER:                  -6.172
REMARK INTRA:                  -0.555
REMARK UNBOUND:                -0.249
REMARK SMILES CCCCCCCCCCC(=O)[O-]
REMARK SMILES IDX 7 1 8 2 9 3 10 4 11 5 12 6 13 7 6 8 5 9 4 10 3 11 2 12 1 13
REMARK H PARENT
REMARK Flexibility Score: inf
ROOT
ATOM      1  C   UNL     1      11.036  15.376  22.791  1.00  0.00     0.000 C 
ENDROOT
BRANCH   1   2
ATOM      2  C   UNL     1       9.635  14.983  22.280  1.00  0.00     0.000 C 
BRANCH   2   3
ATOM      3  C   UNL     1       9.250  13.510  22.510  1.00  0.00     0.006 C 
BRANCH   3   4
ATOM      4  C   UNL     1       7.912  13.138  21.861  1.00  0.00     0.053 C 
BRANCH   4   5
ATOM      5  C   UNL     1       6.880  12.870  22.910  1.00  0.00     0.041 C 
ATOM      6  O   UNL     1       6.500  13.795  23.675  1.00  0.00    -0.550 OA
ATOM      7  O   UNL     1       6.300  11.611  23.010  1.00  0.00    -0.550 OA
ENDBRANCH   4   5
ENDBRANCH   3   4
ENDBRANCH   2   3
ENDBRANCH   1   2
BRANCH   1   8
ATOM      8  C   UNL     1      11.261  15.184  24.304  1.00  0.00     0.000 C 
BRANCH   8   9
ATOM      9  C   UNL     1      12.693  15.464  24.796  1.00  0.00    -0.000 C 
BRANCH   9  10
ATOM     10  C   UNL     1      12.789  16.733  25.660  1.00  0.00    -0.000 C 
BRANCH  10  11
ATOM     11  C   UNL     1      13.142  17.989  24.843  1.00  0.00    -0.000 C 
BRANCH  11  12
ATOM     12  C   UNL     1      14.304  17.814  23.848  1.00  0.00    -0.003 C 
ATOM     13  C   UNL     1      13.956  18.274  22.433  1.00  0.00     0.004 C 
ENDBRANCH  11  12
ENDBRANCH  10  11
ENDBRANCH   9  10
ENDBRANCH   8   9
ENDBRANCH   1   8
TORSDOF 9
ENDMDL
MODEL 8
REMARK VINA RESULT:    -4.241      5.457      6.914
REMARK INTER + INTRA:          -6.722
REMARK INTER:                  -5.622
REMARK INTRA:                  -1.100
REMARK UNBOUND:                -0.249
REMARK SMILES CCCCCCCCCCC(=O)[O-]
REMARK SMILES IDX 7 1 8 2 9 3 10 4 11 5 12 6 13 7 6 8 5 9 4 10 3 11 2 12 1 13
REMARK H PARENT
REMARK Flexibility Score: inf
ROOT
ATOM      1  C   UNL     1      13.652  18.780  21.705  1.00  0.00     0.000 C 
ENDROOT
BRANCH   1   2
ATOM      2  C   UNL     1      12.457  19.730  21.484  1.00  0.00     0.000 C 
BRANCH   2   3
ATOM      3  C   UNL     1      12.770  21.223  21.688  1.00  0.00     0.006 C 
BRANCH   3   4
ATOM      4  C   UNL     1      11.909  21.866  22.782  1.00  0.00     0.053 C 
BRANCH   4   5
ATOM      5  C   UNL     1      11.128  23.013  22.224  1.00  0.00     0.041 C 
ATOM      6  O   UNL     1      10.794  23.022  21.010  1.00  0.00    -0.550 OA
ATOM      7  O   UNL     1      10.725  24.050  23.056  1.00  0.00    -0.550 OA
ENDBRANCH   4   5
ENDBRANCH   3   4
ENDBRANCH   2   3
ENDBRANCH   1   2
BRANCH   1   8
ATOM      8  C   UNL     1      14.736  19.301  22.669  1.00  0.00     0.000 C 
BRANCH   8   9
ATOM      9  C   UNL     1      14.686  18.715  24.093  1.00  0.00    -0.000 C 
BRANCH   9  10
ATOM     10  C   UNL     1      14.022  17.329  24.145  1.00  0.00    -0.000 C 
BRANCH  10  11
ATOM     11  C   UNL     1      12.851  17.263  25.143  1.00  0.00    -0.000 C 
BRANCH  11  12
ATOM     12  C   UNL     1      11.543  17.913  24.657  1.00  0.00    -0.003 C 
ATOM     13  C   UNL     1      11.278  19.277  25.294  1.00  0.00     0.004 C 
ENDBRANCH  11  12
ENDBRANCH  10  11
ENDBRANCH   9  10
ENDBRANCH   8   9
ENDBRANCH   1   8
TORSDOF 9
ENDMDL
MODEL 9
REMARK VINA RESULT:    -4.229      3.671      6.742
REMARK INTER + INTRA:          -6.703
REMARK INTER:                  -5.627
REMARK INTRA:                  -1.077
REMARK UNBOUND:                -0.249
REMARK SMILES CCCCCCCCCCC(=O)[O-]
REMARK SMILES IDX 7 1 8 2 9 3 10 4 11 5 12 6 13 7 6 8 5 9 4 10 3 11 2 12 1 13
REMARK H PARENT
REMARK Flexibility Score: inf
ROOT
ATOM      1  C   UNL     1      12.930  19.144  21.893  1.00  0.00     0.000 C 
ENDROOT
BRANCH   1   2
ATOM      2  C   UNL     1      12.155  18.079  21.091  1.00  0.00     0.000 C 
BRANCH   2   3
ATOM      3  C   UNL     1      11.939  16.743  21.826  1.00  0.00     0.006 C 
BRANCH   3   4
ATOM      4  C   UNL     1      10.517  16.593  22.379  1.00  0.00     0.053 C 
BRANCH   4   5
ATOM      5  C   UNL     1      10.175  15.147  22.552  1.00  0.00     0.041 C 
ATOM      6  O   UNL     1      11.001  14.360  23.085  1.00  0.00    -0.550 OA
ATOM      7  O   UNL     1       8.924  14.678  22.171  1.00  0.00    -0.550 OA
ENDBRANCH   4   5
ENDBRANCH   3   4
ENDBRANCH   2   3
ENDBRANCH   1   2
BRANCH   1   8
ATOM      8  C   UNL     1      14.317  18.702  22.401  1.00  0.00     0.000 C 
BRANCH   8   9
ATOM      9  C   UNL     1      14.454  18.599  23.932  1.00  0.00    -0.000 C 
BRANCH   9  10
ATOM     10  C   UNL     1      13.860  17.298  24.498  1.00  0.00    -0.000 C 
BRANCH  10  11
ATOM     11  C   UNL     1      12.680  17.546  25.455  1.00  0.00    -0.000 C 
BRANCH  11  12
ATOM     12  C   UNL     1      12.312  19.026  25.668  1.00  0.00    -0.003 C 
ATOM     13  C   UNL     1      10.977  19.409  25.030  1.00  0.00     0.004 C 
ENDBRANCH  11  12
ENDBRANCH  10  11
ENDBRANCH   9  10
ENDBRANCH   8   9
ENDBRANCH   1   8
TORSDOF 9
ENDMDL
