MODEL 1
REMARK VINA RESULT:    29.885      0.000      0.000
REMARK INTER + INTRA:          40.361
REMARK INTER:                  41.241
REMARK INTRA:                  -0.880
REMARK UNBOUND:                -0.880
REMARK SMILES O=C([O-])[C@H]1O[C@@H](Oc2cc3oc(-c4ccccc4)cc(=O)c3c(O)c2O)[C@@H](O)[C@@H](O)[C@@H]1O
REMARK SMILES IDX 7 1 6 2 4 3 31 4 5 5 29 6 27 7 2 8 1 9 3 10 32 11 30 13
REMARK SMILES IDX 28 15 8 17 25 18 9 19 23 20 10 21 22 22 11 23 20 24 12 25
REMARK SMILES IDX 19 26 21 27 26 28 24 30 13 32 14 33 18 34 15 35 17 36 16 37
REMARK H PARENT 32 12 30 14 28 16 26 29 24 31
REMARK Flexibility Score: inf
ROOT
ATOM      1  O   UNL     1    -116.351 -97.777  34.871  1.00  0.00    -0.458 OA
ENDROOT
BRANCH   1   2
ATOM      2  C   UNL     1    -116.353 -99.100  34.327  1.00  0.00     0.339 C 
ATOM      3  C   UNL     1    -116.718 -98.418  32.071  1.00  0.00     0.199 C 
ATOM      4  C   UNL     1    -118.200 -98.899  32.096  1.00  0.00     0.180 C 
ATOM      5  O   UNL     1    -115.879 -99.118  32.985  1.00  0.00    -0.328 OA
ATOM      6  C   UNL     1    -118.764 -99.021  33.528  1.00  0.00     0.181 C 
ATOM      7  C   UNL     1    -117.752 -99.736  34.437  1.00  0.00     0.214 C 
BRANCH   3   8
ATOM      8  C   UNL     1    -116.532 -96.922  32.173  1.00  0.00     0.073 C 
ATOM      9  O   UNL     1    -117.540 -96.181  32.312  1.00  0.00    -0.547 OA
ATOM     10  O   UNL     1    -115.267 -96.344  32.148  1.00  0.00    -0.547 OA
ENDBRANCH   3   8
BRANCH   4  11
ATOM     11  O   UNL     1    -118.335-100.124  31.415  1.00  0.00    -0.387 OA
ATOM     12  H   UNL     1    -117.969-100.842  31.991  1.00  0.00     0.211 HD
ENDBRANCH   4  11
BRANCH   6  13
ATOM     13  O   UNL     1    -119.067 -97.750  34.044  1.00  0.00    -0.387 OA
ATOM     14  H   UNL     1    -119.876 -97.854  34.612  1.00  0.00     0.211 HD
ENDBRANCH   6  13
BRANCH   7  15
ATOM     15  O   UNL     1    -118.199 -99.784  35.770  1.00  0.00    -0.384 OA
ATOM     16  H   UNL     1    -118.680-100.640  35.908  1.00  0.00     0.211 HD
ENDBRANCH   7  15
ENDBRANCH   1   2
BRANCH   1  17
ATOM     17  C   UNL     1    -115.237 -96.974  35.180  1.00  0.00     0.172 A 
ATOM     18  C   UNL     1    -115.207 -95.561  35.070  1.00  0.00     0.201 A 
ATOM     19  C   UNL     1    -114.106 -97.650  35.639  1.00  0.00     0.098 A 
ATOM     20  C   UNL     1    -114.019 -94.854  35.397  1.00  0.00     0.176 A 
ATOM     21  C   UNL     1    -112.946 -96.966  35.990  1.00  0.00     0.146 A 
ATOM     22  C   UNL     1    -112.888 -95.561  35.875  1.00  0.00     0.111 A 
ATOM     23  O   UNL     1    -111.898 -97.657  36.427  1.00  0.00    -0.456 OA
ATOM     24  C   UNL     1    -111.681 -94.929  36.248  1.00  0.00     0.197 A 
ATOM     25  C   UNL     1    -110.744 -97.093  36.779  1.00  0.00     0.138 A 
ATOM     26  C   UNL     1    -110.609 -95.699  36.703  1.00  0.00     0.100 A 
ATOM     27  O   UNL     1    -111.545 -93.677  36.187  1.00  0.00    -0.289 OA
BRANCH  18  28
ATOM     28  O   UNL     1    -116.357 -94.885  34.655  1.00  0.00    -0.502 OA
ATOM     29  H   UNL     1    -117.232 -95.328  34.415  1.00  0.00     0.293 HD
ENDBRANCH  18  28
BRANCH  20  30
ATOM     30  O   UNL     1    -113.932 -93.464  35.249  1.00  0.00    -0.504 OA
ATOM     31  H   UNL     1    -114.708 -92.825  35.331  1.00  0.00     0.293 HD
ENDBRANCH  20  30
BRANCH  25  32
ATOM     32  C   UNL     1    -109.640 -97.964  37.254  1.00  0.00     0.017 A 
ATOM     33  C   UNL     1    -108.658 -97.433  38.112  1.00  0.00     0.012 A 
ATOM     34  C   UNL     1    -109.562 -99.325  36.895  1.00  0.00     0.012 A 
ATOM     35  C   UNL     1    -107.614 -98.237  38.580  1.00  0.00     0.001 A 
ATOM     36  C   UNL     1    -108.516-100.124  37.366  1.00  0.00     0.001 A 
ATOM     37  C   UNL     1    -107.541 -99.580  38.206  1.00  0.00     0.000 A 
ENDBRANCH  25  32
ENDBRANCH   1  17
TORSDOF 9
ENDMDL
MODEL 2
REMARK VINA RESULT:    29.957      4.141      6.084
REMARK INTER + INTRA:          40.460
REMARK INTER:                  23.882
REMARK INTRA:                  16.578
REMARK UNBOUND:                -0.880
REMARK SMILES O=C([O-])[C@H]1O[C@@H](Oc2cc3oc(-c4ccccc4)cc(=O)c3c(O)c2O)[C@@H](O)[C@@H](O)[C@@H]1O
REMARK SMILES IDX 7 1 6 2 4 3 31 4 5 5 29 6 27 7 2 8 1 9 3 10 32 11 30 13
REMARK SMILES IDX 28 15 8 17 25 18 9 19 23 20 10 21 22 22 11 23 20 24 12 25
REMARK SMILES IDX 19 26 21 27 26 28 24 30 13 32 14 33 18 34 15 35 17 36 16 37
REMARK H PARENT 32 12 30 14 28 16 26 29 24 31
REMARK Flexibility Score: inf
ROOT
ATOM      1  O   UNL     1    -117.738 -96.450  33.009  1.00  0.00    -0.458 OA
ENDROOT
BRANCH   1   2
ATOM      2  C   UNL     1    -118.957 -96.783  32.338  1.00  0.00     0.339 C 
ATOM      3  C   UNL     1    -118.145 -98.813  31.386  1.00  0.00     0.199 C 
ATOM      4  C   UNL     1    -118.048 -98.184  29.964  1.00  0.00     0.180 C 
ATOM      5  O   UNL     1    -119.122 -98.191  32.215  1.00  0.00    -0.328 OA
ATOM      6  C   UNL     1    -117.981 -96.642  29.996  1.00  0.00     0.181 C 
ATOM      7  C   UNL     1    -119.035 -96.086  30.966  1.00  0.00     0.214 C 
BRANCH   3   8
ATOM      8  C   UNL     1    -116.825 -98.977  32.103  1.00  0.00     0.073 C 
ATOM      9  O   UNL     1    -116.688 -99.905  32.942  1.00  0.00    -0.547 OA
ATOM     10  O   UNL     1    -115.745 -98.143  31.834  1.00  0.00    -0.547 OA
ENDBRANCH   3   8
BRANCH   4  11
ATOM     11  O   UNL     1    -119.124 -98.607  29.159  1.00  0.00    -0.387 OA
ATOM     12  H   UNL     1    -119.635 -97.805  28.879  1.00  0.00     0.211 HD
ENDBRANCH   4  11
BRANCH   6  13
ATOM     13  O   UNL     1    -116.698 -96.216  30.378  1.00  0.00    -0.387 OA
ATOM     14  H   UNL     1    -116.563 -96.513  31.316  1.00  0.00     0.211 HD
ENDBRANCH   6  13
BRANCH   7  15
ATOM     15  O   UNL     1    -118.940 -94.688  31.086  1.00  0.00    -0.384 OA
ATOM     16  H   UNL     1    -119.346 -94.276  30.280  1.00  0.00     0.211 HD
ENDBRANCH   7  15
ENDBRANCH   1   2
BRANCH   1  17
ATOM     17  C   UNL     1    -117.013 -97.239  33.922  1.00  0.00     0.172 A 
ATOM     18  C   UNL     1    -115.790 -97.893  33.625  1.00  0.00     0.201 A 
ATOM     19  C   UNL     1    -117.559 -97.351  35.201  1.00  0.00     0.098 A 
ATOM     20  C   UNL     1    -115.152 -98.678  34.624  1.00  0.00     0.176 A 
ATOM     21  C   UNL     1    -116.928 -98.094  36.194  1.00  0.00     0.146 A 
ATOM     22  C   UNL     1    -115.718 -98.764  35.920  1.00  0.00     0.111 A 
ATOM     23  O   UNL     1    -117.486 -98.163  37.398  1.00  0.00    -0.456 OA
ATOM     24  C   UNL     1    -115.130 -99.500  36.974  1.00  0.00     0.197 A 
ATOM     25  C   UNL     1    -116.964 -98.853  38.410  1.00  0.00     0.138 A 
ATOM     26  C   UNL     1    -115.755 -99.540  38.221  1.00  0.00     0.100 A 
ATOM     27  O   UNL     1    -114.044-100.120  36.820  1.00  0.00    -0.289 OA
BRANCH  18  28
ATOM     28  O   UNL     1    -115.224 -97.740  32.358  1.00  0.00    -0.502 OA
ATOM     29  H   UNL     1    -115.686 -97.962  31.488  1.00  0.00     0.293 HD
ENDBRANCH  18  28
BRANCH  20  30
ATOM     30  O   UNL     1    -113.973 -99.383  34.355  1.00  0.00    -0.504 OA
ATOM     31  H   UNL     1    -113.843-100.015  33.579  1.00  0.00     0.293 HD
ENDBRANCH  20  30
BRANCH  25  32
ATOM     32  C   UNL     1    -117.675 -98.860  39.713  1.00  0.00     0.017 A 
ATOM     33  C   UNL     1    -117.992-100.089  40.323  1.00  0.00     0.012 A 
ATOM     34  C   UNL     1    -118.017 -97.665  40.377  1.00  0.00     0.012 A 
ATOM     35  C   UNL     1    -118.653-100.120  41.555  1.00  0.00     0.001 A 
ATOM     36  C   UNL     1    -118.678 -97.703  41.608  1.00  0.00     0.001 A 
ATOM     37  C   UNL     1    -118.998 -98.929  42.196  1.00  0.00     0.000 A 
ENDBRANCH  25  32
ENDBRANCH   1  17
TORSDOF 9
ENDMDL
MODEL 3
REMARK VINA RESULT:    31.843      4.456      5.696
REMARK INTER + INTRA:          43.064
REMARK INTER:                  44.539
REMARK INTRA:                  -1.475
REMARK UNBOUND:                -0.880
REMARK SMILES O=C([O-])[C@H]1O[C@@H](Oc2cc3oc(-c4ccccc4)cc(=O)c3c(O)c2O)[C@@H](O)[C@@H](O)[C@@H]1O
REMARK SMILES IDX 7 1 6 2 4 3 31 4 5 5 29 6 27 7 2 8 1 9 3 10 32 11 30 13
REMARK SMILES IDX 28 15 8 17 25 18 9 19 23 20 10 21 22 22 11 23 20 24 12 25
REMARK SMILES IDX 19 26 21 27 26 28 24 30 13 32 14 33 18 34 15 35 17 36 16 37
REMARK H PARENT 32 12 30 14 28 16 26 29 24 31
REMARK Flexibility Score: inf
ROOT
ATOM      1  O   UNL     1    -116.953 -98.866  36.395  1.00  0.00    -0.458 OA
ENDROOT
BRANCH   1   2
ATOM      2  C   UNL     1    -116.725 -99.970  35.513  1.00  0.00     0.339 C 
ATOM      3  C   UNL     1    -115.181 -98.820  34.105  1.00  0.00     0.199 C 
ATOM      4  C   UNL     1    -116.228 -98.687  32.957  1.00  0.00     0.180 C 
ATOM      5  O   UNL     1    -115.415 -99.937  34.957  1.00  0.00    -0.328 OA
ATOM      6  C   UNL     1    -117.682 -98.827  33.455  1.00  0.00     0.181 C 
ATOM      7  C   UNL     1    -117.801-100.024  34.412  1.00  0.00     0.214 C 
BRANCH   3   8
ATOM      8  C   UNL     1    -114.936 -97.555  34.893  1.00  0.00     0.073 C 
ATOM      9  O   UNL     1    -114.126 -97.574  35.856  1.00  0.00    -0.547 OA
ATOM     10  O   UNL     1    -115.564 -96.360  34.561  1.00  0.00    -0.547 OA
ENDBRANCH   3   8
BRANCH   4  11
ATOM     11  O   UNL     1    -115.970 -99.626  31.939  1.00  0.00    -0.387 OA
ATOM     12  H   UNL     1    -115.249 -99.267  31.362  1.00  0.00     0.211 HD
ENDBRANCH   4  11
BRANCH   6  13
ATOM     13  O   UNL     1    -118.094 -97.648  34.098  1.00  0.00    -0.387 OA
ATOM     14  H   UNL     1    -118.640 -97.138  33.443  1.00  0.00     0.211 HD
ENDBRANCH   6  13
BRANCH   7  15
ATOM     15  O   UNL     1    -119.095-100.125  34.954  1.00  0.00    -0.384 OA
ATOM     16  H   UNL     1    -119.020-100.148  35.942  1.00  0.00     0.211 HD
ENDBRANCH   7  15
ENDBRANCH   1   2
BRANCH   1  17
ATOM     17  C   UNL     1    -117.034 -98.888  37.800  1.00  0.00     0.172 A 
ATOM     18  C   UNL     1    -118.090 -99.483  38.536  1.00  0.00     0.201 A 
ATOM     19  C   UNL     1    -115.975 -98.287  38.482  1.00  0.00     0.098 A 
ATOM     20  C   UNL     1    -118.073 -99.432  39.956  1.00  0.00     0.176 A 
ATOM     21  C   UNL     1    -115.935 -98.257  39.872  1.00  0.00     0.146 A 
ATOM     22  C   UNL     1    -116.980 -98.829  40.626  1.00  0.00     0.111 A 
ATOM     23  O   UNL     1    -114.901 -97.677  40.473  1.00  0.00    -0.456 OA
ATOM     24  C   UNL     1    -116.876 -98.763  42.034  1.00  0.00     0.197 A 
ATOM     25  C   UNL     1    -114.776 -97.591  41.796  1.00  0.00     0.138 A 
ATOM     26  C   UNL     1    -115.769 -98.145  42.618  1.00  0.00     0.100 A 
ATOM     27  O   UNL     1    -117.760 -99.258  42.785  1.00  0.00    -0.289 OA
BRANCH  18  28
ATOM     28  O   UNL     1    -119.123-100.124  37.849  1.00  0.00    -0.502 OA
ATOM     29  H   UNL     1    -119.142-100.286  36.853  1.00  0.00     0.293 HD
ENDBRANCH  18  28
BRANCH  20  30
ATOM     30  O   UNL     1    -119.124 -99.958  40.718  1.00  0.00    -0.504 OA
ATOM     31  H   UNL     1    -119.366-100.936  40.769  1.00  0.00     0.293 HD
ENDBRANCH  20  30
BRANCH  25  32
ATOM     32  C   UNL     1    -113.577 -96.920  42.358  1.00  0.00     0.017 A 
ATOM     33  C   UNL     1    -113.612 -95.536  42.613  1.00  0.00     0.012 A 
ATOM     34  C   UNL     1    -112.407 -97.639  42.677  1.00  0.00     0.012 A 
ATOM     35  C   UNL     1    -112.498 -94.884  43.151  1.00  0.00     0.001 A 
ATOM     36  C   UNL     1    -111.296 -96.982  43.215  1.00  0.00     0.001 A 
ATOM     37  C   UNL     1    -111.341 -95.605  43.450  1.00  0.00     0.000 A 
ENDBRANCH  25  32
ENDBRANCH   1  17
TORSDOF 9
ENDMDL
