MODEL 1
REMARK VINA RESULT:    -4.138      0.000      0.000
REMARK INTER + INTRA:          -5.091
REMARK INTER:                  -4.985
REMARK INTRA:                  -0.107
REMARK UNBOUND:                -0.107
REMARK SMILES NC(=O)C[C@@H]([NH3+])C(=O)[O-]
REMARK SMILES IDX 4 1 5 2 6 3 7 7 8 8 9 9 2 10 3 11 1 12
REMARK H PARENT 6 4 6 5 6 6 1 13 1 14
REMARK Flexibility Score: inf
ROOT
ATOM      1  C   UNL     1      11.272  41.580  14.457  1.00  0.00     0.171 C 
ENDROOT
BRANCH   1   2
ATOM      2  C   UNL     1      10.835  40.505  13.439  1.00  0.00     0.237 C 
BRANCH   2   3
ATOM      3  N   UNL     1      11.435  39.197  13.736  1.00  0.00    -0.350 N 
ATOM      4  H   UNL     1      11.919  39.203  14.664  1.00  0.00     0.345 HD
ATOM      5  H   UNL     1      10.689  38.463  13.749  1.00  0.00     0.345 HD
ATOM      6  H   UNL     1      12.126  38.947  12.992  1.00  0.00     0.345 HD
ENDBRANCH   2   3
BRANCH   2   7
ATOM      7  C   UNL     1       9.332  40.407  13.353  1.00  0.00     0.100 C 
ATOM      8  O   UNL     1       8.793  39.324  13.001  1.00  0.00    -0.544 OA
ATOM      9  O   UNL     1       8.533  41.516  13.606  1.00  0.00    -0.544 OA
ENDBRANCH   2   7
ENDBRANCH   1   2
BRANCH   1  10
ATOM     10  C   UNL     1      11.515  42.926  13.833  1.00  0.00     0.223 C 
ATOM     11  O   UNL     1      12.389  43.694  14.319  1.00  0.00    -0.275 OA
ATOM     12  N   UNL     1      10.751  43.351  12.705  1.00  0.00    -0.369 N 
ATOM     13  H   UNL     1      10.914  44.292  12.283  1.00  0.00     0.159 HD
ATOM     14  H   UNL     1      10.021  42.731  12.291  1.00  0.00     0.159 HD
ENDBRANCH   1  10
TORSDOF 4
ENDMDL
MODEL 2
REMARK VINA RESULT:    -3.836     11.230     11.682
REMARK INTER + INTRA:          -4.727
REMARK INTER:                  -4.494
REMARK INTRA:                  -0.233
REMARK UNBOUND:                -0.107
REMARK SMILES NC(=O)C[C@@H]([NH3+])C(=O)[O-]
REMARK SMILES IDX 4 1 5 2 6 3 7 7 8 8 9 9 2 10 3 11 1 12
REMARK H PARENT 6 4 6 5 6 6 1 13 1 14
REMARK Flexibility Score: inf
ROOT
ATOM      1  C   UNL     1      17.640  31.010  13.994  1.00  0.00     0.171 C 
ENDROOT
BRANCH   1   2
ATOM      2  C   UNL     1      16.406  31.151  14.913  1.00  0.00     0.237 C 
BRANCH   2   3
ATOM      3  N   UNL     1      16.223  32.535  15.371  1.00  0.00    -0.350 N 
ATOM      4  H   UNL     1      17.142  33.028  15.464  1.00  0.00     0.345 HD
ATOM      5  H   UNL     1      15.628  33.055  14.687  1.00  0.00     0.345 HD
ATOM      6  H   UNL     1      15.738  32.540  16.297  1.00  0.00     0.345 HD
ENDBRANCH   2   3
BRANCH   2   7
ATOM      7  C   UNL     1      15.159  30.629  14.244  1.00  0.00     0.100 C 
ATOM      8  O   UNL     1      15.153  29.476  13.738  1.00  0.00    -0.544 OA
ATOM      9  O   UNL     1      14.028  31.429  14.132  1.00  0.00    -0.544 OA
ENDBRANCH   2   7
ENDBRANCH   1   2
BRANCH   1  10
ATOM     10  C   UNL     1      17.800  32.155  13.034  1.00  0.00     0.223 C 
ATOM     11  O   UNL     1      16.865  32.443  12.240  1.00  0.00    -0.275 OA
ATOM     12  N   UNL     1      19.012  32.908  13.000  1.00  0.00    -0.369 N 
ATOM     13  H   UNL     1      19.125  33.695  12.322  1.00  0.00     0.159 HD
ATOM     14  H   UNL     1      19.800  32.682  13.647  1.00  0.00     0.159 HD
ENDBRANCH   1  10
TORSDOF 4
ENDMDL
MODEL 3
REMARK VINA RESULT:    -3.788     10.641     11.962
REMARK INTER + INTRA:          -4.669
REMARK INTER:                  -4.195
REMARK INTRA:                  -0.475
REMARK UNBOUND:                -0.107
REMARK SMILES NC(=O)C[C@@H]([NH3+])C(=O)[O-]
REMARK SMILES IDX 4 1 5 2 6 3 7 7 8 8 9 9 2 10 3 11 1 12
REMARK H PARENT 6 4 6 5 6 6 1 13 1 14
REMARK Flexibility Score: inf
ROOT
ATOM      1  C   UNL     1      15.730  30.309  14.356  1.00  0.00     0.171 C 
ENDROOT
BRANCH   1   2
ATOM      2  C   UNL     1      15.345  31.804  14.364  1.00  0.00     0.237 C 
BRANCH   2   3
ATOM      3  N   UNL     1      16.129  32.564  15.349  1.00  0.00    -0.350 N 
ATOM      4  H   UNL     1      17.141  32.596  15.084  1.00  0.00     0.345 HD
ATOM      5  H   UNL     1      15.764  33.542  15.408  1.00  0.00     0.345 HD
ATOM      6  H   UNL     1      16.036  32.123  16.292  1.00  0.00     0.345 HD
ENDBRANCH   2   3
BRANCH   2   7
ATOM      7  C   UNL     1      15.463  32.412  12.989  1.00  0.00     0.100 C 
ATOM      8  O   UNL     1      14.437  32.849  12.405  1.00  0.00    -0.544 OA
ATOM      9  O   UNL     1      16.688  32.449  12.333  1.00  0.00    -0.544 OA
ENDBRANCH   2   7
ENDBRANCH   1   2
BRANCH   1  10
ATOM     10  C   UNL     1      17.202  30.073  14.559  1.00  0.00     0.223 C 
ATOM     11  O   UNL     1      17.666  29.982  15.727  1.00  0.00    -0.275 OA
ATOM     12  N   UNL     1      18.080  29.969  13.439  1.00  0.00    -0.369 N 
ATOM     13  H   UNL     1      19.103  29.818  13.584  1.00  0.00     0.159 HD
ATOM     14  H   UNL     1      17.714  30.045  12.464  1.00  0.00     0.159 HD
ENDBRANCH   1  10
TORSDOF 4
ENDMDL
MODEL 4
REMARK VINA RESULT:    -3.759     10.756     12.140
REMARK INTER + INTRA:          -4.634
REMARK INTER:                  -4.199
REMARK INTRA:                  -0.435
REMARK UNBOUND:                -0.107
REMARK SMILES NC(=O)C[C@@H]([NH3+])C(=O)[O-]
REMARK SMILES IDX 4 1 5 2 6 3 7 7 8 8 9 9 2 10 3 11 1 12
REMARK H PARENT 6 4 6 5 6 6 1 13 1 14
REMARK Flexibility Score: inf
ROOT
ATOM      1  C   UNL     1      15.383  31.624  13.073  1.00  0.00     0.171 C 
ENDROOT
BRANCH   1   2
ATOM      2  C   UNL     1      16.514  32.111  14.005  1.00  0.00     0.237 C 
BRANCH   2   3
ATOM      3  N   UNL     1      15.995  32.556  15.306  1.00  0.00    -0.350 N 
ATOM      4  H   UNL     1      15.314  31.865  15.699  1.00  0.00     0.345 HD
ATOM      5  H   UNL     1      16.788  32.669  15.979  1.00  0.00     0.345 HD
ATOM      6  H   UNL     1      15.521  33.482  15.201  1.00  0.00     0.345 HD
ENDBRANCH   2   3
BRANCH   2   7
ATOM      7  C   UNL     1      17.580  31.058  14.175  1.00  0.00     0.100 C 
ATOM      8  O   UNL     1      18.503  30.955  13.324  1.00  0.00    -0.544 OA
ATOM      9  O   UNL     1      17.528  30.161  15.236  1.00  0.00    -0.544 OA
ENDBRANCH   2   7
ENDBRANCH   1   2
BRANCH   1  10
ATOM     10  C   UNL     1      14.268  30.929  13.805  1.00  0.00     0.223 C 
ATOM     11  O   UNL     1      13.210  31.557  14.078  1.00  0.00    -0.275 OA
ATOM     12  N   UNL     1      14.405  29.567  14.210  1.00  0.00    -0.369 N 
ATOM     13  H   UNL     1      13.633  29.092  14.728  1.00  0.00     0.159 HD
ATOM     14  H   UNL     1      15.275  29.032  13.995  1.00  0.00     0.159 HD
ENDBRANCH   1  10
TORSDOF 4
ENDMDL
MODEL 5
REMARK VINA RESULT:    -3.650     11.486     12.452
REMARK INTER + INTRA:          -4.503
REMARK INTER:                  -4.107
REMARK INTRA:                  -0.396
REMARK UNBOUND:                -0.107
REMARK SMILES NC(=O)C[C@@H]([NH3+])C(=O)[O-]
REMARK SMILES IDX 4 1 5 2 6 3 7 7 8 8 9 9 2 10 3 11 1 12
REMARK H PARENT 6 4 6 5 6 6 1 13 1 14
REMARK Flexibility Score: inf
ROOT
ATOM      1  C   UNL     1      17.570  30.795  14.853  1.00  0.00     0.171 C 
ENDROOT
BRANCH   1   2
ATOM      2  C   UNL     1      18.133  30.472  13.452  1.00  0.00     0.237 C 
BRANCH   2   3
ATOM      3  N   UNL     1      17.534  29.254  12.891  1.00  0.00    -0.350 N 
ATOM      4  H   UNL     1      17.911  29.050  11.936  1.00  0.00     0.345 HD
ATOM      5  H   UNL     1      17.741  28.441  13.516  1.00  0.00     0.345 HD
ATOM      6  H   UNL     1      16.496  29.364  12.831  1.00  0.00     0.345 HD
ENDBRANCH   2   3
BRANCH   2   7
ATOM      7  C   UNL     1      17.973  31.640  12.511  1.00  0.00     0.100 C 
ATOM      8  O   UNL     1      17.212  31.542  11.512  1.00  0.00    -0.544 OA
ATOM      9  O   UNL     1      18.697  32.811  12.704  1.00  0.00    -0.544 OA
ENDBRANCH   2   7
ENDBRANCH   1   2
BRANCH   1  10
ATOM     10  C   UNL     1      16.169  31.341  14.820  1.00  0.00     0.223 C 
ATOM     11  O   UNL     1      15.233  30.634  14.361  1.00  0.00    -0.275 OA
ATOM     12  N   UNL     1      15.895  32.661  15.288  1.00  0.00    -0.369 N 
ATOM     13  H   UNL     1      14.922  33.041  15.251  1.00  0.00     0.159 HD
ATOM     14  H   UNL     1      16.659  33.262  15.669  1.00  0.00     0.159 HD
ENDBRANCH   1  10
TORSDOF 4
ENDMDL
MODEL 6
REMARK VINA RESULT:    -3.610     11.569     12.391
REMARK INTER + INTRA:          -4.455
REMARK INTER:                  -4.034
REMARK INTRA:                  -0.422
REMARK UNBOUND:                -0.107
REMARK SMILES NC(=O)C[C@@H]([NH3+])C(=O)[O-]
REMARK SMILES IDX 4 1 5 2 6 3 7 7 8 8 9 9 2 10 3 11 1 12
REMARK H PARENT 6 4 6 5 6 6 1 13 1 14
REMARK Flexibility Score: inf
ROOT
ATOM      1  C   UNL     1      17.896  31.666  13.590  1.00  0.00     0.171 C 
ENDROOT
BRANCH   1   2
ATOM      2  C   UNL     1      17.490  30.687  12.467  1.00  0.00     0.237 C 
BRANCH   2   3
ATOM      3  N   UNL     1      17.930  29.315  12.753  1.00  0.00    -0.350 N 
ATOM      4  H   UNL     1      18.791  29.072  12.210  1.00  0.00     0.345 HD
ATOM      5  H   UNL     1      18.137  29.219  13.774  1.00  0.00     0.345 HD
ATOM      6  H   UNL     1      17.170  28.640  12.508  1.00  0.00     0.345 HD
ENDBRANCH   2   3
BRANCH   2   7
ATOM      7  C   UNL     1      16.006  30.738  12.201  1.00  0.00     0.100 C 
ATOM      8  O   UNL     1      15.486  31.789  11.741  1.00  0.00    -0.544 OA
ATOM      9  O   UNL     1      15.193  29.653  12.508  1.00  0.00    -0.544 OA
ENDBRANCH   2   7
ENDBRANCH   1   2
BRANCH   1  10
ATOM     10  C   UNL     1      17.171  31.419  14.885  1.00  0.00     0.223 C 
ATOM     11  O   UNL     1      17.347  30.336  15.505  1.00  0.00    -0.275 OA
ATOM     12  N   UNL     1      16.269  32.394  15.408  1.00  0.00    -0.369 N 
ATOM     13  H   UNL     1      15.758  32.213  16.300  1.00  0.00     0.159 HD
ATOM     14  H   UNL     1      16.109  33.296  14.906  1.00  0.00     0.159 HD
ENDBRANCH   1  10
TORSDOF 4
ENDMDL
MODEL 7
REMARK VINA RESULT:    -3.592     11.449     12.610
REMARK INTER + INTRA:          -4.434
REMARK INTER:                  -4.231
REMARK INTRA:                  -0.203
REMARK UNBOUND:                -0.107
REMARK SMILES NC(=O)C[C@@H]([NH3+])C(=O)[O-]
REMARK SMILES IDX 4 1 5 2 6 3 7 7 8 8 9 9 2 10 3 11 1 12
REMARK H PARENT 6 4 6 5 6 6 1 13 1 14
REMARK Flexibility Score: inf
ROOT
ATOM      1  C   UNL     1      17.198  31.448  13.415  1.00  0.00     0.171 C 
ENDROOT
BRANCH   1   2
ATOM      2  C   UNL     1      16.952  29.924  13.409  1.00  0.00     0.237 C 
BRANCH   2   3
ATOM      3  N   UNL     1      17.937  29.216  12.579  1.00  0.00    -0.350 N 
ATOM      4  H   UNL     1      17.467  28.634  11.847  1.00  0.00     0.345 HD
ATOM      5  H   UNL     1      18.563  29.910  12.109  1.00  0.00     0.345 HD
ATOM      6  H   UNL     1      18.528  28.597  13.180  1.00  0.00     0.345 HD
ENDBRANCH   2   3
BRANCH   2   7
ATOM      7  C   UNL     1      16.920  29.365  14.810  1.00  0.00     0.100 C 
ATOM      8  O   UNL     1      16.143  28.414  15.089  1.00  0.00    -0.544 OA
ATOM      9  O   UNL     1      17.701  29.924  15.814  1.00  0.00    -0.544 OA
ENDBRANCH   2   7
ENDBRANCH   1   2
BRANCH   1  10
ATOM     10  C   UNL     1      16.049  32.234  13.985  1.00  0.00     0.223 C 
ATOM     11  O   UNL     1      15.092  32.575  13.239  1.00  0.00    -0.275 OA
ATOM     12  N   UNL     1      16.042  32.613  15.361  1.00  0.00    -0.369 N 
ATOM     13  H   UNL     1      15.249  33.169  15.750  1.00  0.00     0.159 HD
ATOM     14  H   UNL     1      16.828  32.341  15.993  1.00  0.00     0.159 HD
ENDBRANCH   1  10
TORSDOF 4
ENDMDL
MODEL 8
REMARK VINA RESULT:    -3.568     11.023     11.847
REMARK INTER + INTRA:          -4.404
REMARK INTER:                  -3.915
REMARK INTRA:                  -0.489
REMARK UNBOUND:                -0.107
REMARK SMILES NC(=O)C[C@@H]([NH3+])C(=O)[O-]
REMARK SMILES IDX 4 1 5 2 6 3 7 7 8 8 9 9 2 10 3 11 1 12
REMARK H PARENT 6 4 6 5 6 6 1 13 1 14
REMARK Flexibility Score: inf
ROOT
ATOM      1  C   UNL     1      16.090  30.798  13.475  1.00  0.00     0.171 C 
ENDROOT
BRANCH   1   2
ATOM      2  C   UNL     1      14.974  29.741  13.622  1.00  0.00     0.237 C 
BRANCH   2   3
ATOM      3  N   UNL     1      15.211  28.854  14.769  1.00  0.00    -0.350 N 
ATOM      4  H   UNL     1      15.102  27.848  14.500  1.00  0.00     0.345 HD
ATOM      5  H   UNL     1      16.180  29.002  15.133  1.00  0.00     0.345 HD
ATOM      6  H   UNL     1      14.536  29.077  15.535  1.00  0.00     0.345 HD
ENDBRANCH   2   3
BRANCH   2   7
ATOM      7  C   UNL     1      13.612  30.384  13.703  1.00  0.00     0.100 C 
ATOM      8  O   UNL     1      12.576  29.671  13.632  1.00  0.00    -0.544 OA
ATOM      9  O   UNL     1      13.485  31.764  13.804  1.00  0.00    -0.544 OA
ENDBRANCH   2   7
ENDBRANCH   1   2
BRANCH   1  10
ATOM     10  C   UNL     1      16.666  31.241  14.792  1.00  0.00     0.223 C 
ATOM     11  O   UNL     1      17.578  30.561  15.336  1.00  0.00    -0.275 OA
ATOM     12  N   UNL     1      16.176  32.414  15.440  1.00  0.00    -0.369 N 
ATOM     13  H   UNL     1      16.571  32.710  16.361  1.00  0.00     0.159 HD
ATOM     14  H   UNL     1      15.419  32.987  15.006  1.00  0.00     0.159 HD
ENDBRANCH   1  10
TORSDOF 4
ENDMDL
MODEL 9
REMARK VINA RESULT:    -3.564     12.010     12.746
REMARK INTER + INTRA:          -4.399
REMARK INTER:                  -4.062
REMARK INTRA:                  -0.338
REMARK UNBOUND:                -0.107
REMARK SMILES NC(=O)C[C@@H]([NH3+])C(=O)[O-]
REMARK SMILES IDX 4 1 5 2 6 3 7 7 8 8 9 9 2 10 3 11 1 12
REMARK H PARENT 6 4 6 5 6 6 1 13 1 14
REMARK Flexibility Score: inf
ROOT
ATOM      1  C   UNL     1      16.672  31.688  13.030  1.00  0.00     0.171 C 
ENDROOT
BRANCH   1   2
ATOM      2  C   UNL     1      17.957  32.069  12.262  1.00  0.00     0.237 C 
BRANCH   2   3
ATOM      3  N   UNL     1      18.869  32.872  13.089  1.00  0.00    -0.350 N 
ATOM      4  H   UNL     1      19.834  32.885  12.685  1.00  0.00     0.345 HD
ATOM      5  H   UNL     1      18.515  33.854  13.149  1.00  0.00     0.345 HD
ATOM      6  H   UNL     1      18.908  32.478  14.056  1.00  0.00     0.345 HD
ENDBRANCH   2   3
BRANCH   2   7
ATOM      7  C   UNL     1      18.652  30.849  11.711  1.00  0.00     0.100 C 
ATOM      8  O   UNL     1      17.993  29.984  11.076  1.00  0.00    -0.544 OA
ATOM      9  O   UNL     1      20.007  30.641  11.941  1.00  0.00    -0.544 OA
ENDBRANCH   2   7
ENDBRANCH   1   2
BRANCH   1  10
ATOM     10  C   UNL     1      16.865  31.633  14.520  1.00  0.00     0.223 C 
ATOM     11  O   UNL     1      17.675  30.806  15.017  1.00  0.00    -0.275 OA
ATOM     12  N   UNL     1      16.122  32.498  15.379  1.00  0.00    -0.369 N 
ATOM     13  H   UNL     1      16.250  32.448  16.415  1.00  0.00     0.159 HD
ATOM     14  H   UNL     1      15.444  33.187  14.986  1.00  0.00     0.159 HD
ENDBRANCH   1  10
TORSDOF 4
ENDMDL
