MODEL 1
REMARK VINA RESULT:    -5.366      0.000      0.000
REMARK INTER + INTRA:          -5.523
REMARK INTER:                  -5.523
REMARK INTRA:                   0.000
REMARK UNBOUND:                 0.000
REMARK SMILES C[C@H]1CC[C@@H]2C(C)(C)[C@@H]3C[C@@]21CC[C@]3(C)O
REMARK SMILES IDX 1 1 2 2 3 3 4 4 5 5 11 6 12 7 13 8 14 9 9 10 10 11 6 12 7 13
REMARK SMILES IDX 8 14 15 15 16 16
REMARK H PARENT 16 17
REMARK Flexibility Score: inf
ROOT
ATOM      1  C   UNL     1     114.886 114.598 116.922  1.00  0.00     0.008 C 
ATOM      2  C   UNL     1     114.587 114.888 115.439  1.00  0.00    -0.008 C 
ATOM      3  C   UNL     1     113.970 116.279 115.288  1.00  0.00     0.004 C 
ATOM      4  C   UNL     1     115.140 117.233 115.076  1.00  0.00     0.005 C 
ATOM      5  C   UNL     1     116.272 116.409 114.426  1.00  0.00     0.001 C 
ATOM      6  C   UNL     1     115.845 114.927 114.529  1.00  0.00    -0.023 C 
ATOM      7  C   UNL     1     117.031 114.014 114.965  1.00  0.00     0.010 C 
ATOM      8  C   UNL     1     118.270 114.173 114.048  1.00  0.00     0.036 C 
ATOM      9  C   UNL     1     117.941 114.341 112.530  1.00  0.00     0.065 C 
ATOM     10  C   UNL     1     116.622 115.191 112.309  1.00  0.00     0.027 C 
ATOM     11  C   UNL     1     115.491 114.536 113.093  1.00  0.00     0.014 C 
ATOM     12  C   UNL     1     116.608 116.648 112.907  1.00  0.00    -0.026 C 
ATOM     13  C   UNL     1     115.536 117.482 112.146  1.00  0.00     0.012 C 
ATOM     14  C   UNL     1     117.939 117.423 112.750  1.00  0.00     0.012 C 
ATOM     15  C   UNL     1     117.809 112.933 111.891  1.00  0.00     0.042 C 
ENDROOT
BRANCH   9  16
ATOM     16  O   UNL     1     119.036 114.971 111.909  1.00  0.00    -0.390 OA
ATOM     17  H   UNL     1     118.680 115.591 111.220  1.00  0.00     0.211 HD
ENDBRANCH   9  16
TORSDOF 1
ENDMDL
MODEL 2
REMARK VINA RESULT:    -5.358      2.471      4.572
REMARK INTER + INTRA:          -5.515
REMARK INTER:                  -5.515
REMARK INTRA:                   0.000
REMARK UNBOUND:                 0.000
REMARK SMILES C[C@H]1CC[C@@H]2C(C)(C)[C@@H]3C[C@@]21CC[C@]3(C)O
REMARK SMILES IDX 1 1 2 2 3 3 4 4 5 5 11 6 12 7 13 8 14 9 9 10 10 11 6 12 7 13
REMARK SMILES IDX 8 14 15 15 16 16
REMARK H PARENT 16 17
REMARK Flexibility Score: inf
ROOT
ATOM      1  C   UNL     1     118.423 118.465 116.830  1.00  0.00     0.008 C 
ATOM      2  C   UNL     1     118.677 118.170 115.339  1.00  0.00    -0.008 C 
ATOM      3  C   UNL     1     119.253 116.763 115.171  1.00  0.00     0.004 C 
ATOM      4  C   UNL     1     118.054 115.840 114.989  1.00  0.00     0.005 C 
ATOM      5  C   UNL     1     116.927 116.694 114.369  1.00  0.00     0.001 C 
ATOM      6  C   UNL     1     117.396 118.165 114.462  1.00  0.00    -0.023 C 
ATOM      7  C   UNL     1     116.246 119.108 114.928  1.00  0.00     0.010 C 
ATOM      8  C   UNL     1     114.979 118.982 114.043  1.00  0.00     0.036 C 
ATOM      9  C   UNL     1     115.266 118.808 112.516  1.00  0.00     0.065 C 
ATOM     10  C   UNL     1     116.556 117.924 112.261  1.00  0.00     0.027 C 
ATOM     11  C   UNL     1     117.723 118.548 113.017  1.00  0.00     0.014 C 
ATOM     12  C   UNL     1     116.546 116.466 112.859  1.00  0.00    -0.026 C 
ATOM     13  C   UNL     1     117.577 115.606 112.070  1.00  0.00     0.012 C 
ATOM     14  C   UNL     1     115.192 115.726 112.735  1.00  0.00     0.012 C 
ATOM     15  C   UNL     1     115.419 120.213 111.875  1.00  0.00     0.042 C 
ENDROOT
BRANCH   9  16
ATOM     16  O   UNL     1     114.139 118.208 111.924  1.00  0.00    -0.390 OA
ATOM     17  H   UNL     1     113.344 118.754 112.160  1.00  0.00     0.211 HD
ENDBRANCH   9  16
TORSDOF 1
ENDMDL
MODEL 3
REMARK VINA RESULT:    -5.346      1.739      3.103
REMARK INTER + INTRA:          -5.502
REMARK INTER:                  -5.502
REMARK INTRA:                   0.000
REMARK UNBOUND:                 0.000
REMARK SMILES C[C@H]1CC[C@@H]2C(C)(C)[C@@H]3C[C@@]21CC[C@]3(C)O
REMARK SMILES IDX 1 1 2 2 3 3 4 4 5 5 11 6 12 7 13 8 14 9 9 10 10 11 6 12 7 13
REMARK SMILES IDX 8 14 15 15 16 16
REMARK H PARENT 16 17
REMARK Flexibility Score: inf
ROOT
ATOM      1  C   UNL     1     114.627 118.268 116.852  1.00  0.00     0.008 C 
ATOM      2  C   UNL     1     114.907 118.556 115.364  1.00  0.00    -0.008 C 
ATOM      3  C   UNL     1     116.251 119.269 115.208  1.00  0.00     0.004 C 
ATOM      4  C   UNL     1     117.289 118.168 115.029  1.00  0.00     0.005 C 
ATOM      5  C   UNL     1     116.555 116.964 114.399  1.00  0.00     0.001 C 
ATOM      6  C   UNL     1     115.044 117.285 114.483  1.00  0.00    -0.023 C 
ATOM      7  C   UNL     1     114.217 116.045 114.939  1.00  0.00     0.010 C 
ATOM      8  C   UNL     1     114.473 114.801 114.050  1.00  0.00     0.036 C 
ATOM      9  C   UNL     1     114.629 115.109 112.526  1.00  0.00     0.065 C 
ATOM     10  C   UNL     1     115.383 116.481 112.282  1.00  0.00     0.027 C 
ATOM     11  C   UNL     1     114.640 117.578 113.036  1.00  0.00     0.014 C 
ATOM     12  C   UNL     1     116.830 116.614 112.889  1.00  0.00    -0.026 C 
ATOM     13  C   UNL     1     117.590 117.728 112.110  1.00  0.00     0.012 C 
ATOM     14  C   UNL     1     117.701 115.340 112.767  1.00  0.00     0.012 C 
ATOM     15  C   UNL     1     113.221 115.124 111.875  1.00  0.00     0.042 C 
ENDROOT
BRANCH   9  16
ATOM     16  O   UNL     1     115.342 114.049 111.934  1.00  0.00    -0.390 OA
ATOM     17  H   UNL     1     116.253 114.036 112.331  1.00  0.00     0.211 HD
ENDBRANCH   9  16
TORSDOF 1
ENDMDL
MODEL 4
REMARK VINA RESULT:    -5.340      1.819      3.329
REMARK INTER + INTRA:          -5.496
REMARK INTER:                  -5.496
REMARK INTRA:                   0.000
REMARK UNBOUND:                 0.000
REMARK SMILES C[C@H]1CC[C@@H]2C(C)(C)[C@@H]3C[C@@]21CC[C@]3(C)O
REMARK SMILES IDX 1 1 2 2 3 3 4 4 5 5 11 6 12 7 13 8 14 9 9 10 10 11 6 12 7 13
REMARK SMILES IDX 8 14 15 15 16 16
REMARK H PARENT 16 17
REMARK Flexibility Score: inf
ROOT
ATOM      1  C   UNL     1     118.734 114.790 116.884  1.00  0.00     0.008 C 
ATOM      2  C   UNL     1     118.495 114.463 115.398  1.00  0.00    -0.008 C 
ATOM      3  C   UNL     1     117.196 113.672 115.234  1.00  0.00     0.004 C 
ATOM      4  C   UNL     1     116.101 114.710 115.020  1.00  0.00     0.005 C 
ATOM      5  C   UNL     1     116.776 115.943 114.380  1.00  0.00     0.001 C 
ATOM      6  C   UNL     1     118.301 115.709 114.492  1.00  0.00    -0.023 C 
ATOM      7  C   UNL     1     119.050 117.001 114.939  1.00  0.00     0.010 C 
ATOM      8  C   UNL     1     118.738 118.214 114.025  1.00  0.00     0.036 C 
ATOM      9  C   UNL     1     118.624 117.872 112.505  1.00  0.00     0.065 C 
ATOM     10  C   UNL     1     117.952 116.456 112.273  1.00  0.00     0.027 C 
ATOM     11  C   UNL     1     118.743 115.415 113.058  1.00  0.00     0.014 C 
ATOM     12  C   UNL     1     116.506 116.252 112.861  1.00  0.00    -0.026 C 
ATOM     13  C   UNL     1     115.822 115.084 112.090  1.00  0.00     0.012 C 
ATOM     14  C   UNL     1     115.566 117.472 112.704  1.00  0.00     0.012 C 
ATOM     15  C   UNL     1     120.042 117.926 111.875  1.00  0.00     0.042 C 
ENDROOT
BRANCH   9  16
ATOM     16  O   UNL     1     117.863 118.880 111.884  1.00  0.00    -0.390 OA
ATOM     17  H   UNL     1     118.315 119.749 112.048  1.00  0.00     0.211 HD
ENDBRANCH   9  16
TORSDOF 1
ENDMDL
MODEL 5
REMARK VINA RESULT:    -5.283      2.226      3.397
REMARK INTER + INTRA:          -5.437
REMARK INTER:                  -5.437
REMARK INTRA:                   0.000
REMARK UNBOUND:                 0.000
REMARK SMILES C[C@H]1CC[C@@H]2C(C)(C)[C@@H]3C[C@@]21CC[C@]3(C)O
REMARK SMILES IDX 1 1 2 2 3 3 4 4 5 5 11 6 12 7 13 8 14 9 9 10 10 11 6 12 7 13
REMARK SMILES IDX 8 14 15 15 16 16
REMARK H PARENT 16 17
REMARK Flexibility Score: inf
ROOT
ATOM      1  C   UNL     1     115.381 114.198 112.246  1.00  0.00     0.008 C 
ATOM      2  C   UNL     1     115.419 115.706 111.934  1.00  0.00    -0.008 C 
ATOM      3  C   UNL     1     114.120 116.372 112.394  1.00  0.00     0.004 C 
ATOM      4  C   UNL     1     114.369 116.822 113.828  1.00  0.00     0.005 C 
ATOM      5  C   UNL     1     115.887 117.069 113.959  1.00  0.00     0.001 C 
ATOM      6  C   UNL     1     116.534 116.486 112.681  1.00  0.00    -0.023 C 
ATOM      7  C   UNL     1     117.829 115.683 113.005  1.00  0.00     0.010 C 
ATOM      8  C   UNL     1     118.855 116.513 113.819  1.00  0.00     0.036 C 
ATOM      9  C   UNL     1     118.961 118.013 113.395  1.00  0.00     0.065 C 
ATOM     10  C   UNL     1     117.551 118.604 112.977  1.00  0.00     0.027 C 
ATOM     11  C   UNL     1     116.966 117.718 111.883  1.00  0.00     0.014 C 
ATOM     12  C   UNL     1     116.409 118.550 114.060  1.00  0.00    -0.026 C 
ATOM     13  C   UNL     1     115.340 119.623 113.700  1.00  0.00     0.012 C 
ATOM     14  C   UNL     1     116.871 118.877 115.501  1.00  0.00     0.012 C 
ATOM     15  C   UNL     1     119.981 118.131 112.232  1.00  0.00     0.042 C 
ENDROOT
BRANCH   9  16
ATOM     16  O   UNL     1     119.490 118.739 114.479  1.00  0.00    -0.390 OA
ATOM     17  H   UNL     1     118.734 119.007 115.065  1.00  0.00     0.211 HD
ENDBRANCH   9  16
TORSDOF 1
ENDMDL
MODEL 6
REMARK VINA RESULT:    -5.238      2.271      4.647
REMARK INTER + INTRA:          -5.391
REMARK INTER:                  -5.391
REMARK INTRA:                   0.000
REMARK UNBOUND:                 0.000
REMARK SMILES C[C@H]1CC[C@@H]2C(C)(C)[C@@H]3C[C@@]21CC[C@]3(C)O
REMARK SMILES IDX 1 1 2 2 3 3 4 4 5 5 11 6 12 7 13 8 14 9 9 10 10 11 6 12 7 13
REMARK SMILES IDX 8 14 15 15 16 16
REMARK H PARENT 16 17
REMARK Flexibility Score: inf
ROOT
ATOM      1  C   UNL     1     118.876 115.667 112.080  1.00  0.00     0.008 C 
ATOM      2  C   UNL     1     117.345 115.661 111.911  1.00  0.00    -0.008 C 
ATOM      3  C   UNL     1     116.782 114.280 112.252  1.00  0.00     0.004 C 
ATOM      4  C   UNL     1     116.461 114.317 113.741  1.00  0.00     0.005 C 
ATOM      5  C   UNL     1     116.164 115.790 114.095  1.00  0.00     0.001 C 
ATOM      6  C   UNL     1     116.592 116.626 112.867  1.00  0.00    -0.023 C 
ATOM      7  C   UNL     1     117.367 117.912 113.288  1.00  0.00     0.010 C 
ATOM      8  C   UNL     1     116.576 118.777 114.302  1.00  0.00     0.036 C 
ATOM      9  C   UNL     1     115.038 118.854 114.032  1.00  0.00     0.065 C 
ATOM     10  C   UNL     1     114.472 117.479 113.484  1.00  0.00     0.027 C 
ATOM     11  C   UNL     1     115.273 117.089 112.247  1.00  0.00     0.014 C 
ATOM     12  C   UNL     1     114.678 116.212 114.397  1.00  0.00    -0.026 C 
ATOM     13  C   UNL     1     113.622 115.140 113.995  1.00  0.00     0.012 C 
ATOM     14  C   UNL     1     114.471 116.466 115.910  1.00  0.00     0.012 C 
ATOM     15  C   UNL     1     114.766 120.007 113.031  1.00  0.00     0.042 C 
ENDROOT
BRANCH   9  16
ATOM     16  O   UNL     1     114.398 119.199 115.238  1.00  0.00    -0.390 OA
ATOM     17  H   UNL     1     114.737 120.089 115.519  1.00  0.00     0.211 HD
ENDBRANCH   9  16
TORSDOF 1
ENDMDL
MODEL 7
REMARK VINA RESULT:    -5.236      1.820      3.244
REMARK INTER + INTRA:          -5.389
REMARK INTER:                  -5.389
REMARK INTRA:                   0.000
REMARK UNBOUND:                 0.000
REMARK SMILES C[C@H]1CC[C@@H]2C(C)(C)[C@@H]3C[C@@]21CC[C@]3(C)O
REMARK SMILES IDX 1 1 2 2 3 3 4 4 5 5 11 6 12 7 13 8 14 9 9 10 10 11 6 12 7 13
REMARK SMILES IDX 8 14 15 15 16 16
REMARK H PARENT 16 17
REMARK Flexibility Score: inf
ROOT
ATOM      1  C   UNL     1     114.375 117.514 112.074  1.00  0.00     0.008 C 
ATOM      2  C   UNL     1     115.907 117.512 111.916  1.00  0.00    -0.008 C 
ATOM      3  C   UNL     1     116.475 118.888 112.269  1.00  0.00     0.004 C 
ATOM      4  C   UNL     1     116.785 118.842 113.760  1.00  0.00     0.005 C 
ATOM      5  C   UNL     1     117.072 117.365 114.108  1.00  0.00     0.001 C 
ATOM      6  C   UNL     1     116.647 116.538 112.872  1.00  0.00    -0.023 C 
ATOM      7  C   UNL     1     115.862 115.254 113.280  1.00  0.00     0.010 C 
ATOM      8  C   UNL     1     116.641 114.379 114.294  1.00  0.00     0.036 C 
ATOM      9  C   UNL     1     118.180 114.295 114.035  1.00  0.00     0.065 C 
ATOM     10  C   UNL     1     118.759 115.669 113.499  1.00  0.00     0.027 C 
ATOM     11  C   UNL     1     117.968 116.071 112.258  1.00  0.00     0.014 C 
ATOM     12  C   UNL     1     118.553 116.932 114.417  1.00  0.00    -0.026 C 
ATOM     13  C   UNL     1     119.618 118.000 114.028  1.00  0.00     0.012 C 
ATOM     14  C   UNL     1     118.748 116.669 115.930  1.00  0.00     0.012 C 
ATOM     15  C   UNL     1     118.453 113.145 113.029  1.00  0.00     0.042 C 
ENDROOT
BRANCH   9  16
ATOM     16  O   UNL     1     118.811 113.940 115.243  1.00  0.00    -0.390 OA
ATOM     17  H   UNL     1     119.781 114.130 115.148  1.00  0.00     0.211 HD
ENDBRANCH   9  16
TORSDOF 1
ENDMDL
MODEL 8
REMARK VINA RESULT:    -5.208      1.943      4.367
REMARK INTER + INTRA:          -5.360
REMARK INTER:                  -5.360
REMARK INTRA:                   0.000
REMARK UNBOUND:                 0.000
REMARK SMILES C[C@H]1CC[C@@H]2C(C)(C)[C@@H]3C[C@@]21CC[C@]3(C)O
REMARK SMILES IDX 1 1 2 2 3 3 4 4 5 5 11 6 12 7 13 8 14 9 9 10 10 11 6 12 7 13
REMARK SMILES IDX 8 14 15 15 16 16
REMARK H PARENT 16 17
REMARK Flexibility Score: inf
ROOT
ATOM      1  C   UNL     1     117.523 118.874 112.084  1.00  0.00     0.008 C 
ATOM      2  C   UNL     1     117.534 117.343 111.916  1.00  0.00    -0.008 C 
ATOM      3  C   UNL     1     118.916 116.784 112.260  1.00  0.00     0.004 C 
ATOM      4  C   UNL     1     118.878 116.465 113.749  1.00  0.00     0.005 C 
ATOM      5  C   UNL     1     117.405 116.163 114.101  1.00  0.00     0.001 C 
ATOM      6  C   UNL     1     116.569 116.589 112.871  1.00  0.00    -0.023 C 
ATOM      7  C   UNL     1     115.281 117.361 113.290  1.00  0.00     0.010 C 
ATOM      8  C   UNL     1     114.417 116.568 114.303  1.00  0.00     0.036 C 
ATOM      9  C   UNL     1     114.344 115.030 114.034  1.00  0.00     0.065 C 
ATOM     10  C   UNL     1     115.721 114.467 113.489  1.00  0.00     0.027 C 
ATOM     11  C   UNL     1     116.110 115.268 112.252  1.00  0.00     0.014 C 
ATOM     12  C   UNL     1     116.986 114.677 114.403  1.00  0.00    -0.026 C 
ATOM     13  C   UNL     1     118.061 113.623 114.004  1.00  0.00     0.012 C 
ATOM     14  C   UNL     1     116.731 114.471 115.916  1.00  0.00     0.012 C 
ATOM     15  C   UNL     1     113.192 114.754 113.032  1.00  0.00     0.042 C 
ENDROOT
BRANCH   9  16
ATOM     16  O   UNL     1     113.999 114.390 115.240  1.00  0.00    -0.390 OA
ATOM     17  H   UNL     1     114.296 113.444 115.178  1.00  0.00     0.211 HD
ENDBRANCH   9  16
TORSDOF 1
ENDMDL
MODEL 9
REMARK VINA RESULT:    -5.093      2.109      3.768
REMARK INTER + INTRA:          -5.242
REMARK INTER:                  -5.242
REMARK INTRA:                   0.000
REMARK UNBOUND:                 0.000
REMARK SMILES C[C@H]1CC[C@@H]2C(C)(C)[C@@H]3C[C@@]21CC[C@]3(C)O
REMARK SMILES IDX 1 1 2 2 3 3 4 4 5 5 11 6 12 7 13 8 14 9 9 10 10 11 6 12 7 13
REMARK SMILES IDX 8 14 15 15 16 16
REMARK H PARENT 16 17
REMARK Flexibility Score: inf
ROOT
ATOM      1  C   UNL     1     113.212 114.376 113.753  1.00  0.00     0.008 C 
ATOM      2  C   UNL     1     113.789 115.452 114.692  1.00  0.00    -0.008 C 
ATOM      3  C   UNL     1     114.614 114.797 115.801  1.00  0.00     0.004 C 
ATOM      4  C   UNL     1     116.040 114.719 115.269  1.00  0.00     0.005 C 
ATOM      5  C   UNL     1     116.200 115.875 114.258  1.00  0.00     0.001 C 
ATOM      6  C   UNL     1     114.779 116.433 114.008  1.00  0.00    -0.023 C 
ATOM      7  C   UNL     1     114.528 116.712 112.495  1.00  0.00     0.010 C 
ATOM      8  C   UNL     1     115.606 117.637 111.875  1.00  0.00     0.036 C 
ATOM      9  C   UNL     1     116.083 118.797 112.807  1.00  0.00     0.065 C 
ATOM     10  C   UNL     1     116.144 118.342 114.323  1.00  0.00     0.027 C 
ATOM     11  C   UNL     1     114.777 117.790 114.714  1.00  0.00     0.014 C 
ATOM     12  C   UNL     1     117.078 117.119 114.660  1.00  0.00    -0.026 C 
ATOM     13  C   UNL     1     117.436 117.177 116.174  1.00  0.00     0.012 C 
ATOM     14  C   UNL     1     118.428 117.109 113.904  1.00  0.00     0.012 C 
ATOM     15  C   UNL     1     115.127 120.006 112.627  1.00  0.00     0.042 C 
ENDROOT
BRANCH   9  16
ATOM     16  O   UNL     1     117.356 119.215 112.372  1.00  0.00    -0.390 OA
ATOM     17  H   UNL     1     118.017 118.536 112.670  1.00  0.00     0.211 HD
ENDBRANCH   9  16
TORSDOF 1
ENDMDL
