MODEL 1
REMARK VINA RESULT:    -2.970      0.000      0.000
REMARK INTER + INTRA:          -6.337
REMARK INTER:                  -4.793
REMARK INTRA:                  -1.544
REMARK UNBOUND:                -1.544
REMARK SMILES CCCCCCCCCCCCO
REMARK SMILES IDX 7 1 6 2 5 3 4 4 3 5 2 6 1 7 8 8 9 9 10 10 11 11 12 12 13 13
REMARK H PARENT 13 14
REMARK Flexibility Score: inf
ROOT
ATOM      1  C   UNL     1     167.628 165.790 169.922  1.00  0.00     0.000 C 
ENDROOT
BRANCH   1   2
ATOM      2  C   UNL     1     166.635 166.322 168.876  1.00  0.00    -0.000 C 
BRANCH   2   3
ATOM      3  C   UNL     1     165.908 167.594 169.348  1.00  0.00    -0.000 C 
BRANCH   3   4
ATOM      4  C   UNL     1     166.596 168.881 168.864  1.00  0.00    -0.000 C 
BRANCH   4   5
ATOM      5  C   UNL     1     166.826 169.893 169.997  1.00  0.00    -0.000 C 
BRANCH   5   6
ATOM      6  C   UNL     1     166.781 169.201 171.365  1.00  0.00    -0.003 C 
ATOM      7  C   UNL     1     168.177 169.083 171.970  1.00  0.00     0.004 C 
ENDBRANCH   5   6
ENDBRANCH   4   5
ENDBRANCH   3   4
ENDBRANCH   2   3
ENDBRANCH   1   2
BRANCH   1   8
ATOM      8  C   UNL     1     169.059 166.312 169.702  1.00  0.00     0.000 C 
BRANCH   8   9
ATOM      9  C   UNL     1     169.407 166.479 168.214  1.00  0.00     0.000 C 
BRANCH   9  10
ATOM     10  C   UNL     1     170.079 167.830 167.913  1.00  0.00     0.002 C 
BRANCH  10  11
ATOM     11  C   UNL     1     170.593 168.528 169.182  1.00  0.00     0.028 C 
BRANCH  11  12
ATOM     12  C   UNL     1     172.078 168.903 169.095  1.00  0.00     0.156 C 
BRANCH  12  13
ATOM     13  O   UNL     1     172.648 168.350 167.939  1.00  0.00    -0.396 OA
ATOM     14  H   UNL     1     173.632 168.368 168.072  1.00  0.00     0.210 HD
ENDBRANCH  12  13
ENDBRANCH  11  12
ENDBRANCH  10  11
ENDBRANCH   9  10
ENDBRANCH   8   9
ENDBRANCH   1   8
TORSDOF 11
ENDMDL
MODEL 2
REMARK VINA RESULT:    -2.915      2.986      4.524
REMARK INTER + INTRA:          -6.248
REMARK INTER:                  -5.178
REMARK INTRA:                  -1.070
REMARK UNBOUND:                -1.544
REMARK SMILES CCCCCCCCCCCCO
REMARK SMILES IDX 7 1 6 2 5 3 4 4 3 5 2 6 1 7 8 8 9 9 10 10 11 11 12 12 13 13
REMARK H PARENT 13 14
REMARK Flexibility Score: inf
ROOT
ATOM      1  C   UNL     1     169.780 166.245 168.007  1.00  0.00     0.000 C 
ENDROOT
BRANCH   1   2
ATOM      2  C   UNL     1     170.119 167.516 168.801  1.00  0.00    -0.000 C 
BRANCH   2   3
ATOM      3  C   UNL     1     169.658 168.799 168.086  1.00  0.00    -0.000 C 
BRANCH   3   4
ATOM      4  C   UNL     1     168.821 169.714 168.995  1.00  0.00    -0.000 C 
BRANCH   4   5
ATOM      5  C   UNL     1     167.718 170.461 168.230  1.00  0.00    -0.000 C 
BRANCH   5   6
ATOM      6  C   UNL     1     166.400 170.440 169.013  1.00  0.00    -0.003 C 
ATOM      7  C   UNL     1     166.614 170.857 170.466  1.00  0.00     0.004 C 
ENDBRANCH   5   6
ENDBRANCH   4   5
ENDBRANCH   3   4
ENDBRANCH   2   3
ENDBRANCH   1   2
BRANCH   1   8
ATOM      8  C   UNL     1     168.356 165.732 168.285  1.00  0.00     0.000 C 
BRANCH   8   9
ATOM      9  C   UNL     1     167.876 166.060 169.709  1.00  0.00     0.000 C 
BRANCH   9  10
ATOM     10  C   UNL     1     166.535 166.813 169.721  1.00  0.00     0.002 C 
BRANCH  10  11
ATOM     11  C   UNL     1     165.557 166.293 168.655  1.00  0.00     0.028 C 
BRANCH  11  12
ATOM     12  C   UNL     1     164.674 167.402 168.067  1.00  0.00     0.156 C 
BRANCH  12  13
ATOM     13  O   UNL     1     163.328 167.011 168.091  1.00  0.00    -0.396 OA
ATOM     14  H   UNL     1     163.033 166.954 167.144  1.00  0.00     0.210 HD
ENDBRANCH  12  13
ENDBRANCH  11  12
ENDBRANCH  10  11
ENDBRANCH   9  10
ENDBRANCH   8   9
ENDBRANCH   1   8
TORSDOF 11
ENDMDL
MODEL 3
REMARK VINA RESULT:    -2.899      2.210      3.902
REMARK INTER + INTRA:          -6.223
REMARK INTER:                  -4.896
REMARK INTRA:                  -1.327
REMARK UNBOUND:                -1.544
REMARK SMILES CCCCCCCCCCCCO
REMARK SMILES IDX 7 1 6 2 5 3 4 4 3 5 2 6 1 7 8 8 9 9 10 10 11 11 12 12 13 13
REMARK H PARENT 13 14
REMARK Flexibility Score: inf
ROOT
ATOM      1  C   UNL     1     166.131 167.232 169.192  1.00  0.00     0.000 C 
ENDROOT
BRANCH   1   2
ATOM      2  C   UNL     1     166.111 168.758 169.010  1.00  0.00    -0.000 C 
BRANCH   2   3
ATOM      3  C   UNL     1     167.417 169.425 169.479  1.00  0.00    -0.000 C 
BRANCH   3   4
ATOM      4  C   UNL     1     168.110 168.639 170.605  1.00  0.00    -0.000 C 
BRANCH   4   5
ATOM      5  C   UNL     1     169.580 168.321 170.288  1.00  0.00    -0.000 C 
BRANCH   5   6
ATOM      6  C   UNL     1     170.013 168.988 168.977  1.00  0.00    -0.003 C 
ATOM      7  C   UNL     1     170.590 167.964 168.002  1.00  0.00     0.004 C 
ENDBRANCH   5   6
ENDBRANCH   4   5
ENDBRANCH   3   4
ENDBRANCH   2   3
ENDBRANCH   1   2
BRANCH   1   8
ATOM      8  C   UNL     1     166.873 166.508 168.053  1.00  0.00     0.000 C 
BRANCH   8   9
ATOM      9  C   UNL     1     167.249 165.062 168.416  1.00  0.00     0.000 C 
BRANCH   9  10
ATOM     10  C   UNL     1     168.683 164.945 168.960  1.00  0.00     0.002 C 
BRANCH  10  11
ATOM     11  C   UNL     1     168.723 164.461 170.419  1.00  0.00     0.028 C 
BRANCH  11  12
ATOM     12  C   UNL     1     169.483 163.139 170.586  1.00  0.00     0.156 C 
BRANCH  12  13
ATOM     13  O   UNL     1     170.318 162.920 169.482  1.00  0.00    -0.396 OA
ATOM     14  H   UNL     1     169.724 162.811 168.694  1.00  0.00     0.210 HD
ENDBRANCH  12  13
ENDBRANCH  11  12
ENDBRANCH  10  11
ENDBRANCH   9  10
ENDBRANCH   8   9
ENDBRANCH   1   8
TORSDOF 11
ENDMDL
MODEL 4
REMARK VINA RESULT:    -2.887      2.531      4.113
REMARK INTER + INTRA:          -6.204
REMARK INTER:                  -4.962
REMARK INTRA:                  -1.242
REMARK UNBOUND:                -1.544
REMARK SMILES CCCCCCCCCCCCO
REMARK SMILES IDX 7 1 6 2 5 3 4 4 3 5 2 6 1 7 8 8 9 9 10 10 11 11 12 12 13 13
REMARK H PARENT 13 14
REMARK Flexibility Score: inf
ROOT
ATOM      1  C   UNL     1     168.794 166.581 170.428  1.00  0.00     0.000 C 
ENDROOT
BRANCH   1   2
ATOM      2  C   UNL     1     168.630 165.590 169.264  1.00  0.00    -0.000 C 
BRANCH   2   3
ATOM      3  C   UNL     1     167.613 166.075 168.215  1.00  0.00    -0.000 C 
BRANCH   3   4
ATOM      4  C   UNL     1     166.198 165.530 168.469  1.00  0.00    -0.000 C 
BRANCH   4   5
ATOM      5  C   UNL     1     165.167 166.645 168.704  1.00  0.00    -0.000 C 
BRANCH   5   6
ATOM      6  C   UNL     1     164.540 166.525 170.098  1.00  0.00    -0.003 C 
ATOM      7  C   UNL     1     163.186 165.822 170.035  1.00  0.00     0.004 C 
ENDBRANCH   5   6
ENDBRANCH   4   5
ENDBRANCH   3   4
ENDBRANCH   2   3
ENDBRANCH   1   2
BRANCH   1   8
ATOM      8  C   UNL     1     168.577 168.043 169.997  1.00  0.00     0.000 C 
BRANCH   8   9
ATOM      9  C   UNL     1     167.581 168.786 170.902  1.00  0.00     0.000 C 
BRANCH   9  10
ATOM     10  C   UNL     1     166.858 169.929 170.170  1.00  0.00     0.002 C 
BRANCH  10  11
ATOM     11  C   UNL     1     166.900 169.771 168.642  1.00  0.00     0.028 C 
BRANCH  11  12
ATOM     12  C   UNL     1     167.598 170.944 167.941  1.00  0.00     0.156 C 
BRANCH  12  13
ATOM     13  O   UNL     1     166.967 172.150 168.274  1.00  0.00    -0.396 OA
ATOM     14  H   UNL     1     167.465 172.870 167.804  1.00  0.00     0.210 HD
ENDBRANCH  12  13
ENDBRANCH  11  12
ENDBRANCH  10  11
ENDBRANCH   9  10
ENDBRANCH   8   9
ENDBRANCH   1   8
TORSDOF 11
ENDMDL
MODEL 5
REMARK VINA RESULT:    -2.886      2.466      3.949
REMARK INTER + INTRA:          -6.201
REMARK INTER:                  -5.052
REMARK INTRA:                  -1.150
REMARK UNBOUND:                -1.544
REMARK SMILES CCCCCCCCCCCCO
REMARK SMILES IDX 7 1 6 2 5 3 4 4 3 5 2 6 1 7 8 8 9 9 10 10 11 11 12 12 13 13
REMARK H PARENT 13 14
REMARK Flexibility Score: inf
ROOT
ATOM      1  C   UNL     1     168.772 169.010 168.983  1.00  0.00     0.000 C 
ENDROOT
BRANCH   1   2
ATOM      2  C   UNL     1     167.634 169.878 168.422  1.00  0.00    -0.000 C 
BRANCH   2   3
ATOM      3  C   UNL     1     166.248 169.427 168.919  1.00  0.00    -0.000 C 
BRANCH   3   4
ATOM      4  C   UNL     1     165.507 168.558 167.889  1.00  0.00    -0.000 C 
BRANCH   4   5
ATOM      5  C   UNL     1     165.641 167.054 168.176  1.00  0.00    -0.000 C 
BRANCH   5   6
ATOM      6  C   UNL     1     165.093 166.713 169.567  1.00  0.00    -0.003 C 
ATOM      7  C   UNL     1     163.618 166.328 169.500  1.00  0.00     0.004 C 
ENDBRANCH   5   6
ENDBRANCH   4   5
ENDBRANCH   3   4
ENDBRANCH   2   3
ENDBRANCH   1   2
BRANCH   1   8
ATOM      8  C   UNL     1     169.562 168.284 167.879  1.00  0.00     0.000 C 
BRANCH   8   9
ATOM      9  C   UNL     1     169.464 166.754 167.989  1.00  0.00     0.000 C 
BRANCH   9  10
ATOM     10  C   UNL     1     169.226 166.280 169.433  1.00  0.00     0.002 C 
BRANCH  10  11
ATOM     11  C   UNL     1     168.338 165.028 169.505  1.00  0.00     0.028 C 
BRANCH  11  12
ATOM     12  C   UNL     1     169.141 163.724 169.407  1.00  0.00     0.156 C 
BRANCH  12  13
ATOM     13  O   UNL     1     168.692 162.962 168.319  1.00  0.00    -0.396 OA
ATOM     14  H   UNL     1     168.332 163.604 167.652  1.00  0.00     0.210 HD
ENDBRANCH  12  13
ENDBRANCH  11  12
ENDBRANCH  10  11
ENDBRANCH   9  10
ENDBRANCH   8   9
ENDBRANCH   1   8
TORSDOF 11
ENDMDL
MODEL 6
REMARK VINA RESULT:    -2.872      1.913      3.455
REMARK INTER + INTRA:          -6.179
REMARK INTER:                  -4.761
REMARK INTRA:                  -1.418
REMARK UNBOUND:                -1.544
REMARK SMILES CCCCCCCCCCCCO
REMARK SMILES IDX 7 1 6 2 5 3 4 4 3 5 2 6 1 7 8 8 9 9 10 10 11 11 12 12 13 13
REMARK H PARENT 13 14
REMARK Flexibility Score: inf
ROOT
ATOM      1  C   UNL     1     166.178 167.713 171.291  1.00  0.00     0.000 C 
ENDROOT
BRANCH   1   2
ATOM      2  C   UNL     1     165.514 166.791 170.255  1.00  0.00    -0.000 C 
BRANCH   2   3
ATOM      3  C   UNL     1     165.760 167.256 168.809  1.00  0.00    -0.000 C 
BRANCH   3   4
ATOM      4  C   UNL     1     166.153 166.099 167.875  1.00  0.00    -0.000 C 
BRANCH   4   5
ATOM      5  C   UNL     1     167.662 165.811 167.892  1.00  0.00    -0.000 C 
BRANCH   5   6
ATOM      6  C   UNL     1     167.943 164.400 168.422  1.00  0.00    -0.003 C 
ATOM      7  C   UNL     1     168.774 164.446 169.702  1.00  0.00     0.004 C 
ENDBRANCH   5   6
ENDBRANCH   4   5
ENDBRANCH   3   4
ENDBRANCH   2   3
ENDBRANCH   1   2
BRANCH   1   8
ATOM      8  C   UNL     1     167.690 167.459 171.428  1.00  0.00     0.000 C 
BRANCH   8   9
ATOM      9  C   UNL     1     168.536 168.640 170.925  1.00  0.00     0.000 C 
BRANCH   9  10
ATOM     10  C   UNL     1     169.869 168.188 170.305  1.00  0.00     0.002 C 
BRANCH  10  11
ATOM     11  C   UNL     1     169.922 168.419 168.786  1.00  0.00     0.028 C 
BRANCH  11  12
ATOM     12  C   UNL     1     168.843 169.392 168.295  1.00  0.00     0.156 C 
BRANCH  12  13
ATOM     13  O   UNL     1     169.385 170.676 168.142  1.00  0.00    -0.396 OA
ATOM     14  H   UNL     1     169.061 171.214 168.911  1.00  0.00     0.210 HD
ENDBRANCH  12  13
ENDBRANCH  11  12
ENDBRANCH  10  11
ENDBRANCH   9  10
ENDBRANCH   8   9
ENDBRANCH   1   8
TORSDOF 11
ENDMDL
MODEL 7
REMARK VINA RESULT:    -2.858      1.432      3.383
REMARK INTER + INTRA:          -6.157
REMARK INTER:                  -4.987
REMARK INTRA:                  -1.170
REMARK UNBOUND:                -1.544
REMARK SMILES CCCCCCCCCCCCO
REMARK SMILES IDX 7 1 6 2 5 3 4 4 3 5 2 6 1 7 8 8 9 9 10 10 11 11 12 12 13 13
REMARK H PARENT 13 14
REMARK Flexibility Score: inf
ROOT
ATOM      1  C   UNL     1     166.500 168.617 170.187  1.00  0.00     0.000 C 
ENDROOT
BRANCH   1   2
ATOM      2  C   UNL     1     166.951 167.185 170.519  1.00  0.00    -0.000 C 
BRANCH   2   3
ATOM      3  C   UNL     1     166.361 166.143 169.551  1.00  0.00    -0.000 C 
BRANCH   3   4
ATOM      4  C   UNL     1     167.059 166.149 168.181  1.00  0.00    -0.000 C 
BRANCH   4   5
ATOM      5  C   UNL     1     168.427 165.451 168.209  1.00  0.00    -0.000 C 
BRANCH   5   6
ATOM      6  C   UNL     1     168.280 163.977 168.605  1.00  0.00    -0.003 C 
ATOM      7  C   UNL     1     169.160 163.638 169.806  1.00  0.00     0.004 C 
ENDBRANCH   5   6
ENDBRANCH   4   5
ENDBRANCH   3   4
ENDBRANCH   2   3
ENDBRANCH   1   2
BRANCH   1   8
ATOM      8  C   UNL     1     167.681 169.552 169.866  1.00  0.00     0.000 C 
BRANCH   8   9
ATOM      9  C   UNL     1     167.974 169.641 168.360  1.00  0.00     0.000 C 
BRANCH   9  10
ATOM     10  C   UNL     1     169.388 169.151 168.004  1.00  0.00     0.002 C 
BRANCH  10  11
ATOM     11  C   UNL     1     170.117 168.530 169.205  1.00  0.00     0.028 C 
BRANCH  11  12
ATOM     12  C   UNL     1     171.638 168.720 169.140  1.00  0.00     0.156 C 
BRANCH  12  13
ATOM     13  O   UNL     1     172.119 168.336 167.880  1.00  0.00    -0.396 OA
ATOM     14  H   UNL     1     172.771 167.603 168.037  1.00  0.00     0.210 HD
ENDBRANCH  12  13
ENDBRANCH  11  12
ENDBRANCH  10  11
ENDBRANCH   9  10
ENDBRANCH   8   9
ENDBRANCH   1   8
TORSDOF 11
ENDMDL
MODEL 8
REMARK VINA RESULT:    -2.837      3.241      5.765
REMARK INTER + INTRA:          -6.123
REMARK INTER:                  -5.056
REMARK INTRA:                  -1.067
REMARK UNBOUND:                -1.544
REMARK SMILES CCCCCCCCCCCCO
REMARK SMILES IDX 7 1 6 2 5 3 4 4 3 5 2 6 1 7 8 8 9 9 10 10 11 11 12 12 13 13
REMARK H PARENT 13 14
REMARK Flexibility Score: inf
ROOT
ATOM      1  C   UNL     1     167.214 170.187 168.551  1.00  0.00     0.000 C 
ENDROOT
BRANCH   1   2
ATOM      2  C   UNL     1     168.283 169.203 168.048  1.00  0.00    -0.000 C 
BRANCH   2   3
ATOM      3  C   UNL     1     169.470 169.075 169.019  1.00  0.00    -0.000 C 
BRANCH   3   4
ATOM      4  C   UNL     1     170.116 167.680 168.979  1.00  0.00    -0.000 C 
BRANCH   4   5
ATOM      5  C   UNL     1     169.237 166.639 168.270  1.00  0.00    -0.000 C 
BRANCH   5   6
ATOM      6  C   UNL     1     168.682 165.619 169.271  1.00  0.00    -0.003 C 
ATOM      7  C   UNL     1     168.279 164.323 168.573  1.00  0.00     0.004 C 
ENDBRANCH   5   6
ENDBRANCH   4   5
ENDBRANCH   3   4
ENDBRANCH   2   3
ENDBRANCH   1   2
BRANCH   1   8
ATOM      8  C   UNL     1     165.815 169.551 168.635  1.00  0.00     0.000 C 
BRANCH   8   9
ATOM      9  C   UNL     1     165.850 168.020 168.492  1.00  0.00     0.000 C 
BRANCH   9  10
ATOM     10  C   UNL     1     165.365 167.298 169.761  1.00  0.00     0.002 C 
BRANCH  10  11
ATOM     11  C   UNL     1     164.491 166.074 169.446  1.00  0.00     0.028 C 
BRANCH  11  12
ATOM     12  C   UNL     1     163.003 166.425 169.314  1.00  0.00     0.156 C 
BRANCH  12  13
ATOM     13  O   UNL     1     162.724 166.861 168.011  1.00  0.00    -0.396 OA
ATOM     14  H   UNL     1     163.411 167.543 167.787  1.00  0.00     0.210 HD
ENDBRANCH  12  13
ENDBRANCH  11  12
ENDBRANCH  10  11
ENDBRANCH   9  10
ENDBRANCH   8   9
ENDBRANCH   1   8
TORSDOF 11
ENDMDL
MODEL 9
REMARK VINA RESULT:    -2.813      2.017      3.364
REMARK INTER + INTRA:          -6.084
REMARK INTER:                  -5.240
REMARK INTRA:                  -0.844
REMARK UNBOUND:                -1.544
REMARK SMILES CCCCCCCCCCCCO
REMARK SMILES IDX 7 1 6 2 5 3 4 4 3 5 2 6 1 7 8 8 9 9 10 10 11 11 12 12 13 13
REMARK H PARENT 13 14
REMARK Flexibility Score: inf
ROOT
ATOM      1  C   UNL     1     168.767 169.844 168.569  1.00  0.00     0.000 C 
ENDROOT
BRANCH   1   2
ATOM      2  C   UNL     1     167.334 170.207 168.148  1.00  0.00    -0.000 C 
BRANCH   2   3
ATOM      3  C   UNL     1     166.272 169.570 169.061  1.00  0.00    -0.000 C 
BRANCH   3   4
ATOM      4  C   UNL     1     165.546 168.392 168.390  1.00  0.00    -0.000 C 
BRANCH   4   5
ATOM      5  C   UNL     1     165.951 167.032 168.980  1.00  0.00    -0.000 C 
BRANCH   5   6
ATOM      6  C   UNL     1     166.402 166.070 167.875  1.00  0.00    -0.003 C 
ATOM      7  C   UNL     1     167.574 165.208 168.338  1.00  0.00     0.004 C 
ENDBRANCH   5   6
ENDBRANCH   4   5
ENDBRANCH   3   4
ENDBRANCH   2   3
ENDBRANCH   1   2
BRANCH   1   8
ATOM      8  C   UNL     1     169.273 168.553 167.900  1.00  0.00     0.000 C 
BRANCH   8   9
ATOM      9  C   UNL     1     170.683 168.157 168.367  1.00  0.00     0.000 C 
BRANCH   9  10
ATOM     10  C   UNL     1     171.037 168.751 169.741  1.00  0.00     0.002 C 
BRANCH  10  11
ATOM     11  C   UNL     1     172.403 169.457 169.744  1.00  0.00     0.028 C 
BRANCH  11  12
ATOM     12  C   UNL     1     172.846 169.887 171.148  1.00  0.00     0.156 C 
BRANCH  12  13
ATOM     13  O   UNL     1     174.039 170.619 171.075  1.00  0.00    -0.396 OA
ATOM     14  H   UNL     1     174.472 170.370 170.216  1.00  0.00     0.210 HD
ENDBRANCH  12  13
ENDBRANCH  11  12
ENDBRANCH  10  11
ENDBRANCH   9  10
ENDBRANCH   8   9
ENDBRANCH   1   8
TORSDOF 11
ENDMDL
