MODEL 1
REMARK VINA RESULT:    -4.979      0.000      0.000
REMARK INTER + INTRA:          -5.287
REMARK INTER:                  -5.270
REMARK INTRA:                  -0.017
REMARK UNBOUND:                -0.017
REMARK SMILES O=C([O-])c1cccnc1
REMARK SMILES IDX 4 1 5 2 9 3 6 4 8 5 7 6 2 7 1 8 3 9
REMARK H PARENT
REMARK Flexibility Score: inf
ROOT
ATOM      1  C   UNL     1     -21.827 -23.357 -44.428  1.00  0.00     0.016 A 
ATOM      2  C   UNL     1     -22.050 -22.630 -43.247  1.00  0.00     0.013 A 
ATOM      3  C   UNL     1     -22.243 -24.698 -44.476  1.00  0.00     0.120 A 
ATOM      4  C   UNL     1     -22.671 -23.240 -42.156  1.00  0.00     0.021 A 
ATOM      5  N   UNL     1     -22.846 -25.268 -43.399  1.00  0.00    -0.264 NA
ATOM      6  C   UNL     1     -23.067 -24.574 -42.251  1.00  0.00     0.111 A 
ENDROOT
BRANCH   1   7
ATOM      7  C   UNL     1     -21.170 -22.730 -45.597  1.00  0.00     0.073 C 
ATOM      8  O   UNL     1     -21.753 -21.823 -46.248  1.00  0.00    -0.545 OA
ATOM      9  O   UNL     1     -19.900 -23.134 -45.992  1.00  0.00    -0.545 OA
ENDBRANCH   1   7
TORSDOF 1
ENDMDL
MODEL 2
REMARK VINA RESULT:    -4.672      3.067      3.726
REMARK INTER + INTRA:          -4.962
REMARK INTER:                  -4.940
REMARK INTRA:                  -0.022
REMARK UNBOUND:                -0.017
REMARK SMILES O=C([O-])c1cccnc1
REMARK SMILES IDX 4 1 5 2 9 3 6 4 8 5 7 6 2 7 1 8 3 9
REMARK H PARENT
REMARK Flexibility Score: inf
ROOT
ATOM      1  C   UNL     1     -22.633 -24.263 -43.409  1.00  0.00     0.016 A 
ATOM      2  C   UNL     1     -22.245 -23.000 -42.931  1.00  0.00     0.013 A 
ATOM      3  C   UNL     1     -22.262 -24.626 -44.715  1.00  0.00     0.120 A 
ATOM      4  C   UNL     1     -21.510 -22.138 -43.746  1.00  0.00     0.021 A 
ATOM      5  N   UNL     1     -21.545 -23.767 -45.488  1.00  0.00    -0.264 NA
ATOM      6  C   UNL     1     -21.165 -22.543 -45.036  1.00  0.00     0.111 A 
ENDROOT
BRANCH   1   7
ATOM      7  C   UNL     1     -23.413 -25.192 -42.562  1.00  0.00     0.073 C 
ATOM      8  O   UNL     1     -24.124 -26.091 -43.085  1.00  0.00    -0.545 OA
ATOM      9  O   UNL     1     -23.374 -25.084 -41.177  1.00  0.00    -0.545 OA
ENDBRANCH   1   7
TORSDOF 1
ENDMDL
MODEL 3
REMARK VINA RESULT:    -4.496      1.712      2.490
REMARK INTER + INTRA:          -4.776
REMARK INTER:                  -4.752
REMARK INTRA:                  -0.024
REMARK UNBOUND:                -0.017
REMARK SMILES O=C([O-])c1cccnc1
REMARK SMILES IDX 4 1 5 2 9 3 6 4 8 5 7 6 2 7 1 8 3 9
REMARK H PARENT
REMARK Flexibility Score: inf
ROOT
ATOM      1  C   UNL     1     -22.612 -23.637 -44.540  1.00  0.00     0.016 A 
ATOM      2  C   UNL     1     -23.013 -24.139 -45.789  1.00  0.00     0.013 A 
ATOM      3  C   UNL     1     -22.992 -24.340 -43.384  1.00  0.00     0.120 A 
ATOM      4  C   UNL     1     -23.772 -25.308 -45.863  1.00  0.00     0.021 A 
ATOM      5  N   UNL     1     -23.731 -25.477 -43.484  1.00  0.00    -0.264 NA
ATOM      6  C   UNL     1     -24.125 -25.971 -44.687  1.00  0.00     0.111 A 
ENDROOT
BRANCH   1   7
ATOM      7  C   UNL     1     -21.808 -22.399 -44.438  1.00  0.00     0.073 C 
ATOM      8  O   UNL     1     -21.414 -21.805 -45.477  1.00  0.00    -0.545 OA
ATOM      9  O   UNL     1     -21.475 -21.875 -43.195  1.00  0.00    -0.545 OA
ENDBRANCH   1   7
TORSDOF 1
ENDMDL
MODEL 4
REMARK VINA RESULT:    -4.357      2.687      3.463
REMARK INTER + INTRA:          -4.629
REMARK INTER:                  -4.605
REMARK INTRA:                  -0.024
REMARK UNBOUND:                -0.017
REMARK SMILES O=C([O-])c1cccnc1
REMARK SMILES IDX 4 1 5 2 9 3 6 4 8 5 7 6 2 7 1 8 3 9
REMARK H PARENT
REMARK Flexibility Score: inf
ROOT
ATOM      1  C   UNL     1     -23.092 -24.106 -43.796  1.00  0.00     0.016 A 
ATOM      2  C   UNL     1     -22.931 -23.451 -45.028  1.00  0.00     0.013 A 
ATOM      3  C   UNL     1     -23.703 -25.372 -43.787  1.00  0.00     0.120 A 
ATOM      4  C   UNL     1     -23.374 -24.056 -46.205  1.00  0.00     0.021 A 
ATOM      5  N   UNL     1     -24.125 -25.939 -44.949  1.00  0.00    -0.264 NA
ATOM      6  C   UNL     1     -23.975 -25.313 -46.146  1.00  0.00     0.111 A 
ENDROOT
BRANCH   1   7
ATOM      7  C   UNL     1     -22.631 -23.484 -42.535  1.00  0.00     0.073 C 
ATOM      8  O   UNL     1     -22.690 -24.119 -41.449  1.00  0.00    -0.545 OA
ATOM      9  O   UNL     1     -22.127 -22.189 -42.532  1.00  0.00    -0.545 OA
ENDBRANCH   1   7
TORSDOF 1
ENDMDL
MODEL 5
REMARK VINA RESULT:    -4.162      2.301      2.811
REMARK INTER + INTRA:          -4.423
REMARK INTER:                  -4.401
REMARK INTRA:                  -0.022
REMARK UNBOUND:                -0.017
REMARK SMILES O=C([O-])c1cccnc1
REMARK SMILES IDX 4 1 5 2 9 3 6 4 8 5 7 6 2 7 1 8 3 9
REMARK H PARENT
REMARK Flexibility Score: inf
ROOT
ATOM      1  C   UNL     1     -23.301 -24.599 -44.326  1.00  0.00     0.016 A 
ATOM      2  C   UNL     1     -23.462 -25.539 -43.295  1.00  0.00     0.013 A 
ATOM      3  C   UNL     1     -22.843 -23.313 -43.992  1.00  0.00     0.120 A 
ATOM      4  C   UNL     1     -23.171 -25.189 -41.976  1.00  0.00     0.021 A 
ATOM      5  N   UNL     1     -22.567 -22.997 -42.699  1.00  0.00    -0.264 NA
ATOM      6  C   UNL     1     -22.720 -23.899 -41.693  1.00  0.00     0.111 A 
ENDROOT
BRANCH   1   7
ATOM      7  C   UNL     1     -23.604 -24.950 -45.731  1.00  0.00     0.073 C 
ATOM      8  O   UNL     1     -23.935 -24.057 -46.556  1.00  0.00    -0.545 OA
ATOM      9  O   UNL     1     -23.528 -26.269 -46.161  1.00  0.00    -0.545 OA
ENDBRANCH   1   7
TORSDOF 1
ENDMDL
MODEL 6
REMARK VINA RESULT:    -2.814      1.439      1.807
REMARK INTER + INTRA:          -2.996
REMARK INTER:                  -2.977
REMARK INTRA:                  -0.019
REMARK UNBOUND:                -0.017
REMARK SMILES O=C([O-])c1cccnc1
REMARK SMILES IDX 4 1 5 2 9 3 6 4 8 5 7 6 2 7 1 8 3 9
REMARK H PARENT
REMARK Flexibility Score: inf
ROOT
ATOM      1  C   UNL     1     -21.002 -23.088 -45.168  1.00  0.00     0.016 A 
ATOM      2  C   UNL     1     -21.042 -22.465 -43.909  1.00  0.00     0.013 A 
ATOM      3  C   UNL     1     -22.115 -23.843 -45.575  1.00  0.00     0.120 A 
ATOM      4  C   UNL     1     -22.167 -22.602 -43.095  1.00  0.00     0.021 A 
ATOM      5  N   UNL     1     -23.199 -23.961 -44.762  1.00  0.00    -0.264 NA
ATOM      6  C   UNL     1     -23.248 -23.362 -43.543  1.00  0.00     0.111 A 
ENDROOT
BRANCH   1   7
ATOM      7  C   UNL     1     -19.819 -22.957 -46.047  1.00  0.00     0.073 C 
ATOM      8  O   UNL     1     -18.669 -23.242 -45.619  1.00  0.00    -0.545 OA
ATOM      9  O   UNL     1     -19.960 -22.515 -47.357  1.00  0.00    -0.545 OA
ENDBRANCH   1   7
TORSDOF 1
ENDMDL
MODEL 7
REMARK VINA RESULT:    -2.122      2.156      2.702
REMARK INTER + INTRA:          -2.263
REMARK INTER:                  -2.247
REMARK INTRA:                  -0.016
REMARK UNBOUND:                -0.017
REMARK SMILES O=C([O-])c1cccnc1
REMARK SMILES IDX 4 1 5 2 9 3 6 4 8 5 7 6 2 7 1 8 3 9
REMARK H PARENT
REMARK Flexibility Score: inf
ROOT
ATOM      1  C   UNL     1     -20.119 -23.002 -46.155  1.00  0.00     0.016 A 
ATOM      2  C   UNL     1     -20.826 -21.869 -45.717  1.00  0.00     0.013 A 
ATOM      3  C   UNL     1     -20.600 -24.271 -45.791  1.00  0.00     0.120 A 
ATOM      4  C   UNL     1     -21.975 -22.017 -44.941  1.00  0.00     0.021 A 
ATOM      5  N   UNL     1     -21.724 -24.388 -45.033  1.00  0.00    -0.264 NA
ATOM      6  C   UNL     1     -22.414 -23.298 -44.605  1.00  0.00     0.111 A 
ENDROOT
BRANCH   1   7
ATOM      7  C   UNL     1     -18.898 -22.867 -46.979  1.00  0.00     0.073 C 
ATOM      8  O   UNL     1     -18.980 -22.746 -48.230  1.00  0.00    -0.545 OA
ATOM      9  O   UNL     1     -17.642 -22.874 -46.384  1.00  0.00    -0.545 OA
ENDBRANCH   1   7
TORSDOF 1
ENDMDL
