MODEL 1
REMARK VINA RESULT:    -2.702      0.000      0.000
REMARK INTER + INTRA:          -3.701
REMARK INTER:                  -3.571
REMARK INTRA:                  -0.130
REMARK UNBOUND:                -0.130
REMARK SMILES CCCCCCCO
REMARK SMILES IDX 5 1 4 2 3 3 2 4 1 5 6 6 7 7 8 8
REMARK H PARENT 8 9
REMARK Flexibility Score: inf
ROOT
ATOM      1  C   UNL     1     134.114 142.601 141.847  1.00  0.00     0.002 C 
ENDROOT
BRANCH   1   2
ATOM      2  C   UNL     1     135.010 141.800 142.804  1.00  0.00     0.000 C 
BRANCH   2   3
ATOM      3  C   UNL     1     136.503 142.121 142.626  1.00  0.00    -0.000 C 
BRANCH   3   4
ATOM      4  C   UNL     1     137.298 141.974 143.932  1.00  0.00    -0.003 C 
ATOM      5  C   UNL     1     136.492 142.484 145.124  1.00  0.00     0.004 C 
ENDBRANCH   3   4
ENDBRANCH   2   3
ENDBRANCH   1   2
BRANCH   1   6
ATOM      6  C   UNL     1     133.163 141.671 141.081  1.00  0.00     0.028 C 
BRANCH   6   7
ATOM      7  C   UNL     1     133.452 140.195 141.365  1.00  0.00     0.156 C 
BRANCH   7   8
ATOM      8  O   UNL     1     132.450 139.640 142.175  1.00  0.00    -0.396 OA
ATOM      9  H   UNL     1     131.582 139.827 141.728  1.00  0.00     0.210 HD
ENDBRANCH   7   8
ENDBRANCH   6   7
ENDBRANCH   1   6
TORSDOF 6
ENDMDL
MODEL 2
REMARK VINA RESULT:    -2.687      8.310      8.949
REMARK INTER + INTRA:          -3.681
REMARK INTER:                  -3.453
REMARK INTRA:                  -0.228
REMARK UNBOUND:                -0.130
REMARK SMILES CCCCCCCO
REMARK SMILES IDX 5 1 4 2 3 3 2 4 1 5 6 6 7 7 8 8
REMARK H PARENT 8 9
REMARK Flexibility Score: inf
ROOT
ATOM      1  C   UNL     1     139.192 134.186 141.994  1.00  0.00     0.002 C 
ENDROOT
BRANCH   1   2
ATOM      2  C   UNL     1     139.069 135.655 141.561  1.00  0.00     0.000 C 
BRANCH   2   3
ATOM      3  C   UNL     1     139.623 136.631 142.612  1.00  0.00    -0.000 C 
BRANCH   3   4
ATOM      4  C   UNL     1     139.787 135.980 143.993  1.00  0.00    -0.003 C 
ATOM      5  C   UNL     1     138.909 136.671 145.033  1.00  0.00     0.004 C 
ENDBRANCH   3   4
ENDBRANCH   2   3
ENDBRANCH   1   2
BRANCH   1   6
ATOM      6  C   UNL     1     140.078 133.400 141.019  1.00  0.00     0.028 C 
BRANCH   6   7
ATOM      7  C   UNL     1     141.566 133.554 141.344  1.00  0.00     0.156 C 
BRANCH   7   8
ATOM      8  O   UNL     1     141.973 132.589 142.277  1.00  0.00    -0.396 OA
ATOM      9  H   UNL     1     142.892 132.835 142.564  1.00  0.00     0.210 HD
ENDBRANCH   7   8
ENDBRANCH   6   7
ENDBRANCH   1   6
TORSDOF 6
ENDMDL
MODEL 3
REMARK VINA RESULT:    -2.631      2.147      2.670
REMARK INTER + INTRA:          -3.607
REMARK INTER:                  -3.409
REMARK INTRA:                  -0.198
REMARK UNBOUND:                -0.130
REMARK SMILES CCCCCCCO
REMARK SMILES IDX 5 1 4 2 3 3 2 4 1 5 6 6 7 7 8 8
REMARK H PARENT 8 9
REMARK Flexibility Score: inf
ROOT
ATOM      1  C   UNL     1     136.050 141.667 141.901  1.00  0.00     0.002 C 
ENDROOT
BRANCH   1   2
ATOM      2  C   UNL     1     137.079 141.412 143.012  1.00  0.00     0.000 C 
BRANCH   2   3
ATOM      3  C   UNL     1     136.512 141.673 144.417  1.00  0.00    -0.000 C 
BRANCH   3   4
ATOM      4  C   UNL     1     137.205 142.847 145.124  1.00  0.00    -0.003 C 
ATOM      5  C   UNL     1     138.708 142.840 144.855  1.00  0.00     0.004 C 
ENDBRANCH   3   4
ENDBRANCH   2   3
ENDBRANCH   1   2
BRANCH   1   6
ATOM      6  C   UNL     1     134.700 142.095 142.492  1.00  0.00     0.028 C 
BRANCH   6   7
ATOM      7  C   UNL     1     133.868 142.905 141.495  1.00  0.00     0.156 C 
BRANCH   7   8
ATOM      8  O   UNL     1     134.550 144.068 141.107  1.00  0.00    -0.396 OA
ATOM      9  H   UNL     1     135.314 143.779 140.542  1.00  0.00     0.210 HD
ENDBRANCH   7   8
ENDBRANCH   6   7
ENDBRANCH   1   6
TORSDOF 6
ENDMDL
MODEL 4
REMARK VINA RESULT:    -2.630      6.495      7.265
REMARK INTER + INTRA:          -3.606
REMARK INTER:                  -3.421
REMARK INTRA:                  -0.184
REMARK UNBOUND:                -0.130
REMARK SMILES CCCCCCCO
REMARK SMILES IDX 5 1 4 2 3 3 2 4 1 5 6 6 7 7 8 8
REMARK H PARENT 8 9
REMARK Flexibility Score: inf
ROOT
ATOM      1  C   UNL     1     139.630 136.058 141.531  1.00  0.00     0.002 C 
ENDROOT
BRANCH   1   2
ATOM      2  C   UNL     1     139.806 136.982 142.746  1.00  0.00     0.000 C 
BRANCH   2   3
ATOM      3  C   UNL     1     139.470 136.285 144.074  1.00  0.00    -0.000 C 
BRANCH   3   4
ATOM      4  C   UNL     1     138.911 137.256 145.125  1.00  0.00    -0.003 C 
ATOM      5  C   UNL     1     138.758 138.661 144.547  1.00  0.00     0.004 C 
ENDBRANCH   3   4
ENDBRANCH   2   3
ENDBRANCH   1   2
BRANCH   1   6
ATOM      6  C   UNL     1     139.727 134.584 141.945  1.00  0.00     0.028 C 
BRANCH   6   7
ATOM      7  C   UNL     1     138.420 133.829 141.691  1.00  0.00     0.156 C 
BRANCH   7   8
ATOM      8  O   UNL     1     137.508 134.636 140.993  1.00  0.00    -0.396 OA
ATOM      9  H   UNL     1     137.535 135.534 141.417  1.00  0.00     0.210 HD
ENDBRANCH   7   8
ENDBRANCH   6   7
ENDBRANCH   1   6
TORSDOF 6
ENDMDL
MODEL 5
REMARK VINA RESULT:    -2.604      7.101      8.373
REMARK INTER + INTRA:          -3.572
REMARK INTER:                  -3.365
REMARK INTRA:                  -0.207
REMARK UNBOUND:                -0.130
REMARK SMILES CCCCCCCO
REMARK SMILES IDX 5 1 4 2 3 3 2 4 1 5 6 6 7 7 8 8
REMARK H PARENT 8 9
REMARK Flexibility Score: inf
ROOT
ATOM      1  C   UNL     1     141.741 146.975 142.436  1.00  0.00     0.002 C 
ENDROOT
BRANCH   1   2
ATOM      2  C   UNL     1     142.158 145.559 142.860  1.00  0.00     0.000 C 
BRANCH   2   3
ATOM      3  C   UNL     1     142.185 145.381 144.387  1.00  0.00    -0.000 C 
BRANCH   3   4
ATOM      4  C   UNL     1     141.103 144.412 144.887  1.00  0.00    -0.003 C 
ATOM      5  C   UNL     1     140.536 143.583 143.738  1.00  0.00     0.004 C 
ENDBRANCH   3   4
ENDBRANCH   2   3
ENDBRANCH   1   2
BRANCH   1   6
ATOM      6  C   UNL     1     140.609 146.925 141.401  1.00  0.00     0.028 C 
BRANCH   6   7
ATOM      7  C   UNL     1     140.050 148.317 141.094  1.00  0.00     0.156 C 
BRANCH   7   8
ATOM      8  O   UNL     1     139.638 148.957 142.273  1.00  0.00    -0.396 OA
ATOM      9  H   UNL     1     138.649 148.873 142.316  1.00  0.00     0.210 HD
ENDBRANCH   7   8
ENDBRANCH   6   7
ENDBRANCH   1   6
TORSDOF 6
ENDMDL
MODEL 6
REMARK VINA RESULT:    -2.601      8.633      9.315
REMARK INTER + INTRA:          -3.568
REMARK INTER:                  -3.358
REMARK INTRA:                  -0.210
REMARK UNBOUND:                -0.130
REMARK SMILES CCCCCCCO
REMARK SMILES IDX 5 1 4 2 3 3 2 4 1 5 6 6 7 7 8 8
REMARK H PARENT 8 9
REMARK Flexibility Score: inf
ROOT
ATOM      1  C   UNL     1     141.552 145.979 141.501  1.00  0.00     0.002 C 
ENDROOT
BRANCH   1   2
ATOM      2  C   UNL     1     141.731 145.034 142.699  1.00  0.00     0.000 C 
BRANCH   2   3
ATOM      3  C   UNL     1     141.736 145.777 144.045  1.00  0.00    -0.000 C 
BRANCH   3   4
ATOM      4  C   UNL     1     142.544 145.039 145.123  1.00  0.00    -0.003 C 
ATOM      5  C   UNL     1     142.642 143.548 144.811  1.00  0.00     0.004 C 
ENDBRANCH   3   4
ENDBRANCH   2   3
ENDBRANCH   1   2
BRANCH   1   6
ATOM      6  C   UNL     1     141.803 147.436 141.912  1.00  0.00     0.028 C 
BRANCH   6   7
ATOM      7  C   UNL     1     143.064 148.007 141.257  1.00  0.00     0.156 C 
BRANCH   7   8
ATOM      8  O   UNL     1     144.026 147.003 141.074  1.00  0.00    -0.396 OA
ATOM      9  H   UNL     1     143.747 146.478 140.278  1.00  0.00     0.210 HD
ENDBRANCH   7   8
ENDBRANCH   6   7
ENDBRANCH   1   6
TORSDOF 6
ENDMDL
MODEL 7
REMARK VINA RESULT:    -2.597      2.492      4.762
REMARK INTER + INTRA:          -3.563
REMARK INTER:                  -3.311
REMARK INTRA:                  -0.252
REMARK UNBOUND:                -0.130
REMARK SMILES CCCCCCCO
REMARK SMILES IDX 5 1 4 2 3 3 2 4 1 5 6 6 7 7 8 8
REMARK H PARENT 8 9
REMARK Flexibility Score: inf
ROOT
ATOM      1  C   UNL     1     134.915 140.880 141.575  1.00  0.00     0.002 C 
ENDROOT
BRANCH   1   2
ATOM      2  C   UNL     1     133.599 140.501 140.881  1.00  0.00     0.000 C 
BRANCH   2   3
ATOM      3  C   UNL     1     133.769 140.280 139.369  1.00  0.00    -0.000 C 
BRANCH   3   4
ATOM      4  C   UNL     1     132.534 140.718 138.566  1.00  0.00    -0.003 C 
ATOM      5  C   UNL     1     131.619 141.604 139.407  1.00  0.00     0.004 C 
ENDBRANCH   3   4
ENDBRANCH   2   3
ENDBRANCH   1   2
BRANCH   1   6
ATOM      6  C   UNL     1     134.720 142.094 142.493  1.00  0.00     0.028 C 
BRANCH   6   7
ATOM      7  C   UNL     1     133.811 143.151 141.861  1.00  0.00     0.156 C 
BRANCH   7   8
ATOM      8  O   UNL     1     134.554 144.028 141.055  1.00  0.00    -0.396 OA
ATOM      9  H   UNL     1     134.023 144.864 140.974  1.00  0.00     0.210 HD
ENDBRANCH   7   8
ENDBRANCH   6   7
ENDBRANCH   1   6
TORSDOF 6
ENDMDL
MODEL 8
REMARK VINA RESULT:    -2.564     11.587     13.327
REMARK INTER + INTRA:          -3.519
REMARK INTER:                  -3.148
REMARK INTRA:                  -0.371
REMARK UNBOUND:                -0.130
REMARK SMILES CCCCCCCO
REMARK SMILES IDX 5 1 4 2 3 3 2 4 1 5 6 6 7 7 8 8
REMARK H PARENT 8 9
REMARK Flexibility Score: inf
ROOT
ATOM      1  C   UNL     1     149.384 140.292 140.647  1.00  0.00     0.002 C 
ENDROOT
BRANCH   1   2
ATOM      2  C   UNL     1     148.271 141.128 141.296  1.00  0.00     0.000 C 
BRANCH   2   3
ATOM      3  C   UNL     1     147.384 141.840 140.261  1.00  0.00    -0.000 C 
BRANCH   3   4
ATOM      4  C   UNL     1     146.045 141.122 140.038  1.00  0.00    -0.003 C 
ATOM      5  C   UNL     1     145.265 140.997 141.345  1.00  0.00     0.004 C 
ENDBRANCH   3   4
ENDBRANCH   2   3
ENDBRANCH   1   2
BRANCH   1   6
ATOM      6  C   UNL     1     149.005 138.806 140.616  1.00  0.00     0.028 C 
BRANCH   6   7
ATOM      7  C   UNL     1     148.045 138.435 141.750  1.00  0.00     0.156 C 
BRANCH   7   8
ATOM      8  O   UNL     1     147.003 137.626 141.274  1.00  0.00    -0.396 OA
ATOM      9  H   UNL     1     147.399 136.737 141.070  1.00  0.00     0.210 HD
ENDBRANCH   7   8
ENDBRANCH   6   7
ENDBRANCH   1   6
TORSDOF 6
ENDMDL
MODEL 9
REMARK VINA RESULT:    -2.558     10.516     12.306
REMARK INTER + INTRA:          -3.511
REMARK INTER:                  -3.365
REMARK INTRA:                  -0.146
REMARK UNBOUND:                -0.130
REMARK SMILES CCCCCCCO
REMARK SMILES IDX 5 1 4 2 3 3 2 4 1 5 6 6 7 7 8 8
REMARK H PARENT 8 9
REMARK Flexibility Score: inf
ROOT
ATOM      1  C   UNL     1     147.279 139.703 142.123  1.00  0.00     0.002 C 
ENDROOT
BRANCH   1   2
ATOM      2  C   UNL     1     146.264 139.546 143.266  1.00  0.00     0.000 C 
BRANCH   2   3
ATOM      3  C   UNL     1     144.811 139.504 142.767  1.00  0.00    -0.000 C 
BRANCH   3   4
ATOM      4  C   UNL     1     143.792 139.535 143.916  1.00  0.00    -0.003 C 
ATOM      5  C   UNL     1     144.304 138.757 145.125  1.00  0.00     0.004 C 
ENDBRANCH   3   4
ENDBRANCH   2   3
ENDBRANCH   1   2
BRANCH   1   6
ATOM      6  C   UNL     1     147.038 141.008 141.353  1.00  0.00     0.028 C 
BRANCH   6   7
ATOM      7  C   UNL     1     148.349 141.706 140.983  1.00  0.00     0.156 C 
BRANCH   7   8
ATOM      8  O   UNL     1     149.042 142.106 142.136  1.00  0.00    -0.396 OA
ATOM      9  H   UNL     1     149.120 141.304 142.717  1.00  0.00     0.210 HD
ENDBRANCH   7   8
ENDBRANCH   6   7
ENDBRANCH   1   6
TORSDOF 6
ENDMDL
