MODEL 1
REMARK VINA RESULT:    -4.544      0.000      0.000
REMARK INTER + INTRA:          -5.388
REMARK INTER:                  -5.208
REMARK INTRA:                  -0.179
REMARK UNBOUND:                -0.179
REMARK SMILES O=C([O-])C=Cc1ccc(O)cc1
REMARK SMILES IDX 6 1 7 2 12 3 8 4 11 5 9 6 5 7 4 8 2 9 1 10 3 11 10 12
REMARK H PARENT 10 13
REMARK Flexibility Score: inf
ROOT
ATOM      1  C   UNL     1      85.740  32.034  65.580  1.00  0.00    -0.025 A 
ATOM      2  C   UNL     1      84.654  31.616  64.798  1.00  0.00     0.012 A 
ATOM      3  C   UNL     1      85.623  32.021  66.981  1.00  0.00     0.012 A 
ATOM      4  C   UNL     1      83.450  31.241  65.403  1.00  0.00     0.047 A 
ATOM      5  C   UNL     1      84.419  31.647  67.585  1.00  0.00     0.047 A 
ATOM      6  C   UNL     1      83.327  31.259  66.796  1.00  0.00     0.115 A 
ENDROOT
BRANCH   1   7
ATOM      7  C   UNL     1      87.018  32.373  64.922  1.00  0.00     0.010 C 
ATOM      8  C   UNL     1      87.999  31.504  64.634  1.00  0.00     0.025 C 
BRANCH   8   9
ATOM      9  C   UNL     1      88.061  30.103  65.090  1.00  0.00     0.064 C 
ATOM     10  O   UNL     1      88.125  29.180  64.237  1.00  0.00    -0.545 OA
ATOM     11  O   UNL     1      88.124  29.781  66.441  1.00  0.00    -0.545 OA
ENDBRANCH   8   9
ENDBRANCH   1   7
BRANCH   6  12
ATOM     12  O   UNL     1      82.122  30.885  67.386  1.00  0.00    -0.508 OA
ATOM     13  H   UNL     1      81.693  29.988  67.191  1.00  0.00     0.293 HD
ENDBRANCH   6  12
TORSDOF 3
ENDMDL
MODEL 2
REMARK VINA RESULT:    -4.430     16.602     17.336
REMARK INTER + INTRA:          -5.257
REMARK INTER:                  -5.085
REMARK INTRA:                  -0.172
REMARK UNBOUND:                -0.179
REMARK SMILES O=C([O-])C=Cc1ccc(O)cc1
REMARK SMILES IDX 6 1 7 2 12 3 8 4 11 5 9 6 5 7 4 8 2 9 1 10 3 11 10 12
REMARK H PARENT 10 13
REMARK Flexibility Score: inf
ROOT
ATOM      1  C   UNL     1      74.243  35.408  52.697  1.00  0.00    -0.025 A 
ATOM      2  C   UNL     1      74.241  35.979  53.978  1.00  0.00     0.012 A 
ATOM      3  C   UNL     1      73.511  34.230  52.468  1.00  0.00     0.012 A 
ATOM      4  C   UNL     1      73.560  35.354  55.029  1.00  0.00     0.047 A 
ATOM      5  C   UNL     1      72.832  33.606  53.519  1.00  0.00     0.047 A 
ATOM      6  C   UNL     1      72.858  34.166  54.804  1.00  0.00     0.115 A 
ENDROOT
BRANCH   1   7
ATOM      7  C   UNL     1      74.924  36.114  51.592  1.00  0.00     0.010 C 
ATOM      8  C   UNL     1      76.159  35.844  51.143  1.00  0.00     0.025 C 
BRANCH   8   9
ATOM      9  C   UNL     1      77.125  34.934  51.787  1.00  0.00     0.064 C 
ATOM     10  O   UNL     1      78.182  35.405  52.279  1.00  0.00    -0.545 OA
ATOM     11  O   UNL     1      76.859  33.576  51.927  1.00  0.00    -0.545 OA
ENDBRANCH   8   9
ENDBRANCH   1   7
BRANCH   6  12
ATOM     12  O   UNL     1      72.186  33.554  55.859  1.00  0.00    -0.508 OA
ATOM     13  H   UNL     1      71.939  34.066  56.698  1.00  0.00     0.293 HD
ENDBRANCH   6  12
TORSDOF 3
ENDMDL
MODEL 3
REMARK VINA RESULT:    -4.307     15.441     16.959
REMARK INTER + INTRA:          -5.116
REMARK INTER:                  -5.148
REMARK INTRA:                   0.032
REMARK UNBOUND:                -0.179
REMARK SMILES O=C([O-])C=Cc1ccc(O)cc1
REMARK SMILES IDX 6 1 7 2 12 3 8 4 11 5 9 6 5 7 4 8 2 9 1 10 3 11 10 12
REMARK H PARENT 10 13
REMARK Flexibility Score: inf
ROOT
ATOM      1  C   UNL     1      72.384  33.492  54.916  1.00  0.00    -0.025 A 
ATOM      2  C   UNL     1      71.315  33.863  55.744  1.00  0.00     0.012 A 
ATOM      3  C   UNL     1      73.432  32.722  55.450  1.00  0.00     0.012 A 
ATOM      4  C   UNL     1      71.317  33.515  57.099  1.00  0.00     0.047 A 
ATOM      5  C   UNL     1      73.433  32.376  56.805  1.00  0.00     0.047 A 
ATOM      6  C   UNL     1      72.376  32.775  57.634  1.00  0.00     0.115 A 
ENDROOT
BRANCH   1   7
ATOM      7  C   UNL     1      72.334  33.824  53.478  1.00  0.00     0.010 C 
ATOM      8  C   UNL     1      73.220  34.594  52.827  1.00  0.00     0.025 C 
BRANCH   8   9
ATOM      9  C   UNL     1      74.285  35.396  53.459  1.00  0.00     0.064 C 
ATOM     10  O   UNL     1      75.409  35.475  52.901  1.00  0.00    -0.545 OA
ATOM     11  O   UNL     1      74.051  36.125  54.620  1.00  0.00    -0.545 OA
ENDBRANCH   8   9
ENDBRANCH   1   7
BRANCH   6  12
ATOM     12  O   UNL     1      72.367  32.437  58.985  1.00  0.00    -0.508 OA
ATOM     13  H   UNL     1      73.067  32.793  59.625  1.00  0.00     0.293 HD
ENDBRANCH   6  12
TORSDOF 3
ENDMDL
MODEL 4
REMARK VINA RESULT:    -4.168     16.197     17.484
REMARK INTER + INTRA:          -4.957
REMARK INTER:                  -4.701
REMARK INTRA:                  -0.256
REMARK UNBOUND:                -0.179
REMARK SMILES O=C([O-])C=Cc1ccc(O)cc1
REMARK SMILES IDX 6 1 7 2 12 3 8 4 11 5 9 6 5 7 4 8 2 9 1 10 3 11 10 12
REMARK H PARENT 10 13
REMARK Flexibility Score: inf
ROOT
ATOM      1  C   UNL     1      79.569  35.315  51.355  1.00  0.00    -0.025 A 
ATOM      2  C   UNL     1      79.941  33.982  51.581  1.00  0.00     0.012 A 
ATOM      3  C   UNL     1      79.690  35.852  50.061  1.00  0.00     0.012 A 
ATOM      4  C   UNL     1      80.476  33.212  50.543  1.00  0.00     0.047 A 
ATOM      5  C   UNL     1      80.226  35.082  49.025  1.00  0.00     0.047 A 
ATOM      6  C   UNL     1      80.624  33.760  49.265  1.00  0.00     0.115 A 
ENDROOT
BRANCH   1   7
ATOM      7  C   UNL     1      78.956  36.091  52.452  1.00  0.00     0.010 C 
ATOM      8  C   UNL     1      77.647  36.122  52.745  1.00  0.00     0.025 C 
BRANCH   8   9
ATOM      9  C   UNL     1      76.571  35.545  51.916  1.00  0.00     0.064 C 
ATOM     10  O   UNL     1      76.236  36.125  50.851  1.00  0.00    -0.545 OA
ATOM     11  O   UNL     1      75.969  34.337  52.248  1.00  0.00    -0.545 OA
ENDBRANCH   8   9
ENDBRANCH   1   7
BRANCH   6  12
ATOM     12  O   UNL     1      81.161  32.983  48.241  1.00  0.00    -0.508 OA
ATOM     13  H   UNL     1      80.666  32.180  47.870  1.00  0.00     0.293 HD
ENDBRANCH   6  12
TORSDOF 3
ENDMDL
MODEL 5
REMARK VINA RESULT:    -4.044      2.196      2.665
REMARK INTER + INTRA:          -4.814
REMARK INTER:                  -4.672
REMARK INTRA:                  -0.142
REMARK UNBOUND:                -0.179
REMARK SMILES O=C([O-])C=Cc1ccc(O)cc1
REMARK SMILES IDX 6 1 7 2 12 3 8 4 11 5 9 6 5 7 4 8 2 9 1 10 3 11 10 12
REMARK H PARENT 10 13
REMARK Flexibility Score: inf
ROOT
ATOM      1  C   UNL     1      85.657  30.981  66.249  1.00  0.00    -0.025 A 
ATOM      2  C   UNL     1      84.545  31.811  66.454  1.00  0.00     0.012 A 
ATOM      3  C   UNL     1      85.596  29.982  65.261  1.00  0.00     0.012 A 
ATOM      4  C   UNL     1      83.370  31.612  65.722  1.00  0.00     0.047 A 
ATOM      5  C   UNL     1      84.421  29.784  64.530  1.00  0.00     0.047 A 
ATOM      6  C   UNL     1      83.303  30.598  64.761  1.00  0.00     0.115 A 
ENDROOT
BRANCH   1   7
ATOM      7  C   UNL     1      86.904  31.244  66.996  1.00  0.00     0.010 C 
ATOM      8  C   UNL     1      87.887  32.067  66.600  1.00  0.00     0.025 C 
BRANCH   8   9
ATOM      9  C   UNL     1      87.989  32.703  65.273  1.00  0.00     0.064 C 
ATOM     10  O   UNL     1      88.125  31.980  64.253  1.00  0.00    -0.545 OA
ATOM     11  O   UNL     1      87.866  34.079  65.117  1.00  0.00    -0.545 OA
ENDBRANCH   8   9
ENDBRANCH   1   7
BRANCH   6  12
ATOM     12  O   UNL     1      82.126  30.409  64.041  1.00  0.00    -0.508 OA
ATOM     13  H   UNL     1      81.962  29.565  63.505  1.00  0.00     0.293 HD
ENDBRANCH   6  12
TORSDOF 3
ENDMDL
MODEL 6
REMARK VINA RESULT:    -3.927      2.124      3.820
REMARK INTER + INTRA:          -4.680
REMARK INTER:                  -5.036
REMARK INTRA:                   0.356
REMARK UNBOUND:                -0.179
REMARK SMILES O=C([O-])C=Cc1ccc(O)cc1
REMARK SMILES IDX 6 1 7 2 12 3 8 4 11 5 9 6 5 7 4 8 2 9 1 10 3 11 10 12
REMARK H PARENT 10 13
REMARK Flexibility Score: inf
ROOT
ATOM      1  C   UNL     1      84.740  31.604  65.496  1.00  0.00    -0.025 A 
ATOM      2  C   UNL     1      84.721  31.523  66.896  1.00  0.00     0.012 A 
ATOM      3  C   UNL     1      85.919  32.011  64.848  1.00  0.00     0.012 A 
ATOM      4  C   UNL     1      85.846  31.893  67.641  1.00  0.00     0.047 A 
ATOM      5  C   UNL     1      87.043  32.381  65.593  1.00  0.00     0.047 A 
ATOM      6  C   UNL     1      87.007  32.326  66.993  1.00  0.00     0.115 A 
ENDROOT
BRANCH   1   7
ATOM      7  C   UNL     1      83.560  31.157  64.730  1.00  0.00     0.010 C 
ATOM      8  C   UNL     1      83.271  29.884  64.419  1.00  0.00     0.025 C 
BRANCH   8   9
ATOM      9  C   UNL     1      84.169  28.730  64.619  1.00  0.00     0.064 C 
ATOM     10  O   UNL     1      83.698  27.566  64.554  1.00  0.00    -0.545 OA
ATOM     11  O   UNL     1      85.536  28.899  64.805  1.00  0.00    -0.545 OA
ENDBRANCH   8   9
ENDBRANCH   1   7
BRANCH   6  12
ATOM     12  O   UNL     1      88.119  32.694  67.747  1.00  0.00    -0.508 OA
ATOM     13  H   UNL     1      88.101  32.680  68.760  1.00  0.00     0.293 HD
ENDBRANCH   6  12
TORSDOF 3
ENDMDL
MODEL 7
REMARK VINA RESULT:    -3.779      2.468      3.118
REMARK INTER + INTRA:          -4.511
REMARK INTER:                  -4.473
REMARK INTRA:                  -0.038
REMARK UNBOUND:                -0.179
REMARK SMILES O=C([O-])C=Cc1ccc(O)cc1
REMARK SMILES IDX 6 1 7 2 12 3 8 4 11 5 9 6 5 7 4 8 2 9 1 10 3 11 10 12
REMARK H PARENT 10 13
REMARK Flexibility Score: inf
ROOT
ATOM      1  C   UNL     1      85.246  30.876  64.652  1.00  0.00    -0.025 A 
ATOM      2  C   UNL     1      83.855  30.737  64.550  1.00  0.00     0.012 A 
ATOM      3  C   UNL     1      86.045  29.725  64.772  1.00  0.00     0.012 A 
ATOM      4  C   UNL     1      83.264  29.471  64.620  1.00  0.00     0.047 A 
ATOM      5  C   UNL     1      85.454  28.460  64.842  1.00  0.00     0.047 A 
ATOM      6  C   UNL     1      84.060  28.331  64.770  1.00  0.00     0.115 A 
ENDROOT
BRANCH   1   7
ATOM      7  C   UNL     1      85.851  32.217  64.521  1.00  0.00     0.010 C 
ATOM      8  C   UNL     1      86.650  32.801  65.428  1.00  0.00     0.025 C 
BRANCH   8   9
ATOM      9  C   UNL     1      86.913  32.295  66.788  1.00  0.00     0.064 C 
ATOM     10  O   UNL     1      88.101  32.186  67.186  1.00  0.00    -0.545 OA
ATOM     11  O   UNL     1      85.875  32.006  67.668  1.00  0.00    -0.545 OA
ENDBRANCH   8   9
ENDBRANCH   1   7
BRANCH   6  12
ATOM     12  O   UNL     1      83.458  27.076  64.840  1.00  0.00    -0.508 OA
ATOM     13  H   UNL     1      83.197  26.663  65.728  1.00  0.00     0.293 HD
ENDBRANCH   6  12
TORSDOF 3
ENDMDL
MODEL 8
REMARK VINA RESULT:    -3.731     16.282     16.993
REMARK INTER + INTRA:          -4.456
REMARK INTER:                  -4.328
REMARK INTRA:                  -0.128
REMARK UNBOUND:                -0.179
REMARK SMILES O=C([O-])C=Cc1ccc(O)cc1
REMARK SMILES IDX 6 1 7 2 12 3 8 4 11 5 9 6 5 7 4 8 2 9 1 10 3 11 10 12
REMARK H PARENT 10 13
REMARK Flexibility Score: inf
ROOT
ATOM      1  C   UNL     1      77.938  35.326  52.191  1.00  0.00    -0.025 A 
ATOM      2  C   UNL     1      77.772  33.947  51.997  1.00  0.00     0.012 A 
ATOM      3  C   UNL     1      76.809  36.125  52.444  1.00  0.00     0.012 A 
ATOM      4  C   UNL     1      76.493  33.381  52.003  1.00  0.00     0.047 A 
ATOM      5  C   UNL     1      75.531  35.559  52.449  1.00  0.00     0.047 A 
ATOM      6  C   UNL     1      75.370  34.184  52.225  1.00  0.00     0.115 A 
ENDROOT
BRANCH   1   7
ATOM      7  C   UNL     1      79.302  35.891  52.234  1.00  0.00     0.010 C 
ATOM      8  C   UNL     1      80.124  36.017  51.181  1.00  0.00     0.025 C 
BRANCH   8   9
ATOM      9  C   UNL     1      79.892  35.446  49.841  1.00  0.00     0.064 C 
ATOM     10  O   UNL     1      79.264  36.121  48.985  1.00  0.00    -0.545 OA
ATOM     11  O   UNL     1      80.415  34.210  49.479  1.00  0.00    -0.545 OA
ENDBRANCH   8   9
ENDBRANCH   1   7
BRANCH   6  12
ATOM     12  O   UNL     1      74.101  33.609  52.226  1.00  0.00    -0.508 OA
ATOM     13  H   UNL     1      73.839  32.906  52.908  1.00  0.00     0.293 HD
ENDBRANCH   6  12
TORSDOF 3
ENDMDL
MODEL 9
REMARK VINA RESULT:    -3.710     15.443     16.508
REMARK INTER + INTRA:          -4.432
REMARK INTER:                  -4.401
REMARK INTRA:                  -0.031
REMARK UNBOUND:                -0.179
REMARK SMILES O=C([O-])C=Cc1ccc(O)cc1
REMARK SMILES IDX 6 1 7 2 12 3 8 4 11 5 9 6 5 7 4 8 2 9 1 10 3 11 10 12
REMARK H PARENT 10 13
REMARK Flexibility Score: inf
ROOT
ATOM      1  C   UNL     1      77.382  35.083  51.296  1.00  0.00    -0.025 A 
ATOM      2  C   UNL     1      76.498  36.124  51.612  1.00  0.00     0.012 A 
ATOM      3  C   UNL     1      77.070  33.771  51.695  1.00  0.00     0.012 A 
ATOM      4  C   UNL     1      75.344  35.869  52.361  1.00  0.00     0.047 A 
ATOM      5  C   UNL     1      75.918  33.517  52.444  1.00  0.00     0.047 A 
ATOM      6  C   UNL     1      75.053  34.567  52.782  1.00  0.00     0.115 A 
ENDROOT
BRANCH   1   7
ATOM      7  C   UNL     1      78.565  35.368  50.458  1.00  0.00     0.010 C 
ATOM      8  C   UNL     1      79.821  34.982  50.731  1.00  0.00     0.025 C 
BRANCH   8   9
ATOM      9  C   UNL     1      80.274  34.376  51.997  1.00  0.00     0.064 C 
ATOM     10  O   UNL     1      80.457  35.111  53.001  1.00  0.00    -0.545 OA
ATOM     11  O   UNL     1      80.434  33.001  52.127  1.00  0.00    -0.545 OA
ENDBRANCH   8   9
ENDBRANCH   1   7
BRANCH   6  12
ATOM     12  O   UNL     1      73.902  34.327  53.530  1.00  0.00    -0.508 OA
ATOM     13  H   UNL     1      73.341  35.087  53.896  1.00  0.00     0.293 HD
ENDBRANCH   6  12
TORSDOF 3
ENDMDL
