MODEL 1
REMARK VINA RESULT:    -3.197      0.000      0.000
REMARK INTER + INTRA:          -7.917
REMARK INTER:                  -5.813
REMARK INTRA:                  -2.104
REMARK UNBOUND:                -2.104
REMARK SMILES CCCCCCCCCCCCCCCC(=O)[O-]
REMARK SMILES IDX 9 1 10 2 11 3 12 4 13 5 14 6 15 7 16 8 17 9 18 10 8 11 7 12
REMARK SMILES IDX 6 13 5 14 4 15 3 16 2 17 1 18
REMARK H PARENT
REMARK Flexibility Score: inf
ROOT
ATOM      1  C   UNL     1    -103.776 -29.469 -13.121  1.00  0.00     0.000 C 
ENDROOT
BRANCH   1   2
ATOM      2  C   UNL     1    -103.645 -28.290 -12.144  1.00  0.00     0.000 C 
BRANCH   2   3
ATOM      3  C   UNL     1    -102.246 -27.662 -12.230  1.00  0.00     0.000 C 
BRANCH   3   4
ATOM      4  C   UNL     1    -101.147 -28.698 -12.514  1.00  0.00     0.000 C 
BRANCH   4   5
ATOM      5  C   UNL     1     -99.964 -28.107 -13.296  1.00  0.00     0.000 C 
BRANCH   5   6
ATOM      6  C   UNL     1     -98.745 -29.037 -13.232  1.00  0.00     0.006 C 
BRANCH   6   7
ATOM      7  C   UNL     1     -98.682 -29.766 -11.886  1.00  0.00     0.053 C 
BRANCH   7   8
ATOM      8  C   UNL     1     -97.259 -29.987 -11.478  1.00  0.00     0.041 C 
ATOM      9  O   UNL     1     -96.992 -30.444 -10.336  1.00  0.00    -0.550 OA
ATOM     10  O   UNL     1     -96.231 -29.735 -12.377  1.00  0.00    -0.550 OA
ENDBRANCH   7   8
ENDBRANCH   6   7
ENDBRANCH   5   6
ENDBRANCH   4   5
ENDBRANCH   3   4
ENDBRANCH   2   3
ENDBRANCH   1   2
BRANCH   1  11
ATOM     11  C   UNL     1    -104.863 -29.246 -14.188  1.00  0.00     0.000 C 
BRANCH  11  12
ATOM     12  C   UNL     1    -104.371 -29.323 -15.649  1.00  0.00    -0.000 C 
BRANCH  12  13
ATOM     13  C   UNL     1    -102.846 -29.445 -15.819  1.00  0.00    -0.000 C 
BRANCH  13  14
ATOM     14  C   UNL     1    -102.170 -28.233 -16.488  1.00  0.00    -0.000 C 
BRANCH  14  15
ATOM     15  C   UNL     1    -102.504 -26.884 -15.814  1.00  0.00    -0.000 C 
BRANCH  15  16
ATOM     16  C   UNL     1    -103.491 -26.041 -16.639  1.00  0.00    -0.000 C 
BRANCH  16  17
ATOM     17  C   UNL     1    -104.175 -24.949 -15.803  1.00  0.00    -0.003 C 
ATOM     18  C   UNL     1    -104.377 -25.362 -14.346  1.00  0.00     0.004 C 
ENDBRANCH  16  17
ENDBRANCH  15  16
ENDBRANCH  14  15
ENDBRANCH  13  14
ENDBRANCH  12  13
ENDBRANCH  11  12
ENDBRANCH   1  11
TORSDOF 14
ENDMDL
MODEL 2
REMARK VINA RESULT:    -3.178      3.877      6.479
REMARK INTER + INTRA:          -7.883
REMARK INTER:                  -5.772
REMARK INTRA:                  -2.111
REMARK UNBOUND:                -2.104
REMARK SMILES CCCCCCCCCCCCCCCC(=O)[O-]
REMARK SMILES IDX 9 1 10 2 11 3 12 4 13 5 14 6 15 7 16 8 17 9 18 10 8 11 7 12
REMARK SMILES IDX 6 13 5 14 4 15 3 16 2 17 1 18
REMARK H PARENT
REMARK Flexibility Score: inf
ROOT
ATOM      1  C   UNL     1     -99.411 -29.203 -12.598  1.00  0.00     0.000 C 
ENDROOT
BRANCH   1   2
ATOM      2  C   UNL     1    -100.115 -28.007 -13.258  1.00  0.00     0.000 C 
BRANCH   2   3
ATOM      3  C   UNL     1    -101.535 -27.832 -12.698  1.00  0.00     0.000 C 
BRANCH   3   4
ATOM      4  C   UNL     1    -102.584 -27.621 -13.801  1.00  0.00     0.000 C 
BRANCH   4   5
ATOM      5  C   UNL     1    -101.957 -27.233 -15.149  1.00  0.00     0.000 C 
BRANCH   5   6
ATOM      6  C   UNL     1    -102.966 -27.402 -16.292  1.00  0.00     0.006 C 
BRANCH   6   7
ATOM      7  C   UNL     1    -103.403 -26.041 -16.843  1.00  0.00     0.053 C 
BRANCH   7   8
ATOM      8  C   UNL     1    -104.440 -25.426 -15.957  1.00  0.00     0.041 C 
ATOM      9  O   UNL     1    -105.440 -26.097 -15.591  1.00  0.00    -0.550 OA
ATOM     10  O   UNL     1    -104.276 -24.126 -15.494  1.00  0.00    -0.550 OA
ENDBRANCH   7   8
ENDBRANCH   6   7
ENDBRANCH   5   6
ENDBRANCH   4   5
ENDBRANCH   3   4
ENDBRANCH   2   3
ENDBRANCH   1   2
BRANCH   1  11
ATOM     11  C   UNL     1     -97.930 -29.323 -13.000  1.00  0.00     0.000 C 
BRANCH  11  12
ATOM     12  C   UNL     1     -97.507 -30.708 -13.534  1.00  0.00    -0.000 C 
BRANCH  12  13
ATOM     13  C   UNL     1     -98.550 -31.825 -13.349  1.00  0.00    -0.000 C 
BRANCH  13  14
ATOM     14  C   UNL     1     -99.247 -32.282 -14.645  1.00  0.00    -0.000 C 
BRANCH  14  15
ATOM     15  C   UNL     1     -99.114 -31.277 -15.810  1.00  0.00    -0.000 C 
BRANCH  15  16
ATOM     16  C   UNL     1    -100.400 -30.464 -16.036  1.00  0.00    -0.000 C 
BRANCH  16  17
ATOM     17  C   UNL     1    -101.566 -30.948 -15.160  1.00  0.00    -0.003 C 
ATOM     18  C   UNL     1    -102.887 -31.019 -15.924  1.00  0.00     0.004 C 
ENDBRANCH  16  17
ENDBRANCH  15  16
ENDBRANCH  14  15
ENDBRANCH  13  14
ENDBRANCH  12  13
ENDBRANCH  11  12
ENDBRANCH   1  11
TORSDOF 14
ENDMDL
MODEL 3
REMARK VINA RESULT:    -3.134      1.372      3.548
REMARK INTER + INTRA:          -7.802
REMARK INTER:                  -5.787
REMARK INTRA:                  -2.015
REMARK UNBOUND:                -2.104
REMARK SMILES CCCCCCCCCCCCCCCC(=O)[O-]
REMARK SMILES IDX 9 1 10 2 11 3 12 4 13 5 14 6 15 7 16 8 17 9 18 10 8 11 7 12
REMARK SMILES IDX 6 13 5 14 4 15 3 16 2 17 1 18
REMARK H PARENT
REMARK Flexibility Score: inf
ROOT
ATOM      1  C   UNL     1    -102.450 -27.604 -16.596  1.00  0.00     0.000 C 
ENDROOT
BRANCH   1   2
ATOM      2  C   UNL     1    -102.936 -28.739 -15.681  1.00  0.00     0.000 C 
BRANCH   2   3
ATOM      3  C   UNL     1    -102.149 -28.752 -14.362  1.00  0.00     0.000 C 
BRANCH   3   4
ATOM      4  C   UNL     1    -101.235 -27.527 -14.204  1.00  0.00     0.000 C 
BRANCH   4   5
ATOM      5  C   UNL     1     -99.973 -27.832 -13.382  1.00  0.00     0.000 C 
BRANCH   5   6
ATOM      6  C   UNL     1     -99.889 -29.325 -13.041  1.00  0.00     0.006 C 
BRANCH   6   7
ATOM      7  C   UNL     1     -98.704 -29.610 -12.112  1.00  0.00     0.053 C 
BRANCH   7   8
ATOM      8  C   UNL     1     -97.514 -30.052 -12.903  1.00  0.00     0.041 C 
ATOM      9  O   UNL     1     -97.669 -30.647 -14.002  1.00  0.00    -0.550 OA
ATOM     10  O   UNL     1     -96.232 -29.764 -12.451  1.00  0.00    -0.550 OA
ENDBRANCH   7   8
ENDBRANCH   6   7
ENDBRANCH   5   6
ENDBRANCH   4   5
ENDBRANCH   3   4
ENDBRANCH   2   3
ENDBRANCH   1   2
BRANCH   1  11
ATOM     11  C   UNL     1    -103.554 -26.581 -16.921  1.00  0.00     0.000 C 
BRANCH  11  12
ATOM     12  C   UNL     1    -104.493 -26.236 -15.746  1.00  0.00    -0.000 C 
BRANCH  12  13
ATOM     13  C   UNL     1    -104.172 -24.918 -15.019  1.00  0.00    -0.000 C 
BRANCH  13  14
ATOM     14  C   UNL     1    -104.532 -24.900 -13.521  1.00  0.00    -0.000 C 
BRANCH  14  15
ATOM     15  C   UNL     1    -104.436 -26.284 -12.842  1.00  0.00    -0.000 C 
BRANCH  15  16
ATOM     16  C   UNL     1    -104.088 -26.185 -11.347  1.00  0.00    -0.000 C 
BRANCH  16  17
ATOM     17  C   UNL     1    -102.718 -26.798 -11.019  1.00  0.00    -0.003 C 
ATOM     18  C   UNL     1    -102.807 -28.283 -10.667  1.00  0.00     0.004 C 
ENDBRANCH  16  17
ENDBRANCH  15  16
ENDBRANCH  14  15
ENDBRANCH  13  14
ENDBRANCH  12  13
ENDBRANCH  11  12
ENDBRANCH   1  11
TORSDOF 14
ENDMDL
MODEL 4
REMARK VINA RESULT:    -3.125      1.082      2.962
REMARK INTER + INTRA:          -7.786
REMARK INTER:                  -5.482
REMARK INTRA:                  -2.305
REMARK UNBOUND:                -2.104
REMARK SMILES CCCCCCCCCCCCCCCC(=O)[O-]
REMARK SMILES IDX 9 1 10 2 11 3 12 4 13 5 14 6 15 7 16 8 17 9 18 10 8 11 7 12
REMARK SMILES IDX 6 13 5 14 4 15 3 16 2 17 1 18
REMARK H PARENT
REMARK Flexibility Score: inf
ROOT
ATOM      1  C   UNL     1    -104.683 -25.021 -13.633  1.00  0.00     0.000 C 
ENDROOT
BRANCH   1   2
ATOM      2  C   UNL     1    -104.605 -26.464 -13.111  1.00  0.00     0.000 C 
BRANCH   2   3
ATOM      3  C   UNL     1    -103.547 -26.589 -12.004  1.00  0.00     0.000 C 
BRANCH   3   4
ATOM      4  C   UNL     1    -102.846 -27.957 -12.007  1.00  0.00     0.000 C 
BRANCH   4   5
ATOM      5  C   UNL     1    -101.314 -27.837 -11.997  1.00  0.00     0.000 C 
BRANCH   5   6
ATOM      6  C   UNL     1    -100.666 -29.032 -12.707  1.00  0.00     0.006 C 
BRANCH   6   7
ATOM      7  C   UNL     1     -99.267 -28.675 -13.219  1.00  0.00     0.053 C 
BRANCH   7   8
ATOM      8  C   UNL     1     -98.243 -29.592 -12.628  1.00  0.00     0.041 C 
ATOM      9  O   UNL     1     -98.139 -29.704 -11.378  1.00  0.00    -0.550 OA
ATOM     10  O   UNL     1     -97.436 -30.360 -13.458  1.00  0.00    -0.550 OA
ENDBRANCH   7   8
ENDBRANCH   6   7
ENDBRANCH   5   6
ENDBRANCH   4   5
ENDBRANCH   3   4
ENDBRANCH   2   3
ENDBRANCH   1   2
BRANCH   1  11
ATOM     11  C   UNL     1    -104.241 -24.890 -15.102  1.00  0.00     0.000 C 
BRANCH  11  12
ATOM     12  C   UNL     1    -104.446 -26.154 -15.962  1.00  0.00    -0.000 C 
BRANCH  12  13
ATOM     13  C   UNL     1    -103.180 -26.682 -16.660  1.00  0.00    -0.000 C 
BRANCH  13  14
ATOM     14  C   UNL     1    -102.119 -27.278 -15.715  1.00  0.00    -0.000 C 
BRANCH  14  15
ATOM     15  C   UNL     1    -101.667 -28.701 -16.106  1.00  0.00    -0.000 C 
BRANCH  15  16
ATOM     16  C   UNL     1    -102.850 -29.670 -16.277  1.00  0.00    -0.000 C 
BRANCH  16  17
ATOM     17  C   UNL     1    -103.407 -30.163 -14.934  1.00  0.00    -0.003 C 
ATOM     18  C   UNL     1    -104.855 -29.731 -14.701  1.00  0.00     0.004 C 
ENDBRANCH  16  17
ENDBRANCH  15  16
ENDBRANCH  14  15
ENDBRANCH  13  14
ENDBRANCH  12  13
ENDBRANCH  11  12
ENDBRANCH   1  11
TORSDOF 14
ENDMDL
MODEL 5
REMARK VINA RESULT:    -3.123      3.554      6.262
REMARK INTER + INTRA:          -7.782
REMARK INTER:                  -5.343
REMARK INTRA:                  -2.440
REMARK UNBOUND:                -2.104
REMARK SMILES CCCCCCCCCCCCCCCC(=O)[O-]
REMARK SMILES IDX 9 1 10 2 11 3 12 4 13 5 14 6 15 7 16 8 17 9 18 10 8 11 7 12
REMARK SMILES IDX 6 13 5 14 4 15 3 16 2 17 1 18
REMARK H PARENT
REMARK Flexibility Score: inf
ROOT
ATOM      1  C   UNL     1    -103.574 -30.069 -14.317  1.00  0.00     0.000 C 
ENDROOT
BRANCH   1   2
ATOM      2  C   UNL     1    -102.226 -30.496 -14.919  1.00  0.00     0.000 C 
BRANCH   2   3
ATOM      3  C   UNL     1    -102.058 -29.933 -16.338  1.00  0.00     0.000 C 
BRANCH   3   4
ATOM      4  C   UNL     1    -101.625 -28.459 -16.343  1.00  0.00     0.000 C 
BRANCH   4   5
ATOM      5  C   UNL     1    -102.782 -27.503 -16.673  1.00  0.00     0.000 C 
BRANCH   5   6
ATOM      6  C   UNL     1    -102.946 -26.443 -15.577  1.00  0.00     0.006 C 
BRANCH   6   7
ATOM      7  C   UNL     1    -104.408 -26.004 -15.452  1.00  0.00     0.053 C 
BRANCH   7   8
ATOM      8  C   UNL     1    -104.497 -24.658 -14.804  1.00  0.00     0.041 C 
ATOM      9  O   UNL     1    -104.394 -24.549 -13.554  1.00  0.00    -0.550 OA
ATOM     10  O   UNL     1    -104.646 -23.519 -15.585  1.00  0.00    -0.550 OA
ENDBRANCH   7   8
ENDBRANCH   6   7
ENDBRANCH   5   6
ENDBRANCH   4   5
ENDBRANCH   3   4
ENDBRANCH   2   3
ENDBRANCH   1   2
BRANCH   1  11
ATOM     11  C   UNL     1    -103.485 -29.751 -12.813  1.00  0.00     0.000 C 
BRANCH  11  12
ATOM     12  C   UNL     1    -103.901 -28.317 -12.422  1.00  0.00    -0.000 C 
BRANCH  12  13
ATOM     13  C   UNL     1    -102.734 -27.349 -12.156  1.00  0.00    -0.000 C 
BRANCH  13  14
ATOM     14  C   UNL     1    -101.363 -28.023 -11.963  1.00  0.00    -0.000 C 
BRANCH  14  15
ATOM     15  C   UNL     1    -100.363 -27.736 -13.103  1.00  0.00    -0.000 C 
BRANCH  15  16
ATOM     16  C   UNL     1     -99.336 -28.867 -13.286  1.00  0.00    -0.000 C 
BRANCH  16  17
ATOM     17  C   UNL     1     -99.484 -29.974 -12.232  1.00  0.00    -0.003 C 
ATOM     18  C   UNL     1     -98.327 -29.998 -11.235  1.00  0.00     0.004 C 
ENDBRANCH  16  17
ENDBRANCH  15  16
ENDBRANCH  14  15
ENDBRANCH  13  14
ENDBRANCH  12  13
ENDBRANCH  11  12
ENDBRANCH   1  11
TORSDOF 14
ENDMDL
MODEL 6
REMARK VINA RESULT:    -3.073      1.886      2.219
REMARK INTER + INTRA:          -7.692
REMARK INTER:                  -5.196
REMARK INTRA:                  -2.496
REMARK UNBOUND:                -2.104
REMARK SMILES CCCCCCCCCCCCCCCC(=O)[O-]
REMARK SMILES IDX 9 1 10 2 11 3 12 4 13 5 14 6 15 7 16 8 17 9 18 10 8 11 7 12
REMARK SMILES IDX 6 13 5 14 4 15 3 16 2 17 1 18
REMARK H PARENT
REMARK Flexibility Score: inf
ROOT
ATOM      1  C   UNL     1    -104.303 -29.379 -14.039  1.00  0.00     0.000 C 
ENDROOT
BRANCH   1   2
ATOM      2  C   UNL     1    -103.827 -28.550 -12.836  1.00  0.00     0.000 C 
BRANCH   2   3
ATOM      3  C   UNL     1    -102.416 -28.974 -12.403  1.00  0.00     0.000 C 
BRANCH   3   4
ATOM      4  C   UNL     1    -101.454 -27.783 -12.270  1.00  0.00     0.000 C 
BRANCH   4   5
ATOM      5  C   UNL     1    -100.249 -27.886 -13.217  1.00  0.00     0.000 C 
BRANCH   5   6
ATOM      6  C   UNL     1     -99.427 -29.148 -12.923  1.00  0.00     0.006 C 
BRANCH   6   7
ATOM      7  C   UNL     1     -99.266 -30.005 -14.182  1.00  0.00     0.053 C 
BRANCH   7   8
ATOM      8  C   UNL     1     -99.844 -31.368 -13.965  1.00  0.00     0.041 C 
ATOM      9  O   UNL     1    -100.070 -31.782 -12.798  1.00  0.00    -0.550 OA
ATOM     10  O   UNL     1    -100.179 -32.162 -15.054  1.00  0.00    -0.550 OA
ENDBRANCH   7   8
ENDBRANCH   6   7
ENDBRANCH   5   6
ENDBRANCH   4   5
ENDBRANCH   3   4
ENDBRANCH   2   3
ENDBRANCH   1   2
BRANCH   1  11
ATOM     11  C   UNL     1    -103.149 -30.078 -14.780  1.00  0.00     0.000 C 
BRANCH  11  12
ATOM     12  C   UNL     1    -102.924 -29.608 -16.232  1.00  0.00    -0.000 C 
BRANCH  12  13
ATOM     13  C   UNL     1    -101.872 -28.497 -16.403  1.00  0.00    -0.000 C 
BRANCH  13  14
ATOM     14  C   UNL     1    -102.360 -27.081 -16.042  1.00  0.00    -0.000 C 
BRANCH  14  15
ATOM     15  C   UNL     1    -103.566 -26.605 -16.881  1.00  0.00    -0.000 C 
BRANCH  15  16
ATOM     16  C   UNL     1    -104.496 -25.665 -16.096  1.00  0.00    -0.000 C 
BRANCH  16  17
ATOM     17  C   UNL     1    -104.033 -25.452 -14.647  1.00  0.00    -0.003 C 
ATOM     18  C   UNL     1    -104.783 -24.317 -13.950  1.00  0.00     0.004 C 
ENDBRANCH  16  17
ENDBRANCH  15  16
ENDBRANCH  14  15
ENDBRANCH  13  14
ENDBRANCH  12  13
ENDBRANCH  11  12
ENDBRANCH   1  11
TORSDOF 14
ENDMDL
MODEL 7
REMARK VINA RESULT:    -3.059      3.758      6.391
REMARK INTER + INTRA:          -7.666
REMARK INTER:                  -5.520
REMARK INTRA:                  -2.146
REMARK UNBOUND:                -2.104
REMARK SMILES CCCCCCCCCCCCCCCC(=O)[O-]
REMARK SMILES IDX 9 1 10 2 11 3 12 4 13 5 14 6 15 7 16 8 17 9 18 10 8 11 7 12
REMARK SMILES IDX 6 13 5 14 4 15 3 16 2 17 1 18
REMARK H PARENT
REMARK Flexibility Score: inf
ROOT
ATOM      1  C   UNL     1    -101.431 -27.932 -12.616  1.00  0.00     0.000 C 
ENDROOT
BRANCH   1   2
ATOM      2  C   UNL     1    -102.458 -27.767 -13.747  1.00  0.00     0.000 C 
BRANCH   2   3
ATOM      3  C   UNL     1    -101.770 -27.340 -15.052  1.00  0.00     0.000 C 
BRANCH   3   4
ATOM      4  C   UNL     1    -102.690 -27.469 -16.276  1.00  0.00     0.000 C 
BRANCH   4   5
ATOM      5  C   UNL     1    -103.221 -26.112 -16.763  1.00  0.00     0.000 C 
BRANCH   5   6
ATOM      6  C   UNL     1    -104.753 -26.120 -16.845  1.00  0.00     0.006 C 
BRANCH   6   7
ATOM      7  C   UNL     1    -105.378 -25.834 -15.476  1.00  0.00     0.053 C 
BRANCH   7   8
ATOM      8  C   UNL     1    -104.783 -24.598 -14.878  1.00  0.00     0.041 C 
ATOM      9  O   UNL     1    -104.205 -24.650 -13.761  1.00  0.00    -0.550 OA
ATOM     10  O   UNL     1    -104.824 -23.398 -15.577  1.00  0.00    -0.550 OA
ENDBRANCH   7   8
ENDBRANCH   6   7
ENDBRANCH   5   6
ENDBRANCH   4   5
ENDBRANCH   3   4
ENDBRANCH   2   3
ENDBRANCH   1   2
BRANCH   1  11
ATOM     11  C   UNL     1     -99.976 -27.917 -13.119  1.00  0.00     0.000 C 
BRANCH  11  12
ATOM     12  C   UNL     1     -99.161 -29.188 -12.802  1.00  0.00    -0.000 C 
BRANCH  12  13
ATOM     13  C   UNL     1     -98.854 -30.087 -14.013  1.00  0.00    -0.000 C 
BRANCH  13  14
ATOM     14  C   UNL     1    -100.068 -30.848 -14.579  1.00  0.00    -0.000 C 
BRANCH  14  15
ATOM     15  C   UNL     1    -100.263 -30.665 -16.100  1.00  0.00    -0.000 C 
BRANCH  15  16
ATOM     16  C   UNL     1    -101.707 -30.949 -16.548  1.00  0.00    -0.000 C 
BRANCH  16  17
ATOM     17  C   UNL     1    -102.566 -31.546 -15.424  1.00  0.00    -0.003 C 
ATOM     18  C   UNL     1    -103.893 -30.810 -15.243  1.00  0.00     0.004 C 
ENDBRANCH  16  17
ENDBRANCH  15  16
ENDBRANCH  14  15
ENDBRANCH  13  14
ENDBRANCH  12  13
ENDBRANCH  11  12
ENDBRANCH   1  11
TORSDOF 14
ENDMDL
MODEL 8
REMARK VINA RESULT:    -3.055      3.758      6.352
REMARK INTER + INTRA:          -7.659
REMARK INTER:                  -5.346
REMARK INTRA:                  -2.313
REMARK UNBOUND:                -2.104
REMARK SMILES CCCCCCCCCCCCCCCC(=O)[O-]
REMARK SMILES IDX 9 1 10 2 11 3 12 4 13 5 14 6 15 7 16 8 17 9 18 10 8 11 7 12
REMARK SMILES IDX 6 13 5 14 4 15 3 16 2 17 1 18
REMARK H PARENT
REMARK Flexibility Score: inf
ROOT
ATOM      1  C   UNL     1    -101.872 -31.271 -14.329  1.00  0.00     0.000 C 
ENDROOT
BRANCH   1   2
ATOM      2  C   UNL     1    -100.996 -31.359 -15.588  1.00  0.00     0.000 C 
BRANCH   2   3
ATOM      3  C   UNL     1    -100.929 -30.001 -16.303  1.00  0.00     0.000 C 
BRANCH   3   4
ATOM      4  C   UNL     1    -102.301 -29.317 -16.406  1.00  0.00     0.000 C 
BRANCH   4   5
ATOM      5  C   UNL     1    -102.195 -27.785 -16.468  1.00  0.00     0.000 C 
BRANCH   5   6
ATOM      6  C   UNL     1    -103.587 -27.140 -16.486  1.00  0.00     0.006 C 
BRANCH   6   7
ATOM      7  C   UNL     1    -103.483 -25.612 -16.499  1.00  0.00     0.053 C 
BRANCH   7   8
ATOM      8  C   UNL     1    -104.404 -25.017 -15.480  1.00  0.00     0.041 C 
ATOM      9  O   UNL     1    -104.575 -23.770 -15.433  1.00  0.00    -0.550 OA
ATOM     10  O   UNL     1    -105.110 -25.843 -14.615  1.00  0.00    -0.550 OA
ENDBRANCH   7   8
ENDBRANCH   6   7
ENDBRANCH   5   6
ENDBRANCH   4   5
ENDBRANCH   3   4
ENDBRANCH   2   3
ENDBRANCH   1   2
BRANCH   1  11
ATOM     11  C   UNL     1    -101.158 -31.781 -13.064  1.00  0.00     0.000 C 
BRANCH  11  12
ATOM     12  C   UNL     1     -99.625 -31.913 -13.187  1.00  0.00    -0.000 C 
BRANCH  12  13
ATOM     13  C   UNL     1     -98.820 -31.267 -12.045  1.00  0.00    -0.000 C 
BRANCH  13  14
ATOM     14  C   UNL     1     -99.095 -29.767 -11.826  1.00  0.00    -0.000 C 
BRANCH  14  15
ATOM     15  C   UNL     1     -98.872 -28.904 -13.086  1.00  0.00    -0.000 C 
BRANCH  15  16
ATOM     16  C   UNL     1    -100.087 -28.021 -13.419  1.00  0.00    -0.000 C 
BRANCH  16  17
ATOM     17  C   UNL     1    -101.182 -28.096 -12.345  1.00  0.00    -0.003 C 
ATOM     18  C   UNL     1    -102.513 -27.513 -12.818  1.00  0.00     0.004 C 
ENDBRANCH  16  17
ENDBRANCH  15  16
ENDBRANCH  14  15
ENDBRANCH  13  14
ENDBRANCH  12  13
ENDBRANCH  11  12
ENDBRANCH   1  11
TORSDOF 14
ENDMDL
MODEL 9
REMARK VINA RESULT:    -3.042      4.257      6.378
REMARK INTER + INTRA:          -7.636
REMARK INTER:                  -6.151
REMARK INTRA:                  -1.484
REMARK UNBOUND:                -2.104
REMARK SMILES CCCCCCCCCCCCCCCC(=O)[O-]
REMARK SMILES IDX 9 1 10 2 11 3 12 4 13 5 14 6 15 7 16 8 17 9 18 10 8 11 7 12
REMARK SMILES IDX 6 13 5 14 4 15 3 16 2 17 1 18
REMARK H PARENT
REMARK Flexibility Score: inf
ROOT
ATOM      1  C   UNL     1    -104.509 -25.395 -13.657  1.00  0.00     0.000 C 
ENDROOT
BRANCH   1   2
ATOM      2  C   UNL     1    -104.662 -24.463 -12.446  1.00  0.00     0.000 C 
BRANCH   2   3
ATOM      3  C   UNL     1    -105.001 -23.033 -12.895  1.00  0.00     0.000 C 
BRANCH   3   4
ATOM      4  C   UNL     1    -105.282 -22.092 -11.713  1.00  0.00     0.000 C 
BRANCH   4   5
ATOM      5  C   UNL     1    -104.177 -21.041 -11.518  1.00  0.00     0.000 C 
BRANCH   5   6
ATOM      6  C   UNL     1    -103.290 -21.395 -10.318  1.00  0.00     0.006 C 
BRANCH   6   7
ATOM      7  C   UNL     1    -104.030 -22.311  -9.339  1.00  0.00     0.053 C 
BRANCH   7   8
ATOM      8  C   UNL     1    -103.116 -23.380  -8.828  1.00  0.00     0.041 C 
ATOM      9  O   UNL     1    -103.442 -24.592  -8.923  1.00  0.00    -0.550 OA
ATOM     10  O   UNL     1    -101.880 -23.039  -8.292  1.00  0.00    -0.550 OA
ENDBRANCH   7   8
ENDBRANCH   6   7
ENDBRANCH   5   6
ENDBRANCH   4   5
ENDBRANCH   3   4
ENDBRANCH   2   3
ENDBRANCH   1   2
BRANCH   1  11
ATOM     11  C   UNL     1    -104.306 -24.633 -14.979  1.00  0.00     0.000 C 
BRANCH  11  12
ATOM     12  C   UNL     1    -104.348 -25.505 -16.251  1.00  0.00    -0.000 C 
BRANCH  12  13
ATOM     13  C   UNL     1    -103.129 -26.424 -16.454  1.00  0.00    -0.000 C 
BRANCH  13  14
ATOM     14  C   UNL     1    -103.394 -27.919 -16.195  1.00  0.00    -0.000 C 
BRANCH  14  15
ATOM     15  C   UNL     1    -102.503 -28.526 -15.090  1.00  0.00    -0.000 C 
BRANCH  15  16
ATOM     16  C   UNL     1    -101.311 -27.622 -14.730  1.00  0.00    -0.000 C 
BRANCH  16  17
ATOM     17  C   UNL     1    -100.906 -27.741 -13.254  1.00  0.00    -0.003 C 
ATOM     18  C   UNL     1    -102.110 -27.816 -12.316  1.00  0.00     0.004 C 
ENDBRANCH  16  17
ENDBRANCH  15  16
ENDBRANCH  14  15
ENDBRANCH  13  14
ENDBRANCH  12  13
ENDBRANCH  11  12
ENDBRANCH   1  11
TORSDOF 14
ENDMDL
