MODEL 1
REMARK VINA RESULT:    -5.071      0.000      0.000
REMARK INTER + INTRA:          -5.766
REMARK INTER:                  -5.664
REMARK INTRA:                  -0.102
REMARK UNBOUND:                -0.102
REMARK SMILES COc1cc2ccc(=O)oc2cc1OC
REMARK SMILES IDX 3 1 13 2 12 3 11 4 5 5 4 6 6 7 7 8 8 9 9 10 10 11 2 12 1 13
REMARK SMILES IDX 14 14 15 15
REMARK H PARENT
REMARK Flexibility Score: inf
ROOT
ATOM      1  C   UNL     1      48.437   8.235  22.621  1.00  0.00     0.161 A 
ATOM      2  C   UNL     1      47.327   8.811  21.982  1.00  0.00     0.164 A 
ATOM      3  C   UNL     1      47.348   9.013  20.588  1.00  0.00     0.098 A 
ATOM      4  C   UNL     1      48.466   8.644  19.836  1.00  0.00     0.142 A 
ATOM      5  C   UNL     1      49.581   8.065  20.477  1.00  0.00     0.022 A 
ATOM      6  C   UNL     1      49.565   7.863  21.863  1.00  0.00     0.062 A 
ATOM      7  C   UNL     1      50.686   7.706  19.698  1.00  0.00     0.019 A 
ATOM      8  C   UNL     1      50.654   7.928  18.321  1.00  0.00     0.094 A 
ATOM      9  C   UNL     1      49.513   8.507  17.755  1.00  0.00     0.336 A 
ATOM     10  O   UNL     1      49.464   8.715  16.515  1.00  0.00    -0.246 OA
ATOM     11  O   UNL     1      48.476   8.839  18.520  1.00  0.00    -0.423 OA
ENDROOT
BRANCH   1  12
ATOM     12  O   UNL     1      48.382   8.049  24.012  1.00  0.00    -0.493 OA
ATOM     13  C   UNL     1      49.518   7.852  24.846  1.00  0.00     0.278 C 
ENDBRANCH   1  12
BRANCH   2  14
ATOM     14  O   UNL     1      46.219   9.171  22.768  1.00  0.00    -0.493 OA
ATOM     15  C   UNL     1      44.993   9.677  22.251  1.00  0.00     0.278 C 
ENDBRANCH   2  14
TORSDOF 2
ENDMDL
MODEL 2
REMARK VINA RESULT:    -5.060      6.664      7.657
REMARK INTER + INTRA:          -5.754
REMARK INTER:                  -5.637
REMARK INTRA:                  -0.116
REMARK UNBOUND:                -0.102
REMARK SMILES COc1cc2ccc(=O)oc2cc1OC
REMARK SMILES IDX 3 1 13 2 12 3 11 4 5 5 4 6 6 7 7 8 8 9 9 10 10 11 2 12 1 13
REMARK SMILES IDX 14 14 15 15
REMARK H PARENT
REMARK Flexibility Score: inf
ROOT
ATOM      1  C   UNL     1      48.749   1.792  21.689  1.00  0.00     0.161 A 
ATOM      2  C   UNL     1      49.606   1.096  22.559  1.00  0.00     0.164 A 
ATOM      3  C   UNL     1      51.000   1.149  22.358  1.00  0.00     0.098 A 
ATOM      4  C   UNL     1      51.535   1.887  21.300  1.00  0.00     0.142 A 
ATOM      5  C   UNL     1      50.676   2.585  20.427  1.00  0.00     0.022 A 
ATOM      6  C   UNL     1      49.289   2.536  20.622  1.00  0.00     0.062 A 
ATOM      7  C   UNL     1      51.242   3.315  19.377  1.00  0.00     0.019 A 
ATOM      8  C   UNL     1      52.628   3.332  19.224  1.00  0.00     0.094 A 
ATOM      9  C   UNL     1      53.418   2.615  20.129  1.00  0.00     0.336 A 
ATOM     10  O   UNL     1      54.671   2.618  20.009  1.00  0.00    -0.246 OA
ATOM     11  O   UNL     1      52.853   1.929  21.119  1.00  0.00    -0.423 OA
ENDROOT
BRANCH   1  12
ATOM     12  O   UNL     1      47.366   1.718  21.919  1.00  0.00    -0.493 OA
ATOM     13  C   UNL     1      46.421   1.187  20.996  1.00  0.00     0.278 C 
ENDBRANCH   1  12
BRANCH   2  14
ATOM     14  O   UNL     1      49.034   0.364  23.613  1.00  0.00    -0.493 OA
ATOM     15  C   UNL     1      49.732  -0.043  24.785  1.00  0.00     0.278 C 
ENDBRANCH   2  14
TORSDOF 2
ENDMDL
MODEL 3
REMARK VINA RESULT:    -5.024      6.930      7.540
REMARK INTER + INTRA:          -5.713
REMARK INTER:                  -5.592
REMARK INTRA:                  -0.121
REMARK UNBOUND:                -0.102
REMARK SMILES COc1cc2ccc(=O)oc2cc1OC
REMARK SMILES IDX 3 1 13 2 12 3 11 4 5 5 4 6 6 7 7 8 8 9 9 10 10 11 2 12 1 13
REMARK SMILES IDX 14 14 15 15
REMARK H PARENT
REMARK Flexibility Score: inf
ROOT
ATOM      1  C   UNL     1      50.449   0.291  22.583  1.00  0.00     0.161 A 
ATOM      2  C   UNL     1      49.292   0.991  22.200  1.00  0.00     0.164 A 
ATOM      3  C   UNL     1      49.379   2.004  21.224  1.00  0.00     0.098 A 
ATOM      4  C   UNL     1      50.607   2.318  20.636  1.00  0.00     0.142 A 
ATOM      5  C   UNL     1      51.768   1.615  21.021  1.00  0.00     0.022 A 
ATOM      6  C   UNL     1      51.687   0.608  21.991  1.00  0.00     0.062 A 
ATOM      7  C   UNL     1      52.982   1.952  20.415  1.00  0.00     0.019 A 
ATOM      8  C   UNL     1      53.011   2.963  19.455  1.00  0.00     0.094 A 
ATOM      9  C   UNL     1      51.820   3.617  19.123  1.00  0.00     0.336 A 
ATOM     10  O   UNL     1      51.824   4.532  18.259  1.00  0.00    -0.246 OA
ATOM     11  O   UNL     1      50.678   3.277  19.716  1.00  0.00    -0.423 OA
ENDROOT
BRANCH   1  12
ATOM     12  O   UNL     1      50.326  -0.712  23.559  1.00  0.00    -0.493 OA
ATOM     13  C   UNL     1      51.106  -1.902  23.596  1.00  0.00     0.278 C 
ENDBRANCH   1  12
BRANCH   2  14
ATOM     14  O   UNL     1      48.074   0.650  22.811  1.00  0.00    -0.493 OA
ATOM     15  C   UNL     1      46.983   0.026  22.143  1.00  0.00     0.278 C 
ENDBRANCH   2  14
TORSDOF 2
ENDMDL
MODEL 4
REMARK VINA RESULT:    -4.980      1.765      3.003
REMARK INTER + INTRA:          -5.663
REMARK INTER:                  -5.509
REMARK INTRA:                  -0.154
REMARK UNBOUND:                -0.102
REMARK SMILES COc1cc2ccc(=O)oc2cc1OC
REMARK SMILES IDX 3 1 13 2 12 3 11 4 5 5 4 6 6 7 7 8 8 9 9 10 10 11 2 12 1 13
REMARK SMILES IDX 14 14 15 15
REMARK H PARENT
REMARK Flexibility Score: inf
ROOT
ATOM      1  C   UNL     1      46.951   9.692  21.172  1.00  0.00     0.161 A 
ATOM      2  C   UNL     1      47.560   8.941  22.192  1.00  0.00     0.164 A 
ATOM      3  C   UNL     1      48.733   8.211  21.916  1.00  0.00     0.098 A 
ATOM      4  C   UNL     1      49.294   8.228  20.637  1.00  0.00     0.142 A 
ATOM      5  C   UNL     1      48.683   8.982  19.614  1.00  0.00     0.022 A 
ATOM      6  C   UNL     1      47.517   9.709  19.882  1.00  0.00     0.062 A 
ATOM      7  C   UNL     1      49.268   8.979  18.344  1.00  0.00     0.019 A 
ATOM      8  C   UNL     1      50.430   8.238  18.127  1.00  0.00     0.094 A 
ATOM      9  C   UNL     1      50.980   7.513  19.190  1.00  0.00     0.336 A 
ATOM     10  O   UNL     1      52.028   6.839  19.015  1.00  0.00    -0.246 OA
ATOM     11  O   UNL     1      50.403   7.534  20.388  1.00  0.00    -0.423 OA
ENDROOT
BRANCH   1  12
ATOM     12  O   UNL     1      45.783  10.408  21.482  1.00  0.00    -0.493 OA
ATOM     13  C   UNL     1      45.679  11.827  21.471  1.00  0.00     0.278 C 
ENDBRANCH   1  12
BRANCH   2  14
ATOM     14  O   UNL     1      46.969   8.946  23.466  1.00  0.00    -0.493 OA
ATOM     15  C   UNL     1      47.411   9.747  24.557  1.00  0.00     0.278 C 
ENDBRANCH   2  14
TORSDOF 2
ENDMDL
MODEL 5
REMARK VINA RESULT:    -4.900      1.514      5.617
REMARK INTER + INTRA:          -5.575
REMARK INTER:                  -5.416
REMARK INTRA:                  -0.159
REMARK UNBOUND:                -0.102
REMARK SMILES COc1cc2ccc(=O)oc2cc1OC
REMARK SMILES IDX 3 1 13 2 12 3 11 4 5 5 4 6 6 7 7 8 8 9 9 10 10 11 2 12 1 13
REMARK SMILES IDX 14 14 15 15
REMARK H PARENT
REMARK Flexibility Score: inf
ROOT
ATOM      1  C   UNL     1      49.377   8.608  18.772  1.00  0.00     0.161 A 
ATOM      2  C   UNL     1      50.245   7.879  19.603  1.00  0.00     0.164 A 
ATOM      3  C   UNL     1      49.818   7.489  20.888  1.00  0.00     0.098 A 
ATOM      4  C   UNL     1      48.540   7.821  21.341  1.00  0.00     0.142 A 
ATOM      5  C   UNL     1      47.669   8.552  20.508  1.00  0.00     0.022 A 
ATOM      6  C   UNL     1      48.087   8.944  19.230  1.00  0.00     0.062 A 
ATOM      7  C   UNL     1      46.395   8.870  20.990  1.00  0.00     0.019 A 
ATOM      8  C   UNL     1      46.025   8.457  22.271  1.00  0.00     0.094 A 
ATOM      9  C   UNL     1      46.942   7.735  23.041  1.00  0.00     0.336 A 
ATOM     10  O   UNL     1      46.628   7.354  24.198  1.00  0.00    -0.246 OA
ATOM     11  O   UNL     1      48.148   7.447  22.557  1.00  0.00    -0.423 OA
ENDROOT
BRANCH   1  12
ATOM     12  O   UNL     1      49.834   8.982  17.498  1.00  0.00    -0.493 OA
ATOM     13  C   UNL     1      49.454   8.343  16.284  1.00  0.00     0.278 C 
ENDBRANCH   1  12
BRANCH   2  14
ATOM     14  O   UNL     1      51.523   7.562  19.115  1.00  0.00    -0.493 OA
ATOM     15  C   UNL     1      51.870   6.324  18.503  1.00  0.00     0.278 C 
ENDBRANCH   2  14
TORSDOF 2
ENDMDL
MODEL 6
REMARK VINA RESULT:    -4.764      1.611      5.210
REMARK INTER + INTRA:          -5.422
REMARK INTER:                  -5.303
REMARK INTRA:                  -0.119
REMARK UNBOUND:                -0.102
REMARK SMILES COc1cc2ccc(=O)oc2cc1OC
REMARK SMILES IDX 3 1 13 2 12 3 11 4 5 5 4 6 6 7 7 8 8 9 9 10 10 11 2 12 1 13
REMARK SMILES IDX 14 14 15 15
REMARK H PARENT
REMARK Flexibility Score: inf
ROOT
ATOM      1  C   UNL     1      47.449   9.432  21.326  1.00  0.00     0.161 A 
ATOM      2  C   UNL     1      48.354   8.615  20.627  1.00  0.00     0.164 A 
ATOM      3  C   UNL     1      49.224   7.766  21.341  1.00  0.00     0.098 A 
ATOM      4  C   UNL     1      49.193   7.733  22.737  1.00  0.00     0.142 A 
ATOM      5  C   UNL     1      48.285   8.553  23.438  1.00  0.00     0.022 A 
ATOM      6  C   UNL     1      47.419   9.399  22.734  1.00  0.00     0.062 A 
ATOM      7  C   UNL     1      48.279   8.497  24.835  1.00  0.00     0.019 A 
ATOM      8  C   UNL     1      49.162   7.639  25.490  1.00  0.00     0.094 A 
ATOM      9  C   UNL     1      50.034   6.854  24.729  1.00  0.00     0.336 A 
ATOM     10  O   UNL     1      50.838   6.074  25.301  1.00  0.00    -0.246 OA
ATOM     11  O   UNL     1      50.020   6.927  23.400  1.00  0.00    -0.423 OA
ENDROOT
BRANCH   1  12
ATOM     12  O   UNL     1      46.597  10.266  20.583  1.00  0.00    -0.493 OA
ATOM     13  C   UNL     1      46.221  11.584  20.967  1.00  0.00     0.278 C 
ENDBRANCH   1  12
BRANCH   2  14
ATOM     14  O   UNL     1      48.358   8.674  19.224  1.00  0.00    -0.493 OA
ATOM     15  C   UNL     1      49.480   9.055  18.435  1.00  0.00     0.278 C 
ENDBRANCH   2  14
TORSDOF 2
ENDMDL
MODEL 7
REMARK VINA RESULT:    -4.730      7.078      8.126
REMARK INTER + INTRA:          -5.385
REMARK INTER:                  -5.265
REMARK INTRA:                  -0.120
REMARK UNBOUND:                -0.102
REMARK SMILES COc1cc2ccc(=O)oc2cc1OC
REMARK SMILES IDX 3 1 13 2 12 3 11 4 5 5 4 6 6 7 7 8 8 9 9 10 10 11 2 12 1 13
REMARK SMILES IDX 14 14 15 15
REMARK H PARENT
REMARK Flexibility Score: inf
ROOT
ATOM      1  C   UNL     1      50.512   0.662  22.056  1.00  0.00     0.161 A 
ATOM      2  C   UNL     1      50.853   1.863  21.412  1.00  0.00     0.164 A 
ATOM      3  C   UNL     1      49.843   2.659  20.837  1.00  0.00     0.098 A 
ATOM      4  C   UNL     1      48.505   2.263  20.902  1.00  0.00     0.142 A 
ATOM      5  C   UNL     1      48.163   1.057  21.548  1.00  0.00     0.022 A 
ATOM      6  C   UNL     1      49.163   0.261  22.121  1.00  0.00     0.062 A 
ATOM      7  C   UNL     1      46.815   0.687  21.597  1.00  0.00     0.019 A 
ATOM      8  C   UNL     1      45.856   1.513  21.011  1.00  0.00     0.094 A 
ATOM      9  C   UNL     1      46.270   2.694  20.387  1.00  0.00     0.336 A 
ATOM     10  O   UNL     1      45.421   3.453  19.853  1.00  0.00    -0.246 OA
ATOM     11  O   UNL     1      47.559   3.022  20.355  1.00  0.00    -0.423 OA
ENDROOT
BRANCH   1  12
ATOM     12  O   UNL     1      51.544  -0.108  22.618  1.00  0.00    -0.493 OA
ATOM     13  C   UNL     1      51.481  -1.514  22.827  1.00  0.00     0.278 C 
ENDBRANCH   1  12
BRANCH   2  14
ATOM     14  O   UNL     1      52.208   2.231  21.364  1.00  0.00    -0.493 OA
ATOM     15  C   UNL     1      53.019   2.178  20.195  1.00  0.00     0.278 C 
ENDBRANCH   2  14
TORSDOF 2
ENDMDL
MODEL 8
REMARK VINA RESULT:    -4.642     13.384     15.339
REMARK INTER + INTRA:          -5.287
REMARK INTER:                  -5.179
REMARK INTRA:                  -0.108
REMARK UNBOUND:                -0.102
REMARK SMILES COc1cc2ccc(=O)oc2cc1OC
REMARK SMILES IDX 3 1 13 2 12 3 11 4 5 5 4 6 6 7 7 8 8 9 9 10 10 11 2 12 1 13
REMARK SMILES IDX 14 14 15 15
REMARK H PARENT
REMARK Flexibility Score: inf
ROOT
ATOM      1  C   UNL     1      59.974  -0.867  15.230  1.00  0.00     0.161 A 
ATOM      2  C   UNL     1      59.452   0.314  15.782  1.00  0.00     0.164 A 
ATOM      3  C   UNL     1      58.530   0.241  16.846  1.00  0.00     0.098 A 
ATOM      4  C   UNL     1      58.131  -0.998  17.353  1.00  0.00     0.142 A 
ATOM      5  C   UNL     1      58.655  -2.184  16.798  1.00  0.00     0.022 A 
ATOM      6  C   UNL     1      59.571  -2.117  15.741  1.00  0.00     0.062 A 
ATOM      7  C   UNL     1      58.236  -3.408  17.327  1.00  0.00     0.019 A 
ATOM      8  C   UNL     1      57.321  -3.423  18.380  1.00  0.00     0.094 A 
ATOM      9  C   UNL     1      56.844  -2.206  18.880  1.00  0.00     0.336 A 
ATOM     10  O   UNL     1      56.018  -2.197  19.829  1.00  0.00    -0.246 OA
ATOM     11  O   UNL     1      57.259  -1.055  18.357  1.00  0.00    -0.423 OA
ENDROOT
BRANCH   1  12
ATOM     12  O   UNL     1      60.890  -0.757  14.171  1.00  0.00    -0.493 OA
ATOM     13  C   UNL     1      62.305  -0.770  14.324  1.00  0.00     0.278 C 
ENDBRANCH   1  12
BRANCH   2  14
ATOM     14  O   UNL     1      59.875   1.543  15.248  1.00  0.00    -0.493 OA
ATOM     15  C   UNL     1      59.063   2.709  15.166  1.00  0.00     0.278 C 
ENDBRANCH   2  14
TORSDOF 2
ENDMDL
MODEL 9
REMARK VINA RESULT:    -4.621      1.514      4.940
REMARK INTER + INTRA:          -5.263
REMARK INTER:                  -5.145
REMARK INTRA:                  -0.118
REMARK UNBOUND:                -0.102
REMARK SMILES COc1cc2ccc(=O)oc2cc1OC
REMARK SMILES IDX 3 1 13 2 12 3 11 4 5 5 4 6 6 7 7 8 8 9 9 10 10 11 2 12 1 13
REMARK SMILES IDX 14 14 15 15
REMARK H PARENT
REMARK Flexibility Score: inf
ROOT
ATOM      1  C   UNL     1      48.247   8.553  20.558  1.00  0.00     0.161 A 
ATOM      2  C   UNL     1      47.387   9.375  21.304  1.00  0.00     0.164 A 
ATOM      3  C   UNL     1      47.422   9.327  22.712  1.00  0.00     0.098 A 
ATOM      4  C   UNL     1      48.304   8.466  23.370  1.00  0.00     0.142 A 
ATOM      5  C   UNL     1      49.167   7.641  22.620  1.00  0.00     0.022 A 
ATOM      6  C   UNL     1      49.137   7.684  21.221  1.00  0.00     0.062 A 
ATOM      7  C   UNL     1      50.038   6.790  23.307  1.00  0.00     0.019 A 
ATOM      8  C   UNL     1      50.030   6.782  24.703  1.00  0.00     0.094 A 
ATOM      9  C   UNL     1      49.146   7.629  25.379  1.00  0.00     0.336 A 
ATOM     10  O   UNL     1      49.123   7.637  26.637  1.00  0.00    -0.246 OA
ATOM     11  O   UNL     1      48.327   8.428  24.700  1.00  0.00    -0.423 OA
ENDROOT
BRANCH   1  12
ATOM     12  O   UNL     1      48.187   8.626  19.156  1.00  0.00    -0.493 OA
ATOM     13  C   UNL     1      49.307   8.864  18.311  1.00  0.00     0.278 C 
ENDBRANCH   1  12
BRANCH   2  14
ATOM     14  O   UNL     1      46.513  10.228  20.611  1.00  0.00    -0.493 OA
ATOM     15  C   UNL     1      46.220  11.568  20.993  1.00  0.00     0.278 C 
ENDBRANCH   2  14
TORSDOF 2
ENDMDL
