MODEL 1
REMARK VINA RESULT:    -5.344      0.000      0.000
REMARK INTER + INTRA:          -5.748
REMARK INTER:                  -5.657
REMARK INTRA:                  -0.091
REMARK UNBOUND:                -0.091
REMARK SMILES C=C(C)[C@@H]1CC=C(C)C(=O)C1
REMARK SMILES IDX 8 1 7 2 6 3 5 4 4 5 11 6 9 7 10 8 2 9 1 10 3 11
REMARK H PARENT
REMARK Flexibility Score: inf
ROOT
ATOM      1  C   UNL     1      -9.164  -0.210   9.776  1.00  0.00     0.048 C 
ATOM      2  C   UNL     1      -8.170  -1.244   9.323  1.00  0.00    -0.012 C 
ATOM      3  C   UNL     1      -7.497  -1.977  10.226  1.00  0.00    -0.019 C 
ATOM      4  C   UNL     1      -6.552  -3.077   9.820  1.00  0.00     0.036 C 
ATOM      5  C   UNL     1      -5.899  -2.775   8.457  1.00  0.00     0.025 C 
ATOM      6  C   UNL     1      -6.980  -2.510   7.393  1.00  0.00     0.089 C 
ATOM      7  C   UNL     1      -7.953  -1.467   7.871  1.00  0.00     0.158 C 
ATOM      8  O   UNL     1      -8.619  -0.814   7.024  1.00  0.00    -0.295 OA
ENDROOT
BRANCH   5   9
ATOM      9  C   UNL     1      -4.950  -3.887   8.030  1.00  0.00    -0.077 C 
ATOM     10  C   UNL     1      -3.789  -4.102   8.674  1.00  0.00     0.008 C 
ATOM     11  C   UNL     1      -5.303  -4.775   6.865  1.00  0.00     0.039 C 
ENDBRANCH   5   9
TORSDOF 1
ENDMDL
MODEL 2
REMARK VINA RESULT:    -5.312      1.847      4.687
REMARK INTER + INTRA:          -5.714
REMARK INTER:                  -5.616
REMARK INTRA:                  -0.098
REMARK UNBOUND:                -0.091
REMARK SMILES C=C(C)[C@@H]1CC=C(C)C(=O)C1
REMARK SMILES IDX 8 1 7 2 6 3 5 4 4 5 11 6 9 7 10 8 2 9 1 10 3 11
REMARK H PARENT
REMARK Flexibility Score: inf
ROOT
ATOM      1  C   UNL     1      -4.932  -4.495   7.343  1.00  0.00     0.048 C 
ATOM      2  C   UNL     1      -5.980  -3.513   7.790  1.00  0.00    -0.012 C 
ATOM      3  C   UNL     1      -6.716  -2.850   6.882  1.00  0.00    -0.019 C 
ATOM      4  C   UNL     1      -7.830  -1.918   7.280  1.00  0.00     0.036 C 
ATOM      5  C   UNL     1      -7.544  -1.260   8.645  1.00  0.00     0.025 C 
ATOM      6  C   UNL     1      -7.272  -2.338   9.711  1.00  0.00     0.089 C 
ATOM      7  C   UNL     1      -6.215  -3.298   9.240  1.00  0.00     0.158 C 
ATOM      8  O   UNL     1      -5.559  -3.955  10.091  1.00  0.00    -0.295 OA
ENDROOT
BRANCH   5   9
ATOM      9  C   UNL     1      -8.670  -0.324   9.064  1.00  0.00    -0.077 C 
ATOM     10  C   UNL     1      -8.776   0.119  10.329  1.00  0.00     0.008 C 
ATOM     11  C   UNL     1      -9.694   0.125   8.054  1.00  0.00     0.039 C 
ENDBRANCH   5   9
TORSDOF 1
ENDMDL
MODEL 3
REMARK VINA RESULT:    -5.201      1.631      2.491
REMARK INTER + INTRA:          -5.597
REMARK INTER:                  -5.507
REMARK INTRA:                  -0.090
REMARK UNBOUND:                -0.091
REMARK SMILES C=C(C)[C@@H]1CC=C(C)C(=O)C1
REMARK SMILES IDX 8 1 7 2 6 3 5 4 4 5 11 6 9 7 10 8 2 9 1 10 3 11
REMARK H PARENT
REMARK Flexibility Score: inf
ROOT
ATOM      1  C   UNL     1      -8.653  -1.126   6.097  1.00  0.00     0.048 C 
ATOM      2  C   UNL     1      -7.551  -1.787   6.879  1.00  0.00    -0.012 C 
ATOM      3  C   UNL     1      -7.120  -3.014   6.537  1.00  0.00    -0.019 C 
ATOM      4  C   UNL     1      -5.968  -3.682   7.239  1.00  0.00     0.036 C 
ATOM      5  C   UNL     1      -5.878  -3.235   8.711  1.00  0.00     0.025 C 
ATOM      6  C   UNL     1      -5.805  -1.699   8.800  1.00  0.00     0.089 C 
ATOM      7  C   UNL     1      -6.923  -1.068   8.016  1.00  0.00     0.158 C 
ATOM      8  O   UNL     1      -7.293   0.101   8.307  1.00  0.00    -0.295 OA
ENDROOT
BRANCH   5   9
ATOM      9  C   UNL     1      -4.707  -3.896   9.428  1.00  0.00    -0.077 C 
ATOM     10  C   UNL     1      -4.835  -4.381  10.676  1.00  0.00     0.008 C 
ATOM     11  C   UNL     1      -3.372  -4.017   8.741  1.00  0.00     0.039 C 
ENDBRANCH   5   9
TORSDOF 1
ENDMDL
MODEL 4
REMARK VINA RESULT:    -5.170      1.718      4.330
REMARK INTER + INTRA:          -5.563
REMARK INTER:                  -5.472
REMARK INTRA:                  -0.091
REMARK UNBOUND:                -0.091
REMARK SMILES C=C(C)[C@@H]1CC=C(C)C(=O)C1
REMARK SMILES IDX 8 1 7 2 6 3 5 4 4 5 11 6 9 7 10 8 2 9 1 10 3 11
REMARK H PARENT
REMARK Flexibility Score: inf
ROOT
ATOM      1  C   UNL     1      -3.760  -4.317   8.768  1.00  0.00     0.048 C 
ATOM      2  C   UNL     1      -4.887  -3.320   8.769  1.00  0.00    -0.012 C 
ATOM      3  C   UNL     1      -4.855  -2.263   9.598  1.00  0.00    -0.019 C 
ATOM      4  C   UNL     1      -5.919  -1.197   9.579  1.00  0.00     0.036 C 
ATOM      5  C   UNL     1      -7.281  -1.779   9.152  1.00  0.00     0.025 C 
ATOM      6  C   UNL     1      -7.153  -2.503   7.798  1.00  0.00     0.089 C 
ATOM      7  C   UNL     1      -6.025  -3.497   7.831  1.00  0.00     0.158 C 
ATOM      8  O   UNL     1      -6.032  -4.462   7.021  1.00  0.00    -0.295 OA
ENDROOT
BRANCH   5   9
ATOM      9  C   UNL     1      -8.363  -0.708   9.117  1.00  0.00    -0.077 C 
ATOM     10  C   UNL     1      -8.825  -0.142  10.247  1.00  0.00     0.008 C 
ATOM     11  C   UNL     1      -8.940  -0.259   7.799  1.00  0.00     0.039 C 
ENDBRANCH   5   9
TORSDOF 1
ENDMDL
MODEL 5
REMARK VINA RESULT:    -5.146      1.703      2.350
REMARK INTER + INTRA:          -5.538
REMARK INTER:                  -5.442
REMARK INTRA:                  -0.096
REMARK UNBOUND:                -0.091
REMARK SMILES C=C(C)[C@@H]1CC=C(C)C(=O)C1
REMARK SMILES IDX 8 1 7 2 6 3 5 4 4 5 11 6 9 7 10 8 2 9 1 10 3 11
REMARK H PARENT
REMARK Flexibility Score: inf
ROOT
ATOM      1  C   UNL     1      -8.707   0.125  10.272  1.00  0.00     0.048 C 
ATOM      2  C   UNL     1      -7.706  -0.818   9.663  1.00  0.00    -0.012 C 
ATOM      3  C   UNL     1      -8.074  -1.646   8.670  1.00  0.00    -0.019 C 
ATOM      4  C   UNL     1      -7.090  -2.550   7.976  1.00  0.00     0.036 C 
ATOM      5  C   UNL     1      -5.954  -2.973   8.929  1.00  0.00     0.025 C 
ATOM      6  C   UNL     1      -5.278  -1.731   9.539  1.00  0.00     0.089 C 
ATOM      7  C   UNL     1      -6.302  -0.813  10.147  1.00  0.00     0.158 C 
ATOM      8  O   UNL     1      -5.946  -0.003  11.044  1.00  0.00    -0.295 OA
ENDROOT
BRANCH   5   9
ATOM      9  C   UNL     1      -4.945  -3.878   8.233  1.00  0.00    -0.077 C 
ATOM     10  C   UNL     1      -5.257  -4.532   7.100  1.00  0.00     0.008 C 
ATOM     11  C   UNL     1      -3.566  -4.057   8.813  1.00  0.00     0.039 C 
ENDBRANCH   5   9
TORSDOF 1
ENDMDL
MODEL 6
REMARK VINA RESULT:    -5.136      1.091      1.485
REMARK INTER + INTRA:          -5.527
REMARK INTER:                  -5.430
REMARK INTRA:                  -0.097
REMARK UNBOUND:                -0.091
REMARK SMILES C=C(C)[C@@H]1CC=C(C)C(=O)C1
REMARK SMILES IDX 8 1 7 2 6 3 5 4 4 5 11 6 9 7 10 8 2 9 1 10 3 11
REMARK H PARENT
REMARK Flexibility Score: inf
ROOT
ATOM      1  C   UNL     1      -9.124  -0.259   8.422  1.00  0.00     0.048 C 
ATOM      2  C   UNL     1      -8.057  -1.290   8.670  1.00  0.00    -0.012 C 
ATOM      3  C   UNL     1      -7.611  -1.515   9.917  1.00  0.00    -0.019 C 
ATOM      4  C   UNL     1      -6.603  -2.591  10.225  1.00  0.00     0.036 C 
ATOM      5  C   UNL     1      -5.655  -2.823   9.032  1.00  0.00     0.025 C 
ATOM      6  C   UNL     1      -6.464  -3.126   7.757  1.00  0.00     0.089 C 
ATOM      7  C   UNL     1      -7.516  -2.075   7.532  1.00  0.00     0.158 C 
ATOM      8  O   UNL     1      -7.968  -1.898   6.369  1.00  0.00    -0.295 OA
ENDROOT
BRANCH   5   9
ATOM      9  C   UNL     1      -4.638  -3.918   9.327  1.00  0.00    -0.077 C 
ATOM     10  C   UNL     1      -3.807  -4.377   8.375  1.00  0.00     0.008 C 
ATOM     11  C   UNL     1      -4.547  -4.511  10.710  1.00  0.00     0.039 C 
ENDBRANCH   5   9
TORSDOF 1
ENDMDL
MODEL 7
REMARK VINA RESULT:    -5.019      1.361      4.053
REMARK INTER + INTRA:          -5.404
REMARK INTER:                  -5.308
REMARK INTRA:                  -0.096
REMARK UNBOUND:                -0.091
REMARK SMILES C=C(C)[C@@H]1CC=C(C)C(=O)C1
REMARK SMILES IDX 8 1 7 2 6 3 5 4 4 5 11 6 9 7 10 8 2 9 1 10 3 11
REMARK H PARENT
REMARK Flexibility Score: inf
ROOT
ATOM      1  C   UNL     1      -5.636  -4.910   6.641  1.00  0.00     0.048 C 
ATOM      2  C   UNL     1      -5.998  -3.722   7.491  1.00  0.00    -0.012 C 
ATOM      3  C   UNL     1      -5.417  -3.546   8.690  1.00  0.00    -0.019 C 
ATOM      4  C   UNL     1      -5.688  -2.333   9.540  1.00  0.00     0.036 C 
ATOM      5  C   UNL     1      -7.114  -1.798   9.308  1.00  0.00     0.025 C 
ATOM      6  C   UNL     1      -7.346  -1.526   7.809  1.00  0.00     0.089 C 
ATOM      7  C   UNL     1      -6.983  -2.732   6.988  1.00  0.00     0.158 C 
ATOM      8  O   UNL     1      -7.492  -2.871   5.844  1.00  0.00    -0.295 OA
ENDROOT
BRANCH   5   9
ATOM      9  C   UNL     1      -7.395  -0.562  10.154  1.00  0.00    -0.077 C 
ATOM     10  C   UNL     1      -6.400   0.125  10.741  1.00  0.00     0.008 C 
ATOM     11  C   UNL     1      -8.812  -0.087  10.348  1.00  0.00     0.039 C 
ENDBRANCH   5   9
TORSDOF 1
ENDMDL
MODEL 8
REMARK VINA RESULT:    -4.988      1.952      4.558
REMARK INTER + INTRA:          -5.372
REMARK INTER:                  -5.277
REMARK INTRA:                  -0.095
REMARK UNBOUND:                -0.091
REMARK SMILES C=C(C)[C@@H]1CC=C(C)C(=O)C1
REMARK SMILES IDX 8 1 7 2 6 3 5 4 4 5 11 6 9 7 10 8 2 9 1 10 3 11
REMARK H PARENT
REMARK Flexibility Score: inf
ROOT
ATOM      1  C   UNL     1      -3.754  -4.393   8.766  1.00  0.00     0.048 C 
ATOM      2  C   UNL     1      -4.979  -3.610   8.379  1.00  0.00    -0.012 C 
ATOM      3  C   UNL     1      -5.708  -3.979   7.311  1.00  0.00    -0.019 C 
ATOM      4  C   UNL     1      -6.984  -3.275   6.932  1.00  0.00     0.036 C 
ATOM      5  C   UNL     1      -6.943  -1.789   7.340  1.00  0.00     0.025 C 
ATOM      6  C   UNL     1      -6.625  -1.656   8.841  1.00  0.00     0.089 C 
ATOM      7  C   UNL     1      -5.393  -2.442   9.196  1.00  0.00     0.158 C 
ATOM      8  O   UNL     1      -4.737  -2.125  10.224  1.00  0.00    -0.295 OA
ENDROOT
BRANCH   5   9
ATOM      9  C   UNL     1      -8.235  -1.070   6.972  1.00  0.00    -0.077 C 
ATOM     10  C   UNL     1      -8.821  -1.253   5.776  1.00  0.00     0.008 C 
ATOM     11  C   UNL     1      -8.882  -0.131   7.957  1.00  0.00     0.039 C 
ENDBRANCH   5   9
TORSDOF 1
ENDMDL
MODEL 9
REMARK VINA RESULT:    -4.864      1.943      4.783
REMARK INTER + INTRA:          -5.239
REMARK INTER:                  -5.143
REMARK INTRA:                  -0.096
REMARK UNBOUND:                -0.091
REMARK SMILES C=C(C)[C@@H]1CC=C(C)C(=O)C1
REMARK SMILES IDX 8 1 7 2 6 3 5 4 4 5 11 6 9 7 10 8 2 9 1 10 3 11
REMARK H PARENT
REMARK Flexibility Score: inf
ROOT
ATOM      1  C   UNL     1      -4.278  -4.390   8.121  1.00  0.00     0.048 C 
ATOM      2  C   UNL     1      -5.460  -3.488   8.348  1.00  0.00    -0.012 C 
ATOM      3  C   UNL     1      -5.954  -2.753   7.338  1.00  0.00    -0.019 C 
ATOM      4  C   UNL     1      -7.183  -1.897   7.496  1.00  0.00     0.036 C 
ATOM      5  C   UNL     1      -7.318  -1.380   8.942  1.00  0.00     0.025 C 
ATOM      6  C   UNL     1      -7.291  -2.556   9.936  1.00  0.00     0.089 C 
ATOM      7  C   UNL     1      -6.095  -3.434   9.689  1.00  0.00     0.158 C 
ATOM      8  O   UNL     1      -5.662  -4.159  10.624  1.00  0.00    -0.295 OA
ENDROOT
BRANCH   5   9
ATOM      9  C   UNL     1      -8.565  -0.523   9.118  1.00  0.00    -0.077 C 
ATOM     10  C   UNL     1      -9.426  -0.324   8.104  1.00  0.00     0.008 C 
ATOM     11  C   UNL     1      -8.856   0.123  10.448  1.00  0.00     0.039 C 
ENDBRANCH   5   9
TORSDOF 1
ENDMDL
