MODEL 1
REMARK VINA RESULT:    -3.348      0.000      0.000
REMARK INTER + INTRA:          -4.255
REMARK INTER:                  -4.033
REMARK INTRA:                  -0.222
REMARK UNBOUND:                -0.222
REMARK SMILES OCC(O)CO
REMARK SMILES IDX 3 1 5 2 6 3 2 5 1 6 4 8
REMARK H PARENT 6 4 1 7 4 9
REMARK Flexibility Score: inf
ROOT
ATOM      1  C   UNL     1      84.462  56.917  98.304  1.00  0.00     0.165 C 
ENDROOT
BRANCH   1   2
ATOM      2  C   UNL     1      83.537  56.892  97.078  1.00  0.00     0.190 C 
BRANCH   2   3
ATOM      3  O   UNL     1      83.015  55.607  96.867  1.00  0.00    -0.394 OA
ATOM      4  H   UNL     1      83.777  55.032  96.592  1.00  0.00     0.210 HD
ENDBRANCH   2   3
ENDBRANCH   1   2
BRANCH   1   5
ATOM      5  C   UNL     1      83.676  57.039  99.621  1.00  0.00     0.190 C 
BRANCH   5   6
ATOM      6  O   UNL     1      82.670  56.065  99.698  1.00  0.00    -0.394 OA
ATOM      7  H   UNL     1      82.601  55.648  98.800  1.00  0.00     0.210 HD
ENDBRANCH   5   6
ENDBRANCH   1   5
BRANCH   1   8
ATOM      8  O   UNL     1      85.238  55.748  98.315  1.00  0.00    -0.388 OA
ATOM      9  H   UNL     1      85.841  55.809  99.102  1.00  0.00     0.211 HD
ENDBRANCH   1   8
TORSDOF 5
ENDMDL
MODEL 2
REMARK VINA RESULT:    -3.300     12.663     13.493
REMARK INTER + INTRA:          -4.197
REMARK INTER:                  -3.978
REMARK INTRA:                  -0.219
REMARK UNBOUND:                -0.222
REMARK SMILES OCC(O)CO
REMARK SMILES IDX 3 1 5 2 6 3 2 5 1 6 4 8
REMARK H PARENT 6 4 1 7 4 9
REMARK Flexibility Score: inf
ROOT
ATOM      1  C   UNL     1      94.202  47.288  99.591  1.00  0.00     0.165 C 
ENDROOT
BRANCH   1   2
ATOM      2  C   UNL     1      93.909  46.003  98.802  1.00  0.00     0.190 C 
BRANCH   2   3
ATOM      3  O   UNL     1      92.543  45.893  98.507  1.00  0.00    -0.394 OA
ATOM      4  H   UNL     1      92.278  46.741  98.063  1.00  0.00     0.210 HD
ENDBRANCH   2   3
ENDBRANCH   1   2
BRANCH   1   5
ATOM      5  C   UNL     1      94.203  48.535  98.689  1.00  0.00     0.190 C 
BRANCH   5   6
ATOM      6  O   UNL     1      92.975  48.676  98.025  1.00  0.00    -0.394 OA
ATOM      7  H   UNL     1      92.514  47.798  98.080  1.00  0.00     0.210 HD
ENDBRANCH   5   6
ENDBRANCH   1   5
BRANCH   1   8
ATOM      8  O   UNL     1      93.241  47.430 100.604  1.00  0.00    -0.388 OA
ATOM      9  H   UNL     1      92.396  47.709 100.163  1.00  0.00     0.211 HD
ENDBRANCH   1   8
TORSDOF 5
ENDMDL
MODEL 3
REMARK VINA RESULT:    -3.182     12.495     13.486
REMARK INTER + INTRA:          -4.056
REMARK INTER:                  -3.848
REMARK INTRA:                  -0.208
REMARK UNBOUND:                -0.222
REMARK SMILES OCC(O)CO
REMARK SMILES IDX 3 1 5 2 6 3 2 5 1 6 4 8
REMARK H PARENT 6 4 1 7 4 9
REMARK Flexibility Score: inf
ROOT
ATOM      1  C   UNL     1      94.648  50.027  97.231  1.00  0.00     0.165 C 
ENDROOT
BRANCH   1   2
ATOM      2  C   UNL     1      96.048  49.596  96.769  1.00  0.00     0.190 C 
BRANCH   2   3
ATOM      3  O   UNL     1      96.951  49.585  97.843  1.00  0.00    -0.394 OA
ATOM      4  H   UNL     1      96.741  48.778  98.383  1.00  0.00     0.210 HD
ENDBRANCH   2   3
ENDBRANCH   1   2
BRANCH   1   5
ATOM      5  C   UNL     1      93.997  48.986  98.159  1.00  0.00     0.190 C 
BRANCH   5   6
ATOM      6  O   UNL     1      94.521  47.706  97.923  1.00  0.00    -0.394 OA
ATOM      7  H   UNL     1      93.750  47.105  97.747  1.00  0.00     0.210 HD
ENDBRANCH   5   6
ENDBRANCH   1   5
BRANCH   1   8
ATOM      8  O   UNL     1      94.744  51.263  97.889  1.00  0.00    -0.388 OA
ATOM      9  H   UNL     1      94.846  51.957  97.185  1.00  0.00     0.211 HD
ENDBRANCH   1   8
TORSDOF 5
ENDMDL
MODEL 4
REMARK VINA RESULT:    -3.161     12.858     13.809
REMARK INTER + INTRA:          -4.030
REMARK INTER:                  -4.027
REMARK INTRA:                  -0.002
REMARK UNBOUND:                -0.222
REMARK SMILES OCC(O)CO
REMARK SMILES IDX 3 1 5 2 6 3 2 5 1 6 4 8
REMARK H PARENT 6 4 1 7 4 9
REMARK Flexibility Score: inf
ROOT
ATOM      1  C   UNL     1      95.165  48.525  98.006  1.00  0.00     0.165 C 
ENDROOT
BRANCH   1   2
ATOM      2  C   UNL     1      96.379  48.747  97.091  1.00  0.00     0.190 C 
BRANCH   2   3
ATOM      3  O   UNL     1      97.325  49.582  97.704  1.00  0.00    -0.394 OA
ATOM      4  H   UNL     1      96.931  49.873  98.568  1.00  0.00     0.210 HD
ENDBRANCH   2   3
ENDBRANCH   1   2
BRANCH   1   5
ATOM      5  C   UNL     1      94.046  49.548  97.744  1.00  0.00     0.190 C 
BRANCH   5   6
ATOM      6  O   UNL     1      92.784  48.936  97.792  1.00  0.00    -0.394 OA
ATOM      7  H   UNL     1      92.301  49.328  98.566  1.00  0.00     0.210 HD
ENDBRANCH   5   6
ENDBRANCH   1   5
BRANCH   1   8
ATOM      8  O   UNL     1      94.679  47.223  97.811  1.00  0.00    -0.388 OA
ATOM      9  H   UNL     1      94.209  46.962  98.646  1.00  0.00     0.211 HD
ENDBRANCH   1   8
TORSDOF 5
ENDMDL
MODEL 5
REMARK VINA RESULT:    -3.159     12.904     13.709
REMARK INTER + INTRA:          -4.028
REMARK INTER:                  -3.810
REMARK INTRA:                  -0.219
REMARK UNBOUND:                -0.222
REMARK SMILES OCC(O)CO
REMARK SMILES IDX 3 1 5 2 6 3 2 5 1 6 4 8
REMARK H PARENT 6 4 1 7 4 9
REMARK Flexibility Score: inf
ROOT
ATOM      1  C   UNL     1      94.667  47.218  98.775  1.00  0.00     0.165 C 
ENDROOT
BRANCH   1   2
ATOM      2  C   UNL     1      94.115  48.650  98.689  1.00  0.00     0.190 C 
BRANCH   2   3
ATOM      3  O   UNL     1      92.963  48.698  97.889  1.00  0.00    -0.394 OA
ATOM      4  H   UNL     1      93.024  49.531  97.352  1.00  0.00     0.210 HD
ENDBRANCH   2   3
ENDBRANCH   1   2
BRANCH   1   5
ATOM      5  C   UNL     1      93.625  46.227  99.324  1.00  0.00     0.190 C 
BRANCH   5   6
ATOM      6  O   UNL     1      92.683  45.893  98.340  1.00  0.00    -0.394 OA
ATOM      7  H   UNL     1      92.312  45.005  98.584  1.00  0.00     0.210 HD
ENDBRANCH   5   6
ENDBRANCH   1   5
BRANCH   1   8
ATOM      8  O   UNL     1      95.088  46.814  97.499  1.00  0.00    -0.388 OA
ATOM      9  H   UNL     1      94.877  45.847  97.419  1.00  0.00     0.211 HD
ENDBRANCH   1   8
TORSDOF 5
ENDMDL
MODEL 6
REMARK VINA RESULT:    -3.150     12.493     13.527
REMARK INTER + INTRA:          -4.017
REMARK INTER:                  -4.015
REMARK INTRA:                  -0.002
REMARK UNBOUND:                -0.222
REMARK SMILES OCC(O)CO
REMARK SMILES IDX 3 1 5 2 6 3 2 5 1 6 4 8
REMARK H PARENT 6 4 1 7 4 9
REMARK Flexibility Score: inf
ROOT
ATOM      1  C   UNL     1      95.108  49.941  97.393  1.00  0.00     0.165 C 
ENDROOT
BRANCH   1   2
ATOM      2  C   UNL     1      94.244  49.031  98.278  1.00  0.00     0.190 C 
BRANCH   2   3
ATOM      3  O   UNL     1      92.972  48.844  97.719  1.00  0.00    -0.394 OA
ATOM      4  H   UNL     1      92.914  49.449  96.934  1.00  0.00     0.210 HD
ENDBRANCH   2   3
ENDBRANCH   1   2
BRANCH   1   5
ATOM      5  C   UNL     1      96.368  49.224  96.878  1.00  0.00     0.190 C 
BRANCH   5   6
ATOM      6  O   UNL     1      97.458  49.448  97.733  1.00  0.00    -0.394 OA
ATOM      7  H   UNL     1      97.165  49.196  98.648  1.00  0.00     0.210 HD
ENDBRANCH   5   6
ENDBRANCH   1   5
BRANCH   1   8
ATOM      8  O   UNL     1      94.336  50.390  96.310  1.00  0.00    -0.388 OA
ATOM      9  H   UNL     1      94.744  50.010  95.488  1.00  0.00     0.211 HD
ENDBRANCH   1   8
TORSDOF 5
ENDMDL
MODEL 7
REMARK VINA RESULT:    -3.145     14.183     15.179
REMARK INTER + INTRA:          -4.011
REMARK INTER:                  -3.788
REMARK INTRA:                  -0.223
REMARK UNBOUND:                -0.222
REMARK SMILES OCC(O)CO
REMARK SMILES IDX 3 1 5 2 6 3 2 5 1 6 4 8
REMARK H PARENT 6 4 1 7 4 9
REMARK Flexibility Score: inf
ROOT
ATOM      1  C   UNL     1      95.809  47.734  97.807  1.00  0.00     0.165 C 
ENDROOT
BRANCH   1   2
ATOM      2  C   UNL     1      96.056  49.110  97.168  1.00  0.00     0.190 C 
BRANCH   2   3
ATOM      3  O   UNL     1      97.214  49.706  97.689  1.00  0.00    -0.394 OA
ATOM      4  H   UNL     1      97.943  49.036  97.604  1.00  0.00     0.210 HD
ENDBRANCH   2   3
ENDBRANCH   1   2
BRANCH   1   5
ATOM      5  C   UNL     1      96.497  47.599  99.178  1.00  0.00     0.190 C 
BRANCH   5   6
ATOM      6  O   UNL     1      97.835  47.204  99.031  1.00  0.00    -0.394 OA
ATOM      7  H   UNL     1      98.079  46.699  99.851  1.00  0.00     0.210 HD
ENDBRANCH   5   6
ENDBRANCH   1   5
BRANCH   1   8
ATOM      8  O   UNL     1      94.427  47.536  97.943  1.00  0.00    -0.388 OA
ATOM      9  H   UNL     1      94.117  47.087  97.113  1.00  0.00     0.211 HD
ENDBRANCH   1   8
TORSDOF 5
ENDMDL
MODEL 8
REMARK VINA RESULT:    -3.144     13.107     14.005
REMARK INTER + INTRA:          -4.009
REMARK INTER:                  -3.785
REMARK INTRA:                  -0.224
REMARK UNBOUND:                -0.222
REMARK SMILES OCC(O)CO
REMARK SMILES IDX 3 1 5 2 6 3 2 5 1 6 4 8
REMARK H PARENT 6 4 1 7 4 9
REMARK Flexibility Score: inf
ROOT
ATOM      1  C   UNL     1      95.746  48.851  97.404  1.00  0.00     0.165 C 
ENDROOT
BRANCH   1   2
ATOM      2  C   UNL     1      95.723  47.547  98.216  1.00  0.00     0.190 C 
BRANCH   2   3
ATOM      3  O   UNL     1      95.090  46.519  97.502  1.00  0.00    -0.394 OA
ATOM      4  H   UNL     1      94.539  46.957  96.801  1.00  0.00     0.210 HD
ENDBRANCH   2   3
ENDBRANCH   1   2
BRANCH   1   5
ATOM      5  C   UNL     1      94.465  49.681  97.605  1.00  0.00     0.190 C 
BRANCH   5   6
ATOM      6  O   UNL     1      93.372  48.854  97.901  1.00  0.00    -0.394 OA
ATOM      7  H   UNL     1      93.351  48.142  97.209  1.00  0.00     0.210 HD
ENDBRANCH   5   6
ENDBRANCH   1   5
BRANCH   1   8
ATOM      8  O   UNL     1      96.869  49.603  97.780  1.00  0.00    -0.388 OA
ATOM      9  H   UNL     1      97.594  49.378  97.139  1.00  0.00     0.211 HD
ENDBRANCH   1   8
TORSDOF 5
ENDMDL
MODEL 9
REMARK VINA RESULT:    -3.089     13.086     13.999
REMARK INTER + INTRA:          -3.944
REMARK INTER:                  -3.736
REMARK INTRA:                  -0.208
REMARK UNBOUND:                -0.222
REMARK SMILES OCC(O)CO
REMARK SMILES IDX 3 1 5 2 6 3 2 5 1 6 4 8
REMARK H PARENT 6 4 1 7 4 9
REMARK Flexibility Score: inf
ROOT
ATOM      1  C   UNL     1      95.708  48.864  98.117  1.00  0.00     0.165 C 
ENDROOT
BRANCH   1   2
ATOM      2  C   UNL     1      94.468  49.560  97.535  1.00  0.00     0.190 C 
BRANCH   2   3
ATOM      3  O   UNL     1      93.292  48.908  97.932  1.00  0.00    -0.394 OA
ATOM      4  H   UNL     1      92.838  49.509  98.580  1.00  0.00     0.210 HD
ENDBRANCH   2   3
ENDBRANCH   1   2
BRANCH   1   5
ATOM      5  C   UNL     1      95.926  47.466  97.512  1.00  0.00     0.190 C 
BRANCH   5   6
ATOM      6  O   UNL     1      94.866  46.607  97.837  1.00  0.00    -0.394 OA
ATOM      7  H   UNL     1      95.219  45.680  97.789  1.00  0.00     0.210 HD
ENDBRANCH   5   6
ENDBRANCH   1   5
BRANCH   1   8
ATOM      8  O   UNL     1      96.834  49.668  97.884  1.00  0.00    -0.388 OA
ATOM      9  H   UNL     1      97.211  49.900  98.773  1.00  0.00     0.211 HD
ENDBRANCH   1   8
TORSDOF 5
ENDMDL
