MODEL 1
REMARK VINA RESULT:    -2.303      0.000      0.000
REMARK INTER + INTRA:          -3.748
REMARK INTER:                  -3.380
REMARK INTRA:                  -0.368
REMARK UNBOUND:                -0.368
REMARK SMILES O=C([O-])CCCCCCCC(=O)[O-]
REMARK SMILES IDX 7 1 6 2 5 3 4 4 2 5 1 6 3 7 8 8 9 9 10 10 11 11 12 12 13 13
REMARK H PARENT
REMARK Flexibility Score: inf
ROOT
ATOM      1  C   UNL     1      -4.474  34.923  21.647  1.00  0.00     0.000 C 
ENDROOT
BRANCH   1   2
ATOM      2  C   UNL     1      -4.790  34.174  22.948  1.00  0.00     0.000 C 
BRANCH   2   3
ATOM      3  C   UNL     1      -6.124  34.641  23.540  1.00  0.00     0.006 C 
BRANCH   3   4
ATOM      4  C   UNL     1      -5.953  35.087  24.996  1.00  0.00     0.053 C 
BRANCH   4   5
ATOM      5  C   UNL     1      -5.528  36.519  25.058  1.00  0.00     0.041 C 
ATOM      6  O   UNL     1      -5.906  37.332  24.173  1.00  0.00    -0.550 OA
ATOM      7  O   UNL     1      -4.675  36.949  26.067  1.00  0.00    -0.550 OA
ENDBRANCH   4   5
ENDBRANCH   3   4
ENDBRANCH   2   3
ENDBRANCH   1   2
BRANCH   1   8
ATOM      8  C   UNL     1      -5.544  35.981  21.347  1.00  0.00     0.000 C 
BRANCH   8   9
ATOM      9  C   UNL     1      -5.778  36.111  19.835  1.00  0.00     0.006 C 
BRANCH   9  10
ATOM     10  C   UNL     1      -4.483  35.935  19.029  1.00  0.00     0.053 C 
BRANCH  10  11
ATOM     11  C   UNL     1      -4.601  34.835  18.020  1.00  0.00     0.041 C 
ATOM     12  O   UNL     1      -5.347  33.845  18.246  1.00  0.00    -0.550 OA
ATOM     13  O   UNL     1      -3.862  34.885  16.845  1.00  0.00    -0.550 OA
ENDBRANCH  10  11
ENDBRANCH   9  10
ENDBRANCH   8   9
ENDBRANCH   1   8
TORSDOF 8
ENDMDL
MODEL 2
REMARK VINA RESULT:    -2.132      2.192      3.280
REMARK INTER + INTRA:          -3.497
REMARK INTER:                  -3.315
REMARK INTRA:                  -0.182
REMARK UNBOUND:                -0.368
REMARK SMILES O=C([O-])CCCCCCCC(=O)[O-]
REMARK SMILES IDX 7 1 6 2 5 3 4 4 2 5 1 6 3 7 8 8 9 9 10 10 11 11 12 12 13 13
REMARK H PARENT
REMARK Flexibility Score: inf
ROOT
ATOM      1  C   UNL     1      -5.890  34.759  18.762  1.00  0.00     0.000 C 
ENDROOT
BRANCH   1   2
ATOM      2  C   UNL     1      -5.625  35.700  19.944  1.00  0.00     0.000 C 
BRANCH   2   3
ATOM      3  C   UNL     1      -6.116  35.083  21.259  1.00  0.00     0.006 C 
BRANCH   3   4
ATOM      4  C   UNL     1      -5.765  35.978  22.451  1.00  0.00     0.053 C 
BRANCH   4   5
ATOM      5  C   UNL     1      -5.828  35.201  23.727  1.00  0.00     0.041 C 
ATOM      6  O   UNL     1      -5.938  33.946  23.700  1.00  0.00    -0.550 OA
ATOM      7  O   UNL     1      -5.816  35.864  24.948  1.00  0.00    -0.550 OA
ENDBRANCH   4   5
ENDBRANCH   3   4
ENDBRANCH   2   3
ENDBRANCH   1   2
BRANCH   1   8
ATOM      8  C   UNL     1      -4.586  34.405  18.037  1.00  0.00     0.000 C 
BRANCH   8   9
ATOM      9  C   UNL     1      -4.123  35.564  17.143  1.00  0.00     0.006 C 
BRANCH   9  10
ATOM     10  C   UNL     1      -3.251  35.084  15.974  1.00  0.00     0.053 C 
BRANCH  10  11
ATOM     11  C   UNL     1      -3.171  36.106  14.883  1.00  0.00     0.041 C 
ATOM     12  O   UNL     1      -4.176  36.809  14.598  1.00  0.00    -0.550 OA
ATOM     13  O   UNL     1      -1.996  36.259  14.157  1.00  0.00    -0.550 OA
ENDBRANCH  10  11
ENDBRANCH   9  10
ENDBRANCH   8   9
ENDBRANCH   1   8
TORSDOF 8
ENDMDL
MODEL 3
REMARK VINA RESULT:    -1.798      0.827      6.338
REMARK INTER + INTRA:          -3.007
REMARK INTER:                  -2.526
REMARK INTRA:                  -0.480
REMARK UNBOUND:                -0.368
REMARK SMILES O=C([O-])CCCCCCCC(=O)[O-]
REMARK SMILES IDX 7 1 6 2 5 3 4 4 2 5 1 6 3 7 8 8 9 9 10 10 11 11 12 12 13 13
REMARK H PARENT
REMARK Flexibility Score: inf
ROOT
ATOM      1  C   UNL     1      -4.610  35.185  22.337  1.00  0.00     0.000 C 
ENDROOT
BRANCH   1   2
ATOM      2  C   UNL     1      -5.339  36.357  21.668  1.00  0.00     0.000 C 
BRANCH   2   3
ATOM      3  C   UNL     1      -5.644  36.048  20.198  1.00  0.00     0.006 C 
BRANCH   3   4
ATOM      4  C   UNL     1      -4.479  35.304  19.540  1.00  0.00     0.053 C 
BRANCH   4   5
ATOM      5  C   UNL     1      -4.949  34.554  18.334  1.00  0.00     0.041 C 
ATOM      6  O   UNL     1      -5.994  33.853  18.392  1.00  0.00    -0.550 OA
ATOM      7  O   UNL     1      -4.208  34.588  17.160  1.00  0.00    -0.550 OA
ENDBRANCH   4   5
ENDBRANCH   3   4
ENDBRANCH   2   3
ENDBRANCH   1   2
BRANCH   1   8
ATOM      8  C   UNL     1      -5.494  34.523  23.402  1.00  0.00     0.000 C 
BRANCH   8   9
ATOM      9  C   UNL     1      -6.123  35.576  24.325  1.00  0.00     0.006 C 
BRANCH   9  10
ATOM     10  C   UNL     1      -5.255  35.860  25.559  1.00  0.00     0.053 C 
BRANCH  10  11
ATOM     11  C   UNL     1      -4.712  37.256  25.548  1.00  0.00     0.041 C 
ATOM     12  O   UNL     1      -3.728  37.559  26.273  1.00  0.00    -0.550 OA
ATOM     13  O   UNL     1      -5.314  38.231  24.763  1.00  0.00    -0.550 OA
ENDBRANCH  10  11
ENDBRANCH   9  10
ENDBRANCH   8   9
ENDBRANCH   1   8
TORSDOF 8
ENDMDL
MODEL 4
REMARK VINA RESULT:    -1.765      2.937      3.939
REMARK INTER + INTRA:          -2.959
REMARK INTER:                  -2.543
REMARK INTRA:                  -0.416
REMARK UNBOUND:                -0.368
REMARK SMILES O=C([O-])CCCCCCCC(=O)[O-]
REMARK SMILES IDX 7 1 6 2 5 3 4 4 2 5 1 6 3 7 8 8 9 9 10 10 11 11 12 12 13 13
REMARK H PARENT
REMARK Flexibility Score: inf
ROOT
ATOM      1  C   UNL     1      -6.091  34.598  18.598  1.00  0.00     0.000 C 
ENDROOT
BRANCH   1   2
ATOM      2  C   UNL     1      -6.125  34.642  20.131  1.00  0.00     0.000 C 
BRANCH   2   3
ATOM      3  C   UNL     1      -4.992  35.516  20.681  1.00  0.00     0.006 C 
BRANCH   3   4
ATOM      4  C   UNL     1      -5.543  36.633  21.572  1.00  0.00     0.053 C 
BRANCH   4   5
ATOM      5  C   UNL     1      -5.485  37.948  20.862  1.00  0.00     0.041 C 
ATOM      6  O   UNL     1      -5.328  37.987  19.612  1.00  0.00    -0.550 OA
ATOM      7  O   UNL     1      -5.555  39.133  21.583  1.00  0.00    -0.550 OA
ENDBRANCH   4   5
ENDBRANCH   3   4
ENDBRANCH   2   3
ENDBRANCH   1   2
BRANCH   1   8
ATOM      8  C   UNL     1      -4.661  34.378  18.085  1.00  0.00     0.000 C 
BRANCH   8   9
ATOM      9  C   UNL     1      -4.240  35.506  17.132  1.00  0.00     0.006 C 
BRANCH   9  10
ATOM     10  C   UNL     1      -3.193  35.042  16.111  1.00  0.00     0.053 C 
BRANCH  10  11
ATOM     11  C   UNL     1      -3.077  35.995  14.961  1.00  0.00     0.041 C 
ATOM     12  O   UNL     1      -2.017  36.043  14.282  1.00  0.00    -0.550 OA
ATOM     13  O   UNL     1      -4.126  36.855  14.660  1.00  0.00    -0.550 OA
ENDBRANCH  10  11
ENDBRANCH   9  10
ENDBRANCH   8   9
ENDBRANCH   1   8
TORSDOF 8
ENDMDL
MODEL 5
REMARK VINA RESULT:    -1.681      2.943      7.062
REMARK INTER + INTRA:          -2.835
REMARK INTER:                  -2.547
REMARK INTRA:                  -0.288
REMARK UNBOUND:                -0.368
REMARK SMILES O=C([O-])CCCCCCCC(=O)[O-]
REMARK SMILES IDX 7 1 6 2 5 3 4 4 2 5 1 6 3 7 8 8 9 9 10 10 11 11 12 12 13 13
REMARK H PARENT
REMARK Flexibility Score: inf
ROOT
ATOM      1  C   UNL     1      -4.636  35.037  19.256  1.00  0.00     0.000 C 
ENDROOT
BRANCH   1   2
ATOM      2  C   UNL     1      -4.613  34.571  17.794  1.00  0.00     0.000 C 
BRANCH   2   3
ATOM      3  C   UNL     1      -4.177  35.707  16.862  1.00  0.00     0.006 C 
BRANCH   3   4
ATOM      4  C   UNL     1      -3.169  35.208  15.823  1.00  0.00     0.053 C 
BRANCH   4   5
ATOM      5  C   UNL     1      -3.122  36.136  14.650  1.00  0.00     0.041 C 
ATOM      6  O   UNL     1      -2.060  36.263  13.985  1.00  0.00    -0.550 OA
ATOM      7  O   UNL     1      -4.235  36.898  14.321  1.00  0.00    -0.550 OA
ENDBRANCH   4   5
ENDBRANCH   3   4
ENDBRANCH   2   3
ENDBRANCH   1   2
BRANCH   1   8
ATOM      8  C   UNL     1      -6.059  34.993  19.825  1.00  0.00     0.000 C 
BRANCH   8   9
ATOM      9  C   UNL     1      -6.125  35.686  21.194  1.00  0.00     0.006 C 
BRANCH   9  10
ATOM     10  C   UNL     1      -5.004  36.719  21.375  1.00  0.00     0.053 C 
BRANCH  10  11
ATOM     11  C   UNL     1      -5.455  38.100  21.009  1.00  0.00     0.041 C 
ATOM     12  O   UNL     1      -5.759  38.371  19.817  1.00  0.00    -0.550 OA
ATOM     13  O   UNL     1      -5.507  39.095  21.977  1.00  0.00    -0.550 OA
ENDBRANCH  10  11
ENDBRANCH   9  10
ENDBRANCH   8   9
ENDBRANCH   1   8
TORSDOF 8
ENDMDL
MODEL 6
REMARK VINA RESULT:    -1.558      2.287      5.190
REMARK INTER + INTRA:          -2.655
REMARK INTER:                  -2.101
REMARK INTRA:                  -0.554
REMARK UNBOUND:                -0.368
REMARK SMILES O=C([O-])CCCCCCCC(=O)[O-]
REMARK SMILES IDX 7 1 6 2 5 3 4 4 2 5 1 6 3 7 8 8 9 9 10 10 11 11 12 12 13 13
REMARK H PARENT
REMARK Flexibility Score: inf
ROOT
ATOM      1  C   UNL     1      -4.078  34.752  21.397  1.00  0.00     0.000 C 
ENDROOT
BRANCH   1   2
ATOM      2  C   UNL     1      -5.216  34.760  20.369  1.00  0.00     0.000 C 
BRANCH   2   3
ATOM      3  C   UNL     1      -5.591  36.194  19.976  1.00  0.00     0.006 C 
BRANCH   3   4
ATOM      4  C   UNL     1      -4.899  37.212  20.887  1.00  0.00     0.053 C 
BRANCH   4   5
ATOM      5  C   UNL     1      -5.508  38.567  20.717  1.00  0.00     0.041 C 
ATOM      6  O   UNL     1      -6.079  38.874  19.638  1.00  0.00    -0.550 OA
ATOM      7  O   UNL     1      -5.404  39.510  21.733  1.00  0.00    -0.550 OA
ENDBRANCH   4   5
ENDBRANCH   3   4
ENDBRANCH   2   3
ENDBRANCH   1   2
BRANCH   1   8
ATOM      8  C   UNL     1      -4.507  34.044  22.688  1.00  0.00     0.000 C 
BRANCH   8   9
ATOM      9  C   UNL     1      -5.945  34.423  23.071  1.00  0.00     0.006 C 
BRANCH   9  10
ATOM     10  C   UNL     1      -6.071  34.801  24.554  1.00  0.00     0.053 C 
BRANCH  10  11
ATOM     11  C   UNL     1      -5.683  36.227  24.799  1.00  0.00     0.041 C 
ATOM     12  O   UNL     1      -6.124  37.140  24.053  1.00  0.00    -0.550 OA
ATOM     13  O   UNL     1      -4.808  36.543  25.830  1.00  0.00    -0.550 OA
ENDBRANCH  10  11
ENDBRANCH   9  10
ENDBRANCH   8   9
ENDBRANCH   1   8
TORSDOF 8
ENDMDL
MODEL 7
REMARK VINA RESULT:    -1.487      1.775      2.465
REMARK INTER + INTRA:          -2.551
REMARK INTER:                  -2.146
REMARK INTRA:                  -0.405
REMARK UNBOUND:                -0.368
REMARK SMILES O=C([O-])CCCCCCCC(=O)[O-]
REMARK SMILES IDX 7 1 6 2 5 3 4 4 2 5 1 6 3 7 8 8 9 9 10 10 11 11 12 12 13 13
REMARK H PARENT
REMARK Flexibility Score: inf
ROOT
ATOM      1  C   UNL     1      -4.138  34.837  21.819  1.00  0.00     0.000 C 
ENDROOT
BRANCH   1   2
ATOM      2  C   UNL     1      -4.749  33.906  22.874  1.00  0.00     0.000 C 
BRANCH   2   3
ATOM      3  C   UNL     1      -6.125  34.412  23.322  1.00  0.00     0.006 C 
BRANCH   3   4
ATOM      4  C   UNL     1      -6.083  34.909  24.770  1.00  0.00     0.053 C 
BRANCH   4   5
ATOM      5  C   UNL     1      -5.768  36.371  24.813  1.00  0.00     0.041 C 
ATOM      6  O   UNL     1      -6.096  37.118  23.854  1.00  0.00    -0.550 OA
ATOM      7  O   UNL     1      -5.069  36.901  25.890  1.00  0.00    -0.550 OA
ENDBRANCH   4   5
ENDBRANCH   3   4
ENDBRANCH   2   3
ENDBRANCH   1   2
BRANCH   1   8
ATOM      8  C   UNL     1      -4.342  34.275  20.406  1.00  0.00     0.000 C 
BRANCH   8   9
ATOM      9  C   UNL     1      -5.051  35.298  19.506  1.00  0.00     0.006 C 
BRANCH   9  10
ATOM     10  C   UNL     1      -5.892  36.297  20.313  1.00  0.00     0.053 C 
BRANCH  10  11
ATOM     11  C   UNL     1      -5.382  37.698  20.167  1.00  0.00     0.041 C 
ATOM     12  O   UNL     1      -4.836  38.065  19.093  1.00  0.00    -0.550 OA
ATOM     13  O   UNL     1      -5.479  38.588  21.229  1.00  0.00    -0.550 OA
ENDBRANCH  10  11
ENDBRANCH   9  10
ENDBRANCH   8   9
ENDBRANCH   1   8
TORSDOF 8
ENDMDL
MODEL 8
REMARK VINA RESULT:    -1.359      1.952      2.731
REMARK INTER + INTRA:          -2.363
REMARK INTER:                  -2.080
REMARK INTRA:                  -0.283
REMARK UNBOUND:                -0.368
REMARK SMILES O=C([O-])CCCCCCCC(=O)[O-]
REMARK SMILES IDX 7 1 6 2 5 3 4 4 2 5 1 6 3 7 8 8 9 9 10 10 11 11 12 12 13 13
REMARK H PARENT
REMARK Flexibility Score: inf
ROOT
ATOM      1  C   UNL     1      -5.256  34.562  23.292  1.00  0.00     0.000 C 
ENDROOT
BRANCH   1   2
ATOM      2  C   UNL     1      -5.639  35.741  24.196  1.00  0.00     0.000 C 
BRANCH   2   3
ATOM      3  C   UNL     1      -6.119  36.937  23.365  1.00  0.00     0.006 C 
BRANCH   3   4
ATOM      4  C   UNL     1      -4.952  37.862  23.010  1.00  0.00     0.053 C 
BRANCH   4   5
ATOM      5  C   UNL     1      -5.378  38.878  21.999  1.00  0.00     0.041 C 
ATOM      6  O   UNL     1      -5.693  38.520  20.833  1.00  0.00    -0.550 OA
ATOM      7  O   UNL     1      -5.380  40.228  22.327  1.00  0.00    -0.550 OA
ENDBRANCH   4   5
ENDBRANCH   3   4
ENDBRANCH   2   3
ENDBRANCH   1   2
BRANCH   1   8
ATOM      8  C   UNL     1      -5.768  34.776  21.862  1.00  0.00     0.000 C 
BRANCH   8   9
ATOM      9  C   UNL     1      -4.600  34.960  20.882  1.00  0.00     0.006 C 
BRANCH   9  10
ATOM     10  C   UNL     1      -5.041  35.631  19.574  1.00  0.00     0.053 C 
BRANCH  10  11
ATOM     11  C   UNL     1      -5.080  34.658  18.435  1.00  0.00     0.041 C 
ATOM     12  O   UNL     1      -4.265  34.766  17.481  1.00  0.00    -0.550 OA
ATOM     13  O   UNL     1      -6.039  33.653  18.411  1.00  0.00    -0.550 OA
ENDBRANCH  10  11
ENDBRANCH   9  10
ENDBRANCH   8   9
ENDBRANCH   1   8
TORSDOF 8
ENDMDL
