MODEL 1
REMARK VINA RESULT:    -3.578      0.000      0.000
REMARK INTER + INTRA:          -5.508
REMARK INTER:                  -5.461
REMARK INTRA:                  -0.047
REMARK UNBOUND:                -0.047
REMARK SMILES CC1=CCC[C@@H](C)C(=O)C[C@@H](C(C)C)C(=O)C1
REMARK SMILES IDX 8 1 9 2 6 3 7 4 5 5 4 6 3 7 2 8 1 9 10 11 11 12 15 13 16 14
REMARK SMILES IDX 17 15 12 17 13 18 14 19
REMARK H PARENT
REMARK Flexibility Score: 70.00
ROOT
ATOM      1  C   UNL     1      34.493  10.844 105.885  1.00  0.00     0.136 C 
ATOM      2  O   UNL     1      35.055  11.784 105.342  1.00  0.00    -0.299 OA
ENDROOT
BRANCH   1   3
ATOM      3  C   UNL     1      34.852  10.483 107.316  1.00  0.00     0.053 C 
ATOM      4  C   UNL     1      36.192  11.120 107.711  1.00  0.00     0.016 C 
BRANCH   3   5
ATOM      5  C   UNL     1      34.900   8.949 107.484  1.00  0.00     0.015 C 
BRANCH   5   6
ATOM      6  C   UNL     1      33.846   8.443 108.490  1.00  0.00     0.028 C 
BRANCH   6   7
ATOM      7  C   UNL     1      33.277   7.117 108.048  1.00  0.00    -0.028 C 
ATOM      8  C   UNL     1      32.091   6.960 107.416  1.00  0.00    -0.070 CG0
ATOM      9  C   UNL     1      31.706   5.574 106.967  1.00  0.00     0.039 C 
ATOM     10  G   UNL     1      31.131   8.114 107.165  1.00  0.00     0.000 G0
ENDBRANCH   6   7
ENDBRANCH   5   6
ENDBRANCH   3   5
ENDBRANCH   1   3
BRANCH   1  11
ATOM     11  C   UNL     1      33.450  10.059 105.121  1.00  0.00     0.087 C 
BRANCH  11  12
ATOM     12  C   UNL     1      32.003  10.129 105.704  1.00  0.00     0.066 C 
BRANCH  12  13
ATOM     13  C   UNL     1      31.313   8.772 105.809  1.00  0.00     0.140 C 
ATOM     14  O   UNL     1      30.856   8.238 104.809  1.00  0.00    -0.299 OA
BRANCH  13  15
ATOM     15  C   UNL     1      31.107   8.113 107.153  1.00  0.00     0.106 CG0
ATOM     16  G   UNL     1      32.085   6.973 107.396  1.00  0.00     0.000 G0
ENDBRANCH  13  15
ENDBRANCH  12  13
BRANCH  12  17
ATOM     17  C   UNL     1      31.075  11.201 105.044  1.00  0.00    -0.006 C 
ATOM     18  C   UNL     1      31.629  12.635 105.088  1.00  0.00     0.008 C 
ATOM     19  C   UNL     1      29.659  11.173 105.644  1.00  0.00     0.008 C 
ENDBRANCH  12  17
ENDBRANCH  11  12
ENDBRANCH   1  11
TORSDOF 1
ENDMDL
MODEL 2
REMARK VINA RESULT:    -3.154      1.750      4.075
REMARK INTER + INTRA:          -4.860
REMARK INTER:                  -5.061
REMARK INTRA:                   0.201
REMARK UNBOUND:                -0.047
REMARK SMILES CC1=CCC[C@@H](C)C(=O)C[C@@H](C(C)C)C(=O)C1
REMARK SMILES IDX 8 1 9 2 6 3 7 4 5 5 4 6 3 7 2 8 1 9 10 11 11 12 15 13 16 14
REMARK SMILES IDX 17 15 12 17 13 18 14 19
REMARK H PARENT
REMARK Flexibility Score: 70.00
ROOT
ATOM      1  C   UNL     1      34.887   9.633 106.740  1.00  0.00     0.136 C 
ATOM      2  O   UNL     1      35.770   8.865 107.093  1.00  0.00    -0.299 OA
ENDROOT
BRANCH   1   3
ATOM      3  C   UNL     1      35.197  10.711 105.717  1.00  0.00     0.053 C 
ATOM      4  C   UNL     1      36.697  11.037 105.716  1.00  0.00     0.016 C 
BRANCH   3   5
ATOM      5  C   UNL     1      34.358  11.976 106.003  1.00  0.00     0.015 C 
BRANCH   5   6
ATOM      6  C   UNL     1      33.512  12.397 104.784  1.00  0.00     0.028 C 
BRANCH   6   7
ATOM      7  C   UNL     1      32.039  12.299 105.095  1.00  0.00    -0.028 C 
ATOM      8  C   UNL     1      31.335  11.143 105.128  1.00  0.00    -0.070 CG0
ATOM      9  C   UNL     1      29.886  11.209 105.538  1.00  0.00     0.039 C 
ATOM     10  G   UNL     1      31.937   9.799 104.747  1.00  0.00     0.000 G0
ENDBRANCH   6   7
ENDBRANCH   5   6
ENDBRANCH   3   5
ENDBRANCH   1   3
BRANCH   1  11
ATOM     11  C   UNL     1      33.502   9.494 107.332  1.00  0.00     0.087 C 
BRANCH  11  12
ATOM     12  C   UNL     1      32.662   8.294 106.788  1.00  0.00     0.066 C 
BRANCH  12  13
ATOM     13  C   UNL     1      31.643   8.686 105.722  1.00  0.00     0.140 C 
ATOM     14  O   UNL     1      30.600   8.058 105.610  1.00  0.00    -0.299 OA
BRANCH  13  15
ATOM     15  C   UNL     1      31.943   9.793 104.739  1.00  0.00     0.106 CG0
ATOM     16  G   UNL     1      31.335  11.123 105.160  1.00  0.00     0.000 G0
ENDBRANCH  13  15
ENDBRANCH  12  13
BRANCH  12  17
ATOM     17  C   UNL     1      32.028   7.379 107.887  1.00  0.00    -0.006 C 
ATOM     18  C   UNL     1      31.618   8.120 109.171  1.00  0.00     0.008 C 
ATOM     19  C   UNL     1      32.947   6.197 108.240  1.00  0.00     0.008 C 
ENDBRANCH  12  17
ENDBRANCH  11  12
ENDBRANCH   1  11
TORSDOF 1
ENDMDL
MODEL 3
REMARK VINA RESULT:    -3.112      2.459      4.613
REMARK INTER + INTRA:          -4.797
REMARK INTER:                  -5.372
REMARK INTRA:                   0.575
REMARK UNBOUND:                -0.047
REMARK SMILES CC1=CCC[C@@H](C)C(=O)C[C@@H](C(C)C)C(=O)C1
REMARK SMILES IDX 8 1 9 2 6 3 7 4 5 5 4 6 3 7 2 8 1 9 10 11 11 12 15 13 16 14
REMARK SMILES IDX 17 15 12 17 13 18 14 19
REMARK H PARENT
REMARK Flexibility Score: 70.00
ROOT
ATOM      1  C   UNL     1      32.580  11.345 105.150  1.00  0.00     0.136 C 
ATOM      2  O   UNL     1      31.385  11.591 105.064  1.00  0.00    -0.299 OA
ENDROOT
BRANCH   1   3
ATOM      3  C   UNL     1      33.578  12.487 105.197  1.00  0.00     0.053 C 
ATOM      4  C   UNL     1      32.875  13.828 104.939  1.00  0.00     0.016 C 
BRANCH   3   5
ATOM      5  C   UNL     1      34.708  12.252 104.171  1.00  0.00     0.015 C 
BRANCH   5   6
ATOM      6  C   UNL     1      36.085  12.104 104.849  1.00  0.00     0.028 C 
BRANCH   6   7
ATOM      7  C   UNL     1      35.957  12.205 106.349  1.00  0.00    -0.028 C 
ATOM      8  C   UNL     1      35.776  11.151 107.179  1.00  0.00    -0.070 CG0
ATOM      9  C   UNL     1      35.752  11.414 108.663  1.00  0.00     0.039 C 
ATOM     10  G   UNL     1      35.575   9.729 106.675  1.00  0.00     0.000 G0
ENDBRANCH   6   7
ENDBRANCH   5   6
ENDBRANCH   3   5
ENDBRANCH   1   3
BRANCH   1  11
ATOM     11  C   UNL     1      33.039   9.904 105.208  1.00  0.00     0.087 C 
BRANCH  11  12
ATOM     12  C   UNL     1      32.981   9.242 106.621  1.00  0.00     0.066 C 
BRANCH  12  13
ATOM     13  C   UNL     1      34.346   9.068 107.278  1.00  0.00     0.140 C 
ATOM     14  O   UNL     1      34.446   8.457 108.332  1.00  0.00    -0.299 OA
BRANCH  13  15
ATOM     15  C   UNL     1      35.575   9.719 106.688  1.00  0.00     0.106 CG0
ATOM     16  G   UNL     1      35.760  11.151 107.168  1.00  0.00     0.000 G0
ENDBRANCH  13  15
ENDBRANCH  12  13
BRANCH  12  17
ATOM     17  C   UNL     1      32.128   7.934 106.704  1.00  0.00    -0.006 C 
ATOM     18  C   UNL     1      30.963   7.871 105.701  1.00  0.00     0.008 C 
ATOM     19  C   UNL     1      31.600   7.689 108.128  1.00  0.00     0.008 C 
ENDBRANCH  12  17
ENDBRANCH  11  12
ENDBRANCH   1  11
TORSDOF 1
ENDMDL
MODEL 4
REMARK VINA RESULT:    -2.761      2.231      5.176
REMARK INTER + INTRA:          -4.261
REMARK INTER:                  -3.943
REMARK INTRA:                  -0.317
REMARK UNBOUND:                -0.047
REMARK SMILES CC1=CCC[C@@H](C)C(=O)C[C@@H](C(C)C)C(=O)C1
REMARK SMILES IDX 8 1 9 2 6 3 7 4 5 5 4 6 3 7 2 8 1 9 10 11 11 12 15 13 16 14
REMARK SMILES IDX 17 15 12 17 13 18 14 19
REMARK H PARENT
REMARK Flexibility Score: 70.00
ROOT
ATOM      1  C   UNL     1      31.344   9.412 105.537  1.00  0.00     0.136 C 
ATOM      2  O   UNL     1      30.387   8.735 105.191  1.00  0.00    -0.299 OA
ENDROOT
BRANCH   1   3
ATOM      3  C   UNL     1      31.182  10.913 105.695  1.00  0.00     0.053 C 
ATOM      4  C   UNL     1      29.725  11.327 105.443  1.00  0.00     0.016 C 
BRANCH   3   5
ATOM      5  C   UNL     1      32.140  11.657 104.740  1.00  0.00     0.015 C 
BRANCH   5   6
ATOM      6  C   UNL     1      33.208  12.466 105.503  1.00  0.00     0.028 C 
BRANCH   6   7
ATOM      7  C   UNL     1      34.596  12.077 105.057  1.00  0.00    -0.028 C 
ATOM      8  C   UNL     1      35.451  11.314 105.777  1.00  0.00    -0.070 CG0
ATOM      9  C   UNL     1      36.772  10.946 105.150  1.00  0.00     0.039 C 
ATOM     10  G   UNL     1      35.143  10.840 107.190  1.00  0.00     0.000 G0
ENDBRANCH   6   7
ENDBRANCH   5   6
ENDBRANCH   3   5
ENDBRANCH   1   3
BRANCH   1  11
ATOM     11  C   UNL     1      32.673   8.738 105.801  1.00  0.00     0.087 C 
BRANCH  11  12
ATOM     12  C   UNL     1      33.261   8.962 107.231  1.00  0.00     0.066 C 
BRANCH  12  13
ATOM     13  C   UNL     1      34.732   9.367 107.238  1.00  0.00     0.140 C 
ATOM     14  O   UNL     1      35.602   8.515 107.348  1.00  0.00    -0.299 OA
BRANCH  13  15
ATOM     15  C   UNL     1      35.131  10.823 107.197  1.00  0.00     0.106 CG0
ATOM     16  G   UNL     1      35.462  11.295 105.789  1.00  0.00     0.000 G0
ENDBRANCH  13  15
ENDBRANCH  12  13
BRANCH  12  17
ATOM     17  C   UNL     1      32.972   7.812 108.252  1.00  0.00    -0.006 C 
ATOM     18  C   UNL     1      32.741   6.434 107.608  1.00  0.00     0.008 C 
ATOM     19  C   UNL     1      31.793   8.158 109.177  1.00  0.00     0.008 C 
ENDBRANCH  12  17
ENDBRANCH  11  12
ENDBRANCH   1  11
TORSDOF 1
ENDMDL
MODEL 5
REMARK VINA RESULT:    -2.756      1.856      4.379
REMARK INTER + INTRA:          -4.253
REMARK INTER:                  -4.552
REMARK INTRA:                   0.299
REMARK UNBOUND:                -0.047
REMARK SMILES CC1=CCC[C@@H](C)C(=O)C[C@@H](C(C)C)C(=O)C1
REMARK SMILES IDX 8 1 9 2 6 3 7 4 5 5 4 6 3 7 2 8 1 9 10 11 11 12 15 13 16 14
REMARK SMILES IDX 17 15 12 17 13 18 14 19
REMARK H PARENT
REMARK Flexibility Score: 70.00
ROOT
ATOM      1  C   UNL     1      33.631   8.102 108.064  1.00  0.00     0.136 C 
ATOM      2  O   UNL     1      34.124   7.526 109.023  1.00  0.00    -0.299 OA
ENDROOT
BRANCH   1   3
ATOM      3  C   UNL     1      32.122   8.121 107.897  1.00  0.00     0.053 C 
ATOM      4  C   UNL     1      31.430   8.234 109.263  1.00  0.00     0.016 C 
BRANCH   3   5
ATOM      5  C   UNL     1      31.652   6.857 107.144  1.00  0.00     0.015 C 
BRANCH   5   6
ATOM      6  C   UNL     1      31.189   7.176 105.708  1.00  0.00     0.028 C 
BRANCH   6   7
ATOM      7  C   UNL     1      30.610   8.567 105.628  1.00  0.00    -0.028 C 
ATOM      8  C   UNL     1      31.282   9.657 105.190  1.00  0.00    -0.070 CG0
ATOM      9  C   UNL     1      30.531  10.961 105.094  1.00  0.00     0.039 C 
ATOM     10  G   UNL     1      32.757   9.623 104.817  1.00  0.00     0.000 G0
ENDBRANCH   6   7
ENDBRANCH   5   6
ENDBRANCH   3   5
ENDBRANCH   1   3
BRANCH   1  11
ATOM     11  C   UNL     1      34.535   8.786 107.063  1.00  0.00     0.087 C 
BRANCH  11  12
ATOM     12  C   UNL     1      34.279  10.314 106.867  1.00  0.00     0.066 C 
BRANCH  12  13
ATOM     13  C   UNL     1      33.584  10.660 105.554  1.00  0.00     0.140 C 
ATOM     14  O   UNL     1      33.622  11.804 105.123  1.00  0.00    -0.299 OA
BRANCH  13  15
ATOM     15  C   UNL     1      32.771   9.624 104.815  1.00  0.00     0.106 CG0
ATOM     16  G   UNL     1      31.299   9.661 105.198  1.00  0.00     0.000 G0
ENDBRANCH  13  15
ENDBRANCH  12  13
BRANCH  12  17
ATOM     17  C   UNL     1      35.519  11.231 107.125  1.00  0.00    -0.006 C 
ATOM     18  C   UNL     1      36.734  10.924 106.231  1.00  0.00     0.008 C 
ATOM     19  C   UNL     1      35.944  11.209 108.604  1.00  0.00     0.008 C 
ENDBRANCH  12  17
ENDBRANCH  11  12
ENDBRANCH   1  11
TORSDOF 1
ENDMDL
MODEL 6
REMARK VINA RESULT:    -2.659      2.098      4.320
REMARK INTER + INTRA:          -4.105
REMARK INTER:                  -4.107
REMARK INTRA:                   0.002
REMARK UNBOUND:                -0.047
REMARK SMILES CC1=CCC[C@@H](C)C(=O)C[C@@H](C(C)C)C(=O)C1
REMARK SMILES IDX 8 1 9 2 6 3 7 4 5 5 4 6 3 7 2 8 1 9 10 11 11 12 15 13 16 14
REMARK SMILES IDX 17 15 12 17 13 18 14 19
REMARK H PARENT
REMARK Flexibility Score: 70.00
ROOT
ATOM      1  C   UNL     1      31.997   8.074 108.746  1.00  0.00     0.136 C 
ATOM      2  O   UNL     1      31.705   8.244 109.920  1.00  0.00    -0.299 OA
ENDROOT
BRANCH   1   3
ATOM      3  C   UNL     1      33.389   7.588 108.383  1.00  0.00     0.053 C 
ATOM      4  C   UNL     1      33.856   6.508 109.369  1.00  0.00     0.016 C 
BRANCH   3   5
ATOM      5  C   UNL     1      34.378   8.774 108.355  1.00  0.00     0.015 C 
BRANCH   5   6
ATOM      6  C   UNL     1      34.992   8.984 106.956  1.00  0.00     0.028 C 
BRANCH   6   7
ATOM      7  C   UNL     1      34.721  10.382 106.456  1.00  0.00    -0.028 C 
ATOM      8  C   UNL     1      33.806  10.697 105.510  1.00  0.00    -0.070 CG0
ATOM      9  C   UNL     1      33.600  12.154 105.183  1.00  0.00     0.039 C 
ATOM     10  G   UNL     1      33.004   9.647 104.756  1.00  0.00     0.000 G0
ENDBRANCH   6   7
ENDBRANCH   5   6
ENDBRANCH   3   5
ENDBRANCH   1   3
BRANCH   1  11
ATOM     11  C   UNL     1      30.964   8.351 107.675  1.00  0.00     0.087 C 
BRANCH  11  12
ATOM     12  C   UNL     1      31.438   8.096 106.209  1.00  0.00     0.066 C 
BRANCH  12  13
ATOM     13  C   UNL     1      31.644   9.370 105.396  1.00  0.00     0.140 C 
ATOM     14  O   UNL     1      30.708  10.131 105.202  1.00  0.00    -0.299 OA
BRANCH  13  15
ATOM     15  C   UNL     1      32.977   9.665 104.749  1.00  0.00     0.106 CG0
ATOM     16  G   UNL     1      33.777  10.707 105.517  1.00  0.00     0.000 G0
ENDBRANCH  13  15
ENDBRANCH  12  13
BRANCH  12  17
ATOM     17  C   UNL     1      30.604   7.034 105.420  1.00  0.00    -0.006 C 
ATOM     18  C   UNL     1      31.008   5.575 105.695  1.00  0.00     0.008 C 
ATOM     19  C   UNL     1      30.630   7.303 103.905  1.00  0.00     0.008 C 
ENDBRANCH  12  17
ENDBRANCH  11  12
ENDBRANCH   1  11
TORSDOF 1
ENDMDL
MODEL 7
REMARK VINA RESULT:    -2.392      5.939      8.466
REMARK INTER + INTRA:          -3.697
REMARK INTER:                  -4.178
REMARK INTRA:                   0.481
REMARK UNBOUND:                -0.047
REMARK SMILES CC1=CCC[C@@H](C)C(=O)C[C@@H](C(C)C)C(=O)C1
REMARK SMILES IDX 8 1 9 2 6 3 7 4 5 5 4 6 3 7 2 8 1 9 10 11 11 12 15 13 16 14
REMARK SMILES IDX 17 15 12 17 13 18 14 19
REMARK H PARENT
REMARK Flexibility Score: 70.00
ROOT
ATOM      1  C   UNL     1      40.695  11.686 106.920  1.00  0.00     0.136 C 
ATOM      2  O   UNL     1      40.730  11.298 108.079  1.00  0.00    -0.299 OA
ENDROOT
BRANCH   1   3
ATOM      3  C   UNL     1      41.793  11.272 105.957  1.00  0.00     0.053 C 
ATOM      4  C   UNL     1      42.833  10.396 106.672  1.00  0.00     0.016 C 
BRANCH   3   5
ATOM      5  C   UNL     1      42.457  12.520 105.336  1.00  0.00     0.015 C 
BRANCH   5   6
ATOM      6  C   UNL     1      42.371  12.517 103.797  1.00  0.00     0.028 C 
BRANCH   6   7
ATOM      7  C   UNL     1      41.233  13.388 103.323  1.00  0.00    -0.028 C 
ATOM      8  C   UNL     1      39.933  13.012 103.300  1.00  0.00    -0.070 CG0
ATOM      9  C   UNL     1      38.908  14.033 102.875  1.00  0.00     0.039 C 
ATOM     10  G   UNL     1      39.474  11.607 103.661  1.00  0.00     0.000 G0
ENDBRANCH   6   7
ENDBRANCH   5   6
ENDBRANCH   3   5
ENDBRANCH   1   3
BRANCH   1  11
ATOM     11  C   UNL     1      39.554  12.571 106.468  1.00  0.00     0.087 C 
BRANCH  11  12
ATOM     12  C   UNL     1      38.269  11.816 106.000  1.00  0.00     0.066 C 
BRANCH  12  13
ATOM     13  C   UNL     1      38.206  11.578 104.495  1.00  0.00     0.140 C 
ATOM     14  O   UNL     1      37.142  11.294 103.963  1.00  0.00    -0.299 OA
BRANCH  13  15
ATOM     15  C   UNL     1      39.463  11.602 103.657  1.00  0.00     0.106 CG0
ATOM     16  G   UNL     1      39.911  13.018 103.323  1.00  0.00     0.000 G0
ENDBRANCH  13  15
ENDBRANCH  12  13
BRANCH  12  17
ATOM     17  C   UNL     1      36.925  12.395 106.552  1.00  0.00    -0.006 C 
ATOM     18  C   UNL     1      36.910  13.925 106.713  1.00  0.00     0.008 C 
ATOM     19  C   UNL     1      36.522  11.730 107.879  1.00  0.00     0.008 C 
ENDBRANCH  12  17
ENDBRANCH  11  12
ENDBRANCH   1  11
TORSDOF 1
ENDMDL
MODEL 8
REMARK VINA RESULT:    -2.375      1.460      3.747
REMARK INTER + INTRA:          -3.671
REMARK INTER:                  -4.325
REMARK INTRA:                   0.654
REMARK UNBOUND:                -0.047
REMARK SMILES CC1=CCC[C@@H](C)C(=O)C[C@@H](C(C)C)C(=O)C1
REMARK SMILES IDX 8 1 9 2 6 3 7 4 5 5 4 6 3 7 2 8 1 9 10 11 11 12 15 13 16 14
REMARK SMILES IDX 17 15 12 17 13 18 14 19
REMARK H PARENT
REMARK Flexibility Score: 70.00
ROOT
ATOM      1  C   UNL     1      30.943   7.320 105.635  1.00  0.00     0.136 C 
ATOM      2  O   UNL     1      30.562   6.909 104.548  1.00  0.00    -0.299 OA
ENDROOT
BRANCH   1   3
ATOM      3  C   UNL     1      31.603   6.361 106.609  1.00  0.00     0.053 C 
ATOM      4  C   UNL     1      31.374   4.907 106.172  1.00  0.00     0.016 C 
BRANCH   3   5
ATOM      5  C   UNL     1      31.067   6.598 108.038  1.00  0.00     0.015 C 
BRANCH   5   6
ATOM      6  C   UNL     1      31.884   7.665 108.794  1.00  0.00     0.028 C 
BRANCH   6   7
ATOM      7  C   UNL     1      33.330   7.637 108.364  1.00  0.00    -0.028 C 
ATOM      8  C   UNL     1      33.963   8.649 107.726  1.00  0.00    -0.070 CG0
ATOM      9  C   UNL     1      35.435   8.495 107.440  1.00  0.00     0.039 C 
ATOM     10  G   UNL     1      33.248   9.913 107.270  1.00  0.00     0.000 G0
ENDBRANCH   6   7
ENDBRANCH   5   6
ENDBRANCH   3   5
ENDBRANCH   1   3
BRANCH   1  11
ATOM     11  C   UNL     1      30.748   8.779 105.987  1.00  0.00     0.087 C 
BRANCH  11  12
ATOM     12  C   UNL     1      31.641   9.782 105.190  1.00  0.00     0.066 C 
BRANCH  12  13
ATOM     13  C   UNL     1      33.031   9.980 105.787  1.00  0.00     0.140 C 
ATOM     14  O   UNL     1      33.998  10.122 105.054  1.00  0.00    -0.299 OA
BRANCH  13  15
ATOM     15  C   UNL     1      33.244   9.917 107.281  1.00  0.00     0.106 CG0
ATOM     16  G   UNL     1      33.961   8.645 107.711  1.00  0.00     0.000 G0
ENDBRANCH  13  15
ENDBRANCH  12  13
BRANCH  12  17
ATOM     17  C   UNL     1      30.958  11.147 104.848  1.00  0.00    -0.006 C 
ATOM     18  C   UNL     1      31.838  12.382 105.110  1.00  0.00     0.008 C 
ATOM     19  C   UNL     1      29.611  11.306 105.574  1.00  0.00     0.008 C 
ENDBRANCH  12  17
ENDBRANCH  11  12
ENDBRANCH   1  11
TORSDOF 1
ENDMDL
MODEL 9
REMARK VINA RESULT:    -1.993      3.008      4.283
REMARK INTER + INTRA:          -3.088
REMARK INTER:                  -4.138
REMARK INTRA:                   1.050
REMARK UNBOUND:                -0.047
REMARK SMILES CC1=CCC[C@@H](C)C(=O)C[C@@H](C(C)C)C(=O)C1
REMARK SMILES IDX 8 1 9 2 6 3 7 4 5 5 4 6 3 7 2 8 1 9 10 11 11 12 15 13 16 14
REMARK SMILES IDX 17 15 12 17 13 18 14 19
REMARK H PARENT
REMARK Flexibility Score: 70.00
ROOT
ATOM      1  C   UNL     1      38.093  12.445 105.520  1.00  0.00     0.136 C 
ATOM      2  O   UNL     1      39.288  12.233 105.371  1.00  0.00    -0.299 OA
ENDROOT
BRANCH   1   3
ATOM      3  C   UNL     1      37.637  13.487 106.525  1.00  0.00     0.053 C 
ATOM      4  C   UNL     1      38.834  14.033 107.316  1.00  0.00     0.016 C 
BRANCH   3   5
ATOM      5  C   UNL     1      36.577  12.885 107.474  1.00  0.00     0.015 C 
BRANCH   5   6
ATOM      6  C   UNL     1      37.012  11.515 108.034  1.00  0.00     0.028 C 
BRANCH   6   7
ATOM      7  C   UNL     1      35.816  10.726 108.506  1.00  0.00    -0.028 C 
ATOM      8  C   UNL     1      35.137   9.832 107.751  1.00  0.00    -0.070 CG0
ATOM      9  C   UNL     1      34.014   9.064 108.401  1.00  0.00     0.039 C 
ATOM     10  G   UNL     1      35.444   9.592 106.280  1.00  0.00     0.000 G0
ENDBRANCH   6   7
ENDBRANCH   5   6
ENDBRANCH   3   5
ENDBRANCH   1   3
BRANCH   1  11
ATOM     11  C   UNL     1      37.092  11.663 104.698  1.00  0.00     0.087 C 
BRANCH  11  12
ATOM     12  C   UNL     1      35.593  11.914 105.057  1.00  0.00     0.066 C 
BRANCH  12  13
ATOM     13  C   UNL     1      34.819  10.645 105.400  1.00  0.00     0.140 C 
ATOM     14  O   UNL     1      33.665  10.509 105.019  1.00  0.00    -0.299 OA
BRANCH  13  15
ATOM     15  C   UNL     1      35.431   9.584 106.283  1.00  0.00     0.106 CG0
ATOM     16  G   UNL     1      35.145   9.821 107.759  1.00  0.00     0.000 G0
ENDBRANCH  13  15
ENDBRANCH  12  13
BRANCH  12  17
ATOM     17  C   UNL     1      34.812  12.813 104.043  1.00  0.00    -0.006 C 
ATOM     18  C   UNL     1      35.707  13.591 103.062  1.00  0.00     0.008 C 
ATOM     19  C   UNL     1      33.860  13.785 104.761  1.00  0.00     0.008 C 
ENDBRANCH  12  17
ENDBRANCH  11  12
ENDBRANCH   1  11
TORSDOF 1
ENDMDL
