MODEL 1
REMARK VINA RESULT:    -4.184      0.000      0.000
REMARK INTER + INTRA:          -7.355
REMARK INTER:                  -6.386
REMARK INTRA:                  -0.969
REMARK UNBOUND:                -0.969
REMARK SMILES CC(=O)CCC=C(C)CCC=C(C)CCC=C(C)C
REMARK SMILES IDX 10 1 11 2 12 3 13 4 14 5 15 6 16 7 18 8 17 9 19 10 9 11 7 12
REMARK SMILES IDX 6 13 8 14 5 15 4 16 2 17 3 18 1 19
REMARK H PARENT
REMARK Flexibility Score: inf
ROOT
ATOM      1  C   UNL     1      88.068  28.988  64.576  1.00  0.00     0.032 C 
ENDROOT
BRANCH   1   2
ATOM      2  C   UNL     1      88.057  30.470  64.298  1.00  0.00    -0.028 C 
ATOM      3  C   UNL     1      88.246  31.427  65.237  1.00  0.00    -0.077 C 
ATOM      4  C   UNL     1      88.553  31.083  66.675  1.00  0.00     0.039 C 
BRANCH   3   5
ATOM      5  C   UNL     1      88.174  32.881  64.827  1.00  0.00     0.034 C 
BRANCH   5   6
ATOM      6  C   UNL     1      86.875  33.523  65.326  1.00  0.00     0.032 C 
BRANCH   6   7
ATOM      7  C   UNL     1      85.675  32.747  64.843  1.00  0.00    -0.028 C 
ATOM      8  C   UNL     1      84.991  32.058  67.152  1.00  0.00     0.039 C 
ATOM      9  C   UNL     1      84.832  32.064  65.649  1.00  0.00    -0.080 C 
ATOM     10  C   UNL     1      83.695  31.303  65.020  1.00  0.00     0.039 C 
ENDBRANCH   6   7
ENDBRANCH   5   6
ENDBRANCH   3   5
ENDBRANCH   1   2
BRANCH   1  11
ATOM     11  C   UNL     1      89.118  28.279  63.713  1.00  0.00     0.034 C 
BRANCH  11  12
ATOM     12  C   UNL     1      88.758  26.823  63.518  1.00  0.00    -0.077 C 
ATOM     13  C   UNL     1      89.084  26.216  62.354  1.00  0.00    -0.028 C 
ATOM     14  C   UNL     1      88.068  26.081  64.639  1.00  0.00     0.039 C 
BRANCH  13  15
ATOM     15  C   UNL     1      88.758  24.782  62.017  1.00  0.00     0.035 C 
BRANCH  15  16
ATOM     16  C   UNL     1      89.125  24.468  60.563  1.00  0.00     0.079 C 
BRANCH  16  17
ATOM     17  C   UNL     1      87.926  24.624  59.666  1.00  0.00     0.130 C 
ATOM     18  O   UNL     1      86.830  24.847  60.160  1.00  0.00    -0.300 OA
ATOM     19  C   UNL     1      88.046  24.523  58.174  1.00  0.00     0.087 C 
ENDBRANCH  16  17
ENDBRANCH  15  16
ENDBRANCH  13  15
ENDBRANCH  11  12
ENDBRANCH   1  11
TORSDOF 9
ENDMDL
MODEL 2
REMARK VINA RESULT:    -4.068      2.471      7.742
REMARK INTER + INTRA:          -7.178
REMARK INTER:                  -5.970
REMARK INTRA:                  -1.208
REMARK UNBOUND:                -0.969
REMARK SMILES CC(=O)CCC=C(C)CCC=C(C)CCC=C(C)C
REMARK SMILES IDX 10 1 11 2 12 3 13 4 14 5 15 6 16 7 18 8 17 9 19 10 9 11 7 12
REMARK SMILES IDX 6 13 8 14 5 15 4 16 2 17 3 18 1 19
REMARK H PARENT
REMARK Flexibility Score: inf
ROOT
ATOM      1  C   UNL     1      88.197  30.355  64.792  1.00  0.00     0.032 C 
ENDROOT
BRANCH   1   2
ATOM      2  C   UNL     1      88.471  28.888  64.575  1.00  0.00    -0.028 C 
ATOM      3  C   UNL     1      87.525  27.921  64.599  1.00  0.00    -0.077 C 
ATOM      4  C   UNL     1      86.061  28.241  64.791  1.00  0.00     0.039 C 
BRANCH   3   5
ATOM      5  C   UNL     1      87.942  26.480  64.401  1.00  0.00     0.034 C 
BRANCH   5   6
ATOM      6  C   UNL     1      89.125  26.385  63.431  1.00  0.00     0.032 C 
BRANCH   6   7
ATOM      7  C   UNL     1      88.647  26.090  62.031  1.00  0.00    -0.028 C 
ATOM      8  C   UNL     1      89.059  23.628  62.237  1.00  0.00     0.039 C 
ATOM      9  C   UNL     1      88.634  24.860  61.472  1.00  0.00    -0.080 C 
ATOM     10  C   UNL     1      88.163  24.724  60.048  1.00  0.00     0.039 C 
ENDBRANCH   6   7
ENDBRANCH   5   6
ENDBRANCH   3   5
ENDBRANCH   1   2
BRANCH   1  11
ATOM     11  C   UNL     1      88.606  30.783  66.206  1.00  0.00     0.034 C 
BRANCH  11  12
ATOM     12  C   UNL     1      87.570  31.707  66.807  1.00  0.00    -0.077 C 
ATOM     13  C   UNL     1      86.265  31.514  66.508  1.00  0.00    -0.028 C 
ATOM     14  C   UNL     1      88.021  32.803  67.744  1.00  0.00     0.039 C 
BRANCH  13  15
ATOM     15  C   UNL     1      85.136  32.378  67.012  1.00  0.00     0.035 C 
BRANCH  15  16
ATOM     16  C   UNL     1      83.782  31.711  66.750  1.00  0.00     0.079 C 
BRANCH  16  17
ATOM     17  C   UNL     1      83.542  31.557  65.271  1.00  0.00     0.130 C 
ATOM     18  O   UNL     1      83.706  32.516  64.532  1.00  0.00    -0.300 OA
ATOM     19  C   UNL     1      83.115  30.245  64.680  1.00  0.00     0.087 C 
ENDBRANCH  16  17
ENDBRANCH  15  16
ENDBRANCH  13  15
ENDBRANCH  11  12
ENDBRANCH   1  11
TORSDOF 9
ENDMDL
MODEL 3
REMARK VINA RESULT:    -3.942     14.616     16.751
REMARK INTER + INTRA:          -6.985
REMARK INTER:                  -5.884
REMARK INTRA:                  -1.101
REMARK UNBOUND:                -0.969
REMARK SMILES CC(=O)CCC=C(C)CCC=C(C)CCC=C(C)C
REMARK SMILES IDX 10 1 11 2 12 3 13 4 14 5 15 6 16 7 18 8 17 9 19 10 9 11 7 12
REMARK SMILES IDX 6 13 8 14 5 15 4 16 2 17 3 18 1 19
REMARK H PARENT
REMARK Flexibility Score: inf
ROOT
ATOM      1  C   UNL     1      77.039  36.125  52.542  1.00  0.00     0.032 C 
ENDROOT
BRANCH   1   2
ATOM      2  C   UNL     1      75.634  35.602  52.697  1.00  0.00    -0.028 C 
ATOM      3  C   UNL     1      75.300  34.290  52.696  1.00  0.00    -0.077 C 
ATOM      4  C   UNL     1      76.343  33.203  52.596  1.00  0.00     0.039 C 
BRANCH   3   5
ATOM      5  C   UNL     1      73.844  33.903  52.826  1.00  0.00     0.034 C 
BRANCH   5   6
ATOM      6  C   UNL     1      73.573  33.246  54.183  1.00  0.00     0.032 C 
BRANCH   6   7
ATOM      7  C   UNL     1      72.488  33.982  54.928  1.00  0.00    -0.028 C 
ATOM      8  C   UNL     1      73.248  33.161  57.169  1.00  0.00     0.039 C 
ATOM      9  C   UNL     1      72.314  33.935  56.268  1.00  0.00    -0.080 C 
ATOM     10  C   UNL     1      71.161  34.694  56.870  1.00  0.00     0.039 C 
ENDBRANCH   6   7
ENDBRANCH   5   6
ENDBRANCH   3   5
ENDBRANCH   1   2
BRANCH   1  11
ATOM     11  C   UNL     1      77.496  36.034  51.081  1.00  0.00     0.034 C 
BRANCH  11  12
ATOM     12  C   UNL     1      79.002  35.908  50.997  1.00  0.00    -0.077 C 
ATOM     13  C   UNL     1      79.706  35.681  52.129  1.00  0.00    -0.028 C 
ATOM     14  C   UNL     1      79.672  36.015  49.648  1.00  0.00     0.039 C 
BRANCH  13  15
ATOM     15  C   UNL     1      81.209  35.567  52.193  1.00  0.00     0.035 C 
BRANCH  15  16
ATOM     16  C   UNL     1      81.628  34.191  52.720  1.00  0.00     0.079 C 
BRANCH  16  17
ATOM     17  C   UNL     1      81.102  33.097  51.829  1.00  0.00     0.130 C 
ATOM     18  O   UNL     1      81.441  33.062  50.655  1.00  0.00    -0.300 OA
ATOM     19  C   UNL     1      80.177  32.038  52.353  1.00  0.00     0.087 C 
ENDBRANCH  16  17
ENDBRANCH  15  16
ENDBRANCH  13  15
ENDBRANCH  11  12
ENDBRANCH   1  11
TORSDOF 9
ENDMDL
MODEL 4
REMARK VINA RESULT:    -3.830     15.054     17.972
REMARK INTER + INTRA:          -6.814
REMARK INTER:                  -5.703
REMARK INTRA:                  -1.111
REMARK UNBOUND:                -0.969
REMARK SMILES CC(=O)CCC=C(C)CCC=C(C)CCC=C(C)C
REMARK SMILES IDX 10 1 11 2 12 3 13 4 14 5 15 6 16 7 18 8 17 9 19 10 9 11 7 12
REMARK SMILES IDX 6 13 8 14 5 15 4 16 2 17 3 18 1 19
REMARK H PARENT
REMARK Flexibility Score: inf
ROOT
ATOM      1  C   UNL     1      76.785  35.078  51.525  1.00  0.00     0.032 C 
ENDROOT
BRANCH   1   2
ATOM      2  C   UNL     1      78.161  34.713  52.020  1.00  0.00    -0.028 C 
ATOM      3  C   UNL     1      78.547  33.460  52.355  1.00  0.00    -0.077 C 
ATOM      4  C   UNL     1      77.625  32.274  52.203  1.00  0.00     0.039 C 
BRANCH   3   5
ATOM      5  C   UNL     1      79.951  33.238  52.873  1.00  0.00     0.034 C 
BRANCH   5   6
ATOM      6  C   UNL     1      80.956  34.108  52.110  1.00  0.00     0.032 C 
BRANCH   6   7
ATOM      7  C   UNL     1      81.241  33.528  50.747  1.00  0.00    -0.028 C 
ATOM      8  C   UNL     1      80.449  35.572  49.535  1.00  0.00     0.039 C 
ATOM      9  C   UNL     1      80.996  34.164  49.580  1.00  0.00    -0.080 C 
ATOM     10  C   UNL     1      81.298  33.443  48.292  1.00  0.00     0.039 C 
ENDBRANCH   6   7
ENDBRANCH   5   6
ENDBRANCH   3   5
ENDBRANCH   1   2
BRANCH   1  11
ATOM     11  C   UNL     1      76.032  35.908  52.570  1.00  0.00     0.034 C 
BRANCH  11  12
ATOM     12  C   UNL     1      74.631  35.374  52.773  1.00  0.00    -0.077 C 
ATOM     13  C   UNL     1      74.451  34.283  53.552  1.00  0.00    -0.028 C 
ATOM     14  C   UNL     1      73.472  36.089  52.120  1.00  0.00     0.039 C 
BRANCH  13  15
ATOM     15  C   UNL     1      73.117  33.629  53.811  1.00  0.00     0.035 C 
BRANCH  15  16
ATOM     16  C   UNL     1      72.928  33.353  55.307  1.00  0.00     0.079 C 
BRANCH  16  17
ATOM     17  C   UNL     1      72.441  34.586  56.019  1.00  0.00     0.130 C 
ATOM     18  O   UNL     1      73.084  35.623  55.934  1.00  0.00    -0.300 OA
ATOM     19  C   UNL     1      71.175  34.577  56.824  1.00  0.00     0.087 C 
ENDBRANCH  16  17
ENDBRANCH  15  16
ENDBRANCH  13  15
ENDBRANCH  11  12
ENDBRANCH   1  11
TORSDOF 9
ENDMDL
MODEL 5
REMARK VINA RESULT:    -3.699     14.752     17.390
REMARK INTER + INTRA:          -6.614
REMARK INTER:                  -5.699
REMARK INTRA:                  -0.914
REMARK UNBOUND:                -0.969
REMARK SMILES CC(=O)CCC=C(C)CCC=C(C)CCC=C(C)C
REMARK SMILES IDX 10 1 11 2 12 3 13 4 14 5 15 6 16 7 18 8 17 9 19 10 9 11 7 12
REMARK SMILES IDX 6 13 8 14 5 15 4 16 2 17 3 18 1 19
REMARK H PARENT
REMARK Flexibility Score: inf
ROOT
ATOM      1  C   UNL     1      77.832  36.125  51.018  1.00  0.00     0.032 C 
ENDROOT
BRANCH   1   2
ATOM      2  C   UNL     1      78.736  35.413  50.044  1.00  0.00    -0.028 C 
ATOM      3  C   UNL     1      80.088  35.422  50.107  1.00  0.00    -0.077 C 
ATOM      4  C   UNL     1      80.830  36.117  51.224  1.00  0.00     0.039 C 
BRANCH   3   5
ATOM      5  C   UNL     1      80.877  34.693  49.042  1.00  0.00     0.034 C 
BRANCH   5   6
ATOM      6  C   UNL     1      81.655  33.520  49.648  1.00  0.00     0.032 C 
BRANCH   6   7
ATOM      7  C   UNL     1      80.772  32.707  50.561  1.00  0.00    -0.028 C 
ATOM      8  C   UNL     1      81.982  33.424  52.633  1.00  0.00     0.039 C 
ATOM      9  C   UNL     1      80.921  32.634  51.903  1.00  0.00    -0.080 C 
ATOM     10  C   UNL     1      79.985  31.749  52.683  1.00  0.00     0.039 C 
ENDBRANCH   6   7
ENDBRANCH   5   6
ENDBRANCH   3   5
ENDBRANCH   1   2
BRANCH   1  11
ATOM     11  C   UNL     1      77.781  35.382  52.358  1.00  0.00     0.034 C 
BRANCH  11  12
ATOM     12  C   UNL     1      76.568  34.479  52.425  1.00  0.00    -0.077 C 
ATOM     13  C   UNL     1      75.336  35.035  52.458  1.00  0.00    -0.028 C 
ATOM     14  C   UNL     1      76.768  32.981  52.427  1.00  0.00     0.039 C 
BRANCH  13  15
ATOM     15  C   UNL     1      74.048  34.256  52.557  1.00  0.00     0.035 C 
BRANCH  15  16
ATOM     16  C   UNL     1      73.180  34.783  53.704  1.00  0.00     0.079 C 
BRANCH  16  17
ATOM     17  C   UNL     1      73.185  33.819  54.861  1.00  0.00     0.130 C 
ATOM     18  O   UNL     1      73.973  32.885  54.862  1.00  0.00    -0.300 OA
ATOM     19  C   UNL     1      72.249  33.986  56.022  1.00  0.00     0.087 C 
ENDBRANCH  16  17
ENDBRANCH  15  16
ENDBRANCH  13  15
ENDBRANCH  11  12
ENDBRANCH   1  11
TORSDOF 9
ENDMDL
MODEL 6
REMARK VINA RESULT:    -3.565      0.818      1.216
REMARK INTER + INTRA:          -6.409
REMARK INTER:                  -5.426
REMARK INTRA:                  -0.983
REMARK UNBOUND:                -0.969
REMARK SMILES CC(=O)CCC=C(C)CCC=C(C)CCC=C(C)C
REMARK SMILES IDX 10 1 11 2 12 3 13 4 14 5 15 6 16 7 18 8 17 9 19 10 9 11 7 12
REMARK SMILES IDX 6 13 8 14 5 15 4 16 2 17 3 18 1 19
REMARK H PARENT
REMARK Flexibility Score: inf
ROOT
ATOM      1  C   UNL     1      88.245  29.067  64.496  1.00  0.00     0.032 C 
ENDROOT
BRANCH   1   2
ATOM      2  C   UNL     1      88.607  30.530  64.556  1.00  0.00    -0.028 C 
ATOM      3  C   UNL     1      88.799  31.225  65.702  1.00  0.00    -0.077 C 
ATOM      4  C   UNL     1      88.723  30.563  67.057  1.00  0.00     0.039 C 
BRANCH   3   5
ATOM      5  C   UNL     1      89.124  32.700  65.620  1.00  0.00     0.034 C 
BRANCH   5   6
ATOM      6  C   UNL     1      87.892  33.548  65.953  1.00  0.00     0.032 C 
BRANCH   6   7
ATOM      7  C   UNL     1      87.092  33.843  64.709  1.00  0.00    -0.028 C 
ATOM      8  C   UNL     1      85.392  32.068  65.188  1.00  0.00     0.039 C 
ATOM      9  C   UNL     1      85.980  33.171  64.339  1.00  0.00    -0.080 C 
ATOM     10  C   UNL     1      85.306  33.553  63.047  1.00  0.00     0.039 C 
ENDBRANCH   6   7
ENDBRANCH   5   6
ENDBRANCH   3   5
ENDBRANCH   1   2
BRANCH   1  11
ATOM     11  C   UNL     1      89.114  28.333  63.469  1.00  0.00     0.034 C 
BRANCH  11  12
ATOM     12  C   UNL     1      88.817  26.849  63.478  1.00  0.00    -0.077 C 
ATOM     13  C   UNL     1      88.864  26.163  62.313  1.00  0.00    -0.028 C 
ATOM     14  C   UNL     1      88.501  26.172  64.791  1.00  0.00     0.039 C 
BRANCH  13  15
ATOM     15  C   UNL     1      88.560  24.692  62.175  1.00  0.00     0.035 C 
BRANCH  15  16
ATOM     16  C   UNL     1      88.908  24.195  60.768  1.00  0.00     0.079 C 
BRANCH  16  17
ATOM     17  C   UNL     1      87.840  24.590  59.784  1.00  0.00     0.130 C 
ATOM     18  O   UNL     1      86.749  24.957  60.196  1.00  0.00    -0.300 OA
ATOM     19  C   UNL     1      88.086  24.554  58.304  1.00  0.00     0.087 C 
ENDBRANCH  16  17
ENDBRANCH  15  16
ENDBRANCH  13  15
ENDBRANCH  11  12
ENDBRANCH   1  11
TORSDOF 9
ENDMDL
MODEL 7
REMARK VINA RESULT:    -3.257      1.543      2.846
REMARK INTER + INTRA:          -5.940
REMARK INTER:                  -5.986
REMARK INTRA:                   0.047
REMARK UNBOUND:                -0.969
REMARK SMILES CC(=O)CCC=C(C)CCC=C(C)CCC=C(C)C
REMARK SMILES IDX 10 1 11 2 12 3 13 4 14 5 15 6 16 7 18 8 17 9 19 10 9 11 7 12
REMARK SMILES IDX 6 13 8 14 5 15 4 16 2 17 3 18 1 19
REMARK H PARENT
REMARK Flexibility Score: inf
ROOT
ATOM      1  C   UNL     1      88.757  32.048  64.735  1.00  0.00     0.032 C 
ENDROOT
BRANCH   1   2
ATOM      2  C   UNL     1      87.620  31.803  65.695  1.00  0.00    -0.028 C 
ATOM      3  C   UNL     1      87.489  32.410  66.897  1.00  0.00    -0.077 C 
ATOM      4  C   UNL     1      88.466  33.459  67.371  1.00  0.00     0.039 C 
BRANCH   3   5
ATOM      5  C   UNL     1      86.316  32.044  67.779  1.00  0.00     0.034 C 
BRANCH   5   6
ATOM      6  C   UNL     1      85.021  32.669  67.249  1.00  0.00     0.032 C 
BRANCH   6   7
ATOM      7  C   UNL     1      84.166  31.631  66.566  1.00  0.00    -0.028 C 
ATOM      8  C   UNL     1      84.731  32.447  64.267  1.00  0.00     0.039 C 
ATOM      9  C   UNL     1      84.007  31.533  65.227  1.00  0.00    -0.080 C 
ATOM     10  C   UNL     1      83.090  30.466  64.689  1.00  0.00     0.039 C 
ENDBRANCH   6   7
ENDBRANCH   5   6
ENDBRANCH   3   5
ENDBRANCH   1   2
BRANCH   1  11
ATOM     11  C   UNL     1      88.808  30.956  63.660  1.00  0.00     0.034 C 
BRANCH  11  12
ATOM     12  C   UNL     1      88.900  29.585  64.292  1.00  0.00    -0.077 C 
ATOM     13  C   UNL     1      89.051  28.503  63.494  1.00  0.00    -0.028 C 
ATOM     14  C   UNL     1      88.846  29.465  65.797  1.00  0.00     0.039 C 
BRANCH  13  15
ATOM     15  C   UNL     1      89.125  27.080  63.989  1.00  0.00     0.035 C 
BRANCH  15  16
ATOM     16  C   UNL     1      87.797  26.353  63.752  1.00  0.00     0.079 C 
BRANCH  16  17
ATOM     17  C   UNL     1      87.973  25.231  62.762  1.00  0.00     0.130 C 
ATOM     18  O   UNL     1      87.289  24.224  62.867  1.00  0.00    -0.300 OA
ATOM     19  C   UNL     1      88.964  25.326  61.640  1.00  0.00     0.087 C 
ENDBRANCH  16  17
ENDBRANCH  15  16
ENDBRANCH  13  15
ENDBRANCH  11  12
ENDBRANCH   1  11
TORSDOF 9
ENDMDL
MODEL 8
REMARK VINA RESULT:    -3.055      1.601      3.598
REMARK INTER + INTRA:          -5.631
REMARK INTER:                  -5.450
REMARK INTRA:                  -0.182
REMARK UNBOUND:                -0.969
REMARK SMILES CC(=O)CCC=C(C)CCC=C(C)CCC=C(C)C
REMARK SMILES IDX 10 1 11 2 12 3 13 4 14 5 15 6 16 7 18 8 17 9 19 10 9 11 7 12
REMARK SMILES IDX 6 13 8 14 5 15 4 16 2 17 3 18 1 19
REMARK H PARENT
REMARK Flexibility Score: inf
ROOT
ATOM      1  C   UNL     1      84.945  29.846  64.615  1.00  0.00     0.032 C 
ENDROOT
BRANCH   1   2
ATOM      2  C   UNL     1      85.651  30.639  65.686  1.00  0.00    -0.028 C 
ATOM      3  C   UNL     1      85.076  31.624  66.414  1.00  0.00    -0.077 C 
ATOM      4  C   UNL     1      83.618  31.987  66.253  1.00  0.00     0.039 C 
BRANCH   3   5
ATOM      5  C   UNL     1      85.910  32.366  67.434  1.00  0.00     0.034 C 
BRANCH   5   6
ATOM      6  C   UNL     1      87.404  32.223  67.123  1.00  0.00     0.032 C 
BRANCH   6   7
ATOM      7  C   UNL     1      87.968  33.519  66.596  1.00  0.00    -0.028 C 
ATOM      8  C   UNL     1      88.703  32.503  64.428  1.00  0.00     0.039 C 
ATOM      9  C   UNL     1      88.576  33.655  65.397  1.00  0.00    -0.080 C 
ATOM     10  C   UNL     1      89.125  35.006  65.020  1.00  0.00     0.039 C 
ENDBRANCH   6   7
ENDBRANCH   5   6
ENDBRANCH   3   5
ENDBRANCH   1   2
BRANCH   1  11
ATOM     11  C   UNL     1      85.240  28.349  64.763  1.00  0.00     0.034 C 
BRANCH  11  12
ATOM     12  C   UNL     1      86.725  28.081  64.662  1.00  0.00    -0.077 C 
ATOM     13  C   UNL     1      87.149  26.831  64.364  1.00  0.00    -0.028 C 
ATOM     14  C   UNL     1      87.692  29.222  64.871  1.00  0.00     0.039 C 
BRANCH  13  15
ATOM     15  C   UNL     1      88.597  26.420  64.264  1.00  0.00     0.035 C 
BRANCH  15  16
ATOM     16  C   UNL     1      89.047  26.366  62.801  1.00  0.00     0.079 C 
BRANCH  16  17
ATOM     17  C   UNL     1      88.743  25.018  62.200  1.00  0.00     0.130 C 
ATOM     18  O   UNL     1      88.636  24.045  62.932  1.00  0.00    -0.300 OA
ATOM     19  C   UNL     1      88.558  24.845  60.722  1.00  0.00     0.087 C 
ENDBRANCH  16  17
ENDBRANCH  15  16
ENDBRANCH  13  15
ENDBRANCH  11  12
ENDBRANCH   1  11
TORSDOF 9
ENDMDL
