MODEL 1
REMARK VINA RESULT:    -3.170      0.000      0.000
REMARK INTER + INTRA:          -3.742
REMARK INTER:                  -3.727
REMARK INTRA:                  -0.016
REMARK UNBOUND:                -0.016
REMARK SMILES CCCCC(=O)[O-]
REMARK SMILES IDX 4 1 5 2 6 3 7 4 3 5 2 6 1 7
REMARK H PARENT
REMARK Flexibility Score: inf
ROOT
ATOM      1  C   UNL     1       8.349  -5.322  -8.137  1.00  0.00     0.053 C 
ENDROOT
BRANCH   1   2
ATOM      2  C   UNL     1       8.970  -5.627  -6.811  1.00  0.00     0.041 C 
ATOM      3  O   UNL     1       9.968  -4.971  -6.413  1.00  0.00    -0.550 OA
ATOM      4  O   UNL     1       8.415  -6.602  -5.992  1.00  0.00    -0.550 OA
ENDBRANCH   1   2
BRANCH   1   5
ATOM      5  C   UNL     1       7.063  -4.511  -7.955  1.00  0.00     0.006 C 
BRANCH   5   6
ATOM      6  C   UNL     1       6.347  -4.308  -9.295  1.00  0.00    -0.003 C 
ATOM      7  C   UNL     1       4.976  -3.668  -9.096  1.00  0.00     0.004 C 
ENDBRANCH   5   6
ENDBRANCH   1   5
TORSDOF 3
ENDMDL
MODEL 2
REMARK VINA RESULT:    -3.134      0.123      1.229
REMARK INTER + INTRA:          -3.700
REMARK INTER:                  -3.684
REMARK INTRA:                  -0.017
REMARK UNBOUND:                -0.016
REMARK SMILES CCCCC(=O)[O-]
REMARK SMILES IDX 4 1 5 2 6 3 7 4 3 5 2 6 1 7
REMARK H PARENT
REMARK Flexibility Score: inf
ROOT
ATOM      1  C   UNL     1       8.378  -5.412  -8.046  1.00  0.00     0.053 C 
ENDROOT
BRANCH   1   2
ATOM      2  C   UNL     1       8.957  -5.699  -6.697  1.00  0.00     0.041 C 
ATOM      3  O   UNL     1       8.473  -6.614  -5.981  1.00  0.00    -0.550 OA
ATOM      4  O   UNL     1      10.065  -4.988  -6.251  1.00  0.00    -0.550 OA
ENDBRANCH   1   2
BRANCH   1   5
ATOM      5  C   UNL     1       7.135  -4.527  -7.921  1.00  0.00     0.006 C 
BRANCH   5   6
ATOM      6  C   UNL     1       6.405  -4.412  -9.263  1.00  0.00    -0.003 C 
ATOM      7  C   UNL     1       5.066  -3.697  -9.103  1.00  0.00     0.004 C 
ENDBRANCH   5   6
ENDBRANCH   1   5
TORSDOF 3
ENDMDL
MODEL 3
REMARK VINA RESULT:    -2.963      3.316      5.068
REMARK INTER + INTRA:          -3.499
REMARK INTER:                  -3.417
REMARK INTRA:                  -0.081
REMARK UNBOUND:                -0.016
REMARK SMILES CCCCC(=O)[O-]
REMARK SMILES IDX 4 1 5 2 6 3 7 4 3 5 2 6 1 7
REMARK H PARENT
REMARK Flexibility Score: inf
ROOT
ATOM      1  C   UNL     1      10.824  -6.167  -5.321  1.00  0.00     0.053 C 
ENDROOT
BRANCH   1   2
ATOM      2  C   UNL     1       9.593  -5.856  -6.111  1.00  0.00     0.041 C 
ATOM      3  O   UNL     1       9.587  -4.895  -6.924  1.00  0.00    -0.550 OA
ATOM      4  O   UNL     1       8.467  -6.660  -5.988  1.00  0.00    -0.550 OA
ENDBRANCH   1   2
BRANCH   1   5
ATOM      5  C   UNL     1      11.732  -4.936  -5.234  1.00  0.00     0.006 C 
BRANCH   5   6
ATOM      6  C   UNL     1      11.451  -4.136  -3.957  1.00  0.00    -0.003 C 
ATOM      7  C   UNL     1      11.137  -5.061  -2.785  1.00  0.00     0.004 C 
ENDBRANCH   5   6
ENDBRANCH   1   5
TORSDOF 3
ENDMDL
MODEL 4
REMARK VINA RESULT:    -2.801      0.962      1.009
REMARK INTER + INTRA:          -3.309
REMARK INTER:                  -3.292
REMARK INTRA:                  -0.016
REMARK UNBOUND:                -0.016
REMARK SMILES CCCCC(=O)[O-]
REMARK SMILES IDX 4 1 5 2 6 3 7 4 3 5 2 6 1 7
REMARK H PARENT
REMARK Flexibility Score: inf
ROOT
ATOM      1  C   UNL     1       9.327  -5.059  -7.747  1.00  0.00     0.053 C 
ENDROOT
BRANCH   1   2
ATOM      2  C   UNL     1       9.865  -5.327  -6.377  1.00  0.00     0.041 C 
ATOM      3  O   UNL     1      10.743  -4.574  -5.883  1.00  0.00    -0.550 OA
ATOM      4  O   UNL     1       9.359  -6.381  -5.626  1.00  0.00    -0.550 OA
ENDBRANCH   1   2
BRANCH   1   5
ATOM      5  C   UNL     1       7.799  -5.163  -7.755  1.00  0.00     0.006 C 
BRANCH   5   6
ATOM      6  C   UNL     1       7.203  -4.411  -8.949  1.00  0.00    -0.003 C 
ATOM      7  C   UNL     1       5.735  -4.070  -8.710  1.00  0.00     0.004 C 
ENDBRANCH   5   6
ENDBRANCH   1   5
TORSDOF 3
ENDMDL
MODEL 5
REMARK VINA RESULT:    -2.650      3.456      4.153
REMARK INTER + INTRA:          -3.131
REMARK INTER:                  -3.077
REMARK INTRA:                  -0.054
REMARK UNBOUND:                -0.016
REMARK SMILES CCCCC(=O)[O-]
REMARK SMILES IDX 4 1 5 2 6 3 7 4 3 5 2 6 1 7
REMARK H PARENT
REMARK Flexibility Score: inf
ROOT
ATOM      1  C   UNL     1      10.893  -5.780  -5.567  1.00  0.00     0.053 C 
ENDROOT
BRANCH   1   2
ATOM      2  C   UNL     1      10.979  -4.846  -4.401  1.00  0.00     0.041 C 
ATOM      3  O   UNL     1      11.299  -3.641  -4.577  1.00  0.00    -0.550 OA
ATOM      4  O   UNL     1      10.658  -5.295  -3.126  1.00  0.00    -0.550 OA
ENDBRANCH   1   2
BRANCH   1   5
ATOM      5  C   UNL     1       9.694  -5.426  -6.451  1.00  0.00     0.006 C 
BRANCH   5   6
ATOM      6  C   UNL     1       8.814  -6.656  -6.700  1.00  0.00    -0.003 C 
ATOM      7  C   UNL     1       9.561  -7.945  -6.367  1.00  0.00     0.004 C 
ENDBRANCH   5   6
ENDBRANCH   1   5
TORSDOF 3
ENDMDL
MODEL 6
REMARK VINA RESULT:    -2.490     13.890     15.185
REMARK INTER + INTRA:          -2.942
REMARK INTER:                  -2.901
REMARK INTRA:                  -0.041
REMARK UNBOUND:                -0.016
REMARK SMILES CCCCC(=O)[O-]
REMARK SMILES IDX 4 1 5 2 6 3 7 4 3 5 2 6 1 7
REMARK H PARENT
REMARK Flexibility Score: inf
ROOT
ATOM      1  C   UNL     1      -7.882  -3.725  -5.893  1.00  0.00     0.053 C 
ENDROOT
BRANCH   1   2
ATOM      2  C   UNL     1      -7.433  -2.454  -6.541  1.00  0.00     0.041 C 
ATOM      3  O   UNL     1      -7.812  -1.343  -6.087  1.00  0.00    -0.550 OA
ATOM      4  O   UNL     1      -6.554  -2.495  -7.617  1.00  0.00    -0.550 OA
ENDBRANCH   1   2
BRANCH   1   5
ATOM      5  C   UNL     1      -6.706  -4.419  -5.199  1.00  0.00     0.006 C 
BRANCH   5   6
ATOM      6  C   UNL     1      -6.207  -5.610  -6.024  1.00  0.00    -0.003 C 
ATOM      7  C   UNL     1      -5.116  -6.377  -5.281  1.00  0.00     0.004 C 
ENDBRANCH   5   6
ENDBRANCH   1   5
TORSDOF 3
ENDMDL
MODEL 7
REMARK VINA RESULT:    -2.402      4.383      5.699
REMARK INTER + INTRA:          -2.840
REMARK INTER:                  -2.757
REMARK INTRA:                  -0.083
REMARK UNBOUND:                -0.016
REMARK SMILES CCCCC(=O)[O-]
REMARK SMILES IDX 4 1 5 2 6 3 7 4 3 5 2 6 1 7
REMARK H PARENT
REMARK Flexibility Score: inf
ROOT
ATOM      1  C   UNL     1      10.523  -5.250  -5.320  1.00  0.00     0.053 C 
ENDROOT
BRANCH   1   2
ATOM      2  C   UNL     1      11.386  -5.643  -6.477  1.00  0.00     0.041 C 
ATOM      3  O   UNL     1      11.938  -6.774  -6.501  1.00  0.00    -0.550 OA
ATOM      4  O   UNL     1      11.540  -4.778  -7.554  1.00  0.00    -0.550 OA
ENDBRANCH   1   2
BRANCH   1   5
ATOM      5  C   UNL     1      11.284  -4.319  -4.372  1.00  0.00     0.006 C 
BRANCH   5   6
ATOM      6  C   UNL     1      11.172  -4.800  -2.922  1.00  0.00    -0.003 C 
ATOM      7  C   UNL     1      11.664  -6.238  -2.778  1.00  0.00     0.004 C 
ENDBRANCH   5   6
ENDBRANCH   1   5
TORSDOF 3
ENDMDL
MODEL 8
REMARK VINA RESULT:    -2.400      1.690      2.499
REMARK INTER + INTRA:          -2.836
REMARK INTER:                  -2.799
REMARK INTRA:                  -0.037
REMARK UNBOUND:                -0.016
REMARK SMILES CCCCC(=O)[O-]
REMARK SMILES IDX 4 1 5 2 6 3 7 4 3 5 2 6 1 7
REMARK H PARENT
REMARK Flexibility Score: inf
ROOT
ATOM      1  C   UNL     1       6.410  -4.372  -8.952  1.00  0.00     0.053 C 
ENDROOT
BRANCH   1   2
ATOM      2  C   UNL     1       7.799  -4.665  -8.482  1.00  0.00     0.041 C 
ATOM      3  O   UNL     1       7.993  -5.137  -7.331  1.00  0.00    -0.550 OA
ATOM      4  O   UNL     1       8.878  -4.465  -9.335  1.00  0.00    -0.550 OA
ENDBRANCH   1   2
BRANCH   1   5
ATOM      5  C   UNL     1       6.417  -3.232  -9.975  1.00  0.00     0.006 C 
BRANCH   5   6
ATOM      6  C   UNL     1       5.021  -2.619 -10.125  1.00  0.00    -0.003 C 
ATOM      7  C   UNL     1       3.971  -3.455  -9.398  1.00  0.00     0.004 C 
ENDBRANCH   5   6
ENDBRANCH   1   5
TORSDOF 3
ENDMDL
MODEL 9
REMARK VINA RESULT:    -1.508      3.687      4.626
REMARK INTER + INTRA:          -1.789
REMARK INTER:                  -1.754
REMARK INTRA:                  -0.035
REMARK UNBOUND:                -0.016
REMARK SMILES CCCCC(=O)[O-]
REMARK SMILES IDX 4 1 5 2 6 3 7 4 3 5 2 6 1 7
REMARK H PARENT
REMARK Flexibility Score: inf
ROOT
ATOM      1  C   UNL     1       5.845  -4.074  -8.815  1.00  0.00     0.053 C 
ENDROOT
BRANCH   1   2
ATOM      2  C   UNL     1       4.710  -3.400  -9.518  1.00  0.00     0.041 C 
ATOM      3  O   UNL     1       4.896  -2.313 -10.125  1.00  0.00    -0.550 OA
ATOM      4  O   UNL     1       3.456  -3.997  -9.545  1.00  0.00    -0.550 OA
ENDBRANCH   1   2
BRANCH   1   5
ATOM      5  C   UNL     1       7.072  -4.152  -9.728  1.00  0.00     0.006 C 
BRANCH   5   6
ATOM      6  C   UNL     1       8.215  -4.914  -9.048  1.00  0.00    -0.003 C 
ATOM      7  C   UNL     1       7.995  -5.008  -7.540  1.00  0.00     0.004 C 
ENDBRANCH   5   6
ENDBRANCH   1   5
TORSDOF 3
ENDMDL
