MODEL 1
REMARK VINA RESULT:    -2.242      0.000      0.000
REMARK INTER + INTRA:          -2.702
REMARK INTER:                  -3.160
REMARK INTRA:                   0.458
REMARK UNBOUND:                 0.458
REMARK SMILES CC1=CCC(=C(C)C)C(=O)CC(C)=CCC1
REMARK SMILES IDX 12 1 14 2 13 3 15 4 16 5 2 6 1 7 3 8 11 10 9 11 10 12 5 13
REMARK SMILES IDX 6 14 7 15 8 16 4 17
REMARK H PARENT
REMARK Flexibility Score: 60.00
ROOT
ATOM      1  C   UNL     1      -2.104 -13.296  -7.971  1.00  0.00    -0.070 C 
ATOM      2  C   UNL     1      -2.674 -12.607  -8.993  1.00  0.00    -0.027 C 
ATOM      3  C   UNL     1      -1.118 -14.380  -8.335  1.00  0.00     0.039 C 
ENDROOT
BRANCH   2   4
ATOM      4  C   UNL     1      -3.754 -11.559  -8.868  1.00  0.00     0.032 C 
BRANCH   4   5
ATOM      5  C   UNL     1      -5.173 -12.145  -8.884  1.00  0.00     0.034 C 
BRANCH   5   6
ATOM      6  C   UNL     1      -5.712 -12.251  -7.472  1.00  0.00    -0.077 C 
ATOM      7  C   UNL     1      -6.294 -11.016  -6.834  1.00  0.00     0.039 C 
ATOM      8  C   UNL     1      -5.771 -13.416  -6.782  1.00  0.00    -0.023 CG0
ATOM      9  G   UNL     1      -5.228 -14.746  -7.248  1.00  0.00     0.000 G0
ENDBRANCH   5   6
ENDBRANCH   4   5
ENDBRANCH   2   4
BRANCH   1  10
ATOM     10  C   UNL     1      -2.333 -12.996  -6.494  1.00  0.00     0.111 C 
BRANCH  10  11
ATOM     11  C   UNL     1      -3.178 -14.025  -5.784  1.00  0.00     0.163 C 
ATOM     12  O   UNL     1      -3.290 -13.925  -4.531  1.00  0.00    -0.294 OA
BRANCH  11  13
ATOM     13  C   UNL     1      -3.923 -15.106  -6.513  1.00  0.00    -0.002 C 
ATOM     14  C   UNL     1      -3.427 -16.382  -6.567  1.00  0.00    -0.069 C 
ATOM     15  C   UNL     1      -2.200 -16.793  -5.782  1.00  0.00     0.039 C 
ATOM     16  C   UNL     1      -4.107 -17.465  -7.375  1.00  0.00     0.039 C 
BRANCH  13  17
ATOM     17  C   UNL     1      -5.216 -14.745  -7.240  1.00  0.00     0.066 CG0
ATOM     18  G   UNL     1      -5.775 -13.417  -6.785  1.00  0.00     0.000 G0
ENDBRANCH  13  17
ENDBRANCH  11  13
ENDBRANCH  10  11
ENDBRANCH   1  10
TORSDOF 0
ENDMDL
MODEL 2
REMARK VINA RESULT:    -2.204      1.944      2.850
REMARK INTER + INTRA:          -2.648
REMARK INTER:                  -3.227
REMARK INTRA:                   0.579
REMARK UNBOUND:                 0.458
REMARK SMILES CC1=CCC(=C(C)C)C(=O)CC(C)=CCC1
REMARK SMILES IDX 12 1 14 2 13 3 15 4 16 5 2 6 1 7 3 8 11 10 9 11 10 12 5 13
REMARK SMILES IDX 6 14 7 15 8 16 4 17
REMARK H PARENT
REMARK Flexibility Score: 60.00
ROOT
ATOM      1  C   UNL     1      -4.448 -14.795  -8.955  1.00  0.00    -0.070 C 
ATOM      2  C   UNL     1      -5.262 -13.712  -9.052  1.00  0.00    -0.027 C 
ATOM      3  C   UNL     1      -5.109 -16.141  -8.783  1.00  0.00     0.039 C 
ENDROOT
BRANCH   2   4
ATOM      4  C   UNL     1      -4.821 -12.269  -9.125  1.00  0.00     0.032 C 
BRANCH   4   5
ATOM      5  C   UNL     1      -4.689 -11.604  -7.748  1.00  0.00     0.034 C 
BRANCH   5   6
ATOM      6  C   UNL     1      -3.228 -11.468  -7.369  1.00  0.00    -0.077 C 
ATOM      7  C   UNL     1      -2.433 -10.342  -7.979  1.00  0.00     0.039 C 
ATOM      8  C   UNL     1      -2.619 -12.256  -6.451  1.00  0.00    -0.023 CG0
ATOM      9  G   UNL     1      -3.245 -13.437  -5.748  1.00  0.00     0.000 G0
ENDBRANCH   5   6
ENDBRANCH   4   5
ENDBRANCH   2   4
BRANCH   1  10
ATOM     10  C   UNL     1      -2.930 -14.749  -9.089  1.00  0.00     0.111 C 
BRANCH  10  11
ATOM     11  C   UNL     1      -2.199 -14.730  -7.769  1.00  0.00     0.163 C 
ATOM     12  O   UNL     1      -0.942 -14.630  -7.799  1.00  0.00    -0.294 OA
BRANCH  11  13
ATOM     13  C   UNL     1      -2.911 -14.768  -6.447  1.00  0.00    -0.002 C 
ATOM     14  C   UNL     1      -3.286 -15.962  -5.889  1.00  0.00    -0.069 C 
ATOM     15  C   UNL     1      -2.876 -17.287  -6.494  1.00  0.00     0.039 C 
ATOM     16  C   UNL     1      -4.088 -16.023  -4.608  1.00  0.00     0.039 C 
BRANCH  13  17
ATOM     17  C   UNL     1      -3.259 -13.448  -5.763  1.00  0.00     0.066 CG0
ATOM     18  G   UNL     1      -2.622 -12.264  -6.451  1.00  0.00     0.000 G0
ENDBRANCH  13  17
ENDBRANCH  11  13
ENDBRANCH  10  11
ENDBRANCH   1  10
TORSDOF 0
ENDMDL
MODEL 3
REMARK VINA RESULT:    -2.199      1.588      2.013
REMARK INTER + INTRA:          -2.642
REMARK INTER:                  -3.139
REMARK INTRA:                   0.497
REMARK UNBOUND:                 0.458
REMARK SMILES CC1=CCC(=C(C)C)C(=O)CC(C)=CCC1
REMARK SMILES IDX 12 1 14 2 13 3 15 4 16 5 2 6 1 7 3 8 11 10 9 11 10 12 5 13
REMARK SMILES IDX 6 14 7 15 8 16 4 17
REMARK H PARENT
REMARK Flexibility Score: 60.00
ROOT
ATOM      1  C   UNL     1      -2.482 -13.710  -8.761  1.00  0.00    -0.070 C 
ATOM      2  C   UNL     1      -2.663 -12.365  -8.696  1.00  0.00    -0.027 C 
ATOM      3  C   UNL     1      -1.115 -14.240  -8.402  1.00  0.00     0.039 C 
ENDROOT
BRANCH   2   4
ATOM      4  C   UNL     1      -3.907 -11.613  -9.106  1.00  0.00     0.032 C 
BRANCH   4   5
ATOM      5  C   UNL     1      -4.837 -11.292  -7.928  1.00  0.00     0.034 C 
BRANCH   5   6
ATOM      6  C   UNL     1      -5.935 -12.331  -7.829  1.00  0.00    -0.077 C 
ATOM      7  C   UNL     1      -7.137 -12.189  -8.728  1.00  0.00     0.039 C 
ATOM      8  C   UNL     1      -5.859 -13.423  -7.031  1.00  0.00    -0.023 CG0
ATOM      9  G   UNL     1      -4.747 -13.727  -6.056  1.00  0.00     0.000 G0
ENDBRANCH   5   6
ENDBRANCH   4   5
ENDBRANCH   2   4
BRANCH   1  10
ATOM     10  C   UNL     1      -3.581 -14.714  -9.090  1.00  0.00     0.111 C 
BRANCH  10  11
ATOM     11  C   UNL     1      -4.085 -15.484  -7.895  1.00  0.00     0.163 C 
ATOM     12  O   UNL     1      -4.600 -16.616  -8.103  1.00  0.00    -0.294 OA
BRANCH  11  13
ATOM     13  C   UNL     1      -3.943 -14.981  -6.487  1.00  0.00    -0.002 C 
ATOM     14  C   UNL     1      -3.149 -15.639  -5.586  1.00  0.00    -0.069 C 
ATOM     15  C   UNL     1      -2.271 -16.801  -5.998  1.00  0.00     0.039 C 
ATOM     16  C   UNL     1      -3.065 -15.209  -4.138  1.00  0.00     0.039 C 
BRANCH  13  17
ATOM     17  C   UNL     1      -4.745 -13.753  -6.062  1.00  0.00     0.066 CG0
ATOM     18  G   UNL     1      -5.858 -13.434  -7.033  1.00  0.00     0.000 G0
ENDBRANCH  13  17
ENDBRANCH  11  13
ENDBRANCH  10  11
ENDBRANCH   1  10
TORSDOF 0
ENDMDL
MODEL 4
REMARK VINA RESULT:    -2.137      1.982      3.790
REMARK INTER + INTRA:          -2.554
REMARK INTER:                  -3.388
REMARK INTRA:                   0.834
REMARK UNBOUND:                 0.458
REMARK SMILES CC1=CCC(=C(C)C)C(=O)CC(C)=CCC1
REMARK SMILES IDX 12 1 14 2 13 3 15 4 16 5 2 6 1 7 3 8 11 10 9 11 10 12 5 13
REMARK SMILES IDX 6 14 7 15 8 16 4 17
REMARK H PARENT
REMARK Flexibility Score: 60.00
ROOT
ATOM      1  C   UNL     1      -3.293 -15.309  -7.560  1.00  0.00    -0.070 C 
ATOM      2  C   UNL     1      -2.427 -14.609  -6.782  1.00  0.00    -0.027 C 
ATOM      3  C   UNL     1      -3.656 -16.703  -7.106  1.00  0.00     0.039 C 
ENDROOT
BRANCH   2   4
ATOM      4  C   UNL     1      -1.850 -13.248  -7.093  1.00  0.00     0.032 C 
BRANCH   4   5
ATOM      5  C   UNL     1      -2.879 -12.114  -6.982  1.00  0.00     0.034 C 
BRANCH   5   6
ATOM      6  C   UNL     1      -3.090 -11.464  -8.334  1.00  0.00    -0.077 C 
ATOM      7  C   UNL     1      -1.877 -11.033  -9.118  1.00  0.00     0.039 C 
ATOM      8  C   UNL     1      -4.307 -11.320  -8.911  1.00  0.00    -0.023 CG0
ATOM      9  G   UNL     1      -5.631 -11.677  -8.277  1.00  0.00     0.000 G0
ENDBRANCH   5   6
ENDBRANCH   4   5
ENDBRANCH   2   4
BRANCH   1  10
ATOM     10  C   UNL     1      -3.978 -14.754  -8.804  1.00  0.00     0.111 C 
BRANCH  10  11
ATOM     11  C   UNL     1      -5.374 -14.237  -8.555  1.00  0.00     0.163 C 
ATOM     12  O   UNL     1      -6.332 -14.860  -9.089  1.00  0.00    -0.294 OA
BRANCH  11  13
ATOM     13  C   UNL     1      -5.657 -13.064  -7.661  1.00  0.00    -0.002 C 
ATOM     14  C   UNL     1      -5.981 -13.252  -6.343  1.00  0.00    -0.069 C 
ATOM     15  C   UNL     1      -5.924 -14.619  -5.695  1.00  0.00     0.039 C 
ATOM     16  C   UNL     1      -6.365 -12.095  -5.446  1.00  0.00     0.039 C 
BRANCH  13  17
ATOM     17  C   UNL     1      -5.633 -11.660  -8.261  1.00  0.00     0.066 CG0
ATOM     18  G   UNL     1      -4.298 -11.331  -8.887  1.00  0.00     0.000 G0
ENDBRANCH  13  17
ENDBRANCH  11  13
ENDBRANCH  10  11
ENDBRANCH   1  10
TORSDOF 0
ENDMDL
MODEL 5
REMARK VINA RESULT:    -2.013      1.729      3.114
REMARK INTER + INTRA:          -2.379
REMARK INTER:                  -3.387
REMARK INTRA:                   1.007
REMARK UNBOUND:                 0.458
REMARK SMILES CC1=CCC(=C(C)C)C(=O)CC(C)=CCC1
REMARK SMILES IDX 12 1 14 2 13 3 15 4 16 5 2 6 1 7 3 8 11 10 9 11 10 12 5 13
REMARK SMILES IDX 6 14 7 15 8 16 4 17
REMARK H PARENT
REMARK Flexibility Score: 60.00
ROOT
ATOM      1  C   UNL     1      -4.943 -13.798  -8.675  1.00  0.00    -0.070 C 
ATOM      2  C   UNL     1      -3.700 -13.483  -9.124  1.00  0.00    -0.027 C 
ATOM      3  C   UNL     1      -6.038 -12.786  -8.913  1.00  0.00     0.039 C 
ENDROOT
BRANCH   2   4
ATOM      4  C   UNL     1      -2.444 -14.293  -8.907  1.00  0.00     0.032 C 
BRANCH   4   5
ATOM      5  C   UNL     1      -1.512 -13.695  -7.843  1.00  0.00     0.034 C 
BRANCH   5   6
ATOM      6  C   UNL     1      -2.298 -12.807  -6.899  1.00  0.00    -0.077 C 
ATOM      7  C   UNL     1      -2.487 -11.358  -7.270  1.00  0.00     0.039 C 
ATOM      8  C   UNL     1      -2.905 -13.264  -5.777  1.00  0.00    -0.023 CG0
ATOM      9  G   UNL     1      -2.818 -14.673  -5.239  1.00  0.00     0.000 G0
ENDBRANCH   5   6
ENDBRANCH   4   5
ENDBRANCH   2   4
BRANCH   1  10
ATOM     10  C   UNL     1      -5.317 -15.126  -8.027  1.00  0.00     0.111 C 
BRANCH  10  11
ATOM     11  C   UNL     1      -5.005 -15.197  -6.552  1.00  0.00     0.163 C 
ATOM     12  O   UNL     1      -5.929 -14.904  -5.745  1.00  0.00    -0.294 OA
BRANCH  11  13
ATOM     13  C   UNL     1      -3.675 -15.652  -6.025  1.00  0.00    -0.002 C 
ATOM     14  C   UNL     1      -3.258 -16.945  -6.203  1.00  0.00    -0.069 C 
ATOM     15  C   UNL     1      -4.037 -17.923  -7.057  1.00  0.00     0.039 C 
ATOM     16  C   UNL     1      -1.968 -17.455  -5.599  1.00  0.00     0.039 C 
BRANCH  13  17
ATOM     17  C   UNL     1      -2.819 -14.663  -5.237  1.00  0.00     0.066 CG0
ATOM     18  G   UNL     1      -2.906 -13.263  -5.796  1.00  0.00     0.000 G0
ENDBRANCH  13  17
ENDBRANCH  11  13
ENDBRANCH  10  11
ENDBRANCH   1  10
TORSDOF 0
ENDMDL
MODEL 6
REMARK VINA RESULT:    -1.810      1.763      4.494
REMARK INTER + INTRA:          -2.094
REMARK INTER:                  -3.312
REMARK INTRA:                   1.218
REMARK UNBOUND:                 0.458
REMARK SMILES CC1=CCC(=C(C)C)C(=O)CC(C)=CCC1
REMARK SMILES IDX 12 1 14 2 13 3 15 4 16 5 2 6 1 7 3 8 11 10 9 11 10 12 5 13
REMARK SMILES IDX 6 14 7 15 8 16 4 17
REMARK H PARENT
REMARK Flexibility Score: 60.00
ROOT
ATOM      1  C   UNL     1      -5.963 -14.493  -8.384  1.00  0.00    -0.070 C 
ATOM      2  C   UNL     1      -5.207 -15.344  -9.125  1.00  0.00    -0.027 C 
ATOM      3  C   UNL     1      -6.962 -13.636  -9.124  1.00  0.00     0.039 C 
ENDROOT
BRANCH   2   4
ATOM      4  C   UNL     1      -4.083 -16.213  -8.612  1.00  0.00     0.032 C 
BRANCH   4   5
ATOM      5  C   UNL     1      -2.899 -15.410  -8.058  1.00  0.00     0.034 C 
BRANCH   5   6
ATOM      6  C   UNL     1      -2.833 -15.545  -6.550  1.00  0.00    -0.077 C 
ATOM      7  C   UNL     1      -2.834 -16.929  -5.955  1.00  0.00     0.039 C 
ATOM      8  C   UNL     1      -2.694 -14.489  -5.712  1.00  0.00    -0.023 CG0
ATOM      9  G   UNL     1      -2.688 -13.035  -6.119  1.00  0.00     0.000 G0
ENDBRANCH   5   6
ENDBRANCH   4   5
ENDBRANCH   2   4
BRANCH   1  10
ATOM     10  C   UNL     1      -5.927 -14.406  -6.862  1.00  0.00     0.111 C 
BRANCH  10  11
ATOM     11  C   UNL     1      -5.304 -13.137  -6.336  1.00  0.00     0.163 C 
ATOM     12  O   UNL     1      -5.909 -12.530  -5.410  1.00  0.00    -0.294 OA
BRANCH  11  13
ATOM     13  C   UNL     1      -3.985 -12.616  -6.828  1.00  0.00    -0.002 C 
ATOM     14  C   UNL     1      -3.918 -11.825  -7.944  1.00  0.00    -0.069 C 
ATOM     15  C   UNL     1      -5.165 -11.321  -8.639  1.00  0.00     0.039 C 
ATOM     16  C   UNL     1      -2.594 -11.367  -8.516  1.00  0.00     0.039 C 
BRANCH  13  17
ATOM     17  C   UNL     1      -2.711 -13.030  -6.094  1.00  0.00     0.066 CG0
ATOM     18  G   UNL     1      -2.711 -14.498  -5.737  1.00  0.00     0.000 G0
ENDBRANCH  13  17
ENDBRANCH  11  13
ENDBRANCH  10  11
ENDBRANCH   1  10
TORSDOF 0
ENDMDL
MODEL 7
REMARK VINA RESULT:    -1.378      1.752      4.235
REMARK INTER + INTRA:          -1.484
REMARK INTER:                  -4.540
REMARK INTRA:                   3.057
REMARK UNBOUND:                 0.458
REMARK SMILES CC1=CCC(=C(C)C)C(=O)CC(C)=CCC1
REMARK SMILES IDX 12 1 14 2 13 3 15 4 16 5 2 6 1 7 3 8 11 10 9 11 10 12 5 13
REMARK SMILES IDX 6 14 7 15 8 16 4 17
REMARK H PARENT
REMARK Flexibility Score: 60.00
ROOT
ATOM      1  C   UNL     1      -2.422 -13.667  -8.196  1.00  0.00    -0.070 C 
ATOM      2  C   UNL     1      -1.940 -13.603  -6.928  1.00  0.00    -0.027 C 
ATOM      3  C   UNL     1      -2.072 -12.529  -9.125  1.00  0.00     0.039 C 
ENDROOT
BRANCH   2   4
ATOM      4  C   UNL     1      -2.247 -14.571  -5.809  1.00  0.00     0.032 C 
BRANCH   4   5
ATOM      5  C   UNL     1      -2.195 -16.041  -6.248  1.00  0.00     0.034 C 
BRANCH   5   6
ATOM      6  C   UNL     1      -3.517 -16.722  -5.957  1.00  0.00    -0.077 C 
ATOM      7  C   UNL     1      -3.539 -18.224  -5.844  1.00  0.00     0.039 C 
ATOM      8  C   UNL     1      -4.667 -16.046  -5.716  1.00  0.00    -0.023 CG0
ATOM      9  G   UNL     1      -4.844 -14.548  -5.798  1.00  0.00     0.000 G0
ENDBRANCH   5   6
ENDBRANCH   4   5
ENDBRANCH   2   4
BRANCH   1  10
ATOM     10  C   UNL     1      -3.216 -14.839  -8.761  1.00  0.00     0.111 C 
BRANCH  10  11
ATOM     11  C   UNL     1      -4.676 -14.830  -8.379  1.00  0.00     0.163 C 
ATOM     12  O   UNL     1      -5.463 -15.540  -9.063  1.00  0.00    -0.294 OA
BRANCH  11  13
ATOM     13  C   UNL     1      -5.201 -14.065  -7.199  1.00  0.00    -0.002 C 
ATOM     14  C   UNL     1      -5.942 -12.927  -7.377  1.00  0.00    -0.069 C 
ATOM     15  C   UNL     1      -6.388 -12.474  -8.750  1.00  0.00     0.039 C 
ATOM     16  C   UNL     1      -6.400 -12.085  -6.206  1.00  0.00     0.039 C 
BRANCH  13  17
ATOM     17  C   UNL     1      -4.846 -14.548  -5.794  1.00  0.00     0.066 CG0
ATOM     18  G   UNL     1      -4.684 -16.048  -5.731  1.00  0.00     0.000 G0
ENDBRANCH  13  17
ENDBRANCH  11  13
ENDBRANCH  10  11
ENDBRANCH   1  10
TORSDOF 0
ENDMDL
MODEL 8
REMARK VINA RESULT:    -1.258      2.076      4.891
REMARK INTER + INTRA:          -1.315
REMARK INTER:                  -1.774
REMARK INTRA:                   0.459
REMARK UNBOUND:                 0.458
REMARK SMILES CC1=CCC(=C(C)C)C(=O)CC(C)=CCC1
REMARK SMILES IDX 12 1 14 2 13 3 15 4 16 5 2 6 1 7 3 8 11 10 9 11 10 12 5 13
REMARK SMILES IDX 6 14 7 15 8 16 4 17
REMARK H PARENT
REMARK Flexibility Score: 60.00
ROOT
ATOM      1  C   UNL     1      -5.213 -13.944  -7.927  1.00  0.00    -0.070 C 
ATOM      2  C   UNL     1      -5.516 -14.529  -6.739  1.00  0.00    -0.027 C 
ATOM      3  C   UNL     1      -6.032 -12.743  -8.333  1.00  0.00     0.039 C 
ENDROOT
BRANCH   2   4
ATOM      4  C   UNL     1      -4.901 -15.792  -6.186  1.00  0.00     0.032 C 
BRANCH   4   5
ATOM      5  C   UNL     1      -3.946 -15.538  -5.012  1.00  0.00     0.034 C 
BRANCH   5   6
ATOM      6  C   UNL     1      -2.507 -15.663  -5.470  1.00  0.00    -0.077 C 
ATOM      7  C   UNL     1      -1.881 -17.034  -5.498  1.00  0.00     0.039 C 
ATOM      8  C   UNL     1      -1.777 -14.618  -5.931  1.00  0.00    -0.023 CG0
ATOM      9  G   UNL     1      -2.226 -13.176  -5.965  1.00  0.00     0.000 G0
ENDBRANCH   5   6
ENDBRANCH   4   5
ENDBRANCH   2   4
BRANCH   1  10
ATOM     10  C   UNL     1      -4.059 -14.368  -8.829  1.00  0.00     0.111 C 
BRANCH  10  11
ATOM     11  C   UNL     1      -2.731 -13.761  -8.451  1.00  0.00     0.163 C 
ATOM     12  O   UNL     1      -1.715 -14.123  -9.105  1.00  0.00    -0.294 OA
BRANCH  11  13
ATOM     13  C   UNL     1      -2.592 -12.716  -7.382  1.00  0.00    -0.002 C 
ATOM     14  C   UNL     1      -2.736 -11.386  -7.680  1.00  0.00    -0.069 C 
ATOM     15  C   UNL     1      -3.184 -10.922  -9.049  1.00  0.00     0.039 C 
ATOM     16  C   UNL     1      -2.506 -10.309  -6.643  1.00  0.00     0.039 C 
BRANCH  13  17
ATOM     17  C   UNL     1      -2.231 -13.158  -5.965  1.00  0.00     0.066 CG0
ATOM     18  G   UNL     1      -1.756 -14.591  -5.919  1.00  0.00     0.000 G0
ENDBRANCH  13  17
ENDBRANCH  11  13
ENDBRANCH  10  11
ENDBRANCH   1  10
TORSDOF 0
ENDMDL
MODEL 9
REMARK VINA RESULT:    -0.869      1.613      2.901
REMARK INTER + INTRA:          -0.767
REMARK INTER:                  -1.119
REMARK INTRA:                   0.352
REMARK UNBOUND:                 0.458
REMARK SMILES CC1=CCC(=C(C)C)C(=O)CC(C)=CCC1
REMARK SMILES IDX 12 1 14 2 13 3 15 4 16 5 2 6 1 7 3 8 11 10 9 11 10 12 5 13
REMARK SMILES IDX 6 14 7 15 8 16 4 17
REMARK H PARENT
REMARK Flexibility Score: 60.00
ROOT
ATOM      1  C   UNL     1      -5.248 -13.434  -5.967  1.00  0.00    -0.070 C 
ATOM      2  C   UNL     1      -5.924 -12.583  -6.783  1.00  0.00    -0.027 C 
ATOM      3  C   UNL     1      -6.030 -14.571  -5.357  1.00  0.00     0.039 C 
ENDROOT
BRANCH   2   4
ATOM      4  C   UNL     1      -5.371 -11.328  -7.415  1.00  0.00     0.032 C 
BRANCH   4   5
ATOM      5  C   UNL     1      -5.031 -11.497  -8.903  1.00  0.00     0.034 C 
BRANCH   5   6
ATOM      6  C   UNL     1      -3.539 -11.694  -9.080  1.00  0.00    -0.077 C 
ATOM      7  C   UNL     1      -2.657 -10.473  -9.122  1.00  0.00     0.039 C 
ATOM      8  C   UNL     1      -2.947 -12.912  -9.125  1.00  0.00    -0.023 CG0
ATOM      9  G   UNL     1      -3.664 -14.241  -9.112  1.00  0.00     0.000 G0
ENDBRANCH   5   6
ENDBRANCH   4   5
ENDBRANCH   2   4
BRANCH   1  10
ATOM     10  C   UNL     1      -3.749 -13.362  -5.696  1.00  0.00     0.111 C 
BRANCH  10  11
ATOM     11  C   UNL     1      -2.920 -14.236  -6.605  1.00  0.00     0.163 C 
ATOM     12  O   UNL     1      -1.698 -14.375  -6.327  1.00  0.00    -0.294 OA
BRANCH  11  13
ATOM     13  C   UNL     1      -3.505 -14.979  -7.772  1.00  0.00    -0.002 C 
ATOM     14  C   UNL     1      -3.828 -16.306  -7.665  1.00  0.00    -0.069 C 
ATOM     15  C   UNL     1      -3.754 -17.040  -6.343  1.00  0.00     0.039 C 
ATOM     16  C   UNL     1      -4.328 -17.100  -8.852  1.00  0.00     0.039 C 
BRANCH  13  17
ATOM     17  C   UNL     1      -3.681 -14.242  -9.098  1.00  0.00     0.066 CG0
ATOM     18  G   UNL     1      -2.949 -12.921  -9.117  1.00  0.00     0.000 G0
ENDBRANCH  13  17
ENDBRANCH  11  13
ENDBRANCH  10  11
ENDBRANCH   1  10
TORSDOF 0
ENDMDL
