MODEL 1
REMARK VINA RESULT:    -5.060      0.000      0.000
REMARK INTER + INTRA:          -9.451
REMARK INTER:                  -7.871
REMARK INTRA:                  -1.581
REMARK UNBOUND:                -1.581
REMARK SMILES COc1cc(CNC(=O)CCCCC=CC(C)C)ccc1O
REMARK SMILES IDX 11 1 12 2 13 3 14 4 15 5 16 6 17 7 18 8 10 9 8 10 9 11 7 12
REMARK SMILES IDX 6 14 5 15 4 16 19 17 3 18 20 19 21 20 2 21 1 22 22 23
REMARK H PARENT 7 13 22 24
REMARK Flexibility Score: inf
ROOT
ATOM      1  C   UNL     1     173.398 170.070 172.735  1.00  0.00     0.010 C 
ENDROOT
BRANCH   1   2
ATOM      2  C   UNL     1     174.548 169.060 172.682  1.00  0.00     0.005 C 
BRANCH   2   3
ATOM      3  C   UNL     1     175.906 169.774 172.715  1.00  0.00     0.027 C 
BRANCH   3   4
ATOM      4  C   UNL     1     175.860 171.066 171.940  1.00  0.00    -0.031 C 
ATOM      5  C   UNL     1     176.756 172.067 172.051  1.00  0.00    -0.028 C 
BRANCH   5   6
ATOM      6  C   UNL     1     177.944 172.078 172.991  1.00  0.00     0.005 C 
ATOM      7  C   UNL     1     177.807 173.239 173.979  1.00  0.00     0.012 C 
ATOM      8  C   UNL     1     179.238 172.207 172.183  1.00  0.00     0.012 C 
ENDBRANCH   5   6
ENDBRANCH   3   4
ENDBRANCH   2   3
ENDBRANCH   1   2
BRANCH   1   9
ATOM      9  C   UNL     1     172.281 169.685 171.760  1.00  0.00     0.100 C 
BRANCH   9  10
ATOM     10  C   UNL     1     172.803 169.670 170.355  1.00  0.00     0.220 C 
ATOM     11  O   UNL     1     173.134 170.753 169.803  1.00  0.00    -0.275 OA
ATOM     12  N   UNL     1     172.981 168.423 169.671  1.00  0.00    -0.352 N 
ATOM     13  H   UNL     1     172.636 167.544 170.119  1.00  0.00     0.163 HD
BRANCH  12  14
ATOM     14  C   UNL     1     173.718 168.320 168.414  1.00  0.00     0.151 C 
BRANCH  14  15
ATOM     15  C   UNL     1     175.087 167.744 168.662  1.00  0.00    -0.025 A 
ATOM     16  C   UNL     1     175.327 166.382 168.417  1.00  0.00     0.056 A 
ATOM     17  C   UNL     1     176.118 168.546 169.169  1.00  0.00     0.009 A 
ATOM     18  C   UNL     1     176.593 165.820 168.676  1.00  0.00     0.160 A 
ATOM     19  C   UNL     1     177.376 167.996 169.422  1.00  0.00     0.050 A 
ATOM     20  C   UNL     1     177.619 166.641 169.179  1.00  0.00     0.157 A 
BRANCH  18  21
ATOM     21  O   UNL     1     176.861 164.460 168.451  1.00  0.00    -0.493 OA
ATOM     22  C   UNL     1     176.591 163.417 169.383  1.00  0.00     0.278 C 
ENDBRANCH  18  21
BRANCH  20  23
ATOM     23  O   UNL     1     178.888 166.126 169.447  1.00  0.00    -0.504 OA
ATOM     24  H   UNL     1     179.649 166.707 169.774  1.00  0.00     0.293 HD
ENDBRANCH  20  23
ENDBRANCH  14  15
ENDBRANCH  12  14
ENDBRANCH   9  10
ENDBRANCH   1   9
TORSDOF 10
ENDMDL
MODEL 2
REMARK VINA RESULT:    -4.991      3.599      4.242
REMARK INTER + INTRA:          -9.343
REMARK INTER:                  -8.107
REMARK INTRA:                  -1.236
REMARK UNBOUND:                -1.581
REMARK SMILES COc1cc(CNC(=O)CCCCC=CC(C)C)ccc1O
REMARK SMILES IDX 11 1 12 2 13 3 14 4 15 5 16 6 17 7 18 8 10 9 8 10 9 11 7 12
REMARK SMILES IDX 6 14 5 15 4 16 19 17 3 18 20 19 21 20 2 21 1 22 22 23
REMARK H PARENT 7 13 22 24
REMARK Flexibility Score: inf
ROOT
ATOM      1  C   UNL     1     174.007 170.268 173.026  1.00  0.00     0.010 C 
ENDROOT
BRANCH   1   2
ATOM      2  C   UNL     1     174.978 169.187 172.544  1.00  0.00     0.005 C 
BRANCH   2   3
ATOM      3  C   UNL     1     176.146 169.807 171.766  1.00  0.00     0.027 C 
BRANCH   3   4
ATOM      4  C   UNL     1     175.904 171.269 171.495  1.00  0.00    -0.031 C 
ATOM      5  C   UNL     1     176.632 172.281 172.005  1.00  0.00    -0.028 C 
BRANCH   5   6
ATOM      6  C   UNL     1     177.799 172.127 172.958  1.00  0.00     0.005 C 
ATOM      7  C   UNL     1     177.775 173.258 173.989  1.00  0.00     0.012 C 
ATOM      8  C   UNL     1     179.113 172.141 172.172  1.00  0.00     0.012 C 
ENDBRANCH   5   6
ENDBRANCH   3   4
ENDBRANCH   2   3
ENDBRANCH   1   2
BRANCH   1   9
ATOM      9  C   UNL     1     172.659 169.660 173.426  1.00  0.00     0.100 C 
BRANCH   9  10
ATOM     10  C   UNL     1     171.686 169.767 172.291  1.00  0.00     0.220 C 
ATOM     11  O   UNL     1     170.866 170.723 172.262  1.00  0.00    -0.275 OA
ATOM     12  N   UNL     1     171.734 168.820 171.216  1.00  0.00    -0.352 N 
ATOM     13  H   UNL     1     172.372 167.996 171.292  1.00  0.00     0.163 HD
BRANCH  12  14
ATOM     14  C   UNL     1     170.998 169.016 169.970  1.00  0.00     0.151 C 
BRANCH  14  15
ATOM     15  C   UNL     1     171.892 169.637 168.931  1.00  0.00    -0.025 A 
ATOM     16  C   UNL     1     171.649 169.403 167.568  1.00  0.00     0.056 A 
ATOM     17  C   UNL     1     172.991 170.419 169.311  1.00  0.00     0.009 A 
ATOM     18  C   UNL     1     172.498 169.949 166.584  1.00  0.00     0.160 A 
ATOM     19  C   UNL     1     173.833 170.968 168.342  1.00  0.00     0.050 A 
ATOM     20  C   UNL     1     173.593 170.738 166.983  1.00  0.00     0.157 A 
BRANCH  18  21
ATOM     21  O   UNL     1     172.286 169.725 165.214  1.00  0.00    -0.493 OA
ATOM     22  C   UNL     1     171.010 169.727 164.583  1.00  0.00     0.278 C 
ENDBRANCH  18  21
BRANCH  20  23
ATOM     23  O   UNL     1     174.456 171.300 166.042  1.00  0.00    -0.504 OA
ATOM     24  H   UNL     1     174.790 172.253 166.117  1.00  0.00     0.293 HD
ENDBRANCH  20  23
ENDBRANCH  14  15
ENDBRANCH  12  14
ENDBRANCH   9  10
ENDBRANCH   1   9
TORSDOF 10
ENDMDL
MODEL 3
REMARK VINA RESULT:    -4.983      2.699      4.765
REMARK INTER + INTRA:          -9.331
REMARK INTER:                  -8.223
REMARK INTRA:                  -1.109
REMARK UNBOUND:                -1.581
REMARK SMILES COc1cc(CNC(=O)CCCCC=CC(C)C)ccc1O
REMARK SMILES IDX 11 1 12 2 13 3 14 4 15 5 16 6 17 7 18 8 10 9 8 10 9 11 7 12
REMARK SMILES IDX 6 14 5 15 4 16 19 17 3 18 20 19 21 20 2 21 1 22 22 23
REMARK H PARENT 7 13 22 24
REMARK Flexibility Score: inf
ROOT
ATOM      1  C   UNL     1     175.582 168.114 171.980  1.00  0.00     0.010 C 
ENDROOT
BRANCH   1   2
ATOM      2  C   UNL     1     176.355 169.308 171.413  1.00  0.00     0.005 C 
BRANCH   2   3
ATOM      3  C   UNL     1     175.484 170.572 171.408  1.00  0.00     0.027 C 
BRANCH   3   4
ATOM      4  C   UNL     1     175.370 171.158 172.791  1.00  0.00    -0.031 C 
ATOM      5  C   UNL     1     176.316 171.903 173.397  1.00  0.00    -0.028 C 
BRANCH   5   6
ATOM      6  C   UNL     1     177.665 172.255 172.804  1.00  0.00     0.005 C 
ATOM      7  C   UNL     1     178.726 172.261 173.907  1.00  0.00     0.012 C 
ATOM      8  C   UNL     1     177.587 173.624 172.123  1.00  0.00     0.012 C 
ENDBRANCH   5   6
ENDBRANCH   3   4
ENDBRANCH   2   3
ENDBRANCH   1   2
BRANCH   1   9
ATOM      9  C   UNL     1     175.984 166.813 171.277  1.00  0.00     0.100 C 
BRANCH   9  10
ATOM     10  C   UNL     1     175.931 166.990 169.791  1.00  0.00     0.220 C 
ATOM     11  O   UNL     1     176.980 166.836 169.109  1.00  0.00    -0.275 OA
ATOM     12  N   UNL     1     174.682 167.271 169.146  1.00  0.00    -0.352 N 
ATOM     13  H   UNL     1     173.839 167.464 169.734  1.00  0.00     0.163 HD
BRANCH  12  14
ATOM     14  C   UNL     1     174.517 167.199 167.697  1.00  0.00     0.151 C 
BRANCH  14  15
ATOM     15  C   UNL     1     174.043 168.523 167.162  1.00  0.00    -0.025 A 
ATOM     16  C   UNL     1     173.526 168.608 165.860  1.00  0.00     0.056 A 
ATOM     17  C   UNL     1     174.145 169.685 167.941  1.00  0.00     0.009 A 
ATOM     18  C   UNL     1     173.109 169.847 165.333  1.00  0.00     0.160 A 
ATOM     19  C   UNL     1     173.729 170.914 167.427  1.00  0.00     0.050 A 
ATOM     20  C   UNL     1     173.213 171.002 166.131  1.00  0.00     0.157 A 
BRANCH  18  21
ATOM     21  O   UNL     1     172.597 169.965 164.031  1.00  0.00    -0.493 OA
ATOM     22  C   UNL     1     171.244 169.708 163.668  1.00  0.00     0.278 C 
ENDBRANCH  18  21
BRANCH  20  23
ATOM     23  O   UNL     1     172.809 172.248 165.649  1.00  0.00    -0.504 OA
ATOM     24  H   UNL     1     173.244 173.111 165.952  1.00  0.00     0.293 HD
ENDBRANCH  20  23
ENDBRANCH  14  15
ENDBRANCH  12  14
ENDBRANCH   9  10
ENDBRANCH   1   9
TORSDOF 10
ENDMDL
MODEL 4
REMARK VINA RESULT:    -4.948      3.364      4.270
REMARK INTER + INTRA:          -9.277
REMARK INTER:                  -7.671
REMARK INTRA:                  -1.606
REMARK UNBOUND:                -1.581
REMARK SMILES COc1cc(CNC(=O)CCCCC=CC(C)C)ccc1O
REMARK SMILES IDX 11 1 12 2 13 3 14 4 15 5 16 6 17 7 18 8 10 9 8 10 9 11 7 12
REMARK SMILES IDX 6 14 5 15 4 16 19 17 3 18 20 19 21 20 2 21 1 22 22 23
REMARK H PARENT 7 13 22 24
REMARK Flexibility Score: inf
ROOT
ATOM      1  C   UNL     1     174.387 170.731 170.417  1.00  0.00     0.010 C 
ENDROOT
BRANCH   1   2
ATOM      2  C   UNL     1     173.981 170.143 171.772  1.00  0.00     0.005 C 
BRANCH   2   3
ATOM      3  C   UNL     1     174.905 170.649 172.888  1.00  0.00     0.027 C 
BRANCH   3   4
ATOM      4  C   UNL     1     176.342 170.293 172.607  1.00  0.00    -0.031 C 
ATOM      5  C   UNL     1     177.376 171.156 172.657  1.00  0.00    -0.028 C 
BRANCH   5   6
ATOM      6  C   UNL     1     177.269 172.632 172.977  1.00  0.00     0.005 C 
ATOM      7  C   UNL     1     177.074 173.426 171.683  1.00  0.00     0.012 C 
ATOM      8  C   UNL     1     178.533 173.094 173.707  1.00  0.00     0.012 C 
ENDBRANCH   5   6
ENDBRANCH   3   4
ENDBRANCH   2   3
ENDBRANCH   1   2
BRANCH   1   9
ATOM      9  C   UNL     1     174.212 169.703 169.295  1.00  0.00     0.100 C 
BRANCH   9  10
ATOM     10  C   UNL     1     175.026 168.479 169.583  1.00  0.00     0.220 C 
ATOM     11  O   UNL     1     176.283 168.540 169.528  1.00  0.00    -0.275 OA
ATOM     12  N   UNL     1     174.376 167.264 169.980  1.00  0.00    -0.352 N 
ATOM     13  H   UNL     1     173.333 167.213 169.951  1.00  0.00     0.163 HD
BRANCH  12  14
ATOM     14  C   UNL     1     175.114 166.124 170.519  1.00  0.00     0.151 C 
BRANCH  14  15
ATOM     15  C   UNL     1     175.063 166.139 172.023  1.00  0.00    -0.025 A 
ATOM     16  C   UNL     1     174.061 165.421 172.696  1.00  0.00     0.056 A 
ATOM     17  C   UNL     1     175.986 166.892 172.761  1.00  0.00     0.009 A 
ATOM     18  C   UNL     1     173.979 165.452 174.103  1.00  0.00     0.160 A 
ATOM     19  C   UNL     1     175.914 166.922 174.155  1.00  0.00     0.050 A 
ATOM     20  C   UNL     1     174.918 166.208 174.828  1.00  0.00     0.157 A 
BRANCH  18  21
ATOM     21  O   UNL     1     172.984 164.752 174.804  1.00  0.00    -0.493 OA
ATOM     22  C   UNL     1     171.765 165.326 175.264  1.00  0.00     0.278 C 
ENDBRANCH  18  21
BRANCH  20  23
ATOM     23  O   UNL     1     174.876 166.264 176.222  1.00  0.00    -0.504 OA
ATOM     24  H   UNL     1     174.232 166.867 176.719  1.00  0.00     0.293 HD
ENDBRANCH  20  23
ENDBRANCH  14  15
ENDBRANCH  12  14
ENDBRANCH   9  10
ENDBRANCH   1   9
TORSDOF 10
ENDMDL
MODEL 5
REMARK VINA RESULT:    -4.947      3.509      6.263
REMARK INTER + INTRA:          -9.276
REMARK INTER:                  -7.949
REMARK INTRA:                  -1.327
REMARK UNBOUND:                -1.581
REMARK SMILES COc1cc(CNC(=O)CCCCC=CC(C)C)ccc1O
REMARK SMILES IDX 11 1 12 2 13 3 14 4 15 5 16 6 17 7 18 8 10 9 8 10 9 11 7 12
REMARK SMILES IDX 6 14 5 15 4 16 19 17 3 18 20 19 21 20 2 21 1 22 22 23
REMARK H PARENT 7 13 22 24
REMARK Flexibility Score: inf
ROOT
ATOM      1  C   UNL     1     176.107 168.503 172.914  1.00  0.00     0.010 C 
ENDROOT
BRANCH   1   2
ATOM      2  C   UNL     1     175.985 169.006 171.473  1.00  0.00     0.005 C 
BRANCH   2   3
ATOM      3  C   UNL     1     175.464 170.449 171.438  1.00  0.00     0.027 C 
BRANCH   3   4
ATOM      4  C   UNL     1     175.430 171.048 172.820  1.00  0.00    -0.031 C 
ATOM      5  C   UNL     1     176.372 171.864 173.332  1.00  0.00    -0.028 C 
BRANCH   5   6
ATOM      6  C   UNL     1     177.638 172.295 172.621  1.00  0.00     0.005 C 
ATOM      7  C   UNL     1     178.796 172.353 173.620  1.00  0.00     0.012 C 
ATOM      8  C   UNL     1     177.421 173.662 171.966  1.00  0.00     0.012 C 
ENDBRANCH   5   6
ENDBRANCH   3   4
ENDBRANCH   2   3
ENDBRANCH   1   2
BRANCH   1   9
ATOM      9  C   UNL     1     175.803 167.004 173.003  1.00  0.00     0.100 C 
BRANCH   9  10
ATOM     10  C   UNL     1     174.432 166.786 173.566  1.00  0.00     0.220 C 
ATOM     11  O   UNL     1     174.294 166.564 174.799  1.00  0.00    -0.275 OA
ATOM     12  N   UNL     1     173.283 166.893 172.715  1.00  0.00    -0.352 N 
ATOM     13  H   UNL     1     173.422 167.008 171.686  1.00  0.00     0.163 HD
BRANCH  12  14
ATOM     14  C   UNL     1     171.923 166.948 173.244  1.00  0.00     0.151 C 
BRANCH  14  15
ATOM     15  C   UNL     1     171.363 168.337 173.089  1.00  0.00    -0.025 A 
ATOM     16  C   UNL     1     170.016 168.513 172.735  1.00  0.00     0.056 A 
ATOM     17  C   UNL     1     172.183 169.461 173.260  1.00  0.00     0.009 A 
ATOM     18  C   UNL     1     169.485 169.806 172.553  1.00  0.00     0.160 A 
ATOM     19  C   UNL     1     171.662 170.744 173.087  1.00  0.00     0.050 A 
ATOM     20  C   UNL     1     170.321 170.923 172.735  1.00  0.00     0.157 A 
BRANCH  18  21
ATOM     21  O   UNL     1     168.144 170.013 172.189  1.00  0.00    -0.493 OA
ATOM     22  C   UNL     1     167.280 169.004 171.677  1.00  0.00     0.278 C 
ENDBRANCH  18  21
BRANCH  20  23
ATOM     23  O   UNL     1     169.836 172.220 172.568  1.00  0.00    -0.504 OA
ATOM     24  H   UNL     1     168.848 172.419 172.464  1.00  0.00     0.293 HD
ENDBRANCH  20  23
ENDBRANCH  14  15
ENDBRANCH  12  14
ENDBRANCH   9  10
ENDBRANCH   1   9
TORSDOF 10
ENDMDL
MODEL 6
REMARK VINA RESULT:    -4.826      4.646      5.717
REMARK INTER + INTRA:          -9.087
REMARK INTER:                  -8.128
REMARK INTRA:                  -0.959
REMARK UNBOUND:                -1.581
REMARK SMILES COc1cc(CNC(=O)CCCCC=CC(C)C)ccc1O
REMARK SMILES IDX 11 1 12 2 13 3 14 4 15 5 16 6 17 7 18 8 10 9 8 10 9 11 7 12
REMARK SMILES IDX 6 14 5 15 4 16 19 17 3 18 20 19 21 20 2 21 1 22 22 23
REMARK H PARENT 7 13 22 24
REMARK Flexibility Score: inf
ROOT
ATOM      1  C   UNL     1     173.873 170.544 173.112  1.00  0.00     0.010 C 
ENDROOT
BRANCH   1   2
ATOM      2  C   UNL     1     174.173 170.325 171.627  1.00  0.00     0.005 C 
BRANCH   2   3
ATOM      3  C   UNL     1     175.671 170.498 171.338  1.00  0.00     0.027 C 
BRANCH   3   4
ATOM      4  C   UNL     1     176.504 170.092 172.527  1.00  0.00    -0.031 C 
ATOM      5  C   UNL     1     177.381 170.892 173.165  1.00  0.00    -0.028 C 
BRANCH   5   6
ATOM      6  C   UNL     1     177.701 172.322 172.782  1.00  0.00     0.005 C 
ATOM      7  C   UNL     1     179.185 172.440 172.427  1.00  0.00     0.012 C 
ATOM      8  C   UNL     1     177.348 173.257 173.942  1.00  0.00     0.012 C 
ENDBRANCH   5   6
ENDBRANCH   3   4
ENDBRANCH   2   3
ENDBRANCH   1   2
BRANCH   1   9
ATOM      9  C   UNL     1     172.615 169.783 173.540  1.00  0.00     0.100 C 
BRANCH   9  10
ATOM     10  C   UNL     1     172.841 168.306 173.432  1.00  0.00     0.220 C 
ATOM     11  O   UNL     1     171.965 167.580 172.891  1.00  0.00    -0.275 OA
ATOM     12  N   UNL     1     174.076 167.736 173.887  1.00  0.00    -0.352 N 
ATOM     13  H   UNL     1     174.758 168.342 174.396  1.00  0.00     0.163 HD
BRANCH  12  14
ATOM     14  C   UNL     1     174.461 166.361 173.579  1.00  0.00     0.151 C 
BRANCH  14  15
ATOM     15  C   UNL     1     174.023 165.440 174.685  1.00  0.00    -0.025 A 
ATOM     16  C   UNL     1     173.292 164.281 174.382  1.00  0.00     0.056 A 
ATOM     17  C   UNL     1     174.307 165.745 176.024  1.00  0.00     0.009 A 
ATOM     18  C   UNL     1     172.844 163.425 175.409  1.00  0.00     0.160 A 
ATOM     19  C   UNL     1     173.873 164.900 177.045  1.00  0.00     0.050 A 
ATOM     20  C   UNL     1     173.144 163.744 176.747  1.00  0.00     0.157 A 
BRANCH  18  21
ATOM     21  O   UNL     1     172.103 162.264 175.138  1.00  0.00    -0.493 OA
ATOM     22  C   UNL     1     172.212 161.496 173.944  1.00  0.00     0.278 C 
ENDBRANCH  18  21
BRANCH  20  23
ATOM     23  O   UNL     1     172.724 162.923 177.794  1.00  0.00    -0.504 OA
ATOM     24  H   UNL     1     173.125 162.008 177.958  1.00  0.00     0.293 HD
ENDBRANCH  20  23
ENDBRANCH  14  15
ENDBRANCH  12  14
ENDBRANCH   9  10
ENDBRANCH   1   9
TORSDOF 10
ENDMDL
MODEL 7
REMARK VINA RESULT:    -4.790      1.547      2.516
REMARK INTER + INTRA:          -9.031
REMARK INTER:                  -8.264
REMARK INTRA:                  -0.767
REMARK UNBOUND:                -1.581
REMARK SMILES COc1cc(CNC(=O)CCCCC=CC(C)C)ccc1O
REMARK SMILES IDX 11 1 12 2 13 3 14 4 15 5 16 6 17 7 18 8 10 9 8 10 9 11 7 12
REMARK SMILES IDX 6 14 5 15 4 16 19 17 3 18 20 19 21 20 2 21 1 22 22 23
REMARK H PARENT 7 13 22 24
REMARK Flexibility Score: inf
ROOT
ATOM      1  C   UNL     1     173.253 170.225 170.406  1.00  0.00     0.010 C 
ENDROOT
BRANCH   1   2
ATOM      2  C   UNL     1     173.985 170.077 171.743  1.00  0.00     0.005 C 
BRANCH   2   3
ATOM      3  C   UNL     1     175.265 170.924 171.764  1.00  0.00     0.027 C 
BRANCH   3   4
ATOM      4  C   UNL     1     176.297 170.329 172.686  1.00  0.00    -0.031 C 
ATOM      5  C   UNL     1     177.384 170.975 173.150  1.00  0.00    -0.028 C 
BRANCH   5   6
ATOM      6  C   UNL     1     177.770 172.399 172.806  1.00  0.00     0.005 C 
ATOM      7  C   UNL     1     179.264 172.462 172.480  1.00  0.00     0.012 C 
ATOM      8  C   UNL     1     177.434 173.323 173.980  1.00  0.00     0.012 C 
ENDBRANCH   5   6
ENDBRANCH   3   4
ENDBRANCH   2   3
ENDBRANCH   1   2
BRANCH   1   9
ATOM      9  C   UNL     1     173.256 168.907 169.626  1.00  0.00     0.100 C 
BRANCH   9  10
ATOM     10  C   UNL     1     174.619 168.642 169.063  1.00  0.00     0.220 C 
ATOM     11  O   UNL     1     174.942 169.144 167.954  1.00  0.00    -0.275 OA
ATOM     12  N   UNL     1     175.567 167.874 169.815  1.00  0.00    -0.352 N 
ATOM     13  H   UNL     1     175.258 167.408 170.698  1.00  0.00     0.163 HD
BRANCH  12  14
ATOM     14  C   UNL     1     176.979 167.798 169.446  1.00  0.00     0.151 C 
BRANCH  14  15
ATOM     15  C   UNL     1     177.359 166.374 169.143  1.00  0.00    -0.025 A 
ATOM     16  C   UNL     1     176.371 165.450 168.769  1.00  0.00     0.056 A 
ATOM     17  C   UNL     1     178.690 165.949 169.264  1.00  0.00     0.009 A 
ATOM     18  C   UNL     1     176.706 164.105 168.514  1.00  0.00     0.160 A 
ATOM     19  C   UNL     1     179.030 164.620 169.008  1.00  0.00     0.050 A 
ATOM     20  C   UNL     1     178.048 163.697 168.634  1.00  0.00     0.157 A 
BRANCH  18  21
ATOM     21  O   UNL     1     175.739 163.155 168.147  1.00  0.00    -0.493 OA
ATOM     22  C   UNL     1     174.840 162.525 169.054  1.00  0.00     0.278 C 
ENDBRANCH  18  21
BRANCH  20  23
ATOM     23  O   UNL     1     178.424 162.376 168.388  1.00  0.00    -0.504 OA
ATOM     24  H   UNL     1     179.040 162.123 167.626  1.00  0.00     0.293 HD
ENDBRANCH  20  23
ENDBRANCH  14  15
ENDBRANCH  12  14
ENDBRANCH   9  10
ENDBRANCH   1   9
TORSDOF 10
ENDMDL
MODEL 8
REMARK VINA RESULT:    -4.784      4.081      5.664
REMARK INTER + INTRA:          -9.022
REMARK INTER:                  -8.157
REMARK INTRA:                  -0.865
REMARK UNBOUND:                -1.581
REMARK SMILES COc1cc(CNC(=O)CCCCC=CC(C)C)ccc1O
REMARK SMILES IDX 11 1 12 2 13 3 14 4 15 5 16 6 17 7 18 8 10 9 8 10 9 11 7 12
REMARK SMILES IDX 6 14 5 15 4 16 19 17 3 18 20 19 21 20 2 21 1 22 22 23
REMARK H PARENT 7 13 22 24
REMARK Flexibility Score: inf
ROOT
ATOM      1  C   UNL     1     173.954 169.541 171.424  1.00  0.00     0.010 C 
ENDROOT
BRANCH   1   2
ATOM      2  C   UNL     1     174.608 170.278 172.597  1.00  0.00     0.005 C 
BRANCH   2   3
ATOM      3  C   UNL     1     176.028 169.754 172.850  1.00  0.00     0.027 C 
BRANCH   3   4
ATOM      4  C   UNL     1     176.986 170.250 171.799  1.00  0.00    -0.031 C 
ATOM      5  C   UNL     1     177.667 171.412 171.859  1.00  0.00    -0.028 C 
BRANCH   5   6
ATOM      6  C   UNL     1     177.566 172.429 172.978  1.00  0.00     0.005 C 
ATOM      7  C   UNL     1     177.689 173.841 172.401  1.00  0.00     0.012 C 
ATOM      8  C   UNL     1     178.667 172.170 174.010  1.00  0.00     0.012 C 
ENDBRANCH   5   6
ENDBRANCH   3   4
ENDBRANCH   2   3
ENDBRANCH   1   2
BRANCH   1   9
ATOM      9  C   UNL     1     173.640 170.504 170.275  1.00  0.00     0.100 C 
BRANCH   9  10
ATOM     10  C   UNL     1     174.197 169.974 168.989  1.00  0.00     0.220 C 
ATOM     11  O   UNL     1     175.149 169.149 169.016  1.00  0.00    -0.275 OA
ATOM     12  N   UNL     1     173.605 170.356 167.740  1.00  0.00    -0.352 N 
ATOM     13  H   UNL     1     172.864 171.093 167.734  1.00  0.00     0.163 HD
BRANCH  12  14
ATOM     14  C   UNL     1     173.927 169.683 166.485  1.00  0.00     0.151 C 
BRANCH  14  15
ATOM     15  C   UNL     1     172.936 170.070 165.420  1.00  0.00    -0.025 A 
ATOM     16  C   UNL     1     172.761 169.250 164.295  1.00  0.00     0.056 A 
ATOM     17  C   UNL     1     172.208 171.264 165.523  1.00  0.00     0.009 A 
ATOM     18  C   UNL     1     171.862 169.615 163.273  1.00  0.00     0.160 A 
ATOM     19  C   UNL     1     171.312 171.629 164.517  1.00  0.00     0.050 A 
ATOM     20  C   UNL     1     171.135 170.813 163.395  1.00  0.00     0.157 A 
BRANCH  18  21
ATOM     21  O   UNL     1     171.673 168.820 162.131  1.00  0.00    -0.493 OA
ATOM     22  C   UNL     1     170.816 167.685 162.070  1.00  0.00     0.278 C 
ENDBRANCH  18  21
BRANCH  20  23
ATOM     23  O   UNL     1     170.232 171.212 162.408  1.00  0.00    -0.504 OA
ATOM     24  H   UNL     1     170.370 172.049 161.856  1.00  0.00     0.293 HD
ENDBRANCH  20  23
ENDBRANCH  14  15
ENDBRANCH  12  14
ENDBRANCH   9  10
ENDBRANCH   1   9
TORSDOF 10
ENDMDL
MODEL 9
REMARK VINA RESULT:    -4.775      2.443      5.831
REMARK INTER + INTRA:          -9.007
REMARK INTER:                  -7.513
REMARK INTRA:                  -1.495
REMARK UNBOUND:                -1.581
REMARK SMILES COc1cc(CNC(=O)CCCCC=CC(C)C)ccc1O
REMARK SMILES IDX 11 1 12 2 13 3 14 4 15 5 16 6 17 7 18 8 10 9 8 10 9 11 7 12
REMARK SMILES IDX 6 14 5 15 4 16 19 17 3 18 20 19 21 20 2 21 1 22 22 23
REMARK H PARENT 7 13 22 24
REMARK Flexibility Score: inf
ROOT
ATOM      1  C   UNL     1     175.924 169.138 170.147  1.00  0.00     0.010 C 
ENDROOT
BRANCH   1   2
ATOM      2  C   UNL     1     175.841 168.604 171.580  1.00  0.00     0.005 C 
BRANCH   2   3
ATOM      3  C   UNL     1     175.906 169.751 172.597  1.00  0.00     0.027 C 
BRANCH   3   4
ATOM      4  C   UNL     1     175.815 171.090 171.912  1.00  0.00    -0.031 C 
ATOM      5  C   UNL     1     176.673 172.113 172.096  1.00  0.00    -0.028 C 
BRANCH   5   6
ATOM      6  C   UNL     1     177.858 172.103 173.039  1.00  0.00     0.005 C 
ATOM      7  C   UNL     1     177.759 173.290 174.001  1.00  0.00     0.012 C 
ATOM      8  C   UNL     1     179.158 172.168 172.234  1.00  0.00     0.012 C 
ENDBRANCH   5   6
ENDBRANCH   3   4
ENDBRANCH   2   3
ENDBRANCH   1   2
BRANCH   1   9
ATOM      9  C   UNL     1     175.577 168.045 169.130  1.00  0.00     0.100 C 
BRANCH   9  10
ATOM     10  C   UNL     1     174.091 167.926 168.985  1.00  0.00     0.220 C 
ATOM     11  O   UNL     1     173.557 166.784 168.970  1.00  0.00    -0.275 OA
ATOM     12  N   UNL     1     173.280 169.106 168.926  1.00  0.00    -0.352 N 
ATOM     13  H   UNL     1     173.745 170.040 168.869  1.00  0.00     0.163 HD
BRANCH  12  14
ATOM     14  C   UNL     1     171.825 169.060 169.044  1.00  0.00     0.151 C 
BRANCH  14  15
ATOM     15  C   UNL     1     171.392 169.664 170.354  1.00  0.00    -0.025 A 
ATOM     16  C   UNL     1     170.029 169.890 170.604  1.00  0.00     0.056 A 
ATOM     17  C   UNL     1     172.341 170.037 171.316  1.00  0.00     0.009 A 
ATOM     18  C   UNL     1     169.611 170.485 171.811  1.00  0.00     0.160 A 
ATOM     19  C   UNL     1     171.933 170.622 172.516  1.00  0.00     0.050 A 
ATOM     20  C   UNL     1     170.576 170.847 172.768  1.00  0.00     0.157 A 
BRANCH  18  21
ATOM     21  O   UNL     1     168.256 170.733 172.085  1.00  0.00    -0.493 OA
ATOM     22  C   UNL     1     167.167 170.122 171.400  1.00  0.00     0.278 C 
ENDBRANCH  18  21
BRANCH  20  23
ATOM     23  O   UNL     1     170.205 171.436 173.978  1.00  0.00    -0.504 OA
ATOM     24  H   UNL     1     170.836 171.493 174.767  1.00  0.00     0.293 HD
ENDBRANCH  20  23
ENDBRANCH  14  15
ENDBRANCH  12  14
ENDBRANCH   9  10
ENDBRANCH   1   9
TORSDOF 10
ENDMDL
