MODEL 1
REMARK VINA RESULT:    -4.800      0.000      0.000
REMARK INTER + INTRA:          -5.210
REMARK INTER:                  -5.080
REMARK INTRA:                  -0.130
REMARK UNBOUND:                -0.130
REMARK SMILES C=C(C)[C@@H]1CC=C(C)CC1
REMARK SMILES IDX 8 1 7 2 6 3 5 4 4 5 10 6 9 7 2 8 1 9 3 10
REMARK H PARENT
REMARK Flexibility Score: inf
ROOT
ATOM      1  C   UNL     1      17.617 118.907 296.761  1.00  0.00     0.039 C 
ATOM      2  C   UNL     1      17.694 118.100 295.494  1.00  0.00    -0.077 C 
ATOM      3  C   UNL     1      18.647 118.397 294.585  1.00  0.00    -0.027 C 
ATOM      4  C   UNL     1      18.839 117.613 293.309  1.00  0.00     0.035 C 
ATOM      5  C   UNL     1      17.566 116.855 292.895  1.00  0.00     0.018 C 
ATOM      6  C   UNL     1      17.000 116.089 294.100  1.00  0.00     0.013 C 
ATOM      7  C   UNL     1      16.617 117.068 295.217  1.00  0.00     0.031 C 
ENDROOT
BRANCH   5   8
ATOM      8  C   UNL     1      17.831 115.928 291.717  1.00  0.00    -0.077 C 
ATOM      9  C   UNL     1      16.935 114.984 291.388  1.00  0.00     0.008 C 
ATOM     10  C   UNL     1      19.087 116.048 290.890  1.00  0.00     0.039 C 
ENDBRANCH   5   8
TORSDOF 1
ENDMDL
MODEL 2
REMARK VINA RESULT:    -4.277      2.156      3.377
REMARK INTER + INTRA:          -4.657
REMARK INTER:                  -4.537
REMARK INTRA:                  -0.120
REMARK UNBOUND:                -0.130
REMARK SMILES C=C(C)[C@@H]1CC=C(C)CC1
REMARK SMILES IDX 8 1 7 2 6 3 5 4 4 5 10 6 9 7 2 8 1 9 3 10
REMARK H PARENT
REMARK Flexibility Score: inf
ROOT
ATOM      1  C   UNL     1      21.618 118.013 297.709  1.00  0.00     0.039 C 
ATOM      2  C   UNL     1      20.556 117.992 296.645  1.00  0.00    -0.077 C 
ATOM      3  C   UNL     1      19.473 117.205 296.816  1.00  0.00    -0.027 C 
ATOM      4  C   UNL     1      18.329 117.153 295.831  1.00  0.00     0.035 C 
ATOM      5  C   UNL     1      18.750 117.618 294.427  1.00  0.00     0.018 C 
ATOM      6  C   UNL     1      19.521 118.943 294.525  1.00  0.00     0.013 C 
ATOM      7  C   UNL     1      20.797 118.753 295.354  1.00  0.00     0.031 C 
ENDROOT
BRANCH   5   8
ATOM      8  C   UNL     1      17.548 117.737 293.500  1.00  0.00    -0.077 C 
ATOM      9  C   UNL     1      17.376 116.854 292.503  1.00  0.00     0.008 C 
ATOM     10  C   UNL     1      16.523 118.829 293.678  1.00  0.00     0.039 C 
ENDBRANCH   5   8
TORSDOF 1
ENDMDL
MODEL 3
REMARK VINA RESULT:    -4.231      2.222      3.127
REMARK INTER + INTRA:          -4.608
REMARK INTER:                  -4.480
REMARK INTRA:                  -0.128
REMARK UNBOUND:                -0.130
REMARK SMILES C=C(C)[C@@H]1CC=C(C)CC1
REMARK SMILES IDX 8 1 7 2 6 3 5 4 4 5 10 6 9 7 2 8 1 9 3 10
REMARK H PARENT
REMARK Flexibility Score: inf
ROOT
ATOM      1  C   UNL     1      21.723 117.589 297.463  1.00  0.00     0.039 C 
ATOM      2  C   UNL     1      20.577 117.667 296.493  1.00  0.00    -0.077 C 
ATOM      3  C   UNL     1      20.748 118.325 295.327  1.00  0.00    -0.027 C 
ATOM      4  C   UNL     1      19.678 118.415 294.267  1.00  0.00     0.035 C 
ATOM      5  C   UNL     1      18.269 118.189 294.842  1.00  0.00     0.018 C 
ATOM      6  C   UNL     1      18.263 116.935 295.730  1.00  0.00     0.013 C 
ATOM      7  C   UNL     1      19.225 117.118 296.910  1.00  0.00     0.031 C 
ENDROOT
BRANCH   5   8
ATOM      8  C   UNL     1      17.227 118.097 293.736  1.00  0.00    -0.077 C 
ATOM      9  C   UNL     1      17.247 117.066 292.876  1.00  0.00     0.008 C 
ATOM     10  C   UNL     1      16.150 119.142 293.582  1.00  0.00     0.039 C 
ENDBRANCH   5   8
TORSDOF 1
ENDMDL
MODEL 4
REMARK VINA RESULT:    -4.143      2.624      5.030
REMARK INTER + INTRA:          -4.515
REMARK INTER:                  -4.387
REMARK INTRA:                  -0.128
REMARK UNBOUND:                -0.130
REMARK SMILES C=C(C)[C@@H]1CC=C(C)CC1
REMARK SMILES IDX 8 1 7 2 6 3 5 4 4 5 10 6 9 7 2 8 1 9 3 10
REMARK H PARENT
REMARK Flexibility Score: inf
ROOT
ATOM      1  C   UNL     1      16.766 117.953 293.458  1.00  0.00     0.039 C 
ATOM      2  C   UNL     1      17.893 117.818 294.444  1.00  0.00    -0.077 C 
ATOM      3  C   UNL     1      17.743 116.995 295.503  1.00  0.00    -0.027 C 
ATOM      4  C   UNL     1      18.833 116.751 296.518  1.00  0.00     0.035 C 
ATOM      5  C   UNL     1      19.863 117.894 296.551  1.00  0.00     0.018 C 
ATOM      6  C   UNL     1      20.310 118.234 295.121  1.00  0.00     0.013 C 
ATOM      7  C   UNL     1      19.111 118.711 294.292  1.00  0.00     0.031 C 
ENDROOT
BRANCH   5   8
ATOM      8  C   UNL     1      21.049 117.545 297.440  1.00  0.00    -0.077 C 
ATOM      9  C   UNL     1      22.108 116.898 296.927  1.00  0.00     0.008 C 
ATOM     10  C   UNL     1      21.073 117.921 298.901  1.00  0.00     0.039 C 
ENDBRANCH   5   8
TORSDOF 1
ENDMDL
MODEL 5
REMARK VINA RESULT:    -4.142      1.857      4.855
REMARK INTER + INTRA:          -4.514
REMARK INTER:                  -4.394
REMARK INTRA:                  -0.120
REMARK UNBOUND:                -0.130
REMARK SMILES C=C(C)[C@@H]1CC=C(C)CC1
REMARK SMILES IDX 8 1 7 2 6 3 5 4 4 5 10 6 9 7 2 8 1 9 3 10
REMARK H PARENT
REMARK Flexibility Score: inf
ROOT
ATOM      1  C   UNL     1      17.290 116.846 292.563  1.00  0.00     0.039 C 
ATOM      2  C   UNL     1      17.894 117.229 293.885  1.00  0.00    -0.077 C 
ATOM      3  C   UNL     1      19.029 117.961 293.899  1.00  0.00    -0.027 C 
ATOM      4  C   UNL     1      19.684 118.439 295.173  1.00  0.00     0.035 C 
ATOM      5  C   UNL     1      19.282 117.586 296.389  1.00  0.00     0.018 C 
ATOM      6  C   UNL     1      17.757 117.406 296.419  1.00  0.00     0.013 C 
ATOM      7  C   UNL     1      17.286 116.671 295.158  1.00  0.00     0.031 C 
ENDROOT
BRANCH   5   8
ATOM      8  C   UNL     1      19.800 118.192 297.686  1.00  0.00    -0.077 C 
ATOM      9  C   UNL     1      20.796 117.593 298.358  1.00  0.00     0.008 C 
ATOM     10  C   UNL     1      19.225 119.471 298.241  1.00  0.00     0.039 C 
ENDBRANCH   5   8
TORSDOF 1
ENDMDL
MODEL 6
REMARK VINA RESULT:    -4.116      2.243      2.797
REMARK INTER + INTRA:          -4.486
REMARK INTER:                  -4.358
REMARK INTRA:                  -0.128
REMARK UNBOUND:                -0.130
REMARK SMILES C=C(C)[C@@H]1CC=C(C)CC1
REMARK SMILES IDX 8 1 7 2 6 3 5 4 4 5 10 6 9 7 2 8 1 9 3 10
REMARK H PARENT
REMARK Flexibility Score: inf
ROOT
ATOM      1  C   UNL     1      17.435 122.560 294.838  1.00  0.00     0.039 C 
ATOM      2  C   UNL     1      17.376 121.096 294.502  1.00  0.00    -0.077 C 
ATOM      3  C   UNL     1      18.486 120.343 294.655  1.00  0.00    -0.027 C 
ATOM      4  C   UNL     1      18.514 118.857 294.394  1.00  0.00     0.035 C 
ATOM      5  C   UNL     1      17.385 118.411 293.449  1.00  0.00     0.018 C 
ATOM      6  C   UNL     1      16.049 119.007 293.914  1.00  0.00     0.013 C 
ATOM      7  C   UNL     1      16.111 120.539 293.875  1.00  0.00     0.031 C 
ENDROOT
BRANCH   5   8
ATOM      8  C   UNL     1      17.316 116.893 293.347  1.00  0.00    -0.077 C 
ATOM      9  C   UNL     1      17.015 116.158 294.430  1.00  0.00     0.008 C 
ATOM     10  C   UNL     1      17.569 116.180 292.042  1.00  0.00     0.039 C 
ENDBRANCH   5   8
TORSDOF 1
ENDMDL
MODEL 7
REMARK VINA RESULT:    -3.943      2.537      4.200
REMARK INTER + INTRA:          -4.303
REMARK INTER:                  -4.172
REMARK INTRA:                  -0.130
REMARK UNBOUND:                -0.130
REMARK SMILES C=C(C)[C@@H]1CC=C(C)CC1
REMARK SMILES IDX 8 1 7 2 6 3 5 4 4 5 10 6 9 7 2 8 1 9 3 10
REMARK H PARENT
REMARK Flexibility Score: inf
ROOT
ATOM      1  C   UNL     1      16.013 119.589 293.517  1.00  0.00     0.039 C 
ATOM      2  C   UNL     1      16.954 118.861 294.436  1.00  0.00    -0.077 C 
ATOM      3  C   UNL     1      17.944 119.552 295.041  1.00  0.00    -0.027 C 
ATOM      4  C   UNL     1      18.906 118.924 296.021  1.00  0.00     0.035 C 
ATOM      5  C   UNL     1      19.007 117.399 295.840  1.00  0.00     0.018 C 
ATOM      6  C   UNL     1      17.600 116.788 295.762  1.00  0.00     0.013 C 
ATOM      7  C   UNL     1      16.845 117.352 294.552  1.00  0.00     0.031 C 
ENDROOT
BRANCH   5   8
ATOM      8  C   UNL     1      19.833 116.764 296.950  1.00  0.00    -0.077 C 
ATOM      9  C   UNL     1      20.767 117.484 297.591  1.00  0.00     0.008 C 
ATOM     10  C   UNL     1      19.622 115.328 297.363  1.00  0.00     0.039 C 
ENDBRANCH   5   8
TORSDOF 1
ENDMDL
MODEL 8
REMARK VINA RESULT:    -3.897      1.933      5.099
REMARK INTER + INTRA:          -4.254
REMARK INTER:                  -4.125
REMARK INTRA:                  -0.129
REMARK UNBOUND:                -0.130
REMARK SMILES C=C(C)[C@@H]1CC=C(C)CC1
REMARK SMILES IDX 8 1 7 2 6 3 5 4 4 5 10 6 9 7 2 8 1 9 3 10
REMARK H PARENT
REMARK Flexibility Score: inf
ROOT
ATOM      1  C   UNL     1      17.547 116.430 292.374  1.00  0.00     0.039 C 
ATOM      2  C   UNL     1      17.710 117.588 293.320  1.00  0.00    -0.077 C 
ATOM      3  C   UNL     1      16.663 118.413 293.533  1.00  0.00    -0.027 C 
ATOM      4  C   UNL     1      16.711 119.570 294.501  1.00  0.00     0.035 C 
ATOM      5  C   UNL     1      18.150 120.037 294.779  1.00  0.00     0.018 C 
ATOM      6  C   UNL     1      19.039 118.827 295.101  1.00  0.00     0.013 C 
ATOM      7  C   UNL     1      19.082 117.870 293.903  1.00  0.00     0.031 C 
ENDROOT
BRANCH   5   8
ATOM      8  C   UNL     1      18.190 121.074 295.893  1.00  0.00    -0.077 C 
ATOM      9  C   UNL     1      18.782 120.782 297.063  1.00  0.00     0.008 C 
ATOM     10  C   UNL     1      17.584 122.444 295.716  1.00  0.00     0.039 C 
ENDBRANCH   5   8
TORSDOF 1
ENDMDL
MODEL 9
REMARK VINA RESULT:    -3.860      9.592     11.594
REMARK INTER + INTRA:          -4.215
REMARK INTER:                  -4.087
REMARK INTRA:                  -0.128
REMARK UNBOUND:                -0.130
REMARK SMILES C=C(C)[C@@H]1CC=C(C)CC1
REMARK SMILES IDX 8 1 7 2 6 3 5 4 4 5 10 6 9 7 2 8 1 9 3 10
REMARK H PARENT
REMARK Flexibility Score: inf
ROOT
ATOM      1  C   UNL     1      20.005 121.853 301.261  1.00  0.00     0.039 C 
ATOM      2  C   UNL     1      21.456 121.671 301.610  1.00  0.00    -0.077 C 
ATOM      3  C   UNL     1      22.393 121.939 300.676  1.00  0.00    -0.027 C 
ATOM      4  C   UNL     1      23.875 121.838 300.944  1.00  0.00     0.035 C 
ATOM      5  C   UNL     1      24.189 120.910 302.131  1.00  0.00     0.018 C 
ATOM      6  C   UNL     1      23.291 121.267 303.325  1.00  0.00     0.013 C 
ATOM      7  C   UNL     1      21.816 121.068 302.955  1.00  0.00     0.031 C 
ENDROOT
BRANCH   5   8
ATOM      8  C   UNL     1      25.665 120.968 302.503  1.00  0.00    -0.077 C 
ATOM      9  C   UNL     1      26.603 120.945 301.542  1.00  0.00     0.008 C 
ATOM     10  C   UNL     1      26.110 121.060 303.941  1.00  0.00     0.039 C 
ENDBRANCH   5   8
TORSDOF 1
ENDMDL
