MODEL 1
REMARK VINA RESULT:    -3.275      0.000      0.000
REMARK INTER + INTRA:          -4.639
REMARK INTER:                  -4.232
REMARK INTRA:                  -0.407
REMARK UNBOUND:                -0.407
REMARK SMILES C=CC(=O)CCCCC
REMARK SMILES IDX 6 1 7 2 8 3 9 4 5 5 3 6 4 7 2 8 1 9
REMARK H PARENT
REMARK Flexibility Score: inf
ROOT
ATOM      1  C   UNL     1      79.332  15.121   0.882  1.00  0.00     0.008 C 
ENDROOT
BRANCH   1   2
ATOM      2  C   UNL     1      79.357  14.074   2.010  1.00  0.00     0.000 C 
BRANCH   2   3
ATOM      3  C   UNL     1      80.505  14.241   3.022  1.00  0.00    -0.003 C 
ATOM      4  C   UNL     1      80.039  14.800   4.366  1.00  0.00     0.004 C 
ENDBRANCH   2   3
ENDBRANCH   1   2
BRANCH   1   5
ATOM      5  C   UNL     1      78.127  16.067   0.971  1.00  0.00     0.080 C 
BRANCH   5   6
ATOM      6  C   UNL     1      78.580  17.470   1.249  1.00  0.00     0.155 C 
ATOM      7  O   UNL     1      77.946  18.435   0.743  1.00  0.00    -0.295 OA
BRANCH   6   8
ATOM      8  C   UNL     1      79.783  17.709   2.070  1.00  0.00     0.039 C 
ATOM      9  C   UNL     1      80.550  18.787   1.916  1.00  0.00     0.012 C 
ENDBRANCH   6   8
ENDBRANCH   5   6
ENDBRANCH   1   5
TORSDOF 5
ENDMDL
MODEL 2
REMARK VINA RESULT:    -3.259      1.833      2.771
REMARK INTER + INTRA:          -4.619
REMARK INTER:                  -4.201
REMARK INTRA:                  -0.418
REMARK UNBOUND:                -0.407
REMARK SMILES C=CC(=O)CCCCC
REMARK SMILES IDX 6 1 7 2 8 3 9 4 5 5 3 6 4 7 2 8 1 9
REMARK H PARENT
REMARK Flexibility Score: inf
ROOT
ATOM      1  C   UNL     1      78.373  16.202   3.232  1.00  0.00     0.008 C 
ENDROOT
BRANCH   1   2
ATOM      2  C   UNL     1      78.016  14.754   2.852  1.00  0.00     0.000 C 
BRANCH   2   3
ATOM      3  C   UNL     1      77.467  14.576   1.425  1.00  0.00    -0.003 C 
ATOM      4  C   UNL     1      78.537  14.140   0.424  1.00  0.00     0.004 C 
ENDBRANCH   2   3
ENDBRANCH   1   2
BRANCH   1   5
ATOM      5  C   UNL     1      79.757  16.628   2.724  1.00  0.00     0.080 C 
BRANCH   5   6
ATOM      6  C   UNL     1      79.647  17.856   1.869  1.00  0.00     0.155 C 
ATOM      7  O   UNL     1      80.415  18.832   2.089  1.00  0.00    -0.295 OA
BRANCH   6   8
ATOM      8  C   UNL     1      78.619  17.933   0.814  1.00  0.00     0.039 C 
ATOM      9  C   UNL     1      77.645  18.842   0.829  1.00  0.00     0.012 C 
ENDBRANCH   6   8
ENDBRANCH   5   6
ENDBRANCH   1   5
TORSDOF 5
ENDMDL
MODEL 3
REMARK VINA RESULT:    -3.255      2.287      3.856
REMARK INTER + INTRA:          -4.613
REMARK INTER:                  -4.065
REMARK INTRA:                  -0.549
REMARK UNBOUND:                -0.407
REMARK SMILES C=CC(=O)CCCCC
REMARK SMILES IDX 6 1 7 2 8 3 9 4 5 5 3 6 4 7 2 8 1 9
REMARK H PARENT
REMARK Flexibility Score: inf
ROOT
ATOM      1  C   UNL     1      78.463  15.430   1.696  1.00  0.00     0.008 C 
ENDROOT
BRANCH   1   2
ATOM      2  C   UNL     1      78.662  16.570   0.682  1.00  0.00     0.000 C 
BRANCH   2   3
ATOM      3  C   UNL     1      78.695  17.982   1.294  1.00  0.00    -0.003 C 
ATOM      4  C   UNL     1      80.089  18.399   1.759  1.00  0.00     0.004 C 
ENDBRANCH   2   3
ENDBRANCH   1   2
BRANCH   1   5
ATOM      5  C   UNL     1      79.777  14.738   2.082  1.00  0.00     0.080 C 
BRANCH   5   6
ATOM      6  C   UNL     1      80.020  14.859   3.558  1.00  0.00     0.155 C 
ATOM      7  O   UNL     1      81.067  14.360   4.053  1.00  0.00    -0.295 OA
BRANCH   6   8
ATOM      8  C   UNL     1      79.020  15.516   4.420  1.00  0.00     0.039 C 
ATOM      9  C   UNL     1      79.244  16.690   5.010  1.00  0.00     0.012 C 
ENDBRANCH   6   8
ENDBRANCH   5   6
ENDBRANCH   1   5
TORSDOF 5
ENDMDL
MODEL 4
REMARK VINA RESULT:    -3.190      1.798      2.524
REMARK INTER + INTRA:          -4.530
REMARK INTER:                  -4.381
REMARK INTRA:                  -0.148
REMARK UNBOUND:                -0.407
REMARK SMILES C=CC(=O)CCCCC
REMARK SMILES IDX 6 1 7 2 8 3 9 4 5 5 3 6 4 7 2 8 1 9
REMARK H PARENT
REMARK Flexibility Score: inf
ROOT
ATOM      1  C   UNL     1      79.671  16.488   3.870  1.00  0.00     0.008 C 
ENDROOT
BRANCH   1   2
ATOM      2  C   UNL     1      78.731  15.449   4.506  1.00  0.00     0.000 C 
BRANCH   2   3
ATOM      3  C   UNL     1      79.442  14.289   5.226  1.00  0.00    -0.003 C 
ATOM      4  C   UNL     1      79.649  14.549   6.717  1.00  0.00     0.004 C 
ENDBRANCH   2   3
ENDBRANCH   1   2
BRANCH   1   5
ATOM      5  C   UNL     1      79.749  16.368   2.343  1.00  0.00     0.080 C 
BRANCH   5   6
ATOM      6  C   UNL     1      79.426  17.682   1.695  1.00  0.00     0.155 C 
ATOM      7  O   UNL     1      80.222  18.651   1.834  1.00  0.00    -0.295 OA
BRANCH   6   8
ATOM      8  C   UNL     1      78.167  17.847   0.944  1.00  0.00     0.039 C 
ATOM      9  C   UNL     1      77.529  19.013   0.865  1.00  0.00     0.012 C 
ENDBRANCH   6   8
ENDBRANCH   5   6
ENDBRANCH   1   5
TORSDOF 5
ENDMDL
MODEL 5
REMARK VINA RESULT:    -3.189     19.080     20.497
REMARK INTER + INTRA:          -4.528
REMARK INTER:                  -4.038
REMARK INTRA:                  -0.491
REMARK UNBOUND:                -0.407
REMARK SMILES C=CC(=O)CCCCC
REMARK SMILES IDX 6 1 7 2 8 3 9 4 5 5 3 6 4 7 2 8 1 9
REMARK H PARENT
REMARK Flexibility Score: inf
ROOT
ATOM      1  C   UNL     1      89.517  27.514  14.529  1.00  0.00     0.008 C 
ENDROOT
BRANCH   1   2
ATOM      2  C   UNL     1      90.815  27.066  13.836  1.00  0.00     0.000 C 
BRANCH   2   3
ATOM      3  C   UNL     1      92.087  27.206  14.692  1.00  0.00    -0.003 C 
ATOM      4  C   UNL     1      92.115  26.248  15.882  1.00  0.00     0.004 C 
ENDBRANCH   2   3
ENDBRANCH   1   2
BRANCH   1   5
ATOM      5  C   UNL     1      88.614  26.338  14.925  1.00  0.00     0.080 C 
BRANCH   5   6
ATOM      6  C   UNL     1      88.353  26.352  16.403  1.00  0.00     0.155 C 
ATOM      7  O   UNL     1      87.769  25.369  16.935  1.00  0.00    -0.295 OA
BRANCH   6   8
ATOM      8  C   UNL     1      88.737  27.525  17.211  1.00  0.00     0.039 C 
ATOM      9  C   UNL     1      89.574  27.439  18.244  1.00  0.00     0.012 C 
ENDBRANCH   6   8
ENDBRANCH   5   6
ENDBRANCH   1   5
TORSDOF 5
ENDMDL
MODEL 6
REMARK VINA RESULT:    -3.038      1.521      2.142
REMARK INTER + INTRA:          -4.333
REMARK INTER:                  -3.781
REMARK INTRA:                  -0.552
REMARK UNBOUND:                -0.407
REMARK SMILES C=CC(=O)CCCCC
REMARK SMILES IDX 6 1 7 2 8 3 9 4 5 5 3 6 4 7 2 8 1 9
REMARK H PARENT
REMARK Flexibility Score: inf
ROOT
ATOM      1  C   UNL     1      79.702  14.273   2.605  1.00  0.00     0.008 C 
ENDROOT
BRANCH   1   2
ATOM      2  C   UNL     1      80.225  14.768   3.965  1.00  0.00     0.000 C 
BRANCH   2   3
ATOM      3  C   UNL     1      79.154  15.376   4.888  1.00  0.00    -0.003 C 
ATOM      4  C   UNL     1      79.393  16.855   5.188  1.00  0.00     0.004 C 
ENDBRANCH   2   3
ENDBRANCH   1   2
BRANCH   1   5
ATOM      5  C   UNL     1      78.382  14.939   2.195  1.00  0.00     0.080 C 
BRANCH   5   6
ATOM      6  C   UNL     1      78.593  15.837   1.011  1.00  0.00     0.155 C 
ATOM      7  O   UNL     1      78.787  15.326  -0.125  1.00  0.00    -0.295 OA
BRANCH   6   8
ATOM      8  C   UNL     1      78.618  17.302   1.190  1.00  0.00     0.039 C 
ATOM      9  C   UNL     1      79.692  17.949   1.640  1.00  0.00     0.012 C 
ENDBRANCH   6   8
ENDBRANCH   5   6
ENDBRANCH   1   5
TORSDOF 5
ENDMDL
MODEL 7
REMARK VINA RESULT:    -2.967      1.952      3.112
REMARK INTER + INTRA:          -4.241
REMARK INTER:                  -3.805
REMARK INTRA:                  -0.436
REMARK UNBOUND:                -0.407
REMARK SMILES C=CC(=O)CCCCC
REMARK SMILES IDX 6 1 7 2 8 3 9 4 5 5 3 6 4 7 2 8 1 9
REMARK H PARENT
REMARK Flexibility Score: inf
ROOT
ATOM      1  C   UNL     1      79.477  17.263   1.772  1.00  0.00     0.008 C 
ENDROOT
BRANCH   1   2
ATOM      2  C   UNL     1      80.097  16.502   2.957  1.00  0.00     0.000 C 
BRANCH   2   3
ATOM      3  C   UNL     1      79.321  16.623   4.281  1.00  0.00    -0.003 C 
ATOM      4  C   UNL     1      79.251  15.307   5.054  1.00  0.00     0.004 C 
ENDBRANCH   2   3
ENDBRANCH   1   2
BRANCH   1   5
ATOM      5  C   UNL     1      78.032  16.838   1.480  1.00  0.00     0.080 C 
BRANCH   5   6
ATOM      6  C   UNL     1      77.976  15.385   1.112  1.00  0.00     0.155 C 
ATOM      7  O   UNL     1      77.404  14.573   1.890  1.00  0.00    -0.295 OA
BRANCH   6   8
ATOM      8  C   UNL     1      78.624  14.909  -0.125  1.00  0.00     0.039 C 
ATOM      9  C   UNL     1      79.571  13.972  -0.122  1.00  0.00     0.012 C 
ENDBRANCH   6   8
ENDBRANCH   5   6
ENDBRANCH   1   5
TORSDOF 5
ENDMDL
MODEL 8
REMARK VINA RESULT:    -2.899      1.482      2.724
REMARK INTER + INTRA:          -4.154
REMARK INTER:                  -3.649
REMARK INTRA:                  -0.505
REMARK UNBOUND:                -0.407
REMARK SMILES C=CC(=O)CCCCC
REMARK SMILES IDX 6 1 7 2 8 3 9 4 5 5 3 6 4 7 2 8 1 9
REMARK H PARENT
REMARK Flexibility Score: inf
ROOT
ATOM      1  C   UNL     1      79.071  16.367   4.239  1.00  0.00     0.008 C 
ENDROOT
BRANCH   1   2
ATOM      2  C   UNL     1      79.110  14.924   4.773  1.00  0.00     0.000 C 
BRANCH   2   3
ATOM      3  C   UNL     1      80.486  14.239   4.685  1.00  0.00    -0.003 C 
ATOM      4  C   UNL     1      80.881  13.875   3.254  1.00  0.00     0.004 C 
ENDBRANCH   2   3
ENDBRANCH   1   2
BRANCH   1   5
ATOM      5  C   UNL     1      78.210  16.513   2.977  1.00  0.00     0.080 C 
BRANCH   5   6
ATOM      6  C   UNL     1      79.077  16.750   1.776  1.00  0.00     0.155 C 
ATOM      7  O   UNL     1      79.848  17.748   1.757  1.00  0.00    -0.295 OA
BRANCH   6   8
ATOM      8  C   UNL     1      78.991  15.846   0.612  1.00  0.00     0.039 C 
ATOM      9  C   UNL     1      78.356  14.676   0.661  1.00  0.00     0.012 C 
ENDBRANCH   6   8
ENDBRANCH   5   6
ENDBRANCH   1   5
TORSDOF 5
ENDMDL
MODEL 9
REMARK VINA RESULT:    -2.899      2.461      3.588
REMARK INTER + INTRA:          -4.153
REMARK INTER:                  -3.971
REMARK INTRA:                  -0.182
REMARK UNBOUND:                -0.407
REMARK SMILES C=CC(=O)CCCCC
REMARK SMILES IDX 6 1 7 2 8 3 9 4 5 5 3 6 4 7 2 8 1 9
REMARK H PARENT
REMARK Flexibility Score: inf
ROOT
ATOM      1  C   UNL     1      79.383  15.264   5.481  1.00  0.00     0.008 C 
ENDROOT
BRANCH   1   2
ATOM      2  C   UNL     1      79.368  13.923   6.237  1.00  0.00     0.000 C 
BRANCH   2   3
ATOM      3  C   UNL     1      80.265  13.875   7.487  1.00  0.00    -0.003 C 
ATOM      4  C   UNL     1      80.123  15.113   8.372  1.00  0.00     0.004 C 
ENDBRANCH   2   3
ENDBRANCH   1   2
BRANCH   1   5
ATOM      5  C   UNL     1      80.040  15.163   4.099  1.00  0.00     0.080 C 
BRANCH   5   6
ATOM      6  C   UNL     1      79.083  15.599   3.029  1.00  0.00     0.155 C 
ATOM      7  O   UNL     1      77.869  15.267   3.115  1.00  0.00    -0.295 OA
BRANCH   6   8
ATOM      8  C   UNL     1      79.571  16.368   1.868  1.00  0.00     0.039 C 
ATOM      9  C   UNL     1      79.795  17.680   1.923  1.00  0.00     0.012 C 
ENDBRANCH   6   8
ENDBRANCH   5   6
ENDBRANCH   1   5
TORSDOF 5
ENDMDL
