MODEL 1
REMARK VINA RESULT:    -3.866      0.000      0.000
REMARK INTER + INTRA:         -10.258
REMARK INTER:                  -8.386
REMARK INTRA:                  -1.872
REMARK UNBOUND:                -1.872
REMARK SMILES CCCCCCCCCCCCCCCCCCCCCC(=O)[O-]
REMARK SMILES IDX 12 1 11 2 10 3 9 4 8 5 7 6 6 7 5 8 4 9 3 10 2 11 1 12 13 13
REMARK SMILES IDX 14 14 15 15 16 16 17 17 18 18 19 19 20 20 21 21 22 22 23 23
REMARK SMILES IDX 24 24
REMARK H PARENT
REMARK Flexibility Score: inf
ROOT
ATOM      1  C   UNL     1      31.971  27.349  62.736  1.00  0.00     0.000 C 
ENDROOT
BRANCH   1   2
ATOM      2  C   UNL     1      32.881  26.146  63.040  1.00  0.00     0.000 C 
BRANCH   2   3
ATOM      3  C   UNL     1      32.262  24.771  62.731  1.00  0.00     0.000 C 
BRANCH   3   4
ATOM      4  C   UNL     1      31.816  24.018  63.993  1.00  0.00    -0.000 C 
BRANCH   4   5
ATOM      5  C   UNL     1      31.580  24.985  65.160  1.00  0.00    -0.000 C 
BRANCH   5   6
ATOM      6  C   UNL     1      30.497  24.445  66.107  1.00  0.00    -0.000 C 
BRANCH   6   7
ATOM      7  C   UNL     1      31.077  23.903  67.424  1.00  0.00    -0.000 C 
BRANCH   7   8
ATOM      8  C   UNL     1      32.540  24.315  67.640  1.00  0.00    -0.000 C 
BRANCH   8   9
ATOM      9  C   UNL     1      33.024  23.907  69.037  1.00  0.00    -0.000 C 
BRANCH   9  10
ATOM     10  C   UNL     1      33.104  25.122  69.969  1.00  0.00    -0.000 C 
BRANCH  10  11
ATOM     11  C   UNL     1      34.555  25.582  70.149  1.00  0.00    -0.003 C 
ATOM     12  C   UNL     1      35.514  24.395  70.150  1.00  0.00     0.004 C 
ENDBRANCH  10  11
ENDBRANCH   9  10
ENDBRANCH   8   9
ENDBRANCH   7   8
ENDBRANCH   6   7
ENDBRANCH   5   6
ENDBRANCH   4   5
ENDBRANCH   3   4
ENDBRANCH   2   3
ENDBRANCH   1   2
BRANCH   1  13
ATOM     13  C   UNL     1      30.640  26.939  62.082  1.00  0.00     0.000 C 
BRANCH  13  14
ATOM     14  C   UNL     1      29.420  27.404  62.892  1.00  0.00     0.000 C 
BRANCH  14  15
ATOM     15  C   UNL     1      28.353  26.307  63.032  1.00  0.00     0.000 C 
BRANCH  15  16
ATOM     16  C   UNL     1      28.826  24.998  62.390  1.00  0.00     0.000 C 
BRANCH  16  17
ATOM     17  C   UNL     1      27.639  24.101  62.022  1.00  0.00     0.000 C 
BRANCH  17  18
ATOM     18  C   UNL     1      26.398  24.940  61.689  1.00  0.00     0.000 C 
BRANCH  18  19
ATOM     19  C   UNL     1      25.191  24.045  61.386  1.00  0.00     0.000 C 
BRANCH  19  20
ATOM     20  C   UNL     1      23.882  24.729  61.802  1.00  0.00     0.006 C 
BRANCH  20  21
ATOM     21  C   UNL     1      23.111  23.875  62.813  1.00  0.00     0.053 C 
BRANCH  21  22
ATOM     22  C   UNL     1      22.946  24.614  64.104  1.00  0.00     0.041 C 
ATOM     23  O   UNL     1      23.730  25.552  64.402  1.00  0.00    -0.550 OA
ATOM     24  O   UNL     1      21.960  24.229  65.003  1.00  0.00    -0.550 OA
ENDBRANCH  21  22
ENDBRANCH  20  21
ENDBRANCH  19  20
ENDBRANCH  18  19
ENDBRANCH  17  18
ENDBRANCH  16  17
ENDBRANCH  15  16
ENDBRANCH  14  15
ENDBRANCH  13  14
ENDBRANCH   1  13
TORSDOF 20
ENDMDL
MODEL 2
REMARK VINA RESULT:    -3.644      3.928      8.955
REMARK INTER + INTRA:          -9.777
REMARK INTER:                  -8.304
REMARK INTRA:                  -1.473
REMARK UNBOUND:                -1.872
REMARK SMILES CCCCCCCCCCCCCCCCCCCCCC(=O)[O-]
REMARK SMILES IDX 12 1 11 2 10 3 9 4 8 5 7 6 6 7 5 8 4 9 3 10 2 11 1 12 13 13
REMARK SMILES IDX 14 14 15 15 16 16 17 17 18 18 19 19 20 20 21 21 22 22 23 23
REMARK SMILES IDX 24 24
REMARK H PARENT
REMARK Flexibility Score: inf
ROOT
ATOM      1  C   UNL     1      31.435  27.282  63.159  1.00  0.00     0.000 C 
ENDROOT
BRANCH   1   2
ATOM      2  C   UNL     1      30.167  27.686  62.387  1.00  0.00     0.000 C 
BRANCH   2   3
ATOM      3  C   UNL     1      28.864  27.620  63.204  1.00  0.00     0.000 C 
BRANCH   3   4
ATOM      4  C   UNL     1      28.258  26.209  63.250  1.00  0.00    -0.000 C 
BRANCH   4   5
ATOM      5  C   UNL     1      28.530  25.446  61.947  1.00  0.00    -0.000 C 
BRANCH   5   6
ATOM      6  C   UNL     1      27.999  24.007  62.034  1.00  0.00    -0.000 C 
BRANCH   6   7
ATOM      7  C   UNL     1      26.465  23.945  62.104  1.00  0.00    -0.000 C 
BRANCH   7   8
ATOM      8  C   UNL     1      25.787  24.941  61.152  1.00  0.00    -0.000 C 
BRANCH   8   9
ATOM      9  C   UNL     1      24.306  25.118  61.507  1.00  0.00    -0.000 C 
BRANCH   9  10
ATOM     10  C   UNL     1      23.869  24.105  62.571  1.00  0.00    -0.000 C 
BRANCH  10  11
ATOM     11  C   UNL     1      23.671  24.786  63.930  1.00  0.00    -0.003 C 
ATOM     12  C   UNL     1      22.215  25.196  64.135  1.00  0.00     0.004 C 
ENDBRANCH  10  11
ENDBRANCH   9  10
ENDBRANCH   8   9
ENDBRANCH   7   8
ENDBRANCH   6   7
ENDBRANCH   5   6
ENDBRANCH   4   5
ENDBRANCH   3   4
ENDBRANCH   2   3
ENDBRANCH   1   2
BRANCH   1  13
ATOM     13  C   UNL     1      32.610  26.929  62.232  1.00  0.00     0.000 C 
BRANCH  13  14
ATOM     14  C   UNL     1      33.024  25.453  62.345  1.00  0.00     0.000 C 
BRANCH  14  15
ATOM     15  C   UNL     1      32.010  24.617  63.141  1.00  0.00     0.000 C 
BRANCH  15  16
ATOM     16  C   UNL     1      32.697  23.875  64.294  1.00  0.00     0.000 C 
BRANCH  16  17
ATOM     17  C   UNL     1      32.848  24.779  65.522  1.00  0.00     0.000 C 
BRANCH  17  18
ATOM     18  C   UNL     1      32.902  23.951  66.812  1.00  0.00     0.000 C 
BRANCH  18  19
ATOM     19  C   UNL     1      32.005  24.559  67.897  1.00  0.00     0.000 C 
BRANCH  19  20
ATOM     20  C   UNL     1      32.402  24.048  69.287  1.00  0.00     0.006 C 
BRANCH  20  21
ATOM     21  C   UNL     1      32.467  25.196  70.298  1.00  0.00     0.053 C 
BRANCH  21  22
ATOM     22  C   UNL     1      33.889  25.503  70.651  1.00  0.00     0.041 C 
ATOM     23  O   UNL     1      34.712  24.569  70.835  1.00  0.00    -0.550 OA
ATOM     24  O   UNL     1      34.291  26.820  70.830  1.00  0.00    -0.550 OA
ENDBRANCH  21  22
ENDBRANCH  20  21
ENDBRANCH  19  20
ENDBRANCH  18  19
ENDBRANCH  17  18
ENDBRANCH  16  17
ENDBRANCH  15  16
ENDBRANCH  14  15
ENDBRANCH  13  14
ENDBRANCH   1  13
TORSDOF 20
ENDMDL
MODEL 3
REMARK VINA RESULT:    -3.184      3.599      7.808
REMARK INTER + INTRA:          -8.778
REMARK INTER:                  -7.521
REMARK INTRA:                  -1.257
REMARK UNBOUND:                -1.872
REMARK SMILES CCCCCCCCCCCCCCCCCCCCCC(=O)[O-]
REMARK SMILES IDX 12 1 11 2 10 3 9 4 8 5 7 6 6 7 5 8 4 9 3 10 2 11 1 12 13 13
REMARK SMILES IDX 14 14 15 15 16 16 17 17 18 18 19 19 20 20 21 21 22 22 23 23
REMARK SMILES IDX 24 24
REMARK H PARENT
REMARK Flexibility Score: inf
ROOT
ATOM      1  C   UNL     1      32.946  26.567  70.422  1.00  0.00     0.000 C 
ENDROOT
BRANCH   1   2
ATOM      2  C   UNL     1      34.035  26.334  71.484  1.00  0.00     0.000 C 
BRANCH   2   3
ATOM      3  C   UNL     1      34.896  25.077  71.263  1.00  0.00     0.000 C 
BRANCH   3   4
ATOM      4  C   UNL     1      35.624  25.081  69.910  1.00  0.00    -0.000 C 
BRANCH   4   5
ATOM      5  C   UNL     1      36.564  23.875  69.783  1.00  0.00    -0.000 C 
BRANCH   5   6
ATOM      6  C   UNL     1      37.991  24.247  70.216  1.00  0.00    -0.000 C 
BRANCH   6   7
ATOM      7  C   UNL     1      38.230  24.030  71.719  1.00  0.00    -0.000 C 
BRANCH   7   8
ATOM      8  C   UNL     1      38.716  25.300  72.431  1.00  0.00    -0.000 C 
BRANCH   8   9
ATOM      9  C   UNL     1      39.893  24.990  73.365  1.00  0.00    -0.000 C 
BRANCH   9  10
ATOM     10  C   UNL     1      39.665  25.589  74.757  1.00  0.00    -0.000 C 
BRANCH  10  11
ATOM     11  C   UNL     1      39.485  27.109  74.679  1.00  0.00    -0.003 C 
ATOM     12  C   UNL     1      40.143  27.804  75.868  1.00  0.00     0.004 C 
ENDBRANCH  10  11
ENDBRANCH   9  10
ENDBRANCH   8   9
ENDBRANCH   7   8
ENDBRANCH   6   7
ENDBRANCH   5   6
ENDBRANCH   4   5
ENDBRANCH   3   4
ENDBRANCH   2   3
ENDBRANCH   1   2
BRANCH   1  13
ATOM     13  C   UNL     1      31.533  26.244  70.938  1.00  0.00     0.000 C 
BRANCH  13  14
ATOM     14  C   UNL     1      31.281  24.733  71.055  1.00  0.00     0.000 C 
BRANCH  14  15
ATOM     15  C   UNL     1      31.926  23.938  69.908  1.00  0.00     0.000 C 
BRANCH  15  16
ATOM     16  C   UNL     1      31.070  24.016  68.639  1.00  0.00     0.000 C 
BRANCH  16  17
ATOM     17  C   UNL     1      31.943  23.982  67.380  1.00  0.00     0.000 C 
BRANCH  17  18
ATOM     18  C   UNL     1      31.230  24.651  66.198  1.00  0.00     0.000 C 
BRANCH  18  19
ATOM     19  C   UNL     1      32.060  24.536  64.914  1.00  0.00     0.000 C 
BRANCH  19  20
ATOM     20  C   UNL     1      31.925  25.800  64.058  1.00  0.00     0.006 C 
BRANCH  20  21
ATOM     21  C   UNL     1      30.900  25.601  62.938  1.00  0.00     0.053 C 
BRANCH  21  22
ATOM     22  C   UNL     1      29.785  26.591  63.067  1.00  0.00     0.041 C 
ATOM     23  O   UNL     1      30.037  27.819  63.178  1.00  0.00    -0.550 OA
ATOM     24  O   UNL     1      28.469  26.151  63.121  1.00  0.00    -0.550 OA
ENDBRANCH  21  22
ENDBRANCH  20  21
ENDBRANCH  19  20
ENDBRANCH  18  19
ENDBRANCH  17  18
ENDBRANCH  16  17
ENDBRANCH  15  16
ENDBRANCH  14  15
ENDBRANCH  13  14
ENDBRANCH   1  13
TORSDOF 20
ENDMDL
MODEL 4
REMARK VINA RESULT:    -3.145      5.319     10.405
REMARK INTER + INTRA:          -8.695
REMARK INTER:                  -7.317
REMARK INTRA:                  -1.378
REMARK UNBOUND:                -1.872
REMARK SMILES CCCCCCCCCCCCCCCCCCCCCC(=O)[O-]
REMARK SMILES IDX 12 1 11 2 10 3 9 4 8 5 7 6 6 7 5 8 4 9 3 10 2 11 1 12 13 13
REMARK SMILES IDX 14 14 15 15 16 16 17 17 18 18 19 19 20 20 21 21 22 22 23 23
REMARK SMILES IDX 24 24
REMARK H PARENT
REMARK Flexibility Score: inf
ROOT
ATOM      1  C   UNL     1      30.780  23.879  67.557  1.00  0.00     0.000 C 
ENDROOT
BRANCH   1   2
ATOM      2  C   UNL     1      32.075  24.647  67.237  1.00  0.00     0.000 C 
BRANCH   2   3
ATOM      3  C   UNL     1      32.614  24.441  65.810  1.00  0.00     0.000 C 
BRANCH   3   4
ATOM      4  C   UNL     1      31.504  24.424  64.748  1.00  0.00    -0.000 C 
BRANCH   4   5
ATOM      5  C   UNL     1      32.086  24.576  63.337  1.00  0.00    -0.000 C 
BRANCH   5   6
ATOM      6  C   UNL     1      32.975  25.826  63.244  1.00  0.00    -0.000 C 
BRANCH   6   7
ATOM      7  C   UNL     1      32.331  26.951  62.419  1.00  0.00    -0.000 C 
BRANCH   7   8
ATOM      8  C   UNL     1      31.120  27.583  63.121  1.00  0.00    -0.000 C 
BRANCH   8   9
ATOM      9  C   UNL     1      29.829  27.316  62.337  1.00  0.00    -0.000 C 
BRANCH   9  10
ATOM     10  C   UNL     1      28.701  26.861  63.269  1.00  0.00    -0.000 C 
BRANCH  10  11
ATOM     11  C   UNL     1      27.796  25.836  62.577  1.00  0.00    -0.003 C 
ATOM     12  C   UNL     1      28.572  24.577  62.203  1.00  0.00     0.004 C 
ENDBRANCH  10  11
ENDBRANCH   9  10
ENDBRANCH   8   9
ENDBRANCH   7   8
ENDBRANCH   6   7
ENDBRANCH   5   6
ENDBRANCH   4   5
ENDBRANCH   3   4
ENDBRANCH   2   3
ENDBRANCH   1   2
BRANCH   1  13
ATOM     13  C   UNL     1      30.387  23.966  69.042  1.00  0.00     0.000 C 
BRANCH  13  14
ATOM     14  C   UNL     1      30.731  25.330  69.661  1.00  0.00     0.000 C 
BRANCH  14  15
ATOM     15  C   UNL     1      31.705  25.211  70.843  1.00  0.00     0.000 C 
BRANCH  15  16
ATOM     16  C   UNL     1      32.456  23.876  70.803  1.00  0.00     0.000 C 
BRANCH  16  17
ATOM     17  C   UNL     1      33.926  24.055  71.198  1.00  0.00     0.000 C 
BRANCH  17  18
ATOM     18  C   UNL     1      34.295  25.542  71.286  1.00  0.00     0.000 C 
BRANCH  18  19
ATOM     19  C   UNL     1      35.394  25.899  70.279  1.00  0.00     0.000 C 
BRANCH  19  20
ATOM     20  C   UNL     1      36.162  24.647  69.837  1.00  0.00     0.006 C 
BRANCH  20  21
ATOM     21  C   UNL     1      36.813  23.948  71.034  1.00  0.00     0.053 C 
BRANCH  21  22
ATOM     22  C   UNL     1      38.265  24.298  71.118  1.00  0.00     0.041 C 
ATOM     23  O   UNL     1      38.923  24.528  70.070  1.00  0.00    -0.550 OA
ATOM     24  O   UNL     1      38.906  24.314  72.350  1.00  0.00    -0.550 OA
ENDBRANCH  21  22
ENDBRANCH  20  21
ENDBRANCH  19  20
ENDBRANCH  18  19
ENDBRANCH  17  18
ENDBRANCH  16  17
ENDBRANCH  15  16
ENDBRANCH  14  15
ENDBRANCH  13  14
ENDBRANCH   1  13
TORSDOF 20
ENDMDL
MODEL 5
REMARK VINA RESULT:    -3.101      5.394     11.256
REMARK INTER + INTRA:          -8.599
REMARK INTER:                  -8.009
REMARK INTRA:                  -0.589
REMARK UNBOUND:                -1.872
REMARK SMILES CCCCCCCCCCCCCCCCCCCCCC(=O)[O-]
REMARK SMILES IDX 12 1 11 2 10 3 9 4 8 5 7 6 6 7 5 8 4 9 3 10 2 11 1 12 13 13
REMARK SMILES IDX 14 14 15 15 16 16 17 17 18 18 19 19 20 20 21 21 22 22 23 23
REMARK SMILES IDX 24 24
REMARK H PARENT
REMARK Flexibility Score: inf
ROOT
ATOM      1  C   UNL     1      31.392  24.150  67.901  1.00  0.00     0.000 C 
ENDROOT
BRANCH   1   2
ATOM      2  C   UNL     1      32.480  24.275  66.819  1.00  0.00     0.000 C 
BRANCH   2   3
ATOM      3  C   UNL     1      32.018  23.922  65.394  1.00  0.00     0.000 C 
BRANCH   3   4
ATOM      4  C   UNL     1      30.758  24.689  64.966  1.00  0.00    -0.000 C 
BRANCH   4   5
ATOM      5  C   UNL     1      30.755  24.951  63.455  1.00  0.00    -0.000 C 
BRANCH   5   6
ATOM      6  C   UNL     1      29.654  24.135  62.760  1.00  0.00    -0.000 C 
BRANCH   6   7
ATOM      7  C   UNL     1      28.521  25.016  62.209  1.00  0.00    -0.000 C 
BRANCH   7   8
ATOM      8  C   UNL     1      27.128  24.498  62.594  1.00  0.00    -0.000 C 
BRANCH   8   9
ATOM      9  C   UNL     1      26.294  24.185  61.345  1.00  0.00    -0.000 C 
BRANCH   9  10
ATOM     10  C   UNL     1      24.794  24.288  61.643  1.00  0.00    -0.000 C 
BRANCH  10  11
ATOM     11  C   UNL     1      24.550  24.863  63.043  1.00  0.00    -0.003 C 
ATOM     12  C   UNL     1      23.065  24.843  63.397  1.00  0.00     0.004 C 
ENDBRANCH  10  11
ENDBRANCH   9  10
ENDBRANCH   8   9
ENDBRANCH   7   8
ENDBRANCH   6   7
ENDBRANCH   5   6
ENDBRANCH   4   5
ENDBRANCH   3   4
ENDBRANCH   2   3
ENDBRANCH   1   2
BRANCH   1  13
ATOM     13  C   UNL     1      31.905  24.512  69.306  1.00  0.00     0.000 C 
BRANCH  13  14
ATOM     14  C   UNL     1      30.963  25.477  70.043  1.00  0.00     0.000 C 
BRANCH  14  15
ATOM     15  C   UNL     1      31.617  26.108  71.281  1.00  0.00     0.000 C 
BRANCH  15  16
ATOM     16  C   UNL     1      32.990  25.483  71.554  1.00  0.00     0.000 C 
BRANCH  16  17
ATOM     17  C   UNL     1      34.058  26.065  70.622  1.00  0.00     0.000 C 
BRANCH  17  18
ATOM     18  C   UNL     1      35.428  25.428  70.890  1.00  0.00     0.000 C 
BRANCH  18  19
ATOM     19  C   UNL     1      36.048  24.886  69.597  1.00  0.00     0.000 C 
BRANCH  19  20
ATOM     20  C   UNL     1      37.275  24.017  69.898  1.00  0.00     0.006 C 
BRANCH  20  21
ATOM     21  C   UNL     1      37.523  23.917  71.406  1.00  0.00     0.053 C 
BRANCH  21  22
ATOM     22  C   UNL     1      38.919  24.342  71.736  1.00  0.00     0.041 C 
ATOM     23  O   UNL     1      39.773  24.476  70.822  1.00  0.00    -0.550 OA
ATOM     24  O   UNL     1      39.291  24.536  73.060  1.00  0.00    -0.550 OA
ENDBRANCH  21  22
ENDBRANCH  20  21
ENDBRANCH  19  20
ENDBRANCH  18  19
ENDBRANCH  17  18
ENDBRANCH  16  17
ENDBRANCH  15  16
ENDBRANCH  14  15
ENDBRANCH  13  14
ENDBRANCH   1  13
TORSDOF 20
ENDMDL
MODEL 6
REMARK VINA RESULT:    -3.094      6.245     11.753
REMARK INTER + INTRA:          -8.584
REMARK INTER:                  -7.047
REMARK INTRA:                  -1.538
REMARK UNBOUND:                -1.872
REMARK SMILES CCCCCCCCCCCCCCCCCCCCCC(=O)[O-]
REMARK SMILES IDX 12 1 11 2 10 3 9 4 8 5 7 6 6 7 5 8 4 9 3 10 2 11 1 12 13 13
REMARK SMILES IDX 14 14 15 15 16 16 17 17 18 18 19 19 20 20 21 21 22 22 23 23
REMARK SMILES IDX 24 24
REMARK H PARENT
REMARK Flexibility Score: inf
ROOT
ATOM      1  C   UNL     1      31.887  25.949  70.160  1.00  0.00     0.000 C 
ENDROOT
BRANCH   1   2
ATOM      2  C   UNL     1      30.984  24.705  70.071  1.00  0.00     0.000 C 
BRANCH   2   3
ATOM      3  C   UNL     1      30.751  24.176  68.644  1.00  0.00     0.000 C 
BRANCH   3   4
ATOM      4  C   UNL     1      32.059  23.879  67.896  1.00  0.00    -0.000 C 
BRANCH   4   5
ATOM      5  C   UNL     1      32.077  24.560  66.521  1.00  0.00    -0.000 C 
BRANCH   5   6
ATOM      6  C   UNL     1      33.222  24.012  65.655  1.00  0.00    -0.000 C 
BRANCH   6   7
ATOM      7  C   UNL     1      33.195  24.564  64.220  1.00  0.00    -0.000 C 
BRANCH   7   8
ATOM      8  C   UNL     1      31.959  25.431  63.941  1.00  0.00    -0.000 C 
BRANCH   8   9
ATOM      9  C   UNL     1      30.880  24.627  63.204  1.00  0.00    -0.000 C 
BRANCH   9  10
ATOM     10  C   UNL     1      29.606  25.457  63.016  1.00  0.00    -0.000 C 
BRANCH  10  11
ATOM     11  C   UNL     1      29.942  26.932  62.768  1.00  0.00    -0.003 C 
ATOM     12  C   UNL     1      28.771  27.836  63.144  1.00  0.00     0.004 C 
ENDBRANCH  10  11
ENDBRANCH   9  10
ENDBRANCH   8   9
ENDBRANCH   7   8
ENDBRANCH   6   7
ENDBRANCH   5   6
ENDBRANCH   4   5
ENDBRANCH   3   4
ENDBRANCH   2   3
ENDBRANCH   1   2
BRANCH   1  13
ATOM     13  C   UNL     1      32.650  26.037  71.493  1.00  0.00     0.000 C 
BRANCH  13  14
ATOM     14  C   UNL     1      34.174  25.989  71.300  1.00  0.00     0.000 C 
BRANCH  14  15
ATOM     15  C   UNL     1      34.674  24.593  70.900  1.00  0.00     0.000 C 
BRANCH  15  16
ATOM     16  C   UNL     1      35.058  24.552  69.417  1.00  0.00     0.000 C 
BRANCH  16  17
ATOM     17  C   UNL     1      36.577  24.458  69.241  1.00  0.00     0.000 C 
BRANCH  17  18
ATOM     18  C   UNL     1      37.268  24.143  70.574  1.00  0.00     0.000 C 
BRANCH  18  19
ATOM     19  C   UNL     1      38.789  24.058  70.402  1.00  0.00     0.000 C 
BRANCH  19  20
ATOM     20  C   UNL     1      39.492  23.997  71.764  1.00  0.00     0.006 C 
BRANCH  20  21
ATOM     21  C   UNL     1      38.727  24.803  72.817  1.00  0.00     0.053 C 
BRANCH  21  22
ATOM     22  C   UNL     1      39.679  25.461  73.765  1.00  0.00     0.041 C 
ATOM     23  O   UNL     1      39.301  26.433  74.470  1.00  0.00    -0.550 OA
ATOM     24  O   UNL     1      41.000  25.036  73.830  1.00  0.00    -0.550 OA
ENDBRANCH  21  22
ENDBRANCH  20  21
ENDBRANCH  19  20
ENDBRANCH  18  19
ENDBRANCH  17  18
ENDBRANCH  16  17
ENDBRANCH  15  16
ENDBRANCH  14  15
ENDBRANCH  13  14
ENDBRANCH   1  13
TORSDOF 20
ENDMDL
MODEL 7
REMARK VINA RESULT:    -3.066      1.684      4.160
REMARK INTER + INTRA:          -8.523
REMARK INTER:                  -7.223
REMARK INTRA:                  -1.301
REMARK UNBOUND:                -1.872
REMARK SMILES CCCCCCCCCCCCCCCCCCCCCC(=O)[O-]
REMARK SMILES IDX 12 1 11 2 10 3 9 4 8 5 7 6 6 7 5 8 4 9 3 10 2 11 1 12 13 13
REMARK SMILES IDX 14 14 15 15 16 16 17 17 18 18 19 19 20 20 21 21 22 22 23 23
REMARK SMILES IDX 24 24
REMARK H PARENT
REMARK Flexibility Score: inf
ROOT
ATOM      1  C   UNL     1      31.730  24.041  65.705  1.00  0.00     0.000 C 
ENDROOT
BRANCH   1   2
ATOM      2  C   UNL     1      32.054  23.875  67.201  1.00  0.00     0.000 C 
BRANCH   2   3
ATOM      3  C   UNL     1      33.494  24.251  67.596  1.00  0.00     0.000 C 
BRANCH   3   4
ATOM      4  C   UNL     1      33.834  23.875  69.046  1.00  0.00    -0.000 C 
BRANCH   4   5
ATOM      5  C   UNL     1      35.170  24.493  69.480  1.00  0.00    -0.000 C 
BRANCH   5   6
ATOM      6  C   UNL     1      35.037  25.175  70.850  1.00  0.00    -0.000 C 
BRANCH   6   7
ATOM      7  C   UNL     1      34.608  26.647  70.740  1.00  0.00    -0.000 C 
BRANCH   7   8
ATOM      8  C   UNL     1      33.279  26.932  71.455  1.00  0.00    -0.000 C 
BRANCH   8   9
ATOM      9  C   UNL     1      32.140  26.105  70.847  1.00  0.00    -0.000 C 
BRANCH   9  10
ATOM     10  C   UNL     1      31.231  25.531  71.940  1.00  0.00    -0.000 C 
BRANCH  10  11
ATOM     11  C   UNL     1      30.768  24.114  71.583  1.00  0.00    -0.003 C 
ATOM     12  C   UNL     1      30.355  24.022  70.116  1.00  0.00     0.004 C 
ENDBRANCH  10  11
ENDBRANCH   9  10
ENDBRANCH   8   9
ENDBRANCH   7   8
ENDBRANCH   6   7
ENDBRANCH   5   6
ENDBRANCH   4   5
ENDBRANCH   3   4
ENDBRANCH   2   3
ENDBRANCH   1   2
BRANCH   1  13
ATOM     13  C   UNL     1      32.366  25.301  65.094  1.00  0.00     0.000 C 
BRANCH  13  14
ATOM     14  C   UNL     1      33.023  25.024  63.732  1.00  0.00     0.000 C 
BRANCH  14  15
ATOM     15  C   UNL     1      31.994  24.735  62.629  1.00  0.00     0.000 C 
BRANCH  15  16
ATOM     16  C   UNL     1      30.829  25.729  62.693  1.00  0.00     0.000 C 
BRANCH  16  17
ATOM     17  C   UNL     1      29.480  25.008  62.594  1.00  0.00     0.000 C 
BRANCH  17  18
ATOM     18  C   UNL     1      28.340  25.902  63.096  1.00  0.00     0.000 C 
BRANCH  18  19
ATOM     19  C   UNL     1      27.102  25.777  62.199  1.00  0.00     0.000 C 
BRANCH  19  20
ATOM     20  C   UNL     1      26.566  24.340  62.201  1.00  0.00     0.006 C 
BRANCH  20  21
ATOM     21  C   UNL     1      25.464  24.162  61.153  1.00  0.00     0.053 C 
BRANCH  21  22
ATOM     22  C   UNL     1      24.460  25.267  61.257  1.00  0.00     0.041 C 
ATOM     23  O   UNL     1      24.546  26.274  60.507  1.00  0.00    -0.550 OA
ATOM     24  O   UNL     1      23.461  25.209  62.221  1.00  0.00    -0.550 OA
ENDBRANCH  21  22
ENDBRANCH  20  21
ENDBRANCH  19  20
ENDBRANCH  18  19
ENDBRANCH  17  18
ENDBRANCH  16  17
ENDBRANCH  15  16
ENDBRANCH  14  15
ENDBRANCH  13  14
ENDBRANCH   1  13
TORSDOF 20
ENDMDL
MODEL 8
REMARK VINA RESULT:    -2.722      2.515      3.335
REMARK INTER + INTRA:          -7.777
REMARK INTER:                  -6.271
REMARK INTRA:                  -1.505
REMARK UNBOUND:                -1.872
REMARK SMILES CCCCCCCCCCCCCCCCCCCCCC(=O)[O-]
REMARK SMILES IDX 12 1 11 2 10 3 9 4 8 5 7 6 6 7 5 8 4 9 3 10 2 11 1 12 13 13
REMARK SMILES IDX 14 14 15 15 16 16 17 17 18 18 19 19 20 20 21 21 22 22 23 23
REMARK SMILES IDX 24 24
REMARK H PARENT
REMARK Flexibility Score: inf
ROOT
ATOM      1  C   UNL     1      31.710  26.929  63.104  1.00  0.00     0.000 C 
ENDROOT
BRANCH   1   2
ATOM      2  C   UNL     1      31.844  25.417  63.358  1.00  0.00     0.000 C 
BRANCH   2   3
ATOM      3  C   UNL     1      32.403  25.042  64.743  1.00  0.00     0.000 C 
BRANCH   3   4
ATOM      4  C   UNL     1      31.334  24.464  65.683  1.00  0.00    -0.000 C 
BRANCH   4   5
ATOM      5  C   UNL     1      31.785  24.538  67.147  1.00  0.00    -0.000 C 
BRANCH   5   6
ATOM      6  C   UNL     1      33.279  24.201  67.276  1.00  0.00    -0.000 C 
BRANCH   6   7
ATOM      7  C   UNL     1      33.711  23.975  68.733  1.00  0.00    -0.000 C 
BRANCH   7   8
ATOM      8  C   UNL     1      34.767  24.987  69.202  1.00  0.00    -0.000 C 
BRANCH   8   9
ATOM      9  C   UNL     1      34.536  25.382  70.666  1.00  0.00    -0.000 C 
BRANCH   9  10
ATOM     10  C   UNL     1      33.536  26.540  70.774  1.00  0.00    -0.000 C 
BRANCH  10  11
ATOM     11  C   UNL     1      32.311  26.133  71.600  1.00  0.00    -0.003 C 
ATOM     12  C   UNL     1      31.296  25.378  70.746  1.00  0.00     0.004 C 
ENDBRANCH  10  11
ENDBRANCH   9  10
ENDBRANCH   8   9
ENDBRANCH   7   8
ENDBRANCH   6   7
ENDBRANCH   5   6
ENDBRANCH   4   5
ENDBRANCH   3   4
ENDBRANCH   2   3
ENDBRANCH   1   2
BRANCH   1  13
ATOM     13  C   UNL     1      30.271  27.351  62.760  1.00  0.00     0.000 C 
BRANCH  13  14
ATOM     14  C   UNL     1      29.222  26.403  63.363  1.00  0.00     0.000 C 
BRANCH  14  15
ATOM     15  C   UNL     1      28.051  26.134  62.406  1.00  0.00     0.000 C 
BRANCH  15  16
ATOM     16  C   UNL     1      27.777  24.631  62.285  1.00  0.00     0.000 C 
BRANCH  16  17
ATOM     17  C   UNL     1      26.452  24.367  61.560  1.00  0.00     0.000 C 
BRANCH  17  18
ATOM     18  C   UNL     1      25.285  25.054  62.280  1.00  0.00     0.000 C 
BRANCH  18  19
ATOM     19  C   UNL     1      24.228  25.540  61.281  1.00  0.00     0.000 C 
BRANCH  19  20
ATOM     20  C   UNL     1      24.778  26.677  60.410  1.00  0.00     0.006 C 
BRANCH  20  21
ATOM     21  C   UNL     1      23.667  27.313  59.569  1.00  0.00     0.053 C 
BRANCH  21  22
ATOM     22  C   UNL     1      23.992  28.742  59.269  1.00  0.00     0.041 C 
ATOM     23  O   UNL     1      24.733  29.400  60.045  1.00  0.00    -0.550 OA
ATOM     24  O   UNL     1      23.430  29.365  58.162  1.00  0.00    -0.550 OA
ENDBRANCH  21  22
ENDBRANCH  20  21
ENDBRANCH  19  20
ENDBRANCH  18  19
ENDBRANCH  17  18
ENDBRANCH  16  17
ENDBRANCH  15  16
ENDBRANCH  14  15
ENDBRANCH  13  14
ENDBRANCH   1  13
TORSDOF 20
ENDMDL
MODEL 9
REMARK VINA RESULT:    -2.650      5.111      8.766
REMARK INTER + INTRA:          -7.621
REMARK INTER:                  -7.385
REMARK INTRA:                  -0.235
REMARK UNBOUND:                -1.872
REMARK SMILES CCCCCCCCCCCCCCCCCCCCCC(=O)[O-]
REMARK SMILES IDX 12 1 11 2 10 3 9 4 8 5 7 6 6 7 5 8 4 9 3 10 2 11 1 12 13 13
REMARK SMILES IDX 14 14 15 15 16 16 17 17 18 18 19 19 20 20 21 21 22 22 23 23
REMARK SMILES IDX 24 24
REMARK H PARENT
REMARK Flexibility Score: inf
ROOT
ATOM      1  C   UNL     1      30.907  27.651  63.159  1.00  0.00     0.000 C 
ENDROOT
BRANCH   1   2
ATOM      2  C   UNL     1      32.226  27.137  62.554  1.00  0.00     0.000 C 
BRANCH   2   3
ATOM      3  C   UNL     1      32.441  25.617  62.668  1.00  0.00     0.000 C 
BRANCH   3   4
ATOM      4  C   UNL     1      33.903  25.240  62.948  1.00  0.00    -0.000 C 
BRANCH   4   5
ATOM      5  C   UNL     1      34.266  23.903  62.290  1.00  0.00    -0.000 C 
BRANCH   5   6
ATOM      6  C   UNL     1      33.823  23.880  60.819  1.00  0.00    -0.000 C 
BRANCH   6   7
ATOM      7  C   UNL     1      34.915  24.387  59.863  1.00  0.00    -0.000 C 
BRANCH   7   8
ATOM      8  C   UNL     1      36.334  24.116  60.386  1.00  0.00    -0.000 C 
BRANCH   8   9
ATOM      9  C   UNL     1      37.359  25.016  59.685  1.00  0.00    -0.000 C 
BRANCH   9  10
ATOM     10  C   UNL     1      38.148  24.234  58.629  1.00  0.00    -0.000 C 
BRANCH  10  11
ATOM     11  C   UNL     1      39.646  24.230  58.953  1.00  0.00    -0.003 C 
ATOM     12  C   UNL     1      40.436  25.028  57.920  1.00  0.00     0.004 C 
ENDBRANCH  10  11
ENDBRANCH   9  10
ENDBRANCH   8   9
ENDBRANCH   7   8
ENDBRANCH   6   7
ENDBRANCH   5   6
ENDBRANCH   4   5
ENDBRANCH   3   4
ENDBRANCH   2   3
ENDBRANCH   1   2
BRANCH   1  13
ATOM     13  C   UNL     1      29.688  26.821  62.721  1.00  0.00     0.000 C 
BRANCH  13  14
ATOM     14  C   UNL     1      29.718  25.391  63.284  1.00  0.00     0.000 C 
BRANCH  14  15
ATOM     15  C   UNL     1      29.985  25.359  64.796  1.00  0.00     0.000 C 
BRANCH  15  16
ATOM     16  C   UNL     1      30.714  24.073  65.197  1.00  0.00     0.000 C 
BRANCH  16  17
ATOM     17  C   UNL     1      31.851  24.365  66.183  1.00  0.00     0.000 C 
BRANCH  17  18
ATOM     18  C   UNL     1      31.321  24.468  67.619  1.00  0.00     0.000 C 
BRANCH  18  19
ATOM     19  C   UNL     1      32.473  24.529  68.630  1.00  0.00     0.000 C 
BRANCH  19  20
ATOM     20  C   UNL     1      31.941  24.550  70.068  1.00  0.00     0.006 C 
BRANCH  20  21
ATOM     21  C   UNL     1      32.469  25.766  70.833  1.00  0.00     0.053 C 
BRANCH  21  22
ATOM     22  C   UNL     1      33.963  25.732  70.901  1.00  0.00     0.041 C 
ATOM     23  O   UNL     1      34.569  24.633  70.991  1.00  0.00    -0.550 OA
ATOM     24  O   UNL     1      34.685  26.919  70.922  1.00  0.00    -0.550 OA
ENDBRANCH  21  22
ENDBRANCH  20  21
ENDBRANCH  19  20
ENDBRANCH  18  19
ENDBRANCH  17  18
ENDBRANCH  16  17
ENDBRANCH  15  16
ENDBRANCH  14  15
ENDBRANCH  13  14
ENDBRANCH   1  13
TORSDOF 20
ENDMDL
