MODEL 1
REMARK VINA RESULT:    -3.993      0.000      0.000
REMARK INTER + INTRA:          -8.810
REMARK INTER:                  -7.260
REMARK INTRA:                  -1.550
REMARK UNBOUND:                -1.550
REMARK SMILES CCCCCCCCCCCCCC[C@@H](C)C(=O)[O-]
REMARK SMILES IDX 9 1 10 2 11 3 12 4 13 5 14 6 15 7 16 8 17 9 18 10 19 11 8 12
REMARK SMILES IDX 7 13 6 14 5 15 4 16 3 17 2 18 1 19
REMARK H PARENT
REMARK Flexibility Score: inf
ROOT
ATOM      1  C   UNL     1     157.563 157.376 151.911  1.00  0.00     0.000 C 
ENDROOT
BRANCH   1   2
ATOM      2  C   UNL     1     156.663 156.189 151.520  1.00  0.00     0.000 C 
BRANCH   2   3
ATOM      3  C   UNL     1     157.408 155.117 150.706  1.00  0.00     0.000 C 
BRANCH   3   4
ATOM      4  C   UNL     1     158.884 154.989 151.115  1.00  0.00     0.000 C 
BRANCH   4   5
ATOM      5  C   UNL     1     159.223 153.601 151.689  1.00  0.00     0.001 C 
BRANCH   5   6
ATOM      6  C   UNL     1     158.559 153.338 153.054  1.00  0.00     0.009 C 
BRANCH   6   7
ATOM      7  C   UNL     1     158.697 154.489 154.077  1.00  0.00     0.032 C 
ATOM      8  C   UNL     1     157.628 154.431 155.178  1.00  0.00     0.014 C 
BRANCH   7   9
ATOM      9  C   UNL     1     160.069 154.455 154.694  1.00  0.00     0.044 C 
ATOM     10  O   UNL     1     161.043 155.010 154.119  1.00  0.00    -0.550 OA
ATOM     11  O   UNL     1     160.265 153.819 155.914  1.00  0.00    -0.550 OA
ENDBRANCH   7   9
ENDBRANCH   6   7
ENDBRANCH   5   6
ENDBRANCH   4   5
ENDBRANCH   3   4
ENDBRANCH   2   3
ENDBRANCH   1   2
BRANCH   1  12
ATOM     12  C   UNL     1     157.590 158.544 150.903  1.00  0.00     0.000 C 
BRANCH  12  13
ATOM     13  C   UNL     1     158.990 159.100 150.583  1.00  0.00    -0.000 C 
BRANCH  13  14
ATOM     14  C   UNL     1     159.958 158.084 149.946  1.00  0.00    -0.000 C 
BRANCH  14  15
ATOM     15  C   UNL     1     161.253 157.868 150.759  1.00  0.00    -0.000 C 
BRANCH  15  16
ATOM     16  C   UNL     1     162.447 158.644 150.177  1.00  0.00    -0.000 C 
BRANCH  16  17
ATOM     17  C   UNL     1     162.860 159.839 151.052  1.00  0.00    -0.000 C 
BRANCH  17  18
ATOM     18  C   UNL     1     164.371 159.881 151.325  1.00  0.00    -0.003 C 
ATOM     19  C   UNL     1     164.803 158.711 152.204  1.00  0.00     0.004 C 
ENDBRANCH  17  18
ENDBRANCH  16  17
ENDBRANCH  15  16
ENDBRANCH  14  15
ENDBRANCH  13  14
ENDBRANCH  12  13
ENDBRANCH   1  12
TORSDOF 14
ENDMDL
MODEL 2
REMARK VINA RESULT:    -3.884     11.792     13.444
REMARK INTER + INTRA:          -8.613
REMARK INTER:                  -6.944
REMARK INTRA:                  -1.668
REMARK UNBOUND:                -1.550
REMARK SMILES CCCCCCCCCCCCCC[C@@H](C)C(=O)[O-]
REMARK SMILES IDX 9 1 10 2 11 3 12 4 13 5 14 6 15 7 16 8 17 9 18 10 19 11 8 12
REMARK SMILES IDX 7 13 6 14 5 15 4 16 3 17 2 18 1 19
REMARK H PARENT
REMARK Flexibility Score: inf
ROOT
ATOM      1  C   UNL     1     164.970 156.016 165.013  1.00  0.00     0.000 C 
ENDROOT
BRANCH   1   2
ATOM      2  C   UNL     1     165.344 154.923 163.995  1.00  0.00     0.000 C 
BRANCH   2   3
ATOM      3  C   UNL     1     164.270 153.829 163.871  1.00  0.00     0.000 C 
BRANCH   3   4
ATOM      4  C   UNL     1     163.343 154.050 162.664  1.00  0.00     0.000 C 
BRANCH   4   5
ATOM      5  C   UNL     1     162.023 154.742 163.047  1.00  0.00     0.001 C 
BRANCH   5   6
ATOM      6  C   UNL     1     161.135 153.877 163.961  1.00  0.00     0.009 C 
BRANCH   6   7
ATOM      7  C   UNL     1     160.550 152.612 163.291  1.00  0.00     0.032 C 
ATOM      8  C   UNL     1     161.192 151.318 163.812  1.00  0.00     0.014 C 
BRANCH   7   9
ATOM      9  C   UNL     1     159.062 152.567 163.508  1.00  0.00     0.044 C 
ATOM     10  O   UNL     1     158.387 151.580 163.110  1.00  0.00    -0.550 OA
ATOM     11  O   UNL     1     158.424 153.614 164.162  1.00  0.00    -0.550 OA
ENDBRANCH   7   9
ENDBRANCH   6   7
ENDBRANCH   5   6
ENDBRANCH   4   5
ENDBRANCH   3   4
ENDBRANCH   2   3
ENDBRANCH   1   2
BRANCH   1  12
ATOM     12  C   UNL     1     164.154 155.534 166.230  1.00  0.00     0.000 C 
BRANCH  12  13
ATOM     13  C   UNL     1     162.820 156.269 166.457  1.00  0.00    -0.000 C 
BRANCH  13  14
ATOM     14  C   UNL     1     162.524 157.396 165.449  1.00  0.00    -0.000 C 
BRANCH  14  15
ATOM     15  C   UNL     1     162.858 158.807 165.980  1.00  0.00    -0.000 C 
BRANCH  15  16
ATOM     16  C   UNL     1     161.819 159.857 165.550  1.00  0.00    -0.000 C 
BRANCH  16  17
ATOM     17  C   UNL     1     160.652 159.244 164.759  1.00  0.00    -0.000 C 
BRANCH  17  18
ATOM     18  C   UNL     1     159.280 159.719 165.261  1.00  0.00    -0.003 C 
ATOM     19  C   UNL     1     158.149 159.061 164.476  1.00  0.00     0.004 C 
ENDBRANCH  17  18
ENDBRANCH  16  17
ENDBRANCH  15  16
ENDBRANCH  14  15
ENDBRANCH  13  14
ENDBRANCH  12  13
ENDBRANCH   1  12
TORSDOF 14
ENDMDL
MODEL 3
REMARK VINA RESULT:    -3.818     11.651     13.203
REMARK INTER + INTRA:          -8.492
REMARK INTER:                  -6.538
REMARK INTRA:                  -1.954
REMARK UNBOUND:                -1.550
REMARK SMILES CCCCCCCCCCCCCC[C@@H](C)C(=O)[O-]
REMARK SMILES IDX 9 1 10 2 11 3 12 4 13 5 14 6 15 7 16 8 17 9 18 10 19 11 8 12
REMARK SMILES IDX 7 13 6 14 5 15 4 16 3 17 2 18 1 19
REMARK H PARENT
REMARK Flexibility Score: inf
ROOT
ATOM      1  C   UNL     1     164.863 153.290 164.507  1.00  0.00     0.000 C 
ENDROOT
BRANCH   1   2
ATOM      2  C   UNL     1     163.699 152.899 163.578  1.00  0.00     0.000 C 
BRANCH   2   3
ATOM      3  C   UNL     1     163.360 153.994 162.552  1.00  0.00     0.000 C 
BRANCH   3   4
ATOM      4  C   UNL     1     161.982 154.627 162.801  1.00  0.00     0.000 C 
BRANCH   4   5
ATOM      5  C   UNL     1     161.277 154.047 164.041  1.00  0.00     0.001 C 
BRANCH   5   6
ATOM      6  C   UNL     1     159.771 153.809 163.817  1.00  0.00     0.009 C 
BRANCH   6   7
ATOM      7  C   UNL     1     159.415 152.437 163.198  1.00  0.00     0.032 C 
ATOM      8  C   UNL     1     160.337 151.312 163.688  1.00  0.00     0.014 C 
BRANCH   7   9
ATOM      9  C   UNL     1     157.983 152.098 163.510  1.00  0.00     0.044 C 
ATOM     10  O   UNL     1     157.678 150.960 163.958  1.00  0.00    -0.550 OA
ATOM     11  O   UNL     1     156.987 153.047 163.315  1.00  0.00    -0.550 OA
ENDBRANCH   7   9
ENDBRANCH   6   7
ENDBRANCH   5   6
ENDBRANCH   4   5
ENDBRANCH   3   4
ENDBRANCH   2   3
ENDBRANCH   1   2
BRANCH   1  12
ATOM     12  C   UNL     1     165.628 154.568 164.106  1.00  0.00     0.000 C 
BRANCH  12  13
ATOM     13  C   UNL     1     165.272 155.826 164.920  1.00  0.00    -0.000 C 
BRANCH  13  14
ATOM     14  C   UNL     1     164.232 155.601 166.035  1.00  0.00    -0.000 C 
BRANCH  14  15
ATOM     15  C   UNL     1     163.100 156.651 166.047  1.00  0.00    -0.000 C 
BRANCH  15  16
ATOM     16  C   UNL     1     163.008 157.428 164.722  1.00  0.00    -0.000 C 
BRANCH  16  17
ATOM     17  C   UNL     1     163.072 158.951 164.924  1.00  0.00    -0.000 C 
BRANCH  17  18
ATOM     18  C   UNL     1     161.797 159.519 165.563  1.00  0.00    -0.003 C 
ATOM     19  C   UNL     1     160.560 159.136 164.756  1.00  0.00     0.004 C 
ENDBRANCH  17  18
ENDBRANCH  16  17
ENDBRANCH  15  16
ENDBRANCH  14  15
ENDBRANCH  13  14
ENDBRANCH  12  13
ENDBRANCH   1  12
TORSDOF 14
ENDMDL
MODEL 4
REMARK VINA RESULT:    -3.690      2.832      5.996
REMARK INTER + INTRA:          -8.259
REMARK INTER:                  -5.703
REMARK INTRA:                  -2.556
REMARK UNBOUND:                -1.550
REMARK SMILES CCCCCCCCCCCCCC[C@@H](C)C(=O)[O-]
REMARK SMILES IDX 9 1 10 2 11 3 12 4 13 5 14 6 15 7 16 8 17 9 18 10 19 11 8 12
REMARK SMILES IDX 7 13 6 14 5 15 4 16 3 17 2 18 1 19
REMARK H PARENT
REMARK Flexibility Score: inf
ROOT
ATOM      1  C   UNL     1     158.473 158.129 150.932  1.00  0.00     0.000 C 
ENDROOT
BRANCH   1   2
ATOM      2  C   UNL     1     158.978 157.128 149.876  1.00  0.00     0.000 C 
BRANCH   2   3
ATOM      3  C   UNL     1     159.455 155.801 150.491  1.00  0.00     0.000 C 
BRANCH   3   4
ATOM      4  C   UNL     1     160.174 156.001 151.835  1.00  0.00     0.000 C 
BRANCH   4   5
ATOM      5  C   UNL     1     159.695 155.016 152.917  1.00  0.00     0.001 C 
BRANCH   5   6
ATOM      6  C   UNL     1     158.269 155.319 153.415  1.00  0.00     0.009 C 
BRANCH   6   7
ATOM      7  C   UNL     1     157.375 154.075 153.625  1.00  0.00     0.032 C 
ATOM      8  C   UNL     1     157.778 152.900 152.722  1.00  0.00     0.014 C 
BRANCH   7   9
ATOM      9  C   UNL     1     157.428 153.652 155.068  1.00  0.00     0.044 C 
ATOM     10  O   UNL     1     157.528 152.433 155.374  1.00  0.00    -0.550 OA
ATOM     11  O   UNL     1     157.379 154.609 156.074  1.00  0.00    -0.550 OA
ENDBRANCH   7   9
ENDBRANCH   6   7
ENDBRANCH   5   6
ENDBRANCH   4   5
ENDBRANCH   3   4
ENDBRANCH   2   3
ENDBRANCH   1   2
BRANCH   1  12
ATOM     12  C   UNL     1     156.939 158.240 151.056  1.00  0.00     0.000 C 
BRANCH  12  13
ATOM     13  C   UNL     1     156.140 157.240 150.201  1.00  0.00    -0.000 C 
BRANCH  13  14
ATOM     14  C   UNL     1     155.539 156.056 150.984  1.00  0.00    -0.000 C 
BRANCH  14  15
ATOM     15  C   UNL     1     155.769 154.686 150.309  1.00  0.00    -0.000 C 
BRANCH  15  16
ATOM     16  C   UNL     1     154.611 153.706 150.563  1.00  0.00    -0.000 C 
BRANCH  16  17
ATOM     17  C   UNL     1     153.967 153.896 151.946  1.00  0.00    -0.000 C 
BRANCH  17  18
ATOM     18  C   UNL     1     153.722 152.566 152.674  1.00  0.00    -0.003 C 
ATOM     19  C   UNL     1     154.431 151.414 151.968  1.00  0.00     0.004 C 
ENDBRANCH  17  18
ENDBRANCH  16  17
ENDBRANCH  15  16
ENDBRANCH  14  15
ENDBRANCH  13  14
ENDBRANCH  12  13
ENDBRANCH   1  12
TORSDOF 14
ENDMDL
MODEL 5
REMARK VINA RESULT:    -3.676     11.712     14.178
REMARK INTER + INTRA:          -8.234
REMARK INTER:                  -6.383
REMARK INTRA:                  -1.851
REMARK UNBOUND:                -1.550
REMARK SMILES CCCCCCCCCCCCCC[C@@H](C)C(=O)[O-]
REMARK SMILES IDX 9 1 10 2 11 3 12 4 13 5 14 6 15 7 16 8 17 9 18 10 19 11 8 12
REMARK SMILES IDX 7 13 6 14 5 15 4 16 3 17 2 18 1 19
REMARK H PARENT
REMARK Flexibility Score: inf
ROOT
ATOM      1  C   UNL     1     161.845 150.354 164.069  1.00  0.00     0.000 C 
ENDROOT
BRANCH   1   2
ATOM      2  C   UNL     1     162.386 151.755 163.728  1.00  0.00     0.000 C 
BRANCH   2   3
ATOM      3  C   UNL     1     161.287 152.830 163.704  1.00  0.00     0.000 C 
BRANCH   3   4
ATOM      4  C   UNL     1     161.382 153.741 162.470  1.00  0.00     0.000 C 
BRANCH   4   5
ATOM      5  C   UNL     1     161.844 155.168 162.818  1.00  0.00     0.001 C 
BRANCH   5   6
ATOM      6  C   UNL     1     161.786 155.465 164.328  1.00  0.00     0.009 C 
BRANCH   6   7
ATOM      7  C   UNL     1     161.927 156.959 164.703  1.00  0.00     0.032 C 
ATOM      8  C   UNL     1     160.624 157.744 164.496  1.00  0.00     0.014 C 
BRANCH   7   9
ATOM      9  C   UNL     1     162.376 157.082 166.133  1.00  0.00     0.044 C 
ATOM     10  O   UNL     1     162.351 156.082 166.900  1.00  0.00    -0.550 OA
ATOM     11  O   UNL     1     162.834 158.302 166.615  1.00  0.00    -0.550 OA
ENDBRANCH   7   9
ENDBRANCH   6   7
ENDBRANCH   5   6
ENDBRANCH   4   5
ENDBRANCH   3   4
ENDBRANCH   2   3
ENDBRANCH   1   2
BRANCH   1  12
ATOM     12  C   UNL     1     162.917 149.294 164.397  1.00  0.00     0.000 C 
BRANCH  12  13
ATOM     13  C   UNL     1     163.844 149.645 165.575  1.00  0.00    -0.000 C 
BRANCH  13  14
ATOM     14  C   UNL     1     165.288 150.006 165.176  1.00  0.00    -0.000 C 
BRANCH  14  15
ATOM     15  C   UNL     1     165.898 151.144 166.023  1.00  0.00    -0.000 C 
BRANCH  15  16
ATOM     16  C   UNL     1     165.504 152.538 165.503  1.00  0.00    -0.000 C 
BRANCH  16  17
ATOM     17  C   UNL     1     165.861 152.738 164.021  1.00  0.00    -0.000 C 
BRANCH  17  18
ATOM     18  C   UNL     1     165.354 154.077 163.465  1.00  0.00    -0.003 C 
ATOM     19  C   UNL     1     165.449 155.180 164.515  1.00  0.00     0.004 C 
ENDBRANCH  17  18
ENDBRANCH  16  17
ENDBRANCH  15  16
ENDBRANCH  14  15
ENDBRANCH  13  14
ENDBRANCH  12  13
ENDBRANCH   1  12
TORSDOF 14
ENDMDL
MODEL 6
REMARK VINA RESULT:    -3.661      2.404      5.032
REMARK INTER + INTRA:          -8.207
REMARK INTER:                  -5.882
REMARK INTRA:                  -2.325
REMARK UNBOUND:                -1.550
REMARK SMILES CCCCCCCCCCCCCC[C@@H](C)C(=O)[O-]
REMARK SMILES IDX 9 1 10 2 11 3 12 4 13 5 14 6 15 7 16 8 17 9 18 10 19 11 8 12
REMARK SMILES IDX 7 13 6 14 5 15 4 16 3 17 2 18 1 19
REMARK H PARENT
REMARK Flexibility Score: inf
ROOT
ATOM      1  C   UNL     1     160.093 157.371 150.416  1.00  0.00     0.000 C 
ENDROOT
BRANCH   1   2
ATOM      2  C   UNL     1     160.311 156.388 151.582  1.00  0.00     0.000 C 
BRANCH   2   3
ATOM      3  C   UNL     1     159.843 154.960 151.254  1.00  0.00     0.000 C 
BRANCH   3   4
ATOM      4  C   UNL     1     159.608 154.115 152.517  1.00  0.00     0.000 C 
BRANCH   4   5
ATOM      5  C   UNL     1     159.016 154.932 153.678  1.00  0.00     0.001 C 
BRANCH   5   6
ATOM      6  C   UNL     1     158.995 154.156 155.009  1.00  0.00     0.009 C 
BRANCH   6   7
ATOM      7  C   UNL     1     157.625 154.131 155.726  1.00  0.00     0.032 C 
ATOM      8  C   UNL     1     156.657 153.108 155.112  1.00  0.00     0.014 C 
BRANCH   7   9
ATOM      9  C   UNL     1     157.824 153.832 157.187  1.00  0.00     0.044 C 
ATOM     10  O   UNL     1     156.843 153.534 157.919  1.00  0.00    -0.550 OA
ATOM     11  O   UNL     1     159.100 153.874 157.736  1.00  0.00    -0.550 OA
ENDBRANCH   7   9
ENDBRANCH   6   7
ENDBRANCH   5   6
ENDBRANCH   4   5
ENDBRANCH   3   4
ENDBRANCH   2   3
ENDBRANCH   1   2
BRANCH   1  12
ATOM     12  C   UNL     1     159.124 158.536 150.708  1.00  0.00     0.000 C 
BRANCH  12  13
ATOM     13  C   UNL     1     157.864 158.155 151.506  1.00  0.00    -0.000 C 
BRANCH  13  14
ATOM     14  C   UNL     1     156.596 157.952 150.654  1.00  0.00    -0.000 C 
BRANCH  14  15
ATOM     15  C   UNL     1     156.218 156.470 150.448  1.00  0.00    -0.000 C 
BRANCH  15  16
ATOM     16  C   UNL     1     156.117 155.701 151.778  1.00  0.00    -0.000 C 
BRANCH  16  17
ATOM     17  C   UNL     1     155.935 154.188 151.574  1.00  0.00    -0.000 C 
BRANCH  17  18
ATOM     18  C   UNL     1     156.460 153.705 150.214  1.00  0.00    -0.003 C 
ATOM     19  C   UNL     1     157.094 152.322 150.329  1.00  0.00     0.004 C 
ENDBRANCH  17  18
ENDBRANCH  16  17
ENDBRANCH  15  16
ENDBRANCH  14  15
ENDBRANCH  13  14
ENDBRANCH  12  13
ENDBRANCH   1  12
TORSDOF 14
ENDMDL
MODEL 7
REMARK VINA RESULT:    -3.656     11.611     13.636
REMARK INTER + INTRA:          -8.198
REMARK INTER:                  -5.684
REMARK INTRA:                  -2.514
REMARK UNBOUND:                -1.550
REMARK SMILES CCCCCCCCCCCCCC[C@@H](C)C(=O)[O-]
REMARK SMILES IDX 9 1 10 2 11 3 12 4 13 5 14 6 15 7 16 8 17 9 18 10 19 11 8 12
REMARK SMILES IDX 7 13 6 14 5 15 4 16 3 17 2 18 1 19
REMARK H PARENT
REMARK Flexibility Score: inf
ROOT
ATOM      1  C   UNL     1     153.576 160.125 162.391  1.00  0.00     0.000 C 
ENDROOT
BRANCH   1   2
ATOM      2  C   UNL     1     152.910 159.534 163.648  1.00  0.00     0.000 C 
BRANCH   2   3
ATOM      3  C   UNL     1     153.502 158.174 164.054  1.00  0.00     0.000 C 
BRANCH   3   4
ATOM      4  C   UNL     1     154.870 157.910 163.404  1.00  0.00     0.000 C 
BRANCH   4   5
ATOM      5  C   UNL     1     155.211 156.412 163.322  1.00  0.00     0.001 C 
BRANCH   5   6
ATOM      6  C   UNL     1     154.032 155.555 162.824  1.00  0.00     0.009 C 
BRANCH   6   7
ATOM      7  C   UNL     1     153.703 154.326 163.703  1.00  0.00     0.032 C 
ATOM      8  C   UNL     1     152.368 154.475 164.448  1.00  0.00     0.014 C 
BRANCH   7   9
ATOM      9  C   UNL     1     153.676 153.087 162.851  1.00  0.00     0.044 C 
ATOM     10  O   UNL     1     154.750 152.557 162.459  1.00  0.00    -0.550 OA
ATOM     11  O   UNL     1     152.461 152.512 162.500  1.00  0.00    -0.550 OA
ENDBRANCH   7   9
ENDBRANCH   6   7
ENDBRANCH   5   6
ENDBRANCH   4   5
ENDBRANCH   3   4
ENDBRANCH   2   3
ENDBRANCH   1   2
BRANCH   1  12
ATOM     12  C   UNL     1     152.748 160.019 161.094  1.00  0.00     0.000 C 
BRANCH  12  13
ATOM     13  C   UNL     1     152.796 158.646 160.397  1.00  0.00    -0.000 C 
BRANCH  13  14
ATOM     14  C   UNL     1     151.513 157.805 160.539  1.00  0.00    -0.000 C 
BRANCH  14  15
ATOM     15  C   UNL     1     150.266 158.635 160.912  1.00  0.00    -0.000 C 
BRANCH  15  16
ATOM     16  C   UNL     1     149.792 158.367 162.351  1.00  0.00    -0.000 C 
BRANCH  16  17
ATOM     17  C   UNL     1     150.166 156.961 162.845  1.00  0.00    -0.000 C 
BRANCH  17  18
ATOM     18  C   UNL     1     149.065 155.924 162.572  1.00  0.00    -0.003 C 
ATOM     19  C   UNL     1     149.644 154.662 161.939  1.00  0.00     0.004 C 
ENDBRANCH  17  18
ENDBRANCH  16  17
ENDBRANCH  15  16
ENDBRANCH  14  15
ENDBRANCH  13  14
ENDBRANCH  12  13
ENDBRANCH   1  12
TORSDOF 14
ENDMDL
MODEL 8
REMARK VINA RESULT:    -3.639     12.208     13.975
REMARK INTER + INTRA:          -8.167
REMARK INTER:                  -7.367
REMARK INTRA:                  -0.800
REMARK UNBOUND:                -1.550
REMARK SMILES CCCCCCCCCCCCCC[C@@H](C)C(=O)[O-]
REMARK SMILES IDX 9 1 10 2 11 3 12 4 13 5 14 6 15 7 16 8 17 9 18 10 19 11 8 12
REMARK SMILES IDX 7 13 6 14 5 15 4 16 3 17 2 18 1 19
REMARK H PARENT
REMARK Flexibility Score: inf
ROOT
ATOM      1  C   UNL     1     157.018 159.156 164.119  1.00  0.00     0.000 C 
ENDROOT
BRANCH   1   2
ATOM      2  C   UNL     1     158.377 159.865 163.971  1.00  0.00     0.000 C 
BRANCH   2   3
ATOM      3  C   UNL     1     159.249 159.753 165.233  1.00  0.00     0.000 C 
BRANCH   3   4
ATOM      4  C   UNL     1     160.710 159.400 164.909  1.00  0.00     0.000 C 
BRANCH   4   5
ATOM      5  C   UNL     1     161.045 157.926 165.199  1.00  0.00     0.001 C 
BRANCH   5   6
ATOM      6  C   UNL     1     162.398 157.490 164.607  1.00  0.00     0.009 C 
BRANCH   6   7
ATOM      7  C   UNL     1     163.074 156.303 165.331  1.00  0.00     0.032 C 
ATOM      8  C   UNL     1     162.617 156.166 166.791  1.00  0.00     0.014 C 
BRANCH   7   9
ATOM      9  C   UNL     1     162.789 155.027 164.586  1.00  0.00     0.044 C 
ATOM     10  O   UNL     1     161.640 154.511 164.615  1.00  0.00    -0.550 OA
ATOM     11  O   UNL     1     163.795 154.416 163.848  1.00  0.00    -0.550 OA
ENDBRANCH   7   9
ENDBRANCH   6   7
ENDBRANCH   5   6
ENDBRANCH   4   5
ENDBRANCH   3   4
ENDBRANCH   2   3
ENDBRANCH   1   2
BRANCH   1  12
ATOM     12  C   UNL     1     155.780 160.059 163.934  1.00  0.00     0.000 C 
BRANCH  12  13
ATOM     13  C   UNL     1     155.059 159.911 162.581  1.00  0.00    -0.000 C 
BRANCH  13  14
ATOM     14  C   UNL     1     153.534 160.124 162.636  1.00  0.00    -0.000 C 
BRANCH  14  15
ATOM     15  C   UNL     1     152.927 159.904 164.038  1.00  0.00    -0.000 C 
BRANCH  15  16
ATOM     16  C   UNL     1     152.015 158.665 164.094  1.00  0.00    -0.000 C 
BRANCH  16  17
ATOM     17  C   UNL     1     151.753 158.060 162.706  1.00  0.00    -0.000 C 
BRANCH  17  18
ATOM     18  C   UNL     1     150.301 158.247 162.242  1.00  0.00    -0.003 C 
ATOM     19  C   UNL     1     150.242 158.949 160.888  1.00  0.00     0.004 C 
ENDBRANCH  17  18
ENDBRANCH  16  17
ENDBRANCH  15  16
ENDBRANCH  14  15
ENDBRANCH  13  14
ENDBRANCH  12  13
ENDBRANCH   1  12
TORSDOF 14
ENDMDL
MODEL 9
REMARK VINA RESULT:    -3.615     10.851     13.614
REMARK INTER + INTRA:          -8.124
REMARK INTER:                  -5.651
REMARK INTRA:                  -2.472
REMARK UNBOUND:                -1.550
REMARK SMILES CCCCCCCCCCCCCC[C@@H](C)C(=O)[O-]
REMARK SMILES IDX 9 1 10 2 11 3 12 4 13 5 14 6 15 7 16 8 17 9 18 10 19 11 8 12
REMARK SMILES IDX 7 13 6 14 5 15 4 16 3 17 2 18 1 19
REMARK H PARENT
REMARK Flexibility Score: inf
ROOT
ATOM      1  C   UNL     1     167.119 152.575 163.628  1.00  0.00     0.000 C 
ENDROOT
BRANCH   1   2
ATOM      2  C   UNL     1     166.951 151.843 164.972  1.00  0.00     0.000 C 
BRANCH   2   3
ATOM      3  C   UNL     1     165.489 151.472 165.272  1.00  0.00     0.000 C 
BRANCH   3   4
ATOM      4  C   UNL     1     164.649 151.311 163.994  1.00  0.00     0.000 C 
BRANCH   4   5
ATOM      5  C   UNL     1     163.299 152.047 164.073  1.00  0.00     0.001 C 
BRANCH   5   6
ATOM      6  C   UNL     1     163.008 152.900 162.824  1.00  0.00     0.009 C 
BRANCH   6   7
ATOM      7  C   UNL     1     161.892 153.956 163.004  1.00  0.00     0.032 C 
ATOM      8  C   UNL     1     162.096 155.188 162.110  1.00  0.00     0.014 C 
BRANCH   7   9
ATOM      9  C   UNL     1     160.554 153.332 162.715  1.00  0.00     0.044 C 
ATOM     10  O   UNL     1     159.717 153.154 163.641  1.00  0.00    -0.550 OA
ATOM     11  O   UNL     1     160.228 152.956 161.417  1.00  0.00    -0.550 OA
ENDBRANCH   7   9
ENDBRANCH   6   7
ENDBRANCH   5   6
ENDBRANCH   4   5
ENDBRANCH   3   4
ENDBRANCH   2   3
ENDBRANCH   1   2
BRANCH   1  12
ATOM     12  C   UNL     1     167.251 154.109 163.724  1.00  0.00     0.000 C 
BRANCH  12  13
ATOM     13  C   UNL     1     165.953 154.895 163.458  1.00  0.00    -0.000 C 
BRANCH  13  14
ATOM     14  C   UNL     1     165.557 155.885 164.570  1.00  0.00    -0.000 C 
BRANCH  14  15
ATOM     15  C   UNL     1     164.604 155.283 165.625  1.00  0.00    -0.000 C 
BRANCH  15  16
ATOM     16  C   UNL     1     163.255 156.022 165.685  1.00  0.00    -0.000 C 
BRANCH  16  17
ATOM     17  C   UNL     1     163.326 157.433 165.079  1.00  0.00    -0.000 C 
BRANCH  17  18
ATOM     18  C   UNL     1     162.059 158.259 165.347  1.00  0.00    -0.003 C 
ATOM     19  C   UNL     1     160.888 157.758 164.506  1.00  0.00     0.004 C 
ENDBRANCH  17  18
ENDBRANCH  16  17
ENDBRANCH  15  16
ENDBRANCH  14  15
ENDBRANCH  13  14
ENDBRANCH  12  13
ENDBRANCH   1  12
TORSDOF 14
ENDMDL
