MODEL 1
REMARK VINA RESULT:    -5.059      0.000      0.000
REMARK INTER + INTRA:          -7.797
REMARK INTER:                  -6.242
REMARK INTRA:                  -1.555
REMARK UNBOUND:                -1.555
REMARK SMILES CC(C)=CCC[C@H](C)c1ccc(C)cc1
REMARK SMILES IDX 6 1 7 2 8 3 9 4 13 5 12 6 11 7 14 8 10 9 15 10 5 11 4 12
REMARK SMILES IDX 2 13 1 14 3 15
REMARK H PARENT
REMARK Flexibility Score: inf
ROOT
ATOM      1  C   UNL     1     160.346 160.730 182.262  1.00  0.00     0.012 C 
ENDROOT
BRANCH   1   2
ATOM      2  C   UNL     1     160.932 161.876 183.127  1.00  0.00     0.016 C 
ATOM      3  C   UNL     1     160.319 163.252 182.808  1.00  0.00     0.013 C 
BRANCH   2   4
ATOM      4  C   UNL     1     162.454 161.873 183.156  1.00  0.00    -0.045 A 
ATOM      5  C   UNL     1     166.774 161.749 183.122  1.00  0.00     0.044 C 
ATOM      6  C   UNL     1     165.275 161.796 183.101  1.00  0.00    -0.051 A 
ATOM      7  C   UNL     1     164.604 163.020 183.218  1.00  0.00     0.004 A 
ATOM      8  C   UNL     1     164.533 160.609 183.025  1.00  0.00     0.004 A 
ATOM      9  C   UNL     1     163.207 163.062 183.233  1.00  0.00     0.004 A 
ATOM     10  C   UNL     1     163.136 160.648 183.040  1.00  0.00     0.004 A 
ENDBRANCH   2   4
ENDBRANCH   1   2
BRANCH   1  11
ATOM     11  C   UNL     1     160.240 160.993 180.746  1.00  0.00     0.028 C 
BRANCH  11  12
ATOM     12  C   UNL     1     161.433 160.499 179.967  1.00  0.00    -0.028 C 
ATOM     13  C   UNL     1     162.404 161.289 179.454  1.00  0.00    -0.080 C 
ATOM     14  C   UNL     1     163.540 160.636 178.711  1.00  0.00     0.039 C 
ATOM     15  C   UNL     1     162.363 162.796 179.574  1.00  0.00     0.039 C 
ENDBRANCH  11  12
ENDBRANCH   1  11
TORSDOF 4
ENDMDL
MODEL 2
REMARK VINA RESULT:    -4.591      2.013      4.638
REMARK INTER + INTRA:          -7.219
REMARK INTER:                  -5.666
REMARK INTRA:                  -1.554
REMARK UNBOUND:                -1.555
REMARK SMILES CC(C)=CCC[C@H](C)c1ccc(C)cc1
REMARK SMILES IDX 6 1 7 2 8 3 9 4 13 5 12 6 11 7 14 8 10 9 15 10 5 11 4 12
REMARK SMILES IDX 2 13 1 14 3 15
REMARK H PARENT
REMARK Flexibility Score: inf
ROOT
ATOM      1  C   UNL     1     160.680 161.098 182.872  1.00  0.00     0.012 C 
ENDROOT
BRANCH   1   2
ATOM      2  C   UNL     1     160.099 161.531 181.501  1.00  0.00     0.016 C 
ATOM      3  C   UNL     1     160.563 160.639 180.336  1.00  0.00     0.013 C 
BRANCH   2   4
ATOM      4  C   UNL     1     160.262 163.021 181.237  1.00  0.00    -0.045 A 
ATOM      5  C   UNL     1     160.780 167.271 180.641  1.00  0.00     0.044 C 
ATOM      6  C   UNL     1     160.631 165.795 180.860  1.00  0.00    -0.051 A 
ATOM      7  C   UNL     1     160.996 164.891 179.854  1.00  0.00     0.004 A 
ATOM      8  C   UNL     1     160.070 165.311 182.049  1.00  0.00     0.004 A 
ATOM      9  C   UNL     1     160.825 163.516 180.043  1.00  0.00     0.004 A 
ATOM     10  C   UNL     1     159.899 163.936 182.241  1.00  0.00     0.004 A 
ENDBRANCH   2   4
ENDBRANCH   1   2
BRANCH   1  11
ATOM     11  C   UNL     1     162.216 160.992 182.970  1.00  0.00     0.028 C 
BRANCH  11  12
ATOM     12  C   UNL     1     162.896 162.322 183.186  1.00  0.00    -0.028 C 
ATOM     13  C   UNL     1     163.726 162.919 182.301  1.00  0.00    -0.080 C 
ATOM     14  C   UNL     1     164.314 164.258 182.664  1.00  0.00     0.039 C 
ATOM     15  C   UNL     1     164.104 162.272 180.989  1.00  0.00     0.039 C 
ENDBRANCH  11  12
ENDBRANCH   1  11
TORSDOF 4
ENDMDL
MODEL 3
REMARK VINA RESULT:    -4.555      1.566      4.545
REMARK INTER + INTRA:          -7.175
REMARK INTER:                  -5.600
REMARK INTRA:                  -1.576
REMARK UNBOUND:                -1.555
REMARK SMILES CC(C)=CCC[C@H](C)c1ccc(C)cc1
REMARK SMILES IDX 6 1 7 2 8 3 9 4 13 5 12 6 11 7 14 8 10 9 15 10 5 11 4 12
REMARK SMILES IDX 2 13 1 14 3 15
REMARK H PARENT
REMARK Flexibility Score: inf
ROOT
ATOM      1  C   UNL     1     160.841 161.163 183.103  1.00  0.00     0.012 C 
ENDROOT
BRANCH   1   2
ATOM      2  C   UNL     1     162.057 160.649 182.290  1.00  0.00     0.016 C 
ATOM      3  C   UNL     1     163.409 160.963 182.956  1.00  0.00     0.013 C 
BRANCH   2   4
ATOM      4  C   UNL     1     161.991 161.040 180.821  1.00  0.00    -0.045 A 
ATOM      5  C   UNL     1     161.667 162.238 176.680  1.00  0.00     0.044 C 
ATOM      6  C   UNL     1     161.775 161.854 178.126  1.00  0.00    -0.051 A 
ATOM      7  C   UNL     1     163.026 161.821 178.756  1.00  0.00     0.004 A 
ATOM      8  C   UNL     1     160.635 161.466 178.841  1.00  0.00     0.004 A 
ATOM      9  C   UNL     1     163.134 161.430 180.094  1.00  0.00     0.004 A 
ATOM     10  C   UNL     1     160.740 161.075 180.179  1.00  0.00     0.004 A 
ENDBRANCH   2   4
ENDBRANCH   1   2
BRANCH   1  11
ATOM     11  C   UNL     1     160.933 162.602 183.650  1.00  0.00     0.028 C 
BRANCH  11  12
ATOM     12  C   UNL     1     160.427 163.644 182.684  1.00  0.00    -0.028 C 
ATOM     13  C   UNL     1     161.212 164.496 181.986  1.00  0.00    -0.080 C 
ATOM     14  C   UNL     1     160.550 165.471 181.047  1.00  0.00     0.039 C 
ATOM     15  C   UNL     1     162.715 164.523 182.145  1.00  0.00     0.039 C 
ENDBRANCH  11  12
ENDBRANCH   1  11
TORSDOF 4
ENDMDL
MODEL 4
REMARK VINA RESULT:    -4.504      1.435      2.348
REMARK INTER + INTRA:          -7.112
REMARK INTER:                  -6.028
REMARK INTRA:                  -1.084
REMARK UNBOUND:                -1.555
REMARK SMILES CC(C)=CCC[C@H](C)c1ccc(C)cc1
REMARK SMILES IDX 6 1 7 2 8 3 9 4 13 5 12 6 11 7 14 8 10 9 15 10 5 11 4 12
REMARK SMILES IDX 2 13 1 14 3 15
REMARK H PARENT
REMARK Flexibility Score: inf
ROOT
ATOM      1  C   UNL     1     161.282 160.958 181.228  1.00  0.00     0.012 C 
ENDROOT
BRANCH   1   2
ATOM      2  C   UNL     1     161.671 160.973 182.729  1.00  0.00     0.016 C 
ATOM      3  C   UNL     1     160.617 161.651 183.623  1.00  0.00     0.013 C 
BRANCH   2   4
ATOM      4  C   UNL     1     163.090 161.472 182.964  1.00  0.00    -0.045 A 
ATOM      5  C   UNL     1     167.169 162.795 183.508  1.00  0.00     0.044 C 
ATOM      6  C   UNL     1     165.756 162.342 183.287  1.00  0.00    -0.051 A 
ATOM      7  C   UNL     1     164.699 163.259 183.369  1.00  0.00     0.004 A 
ATOM      8  C   UNL     1     165.476 160.988 183.057  1.00  0.00     0.004 A 
ATOM      9  C   UNL     1     163.379 162.832 183.197  1.00  0.00     0.004 A 
ATOM     10  C   UNL     1     164.157 160.560 182.884  1.00  0.00     0.004 A 
ENDBRANCH   2   4
ENDBRANCH   1   2
BRANCH   1  11
ATOM     11  C   UNL     1     160.251 162.011 180.771  1.00  0.00     0.028 C 
BRANCH  11  12
ATOM     12  C   UNL     1     160.880 163.266 180.219  1.00  0.00    -0.028 C 
ATOM     13  C   UNL     1     160.740 164.500 180.754  1.00  0.00    -0.080 C 
ATOM     14  C   UNL     1     161.448 165.652 180.089  1.00  0.00     0.039 C 
ATOM     15  C   UNL     1     159.875 164.760 181.965  1.00  0.00     0.039 C 
ENDBRANCH  11  12
ENDBRANCH   1  11
TORSDOF 4
ENDMDL
MODEL 5
REMARK VINA RESULT:    -4.470      1.001      4.206
REMARK INTER + INTRA:          -7.070
REMARK INTER:                  -5.495
REMARK INTRA:                  -1.575
REMARK UNBOUND:                -1.555
REMARK SMILES CC(C)=CCC[C@H](C)c1ccc(C)cc1
REMARK SMILES IDX 6 1 7 2 8 3 9 4 13 5 12 6 11 7 14 8 10 9 15 10 5 11 4 12
REMARK SMILES IDX 2 13 1 14 3 15
REMARK H PARENT
REMARK Flexibility Score: inf
ROOT
ATOM      1  C   UNL     1     160.482 162.866 182.561  1.00  0.00     0.012 C 
ENDROOT
BRANCH   1   2
ATOM      2  C   UNL     1     160.226 161.804 181.461  1.00  0.00     0.016 C 
ATOM      3  C   UNL     1     159.902 160.410 182.028  1.00  0.00     0.013 C 
BRANCH   2   4
ATOM      4  C   UNL     1     161.304 161.796 180.387  1.00  0.00    -0.045 A 
ATOM      5  C   UNL     1     164.434 161.904 177.408  1.00  0.00     0.044 C 
ATOM      6  C   UNL     1     163.371 161.869 178.466  1.00  0.00    -0.051 A 
ATOM      7  C   UNL     1     162.948 160.645 179.001  1.00  0.00     0.004 A 
ATOM      8  C   UNL     1     162.750 163.054 178.883  1.00  0.00     0.004 A 
ATOM      9  C   UNL     1     161.932 160.608 179.962  1.00  0.00     0.004 A 
ATOM     10  C   UNL     1     161.735 163.019 179.843  1.00  0.00     0.004 A 
ENDBRANCH   2   4
ENDBRANCH   1   2
BRANCH   1  11
ATOM     11  C   UNL     1     161.527 162.509 183.638  1.00  0.00     0.028 C 
BRANCH  11  12
ATOM     12  C   UNL     1     162.926 162.950 183.286  1.00  0.00    -0.028 C 
ATOM     13  C   UNL     1     163.940 162.118 182.957  1.00  0.00    -0.080 C 
ATOM     14  C   UNL     1     165.278 162.721 182.616  1.00  0.00     0.039 C 
ATOM     15  C   UNL     1     163.781 160.615 182.956  1.00  0.00     0.039 C 
ENDBRANCH  11  12
ENDBRANCH   1  11
TORSDOF 4
ENDMDL
MODEL 6
REMARK VINA RESULT:    -4.469      1.381      3.308
REMARK INTER + INTRA:          -7.069
REMARK INTER:                  -5.989
REMARK INTRA:                  -1.079
REMARK UNBOUND:                -1.555
REMARK SMILES CC(C)=CCC[C@H](C)c1ccc(C)cc1
REMARK SMILES IDX 6 1 7 2 8 3 9 4 13 5 12 6 11 7 14 8 10 9 15 10 5 11 4 12
REMARK SMILES IDX 2 13 1 14 3 15
REMARK H PARENT
REMARK Flexibility Score: inf
ROOT
ATOM      1  C   UNL     1     161.515 160.313 180.268  1.00  0.00     0.012 C 
ENDROOT
BRANCH   1   2
ATOM      2  C   UNL     1     162.763 161.185 179.973  1.00  0.00     0.016 C 
ATOM      3  C   UNL     1     163.226 161.105 178.508  1.00  0.00     0.013 C 
BRANCH   2   4
ATOM      4  C   UNL     1     163.880 160.975 180.984  1.00  0.00    -0.045 A 
ATOM      5  C   UNL     1     166.967 160.259 183.924  1.00  0.00     0.044 C 
ATOM      6  C   UNL     1     165.895 160.475 182.897  1.00  0.00    -0.051 A 
ATOM      7  C   UNL     1     166.237 160.731 181.563  1.00  0.00     0.004 A 
ATOM      8  C   UNL     1     164.546 160.483 183.276  1.00  0.00     0.004 A 
ATOM      9  C   UNL     1     165.240 160.967 180.611  1.00  0.00     0.004 A 
ATOM     10  C   UNL     1     163.548 160.718 182.326  1.00  0.00     0.004 A 
ENDBRANCH   2   4
ENDBRANCH   1   2
BRANCH   1  11
ATOM     11  C   UNL     1     160.260 161.050 180.777  1.00  0.00     0.028 C 
BRANCH  11  12
ATOM     12  C   UNL     1     160.476 162.529 180.983  1.00  0.00    -0.028 C 
ATOM     13  C   UNL     1     160.650 163.124 182.185  1.00  0.00    -0.080 C 
ATOM     14  C   UNL     1     160.869 164.615 182.219  1.00  0.00     0.039 C 
ATOM     15  C   UNL     1     160.595 162.352 183.483  1.00  0.00     0.039 C 
ENDBRANCH  11  12
ENDBRANCH   1  11
TORSDOF 4
ENDMDL
MODEL 7
REMARK VINA RESULT:    -4.456      1.471      4.196
REMARK INTER + INTRA:          -7.053
REMARK INTER:                  -5.573
REMARK INTRA:                  -1.481
REMARK UNBOUND:                -1.555
REMARK SMILES CC(C)=CCC[C@H](C)c1ccc(C)cc1
REMARK SMILES IDX 6 1 7 2 8 3 9 4 13 5 12 6 11 7 14 8 10 9 15 10 5 11 4 12
REMARK SMILES IDX 2 13 1 14 3 15
REMARK H PARENT
REMARK Flexibility Score: inf
ROOT
ATOM      1  C   UNL     1     167.013 160.244 181.800  1.00  0.00     0.012 C 
ENDROOT
BRANCH   1   2
ATOM      2  C   UNL     1     166.648 161.002 183.102  1.00  0.00     0.016 C 
ATOM      3  C   UNL     1     167.082 160.260 184.378  1.00  0.00     0.013 C 
BRANCH   2   4
ATOM      4  C   UNL     1     165.201 161.471 183.125  1.00  0.00    -0.045 A 
ATOM      5  C   UNL     1     161.051 162.670 183.279  1.00  0.00     0.044 C 
ATOM      6  C   UNL     1     162.490 162.250 183.258  1.00  0.00    -0.051 A 
ATOM      7  C   UNL     1     163.507 163.203 183.406  1.00  0.00     0.004 A 
ATOM      8  C   UNL     1     162.831 160.910 183.031  1.00  0.00     0.004 A 
ATOM      9  C   UNL     1     164.850 162.817 183.352  1.00  0.00     0.004 A 
ATOM     10  C   UNL     1     164.173 160.522 182.977  1.00  0.00     0.004 A 
ENDBRANCH   2   4
ENDBRANCH   1   2
BRANCH   1  11
ATOM     11  C   UNL     1     166.837 161.018 180.477  1.00  0.00     0.028 C 
BRANCH  11  12
ATOM     12  C   UNL     1     165.680 160.525 179.644  1.00  0.00    -0.028 C 
ATOM     13  C   UNL     1     164.616 161.275 179.278  1.00  0.00    -0.080 C 
ATOM     14  C   UNL     1     163.548 160.636 178.429  1.00  0.00     0.039 C 
ATOM     15  C   UNL     1     164.452 162.711 179.720  1.00  0.00     0.039 C 
ENDBRANCH  11  12
ENDBRANCH   1  11
TORSDOF 4
ENDMDL
MODEL 8
REMARK VINA RESULT:    -4.310      1.744      3.297
REMARK INTER + INTRA:          -6.873
REMARK INTER:                  -5.717
REMARK INTRA:                  -1.156
REMARK UNBOUND:                -1.555
REMARK SMILES CC(C)=CCC[C@H](C)c1ccc(C)cc1
REMARK SMILES IDX 6 1 7 2 8 3 9 4 13 5 12 6 11 7 14 8 10 9 15 10 5 11 4 12
REMARK SMILES IDX 2 13 1 14 3 15
REMARK H PARENT
REMARK Flexibility Score: inf
ROOT
ATOM      1  C   UNL     1     160.248 162.539 181.387  1.00  0.00     0.012 C 
ENDROOT
BRANCH   1   2
ATOM      2  C   UNL     1     160.666 161.082 181.711  1.00  0.00     0.016 C 
ATOM      3  C   UNL     1     159.959 160.508 182.952  1.00  0.00     0.013 C 
BRANCH   2   4
ATOM      4  C   UNL     1     162.176 160.891 181.720  1.00  0.00    -0.045 A 
ATOM      5  C   UNL     1     166.477 160.471 181.637  1.00  0.00     0.044 C 
ATOM      6  C   UNL     1     164.988 160.649 181.670  1.00  0.00    -0.051 A 
ATOM      7  C   UNL     1     164.294 160.572 182.885  1.00  0.00     0.004 A 
ATOM      8  C   UNL     1     164.273 160.834 180.479  1.00  0.00     0.004 A 
ATOM      9  C   UNL     1     162.903 160.704 182.913  1.00  0.00     0.004 A 
ATOM     10  C   UNL     1     162.881 160.966 180.505  1.00  0.00     0.004 A 
ENDBRANCH   2   4
ENDBRANCH   1   2
BRANCH   1  11
ATOM     11  C   UNL     1     160.345 163.559 182.541  1.00  0.00     0.028 C 
BRANCH  11  12
ATOM     12  C   UNL     1     160.901 164.895 182.114  1.00  0.00    -0.028 C 
ATOM     13  C   UNL     1     162.215 165.212 182.089  1.00  0.00    -0.080 C 
ATOM     14  C   UNL     1     162.609 166.590 181.622  1.00  0.00     0.039 C 
ATOM     15  C   UNL     1     163.287 164.249 182.545  1.00  0.00     0.039 C 
ENDBRANCH  11  12
ENDBRANCH   1  11
TORSDOF 4
ENDMDL
