MODEL 1
REMARK VINA RESULT:    -4.973      0.000      0.000
REMARK INTER + INTRA:          -5.783
REMARK INTER:                  -5.700
REMARK INTRA:                  -0.082
REMARK UNBOUND:                -0.082
REMARK SMILES COc1cc(C(=O)[O-])ccc1O
REMARK SMILES IDX 5 1 9 2 4 3 10 4 3 5 11 6 6 7 7 8 8 9 2 10 1 11 12 12
REMARK H PARENT 12 13
REMARK Flexibility Score: inf
ROOT
ATOM      1  C   UNL     1     -11.720  -0.479  -9.846  1.00  0.00     0.001 A 
ATOM      2  C   UNL     1     -13.123  -0.500  -9.772  1.00  0.00     0.014 A 
ATOM      3  C   UNL     1     -11.049   0.754  -9.755  1.00  0.00     0.060 A 
ATOM      4  C   UNL     1     -13.840   0.687  -9.611  1.00  0.00     0.051 A 
ATOM      5  C   UNL     1     -11.770   1.954  -9.592  1.00  0.00     0.161 A 
ATOM      6  C   UNL     1     -13.169   1.912  -9.520  1.00  0.00     0.157 A 
ENDROOT
BRANCH   1   7
ATOM      7  C   UNL     1     -10.964  -1.740 -10.018  1.00  0.00     0.072 C 
ATOM      8  O   UNL     1      -9.705  -1.732 -10.070  1.00  0.00    -0.545 OA
ATOM      9  O   UNL     1     -11.633  -2.954 -10.125  1.00  0.00    -0.545 OA
ENDBRANCH   1   7
BRANCH   5  10
ATOM     10  O   UNL     1     -11.134   3.203  -9.497  1.00  0.00    -0.493 OA
ATOM     11  C   UNL     1      -9.755   3.429  -9.769  1.00  0.00     0.278 C 
ENDBRANCH   5  10
BRANCH   6  12
ATOM     12  O   UNL     1     -13.887   3.095  -9.359  1.00  0.00    -0.504 OA
ATOM     13  H   UNL     1     -13.520   3.868  -8.816  1.00  0.00     0.293 HD
ENDBRANCH   6  12
TORSDOF 3
ENDMDL
MODEL 2
REMARK VINA RESULT:    -4.941     16.553     17.156
REMARK INTER + INTRA:          -5.746
REMARK INTER:                  -5.662
REMARK INTRA:                  -0.083
REMARK UNBOUND:                -0.082
REMARK SMILES COc1cc(C(=O)[O-])ccc1O
REMARK SMILES IDX 5 1 9 2 4 3 10 4 3 5 11 6 6 7 7 8 8 9 2 10 1 11 12 12
REMARK H PARENT 12 13
REMARK Flexibility Score: inf
ROOT
ATOM      1  C   UNL     1     -11.617   3.872   7.804  1.00  0.00     0.001 A 
ATOM      2  C   UNL     1     -12.383   2.848   7.223  1.00  0.00     0.014 A 
ATOM      3  C   UNL     1     -10.833   4.694   6.974  1.00  0.00     0.060 A 
ATOM      4  C   UNL     1     -12.364   2.649   5.841  1.00  0.00     0.051 A 
ATOM      5  C   UNL     1     -10.813   4.497   5.579  1.00  0.00     0.161 A 
ATOM      6  C   UNL     1     -11.583   3.470   5.018  1.00  0.00     0.157 A 
ENDROOT
BRANCH   1   7
ATOM      7  C   UNL     1     -11.639   4.078   9.269  1.00  0.00     0.072 C 
ATOM      8  O   UNL     1     -11.268   5.174   9.769  1.00  0.00    -0.545 OA
ATOM      9  O   UNL     1     -12.070   3.064  10.117  1.00  0.00    -0.545 OA
ENDBRANCH   1   7
BRANCH   5  10
ATOM     10  O   UNL     1     -10.042   5.299   4.720  1.00  0.00    -0.493 OA
ATOM     11  C   UNL     1      -9.656   6.640   4.999  1.00  0.00     0.278 C 
ENDBRANCH   5  10
BRANCH   6  12
ATOM     12  O   UNL     1     -11.567   3.270   3.640  1.00  0.00    -0.504 OA
ATOM     13  H   UNL     1     -11.198   3.970   3.006  1.00  0.00     0.293 HD
ENDBRANCH   6  12
TORSDOF 3
ENDMDL
MODEL 3
REMARK VINA RESULT:    -4.819     16.359     17.119
REMARK INTER + INTRA:          -5.606
REMARK INTER:                  -5.512
REMARK INTRA:                  -0.093
REMARK UNBOUND:                -0.082
REMARK SMILES COc1cc(C(=O)[O-])ccc1O
REMARK SMILES IDX 5 1 9 2 4 3 10 4 3 5 11 6 6 7 7 8 8 9 2 10 1 11 12 12
REMARK H PARENT 12 13
REMARK Flexibility Score: inf
ROOT
ATOM      1  C   UNL     1     -10.662   4.930   5.606  1.00  0.00     0.001 A 
ATOM      2  C   UNL     1     -11.572   4.142   4.884  1.00  0.00     0.014 A 
ATOM      3  C   UNL     1     -10.603   4.798   7.006  1.00  0.00     0.060 A 
ATOM      4  C   UNL     1     -12.407   3.239   5.547  1.00  0.00     0.051 A 
ATOM      5  C   UNL     1     -11.444   3.889   7.678  1.00  0.00     0.161 A 
ATOM      6  C   UNL     1     -12.345   3.110   6.940  1.00  0.00     0.157 A 
ENDROOT
BRANCH   1   7
ATOM      7  C   UNL     1      -9.780   5.886   4.900  1.00  0.00     0.072 C 
ATOM      8  O   UNL     1      -9.676   7.078   5.296  1.00  0.00    -0.545 OA
ATOM      9  O   UNL     1      -9.050   5.481   3.788  1.00  0.00    -0.545 OA
ENDBRANCH   1   7
BRANCH   5  10
ATOM     10  O   UNL     1     -11.413   3.731   9.074  1.00  0.00    -0.493 OA
ATOM     11  C   UNL     1     -11.685   4.768  10.009  1.00  0.00     0.278 C 
ENDBRANCH   5  10
BRANCH   6  12
ATOM     12  O   UNL     1     -13.179   2.209   7.598  1.00  0.00    -0.504 OA
ATOM     13  H   UNL     1     -12.936   1.229   7.688  1.00  0.00     0.293 HD
ENDBRANCH   6  12
TORSDOF 3
ENDMDL
MODEL 4
REMARK VINA RESULT:    -4.814     15.982     16.682
REMARK INTER + INTRA:          -5.599
REMARK INTER:                  -5.522
REMARK INTRA:                  -0.077
REMARK UNBOUND:                -0.082
REMARK SMILES COc1cc(C(=O)[O-])ccc1O
REMARK SMILES IDX 5 1 9 2 4 3 10 4 3 5 11 6 6 7 7 8 8 9 2 10 1 11 12 12
REMARK H PARENT 12 13
REMARK Flexibility Score: inf
ROOT
ATOM      1  C   UNL     1     -12.328   4.454   5.486  1.00  0.00     0.001 A 
ATOM      2  C   UNL     1     -12.779   3.897   6.694  1.00  0.00     0.014 A 
ATOM      3  C   UNL     1     -11.191   5.283   5.498  1.00  0.00     0.060 A 
ATOM      4  C   UNL     1     -12.108   4.163   7.889  1.00  0.00     0.051 A 
ATOM      5  C   UNL     1     -10.511   5.553   6.702  1.00  0.00     0.161 A 
ATOM      6  C   UNL     1     -10.976   4.988   7.897  1.00  0.00     0.157 A 
ENDROOT
BRANCH   1   7
ATOM      7  C   UNL     1     -13.043   4.170   4.222  1.00  0.00     0.072 C 
ATOM      8  O   UNL     1     -12.557   3.375   3.374  1.00  0.00    -0.545 OA
ATOM      9  O   UNL     1     -14.264   4.777   3.951  1.00  0.00    -0.545 OA
ENDBRANCH   1   7
BRANCH   5  10
ATOM     10  O   UNL     1      -9.373   6.376   6.752  1.00  0.00    -0.493 OA
ATOM     11  C   UNL     1      -9.103   7.434   5.839  1.00  0.00     0.278 C 
ENDBRANCH   5  10
BRANCH   6  12
ATOM     12  O   UNL     1     -10.308   5.251   9.091  1.00  0.00    -0.504 OA
ATOM     13  H   UNL     1     -10.808   5.363   9.965  1.00  0.00     0.293 HD
ENDBRANCH   6  12
TORSDOF 3
ENDMDL
MODEL 5
REMARK VINA RESULT:    -4.717     16.642     17.310
REMARK INTER + INTRA:          -5.489
REMARK INTER:                  -5.403
REMARK INTRA:                  -0.086
REMARK UNBOUND:                -0.082
REMARK SMILES COc1cc(C(=O)[O-])ccc1O
REMARK SMILES IDX 5 1 9 2 4 3 10 4 3 5 11 6 6 7 7 8 8 9 2 10 1 11 12 12
REMARK H PARENT 12 13
REMARK Flexibility Score: inf
ROOT
ATOM      1  C   UNL     1     -11.676   3.973   5.712  1.00  0.00     0.001 A 
ATOM      2  C   UNL     1     -10.755   5.024   5.849  1.00  0.00     0.014 A 
ATOM      3  C   UNL     1     -12.204   3.371   6.868  1.00  0.00     0.060 A 
ATOM      4  C   UNL     1     -10.369   5.464   7.117  1.00  0.00     0.051 A 
ATOM      5  C   UNL     1     -11.818   3.813   8.150  1.00  0.00     0.161 A 
ATOM      6  C   UNL     1     -10.897   4.863   8.266  1.00  0.00     0.157 A 
ENDROOT
BRANCH   1   7
ATOM      7  C   UNL     1     -12.081   3.509   4.366  1.00  0.00     0.072 C 
ATOM      8  O   UNL     1     -11.391   2.656   3.746  1.00  0.00    -0.545 OA
ATOM      9  O   UNL     1     -13.232   4.006   3.766  1.00  0.00    -0.545 OA
ENDBRANCH   1   7
BRANCH   5  10
ATOM     10  O   UNL     1     -12.324   3.236   9.326  1.00  0.00    -0.493 OA
ATOM     11  C   UNL     1     -12.327   1.839   9.603  1.00  0.00     0.278 C 
ENDBRANCH   5  10
BRANCH   6  12
ATOM     12  O   UNL     1     -10.511   5.305   9.530  1.00  0.00    -0.504 OA
ATOM     13  H   UNL     1      -9.535   5.359   9.797  1.00  0.00     0.293 HD
ENDBRANCH   6  12
TORSDOF 3
ENDMDL
MODEL 6
REMARK VINA RESULT:    -4.699     15.800     16.795
REMARK INTER + INTRA:          -5.468
REMARK INTER:                  -5.377
REMARK INTRA:                  -0.091
REMARK UNBOUND:                -0.082
REMARK SMILES COc1cc(C(=O)[O-])ccc1O
REMARK SMILES IDX 5 1 9 2 4 3 10 4 3 5 11 6 6 7 7 8 8 9 2 10 1 11 12 12
REMARK H PARENT 12 13
REMARK Flexibility Score: inf
ROOT
ATOM      1  C   UNL     1     -13.133   5.346   5.574  1.00  0.00     0.001 A 
ATOM      2  C   UNL     1     -13.193   4.647   4.357  1.00  0.00     0.014 A 
ATOM      3  C   UNL     1     -12.550   4.721   6.692  1.00  0.00     0.060 A 
ATOM      4  C   UNL     1     -12.682   3.352   4.259  1.00  0.00     0.051 A 
ATOM      5  C   UNL     1     -12.032   3.414   6.597  1.00  0.00     0.161 A 
ATOM      6  C   UNL     1     -12.101   2.734   5.374  1.00  0.00     0.157 A 
ENDROOT
BRANCH   1   7
ATOM      7  C   UNL     1     -13.678   6.718   5.673  1.00  0.00     0.072 C 
ATOM      8  O   UNL     1     -13.020   7.630   6.242  1.00  0.00    -0.545 OA
ATOM      9  O   UNL     1     -14.925   7.022   5.139  1.00  0.00    -0.545 OA
ENDBRANCH   1   7
BRANCH   5  10
ATOM     10  O   UNL     1     -11.443   2.760   7.692  1.00  0.00    -0.493 OA
ATOM     11  C   UNL     1     -12.074   2.573   8.954  1.00  0.00     0.278 C 
ENDBRANCH   5  10
BRANCH   6  12
ATOM     12  O   UNL     1     -11.591   1.442   5.273  1.00  0.00    -0.504 OA
ATOM     13  H   UNL     1     -10.770   1.154   5.793  1.00  0.00     0.293 HD
ENDBRANCH   6  12
TORSDOF 3
ENDMDL
MODEL 7
REMARK VINA RESULT:    -4.661     16.228     16.928
REMARK INTER + INTRA:          -5.424
REMARK INTER:                  -5.347
REMARK INTRA:                  -0.077
REMARK UNBOUND:                -0.082
REMARK SMILES COc1cc(C(=O)[O-])ccc1O
REMARK SMILES IDX 5 1 9 2 4 3 10 4 3 5 11 6 6 7 7 8 8 9 2 10 1 11 12 12
REMARK H PARENT 12 13
REMARK Flexibility Score: inf
ROOT
ATOM      1  C   UNL     1     -12.014   3.963   7.378  1.00  0.00     0.001 A 
ATOM      2  C   UNL     1     -11.602   2.824   6.667  1.00  0.00     0.014 A 
ATOM      3  C   UNL     1     -12.770   4.947   6.715  1.00  0.00     0.060 A 
ATOM      4  C   UNL     1     -11.938   2.672   5.320  1.00  0.00     0.051 A 
ATOM      5  C   UNL     1     -13.112   4.796   5.356  1.00  0.00     0.161 A 
ATOM      6  C   UNL     1     -12.692   3.652   4.664  1.00  0.00     0.157 A 
ENDROOT
BRANCH   1   7
ATOM      7  C   UNL     1     -11.654   4.121   8.805  1.00  0.00     0.072 C 
ATOM      8  O   UNL     1     -10.977   5.111   9.191  1.00  0.00    -0.545 OA
ATOM      9  O   UNL     1     -12.060   3.178   9.743  1.00  0.00    -0.545 OA
ENDBRANCH   1   7
BRANCH   5  10
ATOM     10  O   UNL     1     -13.866   5.757   4.662  1.00  0.00    -0.493 OA
ATOM     11  C   UNL     1     -14.576   6.825   5.280  1.00  0.00     0.278 C 
ENDBRANCH   5  10
BRANCH   6  12
ATOM     12  O   UNL     1     -13.027   3.498   3.320  1.00  0.00    -0.504 OA
ATOM     13  H   UNL     1     -12.848   4.228   2.641  1.00  0.00     0.293 HD
ENDBRANCH   6  12
TORSDOF 3
ENDMDL
MODEL 8
REMARK VINA RESULT:    -4.497     15.632     16.639
REMARK INTER + INTRA:          -5.237
REMARK INTER:                  -5.145
REMARK INTRA:                  -0.091
REMARK UNBOUND:                -0.082
REMARK SMILES COc1cc(C(=O)[O-])ccc1O
REMARK SMILES IDX 5 1 9 2 4 3 10 4 3 5 11 6 6 7 7 8 8 9 2 10 1 11 12 12
REMARK H PARENT 12 13
REMARK Flexibility Score: inf
ROOT
ATOM      1  C   UNL     1     -10.305   5.719   5.993  1.00  0.00     0.001 A 
ATOM      2  C   UNL     1     -10.221   5.040   7.220  1.00  0.00     0.014 A 
ATOM      3  C   UNL     1     -11.212   5.261   5.019  1.00  0.00     0.060 A 
ATOM      4  C   UNL     1     -11.026   3.926   7.468  1.00  0.00     0.051 A 
ATOM      5  C   UNL     1     -12.026   4.138   5.267  1.00  0.00     0.161 A 
ATOM      6  C   UNL     1     -11.928   3.474   6.497  1.00  0.00     0.157 A 
ENDROOT
BRANCH   1   7
ATOM      7  C   UNL     1      -9.449   6.897   5.734  1.00  0.00     0.072 C 
ATOM      8  O   UNL     1      -8.833   7.463   6.677  1.00  0.00    -0.545 OA
ATOM      9  O   UNL     1      -9.311   7.399   4.445  1.00  0.00    -0.545 OA
ENDBRANCH   1   7
BRANCH   5  10
ATOM     10  O   UNL     1     -12.942   3.654   4.318  1.00  0.00    -0.493 OA
ATOM     11  C   UNL     1     -13.873   4.464   3.609  1.00  0.00     0.278 C 
ENDBRANCH   5  10
BRANCH   6  12
ATOM     12  O   UNL     1     -12.730   2.364   6.747  1.00  0.00    -0.504 OA
ATOM     13  H   UNL     1     -13.068   1.773   5.996  1.00  0.00     0.293 HD
ENDBRANCH   6  12
TORSDOF 3
ENDMDL
MODEL 9
REMARK VINA RESULT:    -4.427      1.580      4.475
REMARK INTER + INTRA:          -5.156
REMARK INTER:                  -5.069
REMARK INTRA:                  -0.087
REMARK UNBOUND:                -0.082
REMARK SMILES COc1cc(C(=O)[O-])ccc1O
REMARK SMILES IDX 5 1 9 2 4 3 10 4 3 5 11 6 6 7 7 8 8 9 2 10 1 11 12 12
REMARK H PARENT 12 13
REMARK Flexibility Score: inf
ROOT
ATOM      1  C   UNL     1     -11.717   1.361  -9.613  1.00  0.00     0.001 A 
ATOM      2  C   UNL     1     -10.905   0.229  -9.794  1.00  0.00     0.014 A 
ATOM      3  C   UNL     1     -13.115   1.205  -9.605  1.00  0.00     0.060 A 
ATOM      4  C   UNL     1     -11.479  -1.032  -9.965  1.00  0.00     0.051 A 
ATOM      5  C   UNL     1     -13.698  -0.067  -9.776  1.00  0.00     0.161 A 
ATOM      6  C   UNL     1     -12.871  -1.184  -9.955  1.00  0.00     0.157 A 
ENDROOT
BRANCH   1   7
ATOM      7  C   UNL     1     -11.104   2.696  -9.434  1.00  0.00     0.072 C 
ATOM      8  O   UNL     1     -11.743   3.626  -8.874  1.00  0.00    -0.545 OA
ATOM      9  O   UNL     1      -9.811   2.944  -9.882  1.00  0.00    -0.545 OA
ENDBRANCH   1   7
BRANCH   5  10
ATOM     10  O   UNL     1     -15.089  -0.260  -9.774  1.00  0.00    -0.493 OA
ATOM     11  C   UNL     1     -15.992   0.387  -8.883  1.00  0.00     0.278 C 
ENDBRANCH   5  10
BRANCH   6  12
ATOM     12  O   UNL     1     -13.441  -2.443 -10.125  1.00  0.00    -0.504 OA
ATOM     13  H   UNL     1     -13.828  -2.960  -9.344  1.00  0.00     0.293 HD
ENDBRANCH   6  12
TORSDOF 3
ENDMDL
