MODEL 1
REMARK VINA RESULT:    -4.920      0.000      0.000
REMARK INTER + INTRA:          -7.186
REMARK INTER:                  -6.933
REMARK INTRA:                  -0.253
REMARK UNBOUND:                -0.253
REMARK SMILES C=CCCCCCCC(=O)[O-]
REMARK SMILES IDX 6 1 7 2 8 3 9 4 10 5 11 6 5 7 4 8 3 9 2 10 1 11
REMARK H PARENT
REMARK Flexibility Score: inf
ROOT
ATOM      1  C   UNL     1      19.928  -3.548 -28.590  1.00  0.00     0.000 C 
ENDROOT
BRANCH   1   2
ATOM      2  C   UNL     1      18.485  -3.506 -28.057  1.00  0.00     0.006 C 
BRANCH   2   3
ATOM      3  C   UNL     1      17.780  -4.866 -28.138  1.00  0.00     0.053 C 
BRANCH   3   4
ATOM      4  C   UNL     1      17.346  -5.310 -26.777  1.00  0.00     0.041 C 
ATOM      5  O   UNL     1      16.480  -6.216 -26.653  1.00  0.00    -0.550 OA
ATOM      6  O   UNL     1      17.860  -4.688 -25.645  1.00  0.00    -0.550 OA
ENDBRANCH   3   4
ENDBRANCH   2   3
ENDBRANCH   1   2
BRANCH   1   7
ATOM      7  C   UNL     1      21.020  -3.699 -27.512  1.00  0.00     0.000 C 
BRANCH   7   8
ATOM      8  C   UNL     1      21.700  -2.387 -27.082  1.00  0.00     0.004 C 
BRANCH   8   9
ATOM      9  C   UNL     1      23.216  -2.540 -26.882  1.00  0.00     0.027 C 
BRANCH   9  10
ATOM     10  C   UNL     1      23.972  -1.481 -27.638  1.00  0.00    -0.035 C 
ATOM     11  C   UNL     1      23.877  -0.187 -27.323  1.00  0.00     0.004 C 
ENDBRANCH   9  10
ENDBRANCH   8   9
ENDBRANCH   7   8
ENDBRANCH   1   7
TORSDOF 7
ENDMDL
MODEL 2
REMARK VINA RESULT:    -4.846      2.780      5.211
REMARK INTER + INTRA:          -7.082
REMARK INTER:                  -6.422
REMARK INTRA:                  -0.660
REMARK UNBOUND:                -0.253
REMARK SMILES C=CCCCCCCC(=O)[O-]
REMARK SMILES IDX 6 1 7 2 8 3 9 4 10 5 11 6 5 7 4 8 3 9 2 10 1 11
REMARK H PARENT
REMARK Flexibility Score: inf
ROOT
ATOM      1  C   UNL     1      19.919  -3.299 -28.668  1.00  0.00     0.000 C 
ENDROOT
BRANCH   1   2
ATOM      2  C   UNL     1      21.033  -3.658 -27.669  1.00  0.00     0.006 C 
BRANCH   2   3
ATOM      3  C   UNL     1      21.823  -2.434 -27.191  1.00  0.00     0.053 C 
BRANCH   3   4
ATOM      4  C   UNL     1      22.151  -2.559 -25.737  1.00  0.00     0.041 C 
ATOM      5  O   UNL     1      22.214  -1.532 -25.011  1.00  0.00    -0.550 OA
ATOM      6  O   UNL     1      22.437  -3.805 -25.193  1.00  0.00    -0.550 OA
ENDBRANCH   3   4
ENDBRANCH   2   3
ENDBRANCH   1   2
BRANCH   1   7
ATOM      7  C   UNL     1      18.651  -4.173 -28.578  1.00  0.00     0.000 C 
BRANCH   7   8
ATOM      8  C   UNL     1      17.687  -3.809 -27.435  1.00  0.00     0.004 C 
BRANCH   8   9
ATOM      9  C   UNL     1      17.492  -4.956 -26.431  1.00  0.00     0.027 C 
BRANCH   9  10
ATOM     10  C   UNL     1      18.215  -4.678 -25.142  1.00  0.00    -0.035 C 
ATOM     11  C   UNL     1      18.672  -3.461 -24.839  1.00  0.00     0.004 C 
ENDBRANCH   9  10
ENDBRANCH   8   9
ENDBRANCH   7   8
ENDBRANCH   1   7
TORSDOF 7
ENDMDL
MODEL 3
REMARK VINA RESULT:    -4.812     11.316     11.913
REMARK INTER + INTRA:          -7.034
REMARK INTER:                  -6.735
REMARK INTRA:                  -0.300
REMARK UNBOUND:                -0.253
REMARK SMILES C=CCCCCCCC(=O)[O-]
REMARK SMILES IDX 6 1 7 2 8 3 9 4 10 5 11 6 5 7 4 8 3 9 2 10 1 11
REMARK H PARENT
REMARK Flexibility Score: inf
ROOT
ATOM      1  C   UNL     1      19.234   0.813 -15.376  1.00  0.00     0.000 C 
ENDROOT
BRANCH   1   2
ATOM      2  C   UNL     1      17.724   0.580 -15.195  1.00  0.00     0.006 C 
BRANCH   2   3
ATOM      3  C   UNL     1      17.150  -0.422 -16.203  1.00  0.00     0.053 C 
BRANCH   3   4
ATOM      4  C   UNL     1      16.166   0.251 -17.107  1.00  0.00     0.041 C 
ATOM      5  O   UNL     1      16.460   0.471 -18.311  1.00  0.00    -0.550 OA
ATOM      6  O   UNL     1      14.944   0.683 -16.606  1.00  0.00    -0.550 OA
ENDBRANCH   3   4
ENDBRANCH   2   3
ENDBRANCH   1   2
BRANCH   1   7
ATOM      7  C   UNL     1      19.617   1.745 -16.544  1.00  0.00     0.000 C 
BRANCH   7   8
ATOM      8  C   UNL     1      21.121   2.044 -16.675  1.00  0.00     0.004 C 
BRANCH   8   9
ATOM      9  C   UNL     1      21.970   0.772 -16.827  1.00  0.00     0.027 C 
BRANCH   9  10
ATOM     10  C   UNL     1      23.202   0.835 -15.966  1.00  0.00    -0.035 C 
ATOM     11  C   UNL     1      24.185  -0.062 -16.077  1.00  0.00     0.004 C 
ENDBRANCH   9  10
ENDBRANCH   8   9
ENDBRANCH   7   8
ENDBRANCH   1   7
TORSDOF 7
ENDMDL
MODEL 4
REMARK VINA RESULT:    -4.728      1.434      2.411
REMARK INTER + INTRA:          -6.916
REMARK INTER:                  -6.295
REMARK INTRA:                  -0.621
REMARK UNBOUND:                -0.253
REMARK SMILES C=CCCCCCCC(=O)[O-]
REMARK SMILES IDX 6 1 7 2 8 3 9 4 10 5 11 6 5 7 4 8 3 9 2 10 1 11
REMARK H PARENT
REMARK Flexibility Score: inf
ROOT
ATOM      1  C   UNL     1      19.977  -3.369 -28.754  1.00  0.00     0.000 C 
ENDROOT
BRANCH   1   2
ATOM      2  C   UNL     1      18.561  -3.824 -28.359  1.00  0.00     0.006 C 
BRANCH   2   3
ATOM      3  C   UNL     1      18.214  -3.493 -26.902  1.00  0.00     0.053 C 
BRANCH   3   4
ATOM      4  C   UNL     1      17.637  -4.691 -26.218  1.00  0.00     0.041 C 
ATOM      5  O   UNL     1      17.930  -4.938 -25.018  1.00  0.00    -0.550 OA
ATOM      6  O   UNL     1      16.815  -5.565 -26.920  1.00  0.00    -0.550 OA
ENDBRANCH   3   4
ENDBRANCH   2   3
ENDBRANCH   1   2
BRANCH   1   7
ATOM      7  C   UNL     1      21.067  -3.624 -27.693  1.00  0.00     0.000 C 
BRANCH   7   8
ATOM      8  C   UNL     1      21.884  -2.386 -27.285  1.00  0.00     0.004 C 
BRANCH   8   9
ATOM      9  C   UNL     1      22.152  -2.319 -25.774  1.00  0.00     0.027 C 
BRANCH   9  10
ATOM     10  C   UNL     1      21.757  -3.603 -25.095  1.00  0.00    -0.035 C 
ATOM     11  C   UNL     1      21.040  -3.611 -23.969  1.00  0.00     0.004 C 
ENDBRANCH   9  10
ENDBRANCH   8   9
ENDBRANCH   7   8
ENDBRANCH   1   7
TORSDOF 7
ENDMDL
MODEL 5
REMARK VINA RESULT:    -4.715      2.954      5.772
REMARK INTER + INTRA:          -6.897
REMARK INTER:                  -6.527
REMARK INTRA:                  -0.370
REMARK UNBOUND:                -0.253
REMARK SMILES C=CCCCCCCC(=O)[O-]
REMARK SMILES IDX 6 1 7 2 8 3 9 4 10 5 11 6 5 7 4 8 3 9 2 10 1 11
REMARK H PARENT
REMARK Flexibility Score: inf
ROOT
ATOM      1  C   UNL     1      20.008  -3.328 -28.728  1.00  0.00     0.000 C 
ENDROOT
BRANCH   1   2
ATOM      2  C   UNL     1      21.091  -3.678 -27.692  1.00  0.00     0.006 C 
BRANCH   2   3
ATOM      3  C   UNL     1      21.878  -2.451 -27.215  1.00  0.00     0.053 C 
BRANCH   3   4
ATOM      4  C   UNL     1      22.333  -2.640 -25.802  1.00  0.00     0.041 C 
ATOM      5  O   UNL     1      23.016  -3.649 -25.486  1.00  0.00    -0.550 OA
ATOM      6  O   UNL     1      21.960  -1.726 -24.824  1.00  0.00    -0.550 OA
ENDBRANCH   3   4
ENDBRANCH   2   3
ENDBRANCH   1   2
BRANCH   1   7
ATOM      7  C   UNL     1      18.591  -3.835 -28.390  1.00  0.00     0.000 C 
BRANCH   7   8
ATOM      8  C   UNL     1      18.080  -3.458 -26.988  1.00  0.00     0.004 C 
BRANCH   8   9
ATOM      9  C   UNL     1      17.703  -4.685 -26.142  1.00  0.00     0.027 C 
BRANCH   9  10
ATOM     10  C   UNL     1      16.921  -5.683 -26.951  1.00  0.00    -0.035 C 
ATOM     11  C   UNL     1      16.164  -6.619 -26.373  1.00  0.00     0.004 C 
ENDBRANCH   9  10
ENDBRANCH   8   9
ENDBRANCH   7   8
ENDBRANCH   1   7
TORSDOF 7
ENDMDL
MODEL 6
REMARK VINA RESULT:    -4.681      2.552      5.493
REMARK INTER + INTRA:          -6.850
REMARK INTER:                  -6.448
REMARK INTRA:                  -0.402
REMARK UNBOUND:                -0.253
REMARK SMILES C=CCCCCCCC(=O)[O-]
REMARK SMILES IDX 6 1 7 2 8 3 9 4 10 5 11 6 5 7 4 8 3 9 2 10 1 11
REMARK H PARENT
REMARK Flexibility Score: inf
ROOT
ATOM      1  C   UNL     1      21.049  -3.705 -27.352  1.00  0.00     0.000 C 
ENDROOT
BRANCH   1   2
ATOM      2  C   UNL     1      21.952  -2.553 -26.877  1.00  0.00     0.006 C 
BRANCH   2   3
ATOM      3  C   UNL     1      21.818  -2.273 -25.375  1.00  0.00     0.053 C 
BRANCH   3   4
ATOM      4  C   UNL     1      22.167  -3.492 -24.583  1.00  0.00     0.041 C 
ATOM      5  O   UNL     1      21.317  -4.015 -23.816  1.00  0.00    -0.550 OA
ATOM      6  O   UNL     1      23.450  -4.023 -24.652  1.00  0.00    -0.550 OA
ENDBRANCH   3   4
ENDBRANCH   2   3
ENDBRANCH   1   2
BRANCH   1   7
ATOM      7  C   UNL     1      20.141  -3.371 -28.554  1.00  0.00     0.000 C 
BRANCH   7   8
ATOM      8  C   UNL     1      18.759  -4.047 -28.535  1.00  0.00     0.004 C 
BRANCH   8   9
ATOM      9  C   UNL     1      17.969  -3.754 -27.250  1.00  0.00     0.027 C 
BRANCH   9  10
ATOM     10  C   UNL     1      17.302  -4.996 -26.726  1.00  0.00    -0.035 C 
ATOM     11  C   UNL     1      16.996  -6.021 -27.525  1.00  0.00     0.004 C 
ENDBRANCH   9  10
ENDBRANCH   8   9
ENDBRANCH   7   8
ENDBRANCH   1   7
TORSDOF 7
ENDMDL
MODEL 7
REMARK VINA RESULT:    -4.660      3.702      6.401
REMARK INTER + INTRA:          -6.820
REMARK INTER:                  -6.557
REMARK INTRA:                  -0.263
REMARK UNBOUND:                -0.253
REMARK SMILES C=CCCCCCCC(=O)[O-]
REMARK SMILES IDX 6 1 7 2 8 3 9 4 10 5 11 6 5 7 4 8 3 9 2 10 1 11
REMARK H PARENT
REMARK Flexibility Score: inf
ROOT
ATOM      1  C   UNL     1      20.643  -3.265 -27.238  1.00  0.00     0.000 C 
ENDROOT
BRANCH   1   2
ATOM      2  C   UNL     1      22.120  -2.837 -27.300  1.00  0.00     0.006 C 
BRANCH   2   3
ATOM      3  C   UNL     1      22.497  -1.839 -26.198  1.00  0.00     0.053 C 
BRANCH   3   4
ATOM      4  C   UNL     1      23.603  -0.944 -26.660  1.00  0.00     0.041 C 
ATOM      5  O   UNL     1      24.285  -1.251 -27.673  1.00  0.00    -0.550 OA
ATOM      6  O   UNL     1      23.914   0.204 -25.942  1.00  0.00    -0.550 OA
ENDBRANCH   3   4
ENDBRANCH   2   3
ENDBRANCH   1   2
BRANCH   1   7
ATOM      7  C   UNL     1      19.948  -3.416 -28.607  1.00  0.00     0.000 C 
BRANCH   7   8
ATOM      8  C   UNL     1      18.615  -4.184 -28.581  1.00  0.00     0.004 C 
BRANCH   8   9
ATOM      9  C   UNL     1      17.767  -3.866 -27.339  1.00  0.00     0.027 C 
BRANCH   9  10
ATOM     10  C   UNL     1      17.242  -5.124 -26.703  1.00  0.00    -0.035 C 
ATOM     11  C   UNL     1      16.886  -6.185 -27.431  1.00  0.00     0.004 C 
ENDBRANCH   9  10
ENDBRANCH   8   9
ENDBRANCH   7   8
ENDBRANCH   1   7
TORSDOF 7
ENDMDL
MODEL 8
REMARK VINA RESULT:    -4.457     11.283     12.787
REMARK INTER + INTRA:          -6.535
REMARK INTER:                  -6.210
REMARK INTRA:                  -0.325
REMARK UNBOUND:                -0.253
REMARK SMILES C=CCCCCCCC(=O)[O-]
REMARK SMILES IDX 6 1 7 2 8 3 9 4 10 5 11 6 5 7 4 8 3 9 2 10 1 11
REMARK H PARENT
REMARK Flexibility Score: inf
ROOT
ATOM      1  C   UNL     1      19.562   1.154 -17.088  1.00  0.00     0.000 C 
ENDROOT
BRANCH   1   2
ATOM      2  C   UNL     1      20.637   2.184 -17.474  1.00  0.00     0.006 C 
BRANCH   2   3
ATOM      3  C   UNL     1      22.039   1.792 -16.991  1.00  0.00     0.053 C 
BRANCH   3   4
ATOM      4  C   UNL     1      22.861   1.283 -18.133  1.00  0.00     0.041 C 
ATOM      5  O   UNL     1      23.608   2.068 -18.775  1.00  0.00    -0.550 OA
ATOM      6  O   UNL     1      22.765  -0.048 -18.521  1.00  0.00    -0.550 OA
ENDBRANCH   3   4
ENDBRANCH   2   3
ENDBRANCH   1   2
BRANCH   1   7
ATOM      7  C   UNL     1      19.296   1.020 -15.574  1.00  0.00     0.000 C 
BRANCH   7   8
ATOM      8  C   UNL     1      17.874   0.570 -15.198  1.00  0.00     0.004 C 
BRANCH   8   9
ATOM      9  C   UNL     1      17.194  -0.248 -16.307  1.00  0.00     0.027 C 
BRANCH   9  10
ATOM     10  C   UNL     1      15.926   0.416 -16.773  1.00  0.00    -0.035 C 
ATOM     11  C   UNL     1      15.017   0.878 -15.911  1.00  0.00     0.004 C 
ENDBRANCH   9  10
ENDBRANCH   8   9
ENDBRANCH   7   8
ENDBRANCH   1   7
TORSDOF 7
ENDMDL
MODEL 9
REMARK VINA RESULT:    -4.434     10.633     11.856
REMARK INTER + INTRA:          -6.502
REMARK INTER:                  -5.806
REMARK INTRA:                  -0.696
REMARK UNBOUND:                -0.253
REMARK SMILES C=CCCCCCCC(=O)[O-]
REMARK SMILES IDX 6 1 7 2 8 3 9 4 10 5 11 6 5 7 4 8 3 9 2 10 1 11
REMARK H PARENT
REMARK Flexibility Score: inf
ROOT
ATOM      1  C   UNL     1      21.050   0.806 -16.370  1.00  0.00     0.000 C 
ENDROOT
BRANCH   1   2
ATOM      2  C   UNL     1      21.577   1.300 -17.729  1.00  0.00     0.006 C 
BRANCH   2   3
ATOM      3  C   UNL     1      20.604   2.253 -18.434  1.00  0.00     0.053 C 
BRANCH   3   4
ATOM      4  C   UNL     1      20.010   1.596 -19.639  1.00  0.00     0.041 C 
ATOM      5  O   UNL     1      20.576   0.600 -20.161  1.00  0.00    -0.550 OA
ATOM      6  O   UNL     1      18.858   2.116 -20.218  1.00  0.00    -0.550 OA
ENDBRANCH   3   4
ENDBRANCH   2   3
ENDBRANCH   1   2
BRANCH   1   7
ATOM      7  C   UNL     1      19.746   1.476 -15.890  1.00  0.00     0.000 C 
BRANCH   7   8
ATOM      8  C   UNL     1      18.877   0.618 -14.955  1.00  0.00     0.004 C 
BRANCH   8   9
ATOM      9  C   UNL     1      17.457   0.395 -15.499  1.00  0.00     0.027 C 
BRANCH   9  10
ATOM     10  C   UNL     1      17.344   0.853 -16.928  1.00  0.00    -0.035 C 
ATOM     11  C   UNL     1      17.145  -0.008 -17.929  1.00  0.00     0.004 C 
ENDBRANCH   9  10
ENDBRANCH   8   9
ENDBRANCH   7   8
ENDBRANCH   1   7
TORSDOF 7
ENDMDL
