MODEL 1
REMARK VINA RESULT:    -4.457      0.000      0.000
REMARK INTER + INTRA:          -6.271
REMARK INTER:                  -6.021
REMARK INTRA:                  -0.250
REMARK UNBOUND:                -0.250
REMARK SMILES CCCCCCCC(=O)[O-]
REMARK SMILES IDX 5 1 6 2 7 3 8 4 9 5 10 6 4 7 3 8 2 9 1 10
REMARK H PARENT
REMARK Flexibility Score: inf
ROOT
ATOM      1  C   UNL     1      20.010  27.777  36.433  1.00  0.00     0.000 C 
ENDROOT
BRANCH   1   2
ATOM      2  C   UNL     1      20.587  29.052  37.074  1.00  0.00     0.006 C 
BRANCH   2   3
ATOM      3  C   UNL     1      19.606  30.234  37.121  1.00  0.00     0.053 C 
BRANCH   3   4
ATOM      4  C   UNL     1      20.273  31.530  36.776  1.00  0.00     0.041 C 
ATOM      5  O   UNL     1      21.386  31.533  36.185  1.00  0.00    -0.550 OA
ATOM      6  O   UNL     1      19.651  32.735  37.075  1.00  0.00    -0.550 OA
ENDBRANCH   3   4
ENDBRANCH   2   3
ENDBRANCH   1   2
BRANCH   1   7
ATOM      7  C   UNL     1      18.511  27.589  36.729  1.00  0.00     0.000 C 
BRANCH   7   8
ATOM      8  C   UNL     1      18.017  26.172  36.396  1.00  0.00    -0.000 C 
BRANCH   8   9
ATOM      9  C   UNL     1      19.165  25.218  36.034  1.00  0.00    -0.003 C 
ATOM     10  C   UNL     1      18.726  24.205  34.981  1.00  0.00     0.004 C 
ENDBRANCH   8   9
ENDBRANCH   7   8
ENDBRANCH   1   7
TORSDOF 6
ENDMDL
MODEL 2
REMARK VINA RESULT:    -4.105      3.539      5.960
REMARK INTER + INTRA:          -5.794
REMARK INTER:                  -5.637
REMARK INTRA:                  -0.158
REMARK UNBOUND:                -0.250
REMARK SMILES CCCCCCCC(=O)[O-]
REMARK SMILES IDX 5 1 6 2 7 3 8 4 9 5 10 6 4 7 3 8 2 9 1 10
REMARK H PARENT
REMARK Flexibility Score: inf
ROOT
ATOM      1  C   UNL     1      19.271  28.345  36.968  1.00  0.00     0.000 C 
ENDROOT
BRANCH   1   2
ATOM      2  C   UNL     1      19.874  27.060  36.373  1.00  0.00     0.006 C 
BRANCH   2   3
ATOM      3  C   UNL     1      18.901  25.871  36.320  1.00  0.00     0.053 C 
BRANCH   3   4
ATOM      4  C   UNL     1      19.461  24.722  35.540  1.00  0.00     0.041 C 
ATOM      5  O   UNL     1      20.524  24.862  34.879  1.00  0.00    -0.550 OA
ATOM      6  O   UNL     1      18.830  23.485  35.571  1.00  0.00    -0.550 OA
ENDBRANCH   3   4
ENDBRANCH   2   3
ENDBRANCH   1   2
BRANCH   1   7
ATOM      7  C   UNL     1      20.267  29.518  36.978  1.00  0.00     0.000 C 
BRANCH   7   8
ATOM      8  C   UNL     1      19.571  30.881  37.125  1.00  0.00    -0.000 C 
BRANCH   8   9
ATOM      9  C   UNL     1      20.491  32.055  36.758  1.00  0.00    -0.003 C 
ATOM     10  C   UNL     1      21.645  31.594  35.873  1.00  0.00     0.004 C 
ENDBRANCH   8   9
ENDBRANCH   7   8
ENDBRANCH   1   7
TORSDOF 6
ENDMDL
MODEL 3
REMARK VINA RESULT:    -4.024      1.494      2.035
REMARK INTER + INTRA:          -5.686
REMARK INTER:                  -5.528
REMARK INTRA:                  -0.158
REMARK UNBOUND:                -0.250
REMARK SMILES CCCCCCCC(=O)[O-]
REMARK SMILES IDX 5 1 6 2 7 3 8 4 9 5 10 6 4 7 3 8 2 9 1 10
REMARK H PARENT
REMARK Flexibility Score: inf
ROOT
ATOM      1  C   UNL     1      20.033  29.389  37.125  1.00  0.00     0.000 C 
ENDROOT
BRANCH   1   2
ATOM      2  C   UNL     1      21.031  30.065  36.168  1.00  0.00     0.006 C 
BRANCH   2   3
ATOM      3  C   UNL     1      21.241  31.565  36.430  1.00  0.00     0.053 C 
BRANCH   3   4
ATOM      4  C   UNL     1      21.950  32.239  35.296  1.00  0.00     0.041 C 
ATOM      5  O   UNL     1      21.818  31.808  34.121  1.00  0.00    -0.550 OA
ATOM      6  O   UNL     1      22.730  33.363  35.533  1.00  0.00    -0.550 OA
ENDBRANCH   3   4
ENDBRANCH   2   3
ENDBRANCH   1   2
BRANCH   1   7
ATOM      7  C   UNL     1      19.750  27.924  36.750  1.00  0.00     0.000 C 
BRANCH   7   8
ATOM      8  C   UNL     1      18.248  27.599  36.728  1.00  0.00    -0.000 C 
BRANCH   8   9
ATOM      9  C   UNL     1      17.964  26.150  36.307  1.00  0.00    -0.003 C 
ATOM     10  C   UNL     1      19.260  25.383  36.066  1.00  0.00     0.004 C 
ENDBRANCH   8   9
ENDBRANCH   7   8
ENDBRANCH   1   7
TORSDOF 6
ENDMDL
MODEL 4
REMARK VINA RESULT:    -3.902     16.195     17.730
REMARK INTER + INTRA:          -5.521
REMARK INTER:                  -4.917
REMARK INTRA:                  -0.604
REMARK UNBOUND:                -0.250
REMARK SMILES CCCCCCCC(=O)[O-]
REMARK SMILES IDX 5 1 6 2 7 3 8 4 9 5 10 6 4 7 3 8 2 9 1 10
REMARK H PARENT
REMARK Flexibility Score: inf
ROOT
ATOM      1  C   UNL     1      20.843  24.876  18.909  1.00  0.00     0.000 C 
ENDROOT
BRANCH   1   2
ATOM      2  C   UNL     1      19.453  24.559  19.489  1.00  0.00     0.006 C 
BRANCH   2   3
ATOM      3  C   UNL     1      19.449  24.276  21.000  1.00  0.00     0.053 C 
BRANCH   3   4
ATOM      4  C   UNL     1      18.752  22.991  21.328  1.00  0.00     0.041 C 
ATOM      5  O   UNL     1      18.384  22.753  22.508  1.00  0.00    -0.550 OA
ATOM      6  O   UNL     1      18.477  22.072  20.323  1.00  0.00    -0.550 OA
ENDBRANCH   3   4
ENDBRANCH   2   3
ENDBRANCH   1   2
BRANCH   1   7
ATOM      7  C   UNL     1      21.328  23.808  17.913  1.00  0.00     0.000 C 
BRANCH   7   8
ATOM      8  C   UNL     1      21.596  22.452  18.585  1.00  0.00    -0.000 C 
BRANCH   8   9
ATOM      9  C   UNL     1      22.547  22.568  19.786  1.00  0.00    -0.003 C 
ATOM     10  C   UNL     1      22.123  21.635  20.916  1.00  0.00     0.004 C 
ENDBRANCH   8   9
ENDBRANCH   7   8
ENDBRANCH   1   7
TORSDOF 6
ENDMDL
MODEL 5
REMARK VINA RESULT:    -3.895      3.183      5.694
REMARK INTER + INTRA:          -5.511
REMARK INTER:                  -5.261
REMARK INTRA:                  -0.250
REMARK UNBOUND:                -0.250
REMARK SMILES CCCCCCCC(=O)[O-]
REMARK SMILES IDX 5 1 6 2 7 3 8 4 9 5 10 6 4 7 3 8 2 9 1 10
REMARK H PARENT
REMARK Flexibility Score: inf
ROOT
ATOM      1  C   UNL     1      20.815  29.429  36.762  1.00  0.00     0.000 C 
ENDROOT
BRANCH   1   2
ATOM      2  C   UNL     1      20.201  28.017  36.762  1.00  0.00     0.006 C 
BRANCH   2   3
ATOM      3  C   UNL     1      18.666  27.997  36.834  1.00  0.00     0.053 C 
BRANCH   3   4
ATOM      4  C   UNL     1      18.103  26.674  36.413  1.00  0.00     0.041 C 
ATOM      5  O   UNL     1      16.877  26.563  36.148  1.00  0.00    -0.550 OA
ATOM      6  O   UNL     1      18.938  25.572  36.280  1.00  0.00    -0.550 OA
ENDBRANCH   3   4
ENDBRANCH   2   3
ENDBRANCH   1   2
BRANCH   1   7
ATOM      7  C   UNL     1      19.793  30.521  37.124  1.00  0.00     0.000 C 
BRANCH   7   8
ATOM      8  C   UNL     1      20.289  31.933  36.774  1.00  0.00    -0.000 C 
BRANCH   8   9
ATOM      9  C   UNL     1      21.642  31.919  36.048  1.00  0.00    -0.003 C 
ATOM     10  C   UNL     1      21.741  33.066  35.047  1.00  0.00     0.004 C 
ENDBRANCH   8   9
ENDBRANCH   7   8
ENDBRANCH   1   7
TORSDOF 6
ENDMDL
MODEL 6
REMARK VINA RESULT:    -3.853     16.010     17.778
REMARK INTER + INTRA:          -5.454
REMARK INTER:                  -4.824
REMARK INTRA:                  -0.631
REMARK UNBOUND:                -0.250
REMARK SMILES CCCCCCCC(=O)[O-]
REMARK SMILES IDX 5 1 6 2 7 3 8 4 9 5 10 6 4 7 3 8 2 9 1 10
REMARK H PARENT
REMARK Flexibility Score: inf
ROOT
ATOM      1  C   UNL     1      22.368  22.658  19.907  1.00  0.00     0.000 C 
ENDROOT
BRANCH   1   2
ATOM      2  C   UNL     1      21.652  22.658  18.545  1.00  0.00     0.006 C 
BRANCH   2   3
ATOM      3  C   UNL     1      21.268  24.056  18.034  1.00  0.00     0.053 C 
BRANCH   3   4
ATOM      4  C   UNL     1      20.096  24.622  18.776  1.00  0.00     0.041 C 
ATOM      5  O   UNL     1      18.924  24.305  18.445  1.00  0.00    -0.550 OA
ATOM      6  O   UNL     1      20.300  25.472  19.854  1.00  0.00    -0.550 OA
ENDBRANCH   3   4
ENDBRANCH   2   3
ENDBRANCH   1   2
BRANCH   1   7
ATOM      7  C   UNL     1      21.462  22.177  21.055  1.00  0.00     0.000 C 
BRANCH   7   8
ATOM      8  C   UNL     1      20.288  21.318  20.558  1.00  0.00    -0.000 C 
BRANCH   8   9
ATOM      9  C   UNL     1      18.929  21.838  21.048  1.00  0.00    -0.003 C 
ATOM     10  C   UNL     1      19.097  23.061  21.944  1.00  0.00     0.004 C 
ENDBRANCH   8   9
ENDBRANCH   7   8
ENDBRANCH   1   7
TORSDOF 6
ENDMDL
MODEL 7
REMARK VINA RESULT:    -3.828     16.073     17.863
REMARK INTER + INTRA:          -5.420
REMARK INTER:                  -4.852
REMARK INTRA:                  -0.569
REMARK UNBOUND:                -0.250
REMARK SMILES CCCCCCCC(=O)[O-]
REMARK SMILES IDX 5 1 6 2 7 3 8 4 9 5 10 6 4 7 3 8 2 9 1 10
REMARK H PARENT
REMARK Flexibility Score: inf
ROOT
ATOM      1  C   UNL     1      22.256  22.720  19.363  1.00  0.00     0.000 C 
ENDROOT
BRANCH   1   2
ATOM      2  C   UNL     1      21.447  22.106  20.519  1.00  0.00     0.006 C 
BRANCH   2   3
ATOM      3  C   UNL     1      21.261  23.041  21.725  1.00  0.00     0.053 C 
BRANCH   3   4
ATOM      4  C   UNL     1      19.973  23.802  21.651  1.00  0.00     0.041 C 
ATOM      5  O   UNL     1      18.971  23.419  22.311  1.00  0.00    -0.550 OA
ATOM      6  O   UNL     1      19.889  24.955  20.881  1.00  0.00    -0.550 OA
ENDBRANCH   3   4
ENDBRANCH   2   3
ENDBRANCH   1   2
BRANCH   1   7
ATOM      7  C   UNL     1      21.458  22.784  18.048  1.00  0.00     0.000 C 
BRANCH   7   8
ATOM      8  C   UNL     1      21.034  24.216  17.684  1.00  0.00    -0.000 C 
BRANCH   8   9
ATOM      9  C   UNL     1      19.528  24.332  17.406  1.00  0.00    -0.003 C 
ATOM     10  C   UNL     1      18.757  23.196  18.072  1.00  0.00     0.004 C 
ENDBRANCH   8   9
ENDBRANCH   7   8
ENDBRANCH   1   7
TORSDOF 6
ENDMDL
MODEL 8
REMARK VINA RESULT:    -3.821     16.399     18.145
REMARK INTER + INTRA:          -5.411
REMARK INTER:                  -4.770
REMARK INTRA:                  -0.641
REMARK UNBOUND:                -0.250
REMARK SMILES CCCCCCCC(=O)[O-]
REMARK SMILES IDX 5 1 6 2 7 3 8 4 9 5 10 6 4 7 3 8 2 9 1 10
REMARK H PARENT
REMARK Flexibility Score: inf
ROOT
ATOM      1  C   UNL     1      19.897  24.694  20.397  1.00  0.00     0.000 C 
ENDROOT
BRANCH   1   2
ATOM      2  C   UNL     1      19.514  23.406  21.147  1.00  0.00     0.006 C 
BRANCH   2   3
ATOM      3  C   UNL     1      20.334  22.171  20.740  1.00  0.00     0.053 C 
BRANCH   3   4
ATOM      4  C   UNL     1      21.807  22.402  20.890  1.00  0.00     0.041 C 
ATOM      5  O   UNL     1      22.296  22.661  22.020  1.00  0.00    -0.550 OA
ATOM      6  O   UNL     1      22.643  22.296  19.786  1.00  0.00    -0.550 OA
ENDBRANCH   3   4
ENDBRANCH   2   3
ENDBRANCH   1   2
BRANCH   1   7
ATOM      7  C   UNL     1      19.572  24.624  18.894  1.00  0.00     0.000 C 
BRANCH   7   8
ATOM      8  C   UNL     1      20.829  24.718  18.014  1.00  0.00    -0.000 C 
BRANCH   8   9
ATOM      9  C   UNL     1      20.925  23.569  17.000  1.00  0.00    -0.003 C 
ATOM     10  C   UNL     1      19.657  22.721  17.007  1.00  0.00     0.004 C 
ENDBRANCH   8   9
ENDBRANCH   7   8
ENDBRANCH   1   7
TORSDOF 6
ENDMDL
MODEL 9
REMARK VINA RESULT:    -3.751     16.335     18.152
REMARK INTER + INTRA:          -5.317
REMARK INTER:                  -4.677
REMARK INTRA:                  -0.640
REMARK UNBOUND:                -0.250
REMARK SMILES CCCCCCCC(=O)[O-]
REMARK SMILES IDX 5 1 6 2 7 3 8 4 9 5 10 6 4 7 3 8 2 9 1 10
REMARK H PARENT
REMARK Flexibility Score: inf
ROOT
ATOM      1  C   UNL     1      21.704  23.040  18.372  1.00  0.00     0.000 C 
ENDROOT
BRANCH   1   2
ATOM      2  C   UNL     1      22.138  22.723  19.815  1.00  0.00     0.006 C 
BRANCH   2   3
ATOM      3  C   UNL     1      21.108  21.917  20.621  1.00  0.00     0.053 C 
BRANCH   3   4
ATOM      4  C   UNL     1      20.202  22.803  21.419  1.00  0.00     0.041 C 
ATOM      5  O   UNL     1      20.607  23.925  21.822  1.00  0.00    -0.550 OA
ATOM      6  O   UNL     1      18.899  22.406  21.688  1.00  0.00    -0.550 OA
ENDBRANCH   3   4
ENDBRANCH   2   3
ENDBRANCH   1   2
BRANCH   1   7
ATOM      7  C   UNL     1      20.983  24.394  18.253  1.00  0.00     0.000 C 
BRANCH   7   8
ATOM      8  C   UNL     1      19.472  24.239  18.020  1.00  0.00    -0.000 C 
BRANCH   8   9
ATOM      9  C   UNL     1      19.108  22.887  17.390  1.00  0.00    -0.003 C 
ATOM     10  C   UNL     1      18.114  22.124  18.259  1.00  0.00     0.004 C 
ENDBRANCH   8   9
ENDBRANCH   7   8
ENDBRANCH   1   7
TORSDOF 6
ENDMDL
