MODEL 1
REMARK VINA RESULT:    19.437      0.000      0.000
REMARK INTER + INTRA:          51.009
REMARK INTER:                  51.252
REMARK INTRA:                  -0.243
REMARK UNBOUND:                -0.243
REMARK SMILES CCCCCCCCCCCCCCCCCCCCCCCCCCCCCC(=O)[O-]
REMARK SMILES IDX 16 1 17 2 18 3 19 4 20 5 21 6 22 7 23 8 24 9 25 10 26 11
REMARK SMILES IDX 27 12 28 13 29 14 30 15 31 16 32 17 15 18 14 19 13 20 12 21
REMARK SMILES IDX 11 22 10 23 9 24 8 25 7 26 6 27 5 28 4 29 3 30 2 31 1 32
REMARK H PARENT
REMARK Flexibility Score: inf
ROOT
ATOM      1  C   UNL     1       2.895  -2.102   9.945  1.00  0.00     0.000 C 
ENDROOT
BRANCH   1   2
ATOM      2  C   UNL     1       2.161  -0.848  10.453  1.00  0.00     0.000 C 
BRANCH   2   3
ATOM      3  C   UNL     1       1.472  -0.004   9.359  1.00  0.00     0.000 C 
BRANCH   3   4
ATOM      4  C   UNL     1       0.181   0.713   9.794  1.00  0.00     0.000 C 
BRANCH   4   5
ATOM      5  C   UNL     1      -0.196   1.877   8.861  1.00  0.00     0.000 C 
BRANCH   5   6
ATOM      6  C   UNL     1       0.683   3.122   9.074  1.00  0.00     0.000 C 
BRANCH   6   7
ATOM      7  C   UNL     1       2.147   2.824   9.455  1.00  0.00     0.000 C 
BRANCH   7   8
ATOM      8  C   UNL     1       3.044   4.066   9.635  1.00  0.00     0.000 C 
BRANCH   8   9
ATOM      9  C   UNL     1       4.264   3.865  10.557  1.00  0.00     0.000 C 
BRANCH   9  10
ATOM     10  C   UNL     1       4.180   4.585  11.915  1.00  0.00     0.000 C 
BRANCH  10  11
ATOM     11  C   UNL     1       3.618   6.011  11.796  1.00  0.00     0.000 C 
BRANCH  11  12
ATOM     12  C   UNL     1       2.882   6.469  13.067  1.00  0.00     0.000 C 
BRANCH  12  13
ATOM     13  C   UNL     1       3.175   5.592  14.304  1.00  0.00     0.006 C 
BRANCH  13  14
ATOM     14  C   UNL     1       3.228   6.420  15.598  1.00  0.00     0.053 C 
BRANCH  14  15
ATOM     15  C   UNL     1       4.518   7.173  15.697  1.00  0.00     0.041 C 
ATOM     16  O   UNL     1       4.551   8.407  15.452  1.00  0.00    -0.550 OA
ATOM     17  O   UNL     1       5.686   6.509  16.055  1.00  0.00    -0.550 OA
ENDBRANCH  14  15
ENDBRANCH  13  14
ENDBRANCH  12  13
ENDBRANCH  11  12
ENDBRANCH  10  11
ENDBRANCH   9  10
ENDBRANCH   8   9
ENDBRANCH   7   8
ENDBRANCH   6   7
ENDBRANCH   5   6
ENDBRANCH   4   5
ENDBRANCH   3   4
ENDBRANCH   2   3
ENDBRANCH   1   2
BRANCH   1  18
ATOM     18  C   UNL     1       2.002  -3.351   9.926  1.00  0.00     0.000 C 
BRANCH  18  19
ATOM     19  C   UNL     1       2.830  -4.620  10.183  1.00  0.00     0.000 C 
BRANCH  19  20
ATOM     20  C   UNL     1       1.975  -5.824  10.627  1.00  0.00     0.000 C 
BRANCH  20  21
ATOM     21  C   UNL     1       0.669  -6.013   9.827  1.00  0.00     0.000 C 
BRANCH  21  22
ATOM     22  C   UNL     1      -0.358  -6.973  10.451  1.00  0.00     0.000 C 
BRANCH  22  23
ATOM     23  C   UNL     1       0.297  -8.092  11.281  1.00  0.00     0.000 C 
BRANCH  23  24
ATOM     24  C   UNL     1       1.284  -8.940  10.458  1.00  0.00    -0.000 C 
BRANCH  24  25
ATOM     25  C   UNL     1       2.765  -8.735  10.835  1.00  0.00    -0.000 C 
BRANCH  25  26
ATOM     26  C   UNL     1       3.009  -8.091  12.214  1.00  0.00    -0.000 C 
BRANCH  26  27
ATOM     27  C   UNL     1       4.498  -7.966  12.601  1.00  0.00    -0.000 C 
BRANCH  27  28
ATOM     28  C   UNL     1       5.311  -7.206  11.542  1.00  0.00    -0.000 C 
BRANCH  28  29
ATOM     29  C   UNL     1       6.417  -6.361  12.193  1.00  0.00    -0.000 C 
BRANCH  29  30
ATOM     30  C   UNL     1       7.077  -7.071  13.387  1.00  0.00    -0.000 C 
BRANCH  30  31
ATOM     31  C   UNL     1       7.926  -6.123  14.247  1.00  0.00    -0.003 C 
ATOM     32  C   UNL     1       7.047  -5.130  15.000  1.00  0.00     0.004 C 
ENDBRANCH  30  31
ENDBRANCH  29  30
ENDBRANCH  28  29
ENDBRANCH  27  28
ENDBRANCH  26  27
ENDBRANCH  25  26
ENDBRANCH  24  25
ENDBRANCH  23  24
ENDBRANCH  22  23
ENDBRANCH  21  22
ENDBRANCH  20  21
ENDBRANCH  19  20
ENDBRANCH  18  19
ENDBRANCH   1  18
TORSDOF 28
ENDMDL
MODEL 2
REMARK VINA RESULT:    19.925      0.966      1.558
REMARK INTER + INTRA:          52.297
REMARK INTER:                  51.491
REMARK INTRA:                   0.805
REMARK UNBOUND:                -0.243
REMARK SMILES CCCCCCCCCCCCCCCCCCCCCCCCCCCCCC(=O)[O-]
REMARK SMILES IDX 16 1 17 2 18 3 19 4 20 5 21 6 22 7 23 8 24 9 25 10 26 11
REMARK SMILES IDX 27 12 28 13 29 14 30 15 31 16 32 17 15 18 14 19 13 20 12 21
REMARK SMILES IDX 11 22 10 23 9 24 8 25 7 26 6 27 5 28 4 29 3 30 2 31 1 32
REMARK H PARENT
REMARK Flexibility Score: inf
ROOT
ATOM      1  C   UNL     1       2.018  -1.946  10.298  1.00  0.00     0.000 C 
ENDROOT
BRANCH   1   2
ATOM      2  C   UNL     1       2.103  -0.553   9.648  1.00  0.00     0.000 C 
BRANCH   2   3
ATOM      3  C   UNL     1       1.359   0.569  10.404  1.00  0.00     0.000 C 
BRANCH   3   4
ATOM      4  C   UNL     1      -0.126   0.741  10.035  1.00  0.00     0.000 C 
BRANCH   4   5
ATOM      5  C   UNL     1      -0.373   1.940   9.103  1.00  0.00     0.000 C 
BRANCH   5   6
ATOM      6  C   UNL     1       0.929   2.541   8.546  1.00  0.00     0.000 C 
BRANCH   6   7
ATOM      7  C   UNL     1       1.183   4.011   8.935  1.00  0.00     0.000 C 
BRANCH   7   8
ATOM      8  C   UNL     1       2.665   4.396   9.119  1.00  0.00     0.000 C 
BRANCH   8   9
ATOM      9  C   UNL     1       3.388   3.687  10.282  1.00  0.00     0.000 C 
BRANCH   9  10
ATOM     10  C   UNL     1       4.388   4.561  11.058  1.00  0.00     0.000 C 
BRANCH  10  11
ATOM     11  C   UNL     1       3.699   5.664  11.879  1.00  0.00     0.000 C 
BRANCH  11  12
ATOM     12  C   UNL     1       3.571   5.305  13.370  1.00  0.00     0.000 C 
BRANCH  12  13
ATOM     13  C   UNL     1       2.679   6.280  14.168  1.00  0.00     0.006 C 
BRANCH  13  14
ATOM     14  C   UNL     1       3.172   6.461  15.613  1.00  0.00     0.053 C 
BRANCH  14  15
ATOM     15  C   UNL     1       4.502   7.146  15.641  1.00  0.00     0.041 C 
ATOM     16  O   UNL     1       4.589   8.370  15.361  1.00  0.00    -0.550 OA
ATOM     17  O   UNL     1       5.648   6.430  15.970  1.00  0.00    -0.550 OA
ENDBRANCH  14  15
ENDBRANCH  13  14
ENDBRANCH  12  13
ENDBRANCH  11  12
ENDBRANCH  10  11
ENDBRANCH   9  10
ENDBRANCH   8   9
ENDBRANCH   7   8
ENDBRANCH   6   7
ENDBRANCH   5   6
ENDBRANCH   4   5
ENDBRANCH   3   4
ENDBRANCH   2   3
ENDBRANCH   1   2
BRANCH   1  18
ATOM     18  C   UNL     1       2.978  -2.961   9.662  1.00  0.00     0.000 C 
BRANCH  18  19
ATOM     19  C   UNL     1       2.282  -4.315   9.451  1.00  0.00     0.000 C 
BRANCH  19  20
ATOM     20  C   UNL     1       2.194  -5.161  10.738  1.00  0.00     0.000 C 
BRANCH  20  21
ATOM     21  C   UNL     1       1.208  -6.344  10.661  1.00  0.00     0.000 C 
BRANCH  21  22
ATOM     22  C   UNL     1       0.663  -6.843  12.010  1.00  0.00     0.000 C 
BRANCH  22  23
ATOM     23  C   UNL     1      -0.692  -7.560  11.879  1.00  0.00     0.000 C 
BRANCH  23  24
ATOM     24  C   UNL     1      -0.860  -8.269  10.523  1.00  0.00    -0.000 C 
BRANCH  24  25
ATOM     25  C   UNL     1       0.315  -9.189  10.137  1.00  0.00    -0.000 C 
BRANCH  25  26
ATOM     26  C   UNL     1       1.598  -9.000  10.971  1.00  0.00    -0.000 C 
BRANCH  26  27
ATOM     27  C   UNL     1       2.906  -9.186  10.173  1.00  0.00    -0.000 C 
BRANCH  27  28
ATOM     28  C   UNL     1       4.043  -8.302  10.709  1.00  0.00    -0.000 C 
BRANCH  28  29
ATOM     29  C   UNL     1       3.875  -8.034  12.213  1.00  0.00    -0.000 C 
BRANCH  29  30
ATOM     30  C   UNL     1       5.218  -7.824  12.930  1.00  0.00    -0.000 C 
BRANCH  30  31
ATOM     31  C   UNL     1       6.148  -6.858  12.181  1.00  0.00    -0.003 C 
ATOM     32  C   UNL     1       7.408  -6.570  12.991  1.00  0.00     0.004 C 
ENDBRANCH  30  31
ENDBRANCH  29  30
ENDBRANCH  28  29
ENDBRANCH  27  28
ENDBRANCH  26  27
ENDBRANCH  25  26
ENDBRANCH  24  25
ENDBRANCH  23  24
ENDBRANCH  22  23
ENDBRANCH  21  22
ENDBRANCH  20  21
ENDBRANCH  19  20
ENDBRANCH  18  19
ENDBRANCH   1  18
TORSDOF 28
ENDMDL
MODEL 3
REMARK VINA RESULT:    20.202      0.769      1.469
REMARK INTER + INTRA:          53.026
REMARK INTER:                  53.186
REMARK INTRA:                  -0.160
REMARK UNBOUND:                -0.243
REMARK SMILES CCCCCCCCCCCCCCCCCCCCCCCCCCCCCC(=O)[O-]
REMARK SMILES IDX 16 1 17 2 18 3 19 4 20 5 21 6 22 7 23 8 24 9 25 10 26 11
REMARK SMILES IDX 27 12 28 13 29 14 30 15 31 16 32 17 15 18 14 19 13 20 12 21
REMARK SMILES IDX 11 22 10 23 9 24 8 25 7 26 6 27 5 28 4 29 3 30 2 31 1 32
REMARK H PARENT
REMARK Flexibility Score: inf
ROOT
ATOM      1  C   UNL     1       2.608  -3.987  10.407  1.00  0.00     0.000 C 
ENDROOT
BRANCH   1   2
ATOM      2  C   UNL     1       2.782  -2.654   9.657  1.00  0.00     0.000 C 
BRANCH   2   3
ATOM      3  C   UNL     1       2.141  -1.428  10.344  1.00  0.00     0.000 C 
BRANCH   3   4
ATOM      4  C   UNL     1       1.683  -0.305   9.395  1.00  0.00     0.000 C 
BRANCH   4   5
ATOM      5  C   UNL     1       0.505   0.507   9.960  1.00  0.00     0.000 C 
BRANCH   5   6
ATOM      6  C   UNL     1       0.338   1.873   9.273  1.00  0.00     0.000 C 
BRANCH   6   7
ATOM      7  C   UNL     1       1.655   2.628   9.000  1.00  0.00     0.000 C 
BRANCH   7   8
ATOM      8  C   UNL     1       2.571   2.815  10.226  1.00  0.00     0.000 C 
BRANCH   8   9
ATOM      9  C   UNL     1       3.674   3.880  10.064  1.00  0.00     0.000 C 
BRANCH   9  10
ATOM     10  C   UNL     1       4.373   4.299  11.370  1.00  0.00     0.000 C 
BRANCH  10  11
ATOM     11  C   UNL     1       3.385   4.520  12.527  1.00  0.00     0.000 C 
BRANCH  11  12
ATOM     12  C   UNL     1       3.630   5.842  13.275  1.00  0.00     0.000 C 
BRANCH  12  13
ATOM     13  C   UNL     1       2.564   6.153  14.349  1.00  0.00     0.006 C 
BRANCH  13  14
ATOM     14  C   UNL     1       3.196   6.436  15.721  1.00  0.00     0.053 C 
BRANCH  14  15
ATOM     15  C   UNL     1       4.560   7.030  15.569  1.00  0.00     0.041 C 
ATOM     16  O   UNL     1       5.581   6.297  15.637  1.00  0.00    -0.550 OA
ATOM     17  O   UNL     1       4.706   8.397  15.358  1.00  0.00    -0.550 OA
ENDBRANCH  14  15
ENDBRANCH  13  14
ENDBRANCH  12  13
ENDBRANCH  11  12
ENDBRANCH  10  11
ENDBRANCH   9  10
ENDBRANCH   8   9
ENDBRANCH   7   8
ENDBRANCH   6   7
ENDBRANCH   5   6
ENDBRANCH   4   5
ENDBRANCH   3   4
ENDBRANCH   2   3
ENDBRANCH   1   2
BRANCH   1  18
ATOM     18  C   UNL     1       2.038  -5.102   9.519  1.00  0.00     0.000 C 
BRANCH  18  19
ATOM     19  C   UNL     1       0.747  -5.676  10.123  1.00  0.00     0.000 C 
BRANCH  19  20
ATOM     20  C   UNL     1      -0.297  -6.074   9.060  1.00  0.00     0.000 C 
BRANCH  20  21
ATOM     21  C   UNL     1      -1.069  -7.373   9.374  1.00  0.00     0.000 C 
BRANCH  21  22
ATOM     22  C   UNL     1      -0.976  -7.864  10.829  1.00  0.00     0.000 C 
BRANCH  22  23
ATOM     23  C   UNL     1       0.153  -8.888  11.043  1.00  0.00     0.000 C 
BRANCH  23  24
ATOM     24  C   UNL     1       1.554  -8.262  10.914  1.00  0.00    -0.000 C 
BRANCH  24  25
ATOM     25  C   UNL     1       2.042  -7.532  12.181  1.00  0.00    -0.000 C 
BRANCH  25  26
ATOM     26  C   UNL     1       3.019  -8.331  13.066  1.00  0.00    -0.000 C 
BRANCH  26  27
ATOM     27  C   UNL     1       4.454  -8.423  12.504  1.00  0.00    -0.000 C 
BRANCH  27  28
ATOM     28  C   UNL     1       4.811  -7.213  11.625  1.00  0.00    -0.000 C 
BRANCH  28  29
ATOM     29  C   UNL     1       5.917  -6.365  12.273  1.00  0.00    -0.000 C 
BRANCH  29  30
ATOM     30  C   UNL     1       6.910  -7.211  13.086  1.00  0.00    -0.000 C 
BRANCH  30  31
ATOM     31  C   UNL     1       7.912  -6.356  13.877  1.00  0.00    -0.003 C 
ATOM     32  C   UNL     1       7.191  -5.380  14.800  1.00  0.00     0.004 C 
ENDBRANCH  30  31
ENDBRANCH  29  30
ENDBRANCH  28  29
ENDBRANCH  27  28
ENDBRANCH  26  27
ENDBRANCH  25  26
ENDBRANCH  24  25
ENDBRANCH  23  24
ENDBRANCH  22  23
ENDBRANCH  21  22
ENDBRANCH  20  21
ENDBRANCH  19  20
ENDBRANCH  18  19
ENDBRANCH   1  18
TORSDOF 28
ENDMDL
MODEL 4
REMARK VINA RESULT:    20.633      1.812      2.855
REMARK INTER + INTRA:          54.163
REMARK INTER:                  55.519
REMARK INTRA:                  -1.357
REMARK UNBOUND:                -0.243
REMARK SMILES CCCCCCCCCCCCCCCCCCCCCCCCCCCCCC(=O)[O-]
REMARK SMILES IDX 16 1 17 2 18 3 19 4 20 5 21 6 22 7 23 8 24 9 25 10 26 11
REMARK SMILES IDX 27 12 28 13 29 14 30 15 31 16 32 17 15 18 14 19 13 20 12 21
REMARK SMILES IDX 11 22 10 23 9 24 8 25 7 26 6 27 5 28 4 29 3 30 2 31 1 32
REMARK H PARENT
REMARK Flexibility Score: inf
ROOT
ATOM      1  C   UNL     1       1.507   0.495  10.361  1.00  0.00     0.000 C 
ENDROOT
BRANCH   1   2
ATOM      2  C   UNL     1       0.093   0.884   9.893  1.00  0.00     0.000 C 
BRANCH   2   3
ATOM      3  C   UNL     1       0.043   1.903   8.735  1.00  0.00     0.000 C 
BRANCH   3   4
ATOM      4  C   UNL     1       0.708   3.262   9.022  1.00  0.00     0.000 C 
BRANCH   4   5
ATOM      5  C   UNL     1       2.244   3.195   8.972  1.00  0.00     0.000 C 
BRANCH   5   6
ATOM      6  C   UNL     1       2.917   4.389   9.672  1.00  0.00     0.000 C 
BRANCH   6   7
ATOM      7  C   UNL     1       4.180   4.037  10.483  1.00  0.00     0.000 C 
BRANCH   7   8
ATOM      8  C   UNL     1       4.180   4.529  11.945  1.00  0.00     0.000 C 
BRANCH   8   9
ATOM      9  C   UNL     1       3.582   5.934  12.164  1.00  0.00     0.000 C 
BRANCH   9  10
ATOM     10  C   UNL     1       2.891   6.143  13.523  1.00  0.00     0.000 C 
BRANCH  10  11
ATOM     11  C   UNL     1       3.720   7.014  14.482  1.00  0.00     0.000 C 
BRANCH  11  12
ATOM     12  C   UNL     1       3.955   6.341  15.845  1.00  0.00     0.000 C 
BRANCH  12  13
ATOM     13  C   UNL     1       2.673   5.757  16.478  1.00  0.00     0.006 C 
BRANCH  13  14
ATOM     14  C   UNL     1       2.747   5.735  18.013  1.00  0.00     0.053 C 
BRANCH  14  15
ATOM     15  C   UNL     1       1.492   5.169  18.600  1.00  0.00     0.041 C 
ATOM     16  O   UNL     1       0.551   5.934  18.938  1.00  0.00    -0.550 OA
ATOM     17  O   UNL     1       1.365   3.796  18.781  1.00  0.00    -0.550 OA
ENDBRANCH  14  15
ENDBRANCH  13  14
ENDBRANCH  12  13
ENDBRANCH  11  12
ENDBRANCH  10  11
ENDBRANCH   9  10
ENDBRANCH   8   9
ENDBRANCH   7   8
ENDBRANCH   6   7
ENDBRANCH   5   6
ENDBRANCH   4   5
ENDBRANCH   3   4
ENDBRANCH   2   3
ENDBRANCH   1   2
BRANCH   1  18
ATOM     18  C   UNL     1       2.126  -0.632   9.521  1.00  0.00     0.000 C 
BRANCH  18  19
ATOM     19  C   UNL     1       1.755  -2.008  10.096  1.00  0.00     0.000 C 
BRANCH  19  20
ATOM     20  C   UNL     1       2.873  -3.057   9.929  1.00  0.00     0.000 C 
BRANCH  20  21
ATOM     21  C   UNL     1       2.379  -4.460   9.517  1.00  0.00     0.000 C 
BRANCH  21  22
ATOM     22  C   UNL     1       1.884  -5.353  10.668  1.00  0.00     0.000 C 
BRANCH  22  23
ATOM     23  C   UNL     1       0.741  -6.293  10.245  1.00  0.00     0.000 C 
BRANCH  23  24
ATOM     24  C   UNL     1       0.309  -7.247  11.373  1.00  0.00    -0.000 C 
BRANCH  24  25
ATOM     25  C   UNL     1       1.388  -8.266  11.790  1.00  0.00    -0.000 C 
BRANCH  25  26
ATOM     26  C   UNL     1       2.419  -8.617  10.699  1.00  0.00    -0.000 C 
BRANCH  26  27
ATOM     27  C   UNL     1       3.879  -8.289  11.075  1.00  0.00    -0.000 C 
BRANCH  27  28
ATOM     28  C   UNL     1       4.096  -8.271  12.597  1.00  0.00    -0.000 C 
BRANCH  28  29
ATOM     29  C   UNL     1       4.994  -7.095  13.014  1.00  0.00    -0.000 C 
BRANCH  29  30
ATOM     30  C   UNL     1       6.130  -6.835  12.012  1.00  0.00    -0.000 C 
BRANCH  30  31
ATOM     31  C   UNL     1       7.519  -6.859  12.667  1.00  0.00    -0.003 C 
ATOM     32  C   UNL     1       7.505  -6.132  14.008  1.00  0.00     0.004 C 
ENDBRANCH  30  31
ENDBRANCH  29  30
ENDBRANCH  28  29
ENDBRANCH  27  28
ENDBRANCH  26  27
ENDBRANCH  25  26
ENDBRANCH  24  25
ENDBRANCH  23  24
ENDBRANCH  22  23
ENDBRANCH  21  22
ENDBRANCH  20  21
ENDBRANCH  19  20
ENDBRANCH  18  19
ENDBRANCH   1  18
TORSDOF 28
ENDMDL
MODEL 5
REMARK VINA RESULT:    20.687      3.431     11.865
REMARK INTER + INTRA:          54.307
REMARK INTER:                  55.157
REMARK INTRA:                  -0.849
REMARK UNBOUND:                -0.243
REMARK SMILES CCCCCCCCCCCCCCCCCCCCCCCCCCCCCC(=O)[O-]
REMARK SMILES IDX 16 1 17 2 18 3 19 4 20 5 21 6 22 7 23 8 24 9 25 10 26 11
REMARK SMILES IDX 27 12 28 13 29 14 30 15 31 16 32 17 15 18 14 19 13 20 12 21
REMARK SMILES IDX 11 22 10 23 9 24 8 25 7 26 6 27 5 28 4 29 3 30 2 31 1 32
REMARK H PARENT
REMARK Flexibility Score: inf
ROOT
ATOM      1  C   UNL     1       2.387  -0.858  10.321  1.00  0.00     0.000 C 
ENDROOT
BRANCH   1   2
ATOM      2  C   UNL     1       2.897  -2.184   9.727  1.00  0.00     0.000 C 
BRANCH   2   3
ATOM      3  C   UNL     1       1.920  -3.374   9.847  1.00  0.00     0.000 C 
BRANCH   3   4
ATOM      4  C   UNL     1       2.577  -4.745  10.092  1.00  0.00     0.000 C 
BRANCH   4   5
ATOM      5  C   UNL     1       1.681  -5.697  10.903  1.00  0.00     0.000 C 
BRANCH   5   6
ATOM      6  C   UNL     1       0.419  -6.129  10.136  1.00  0.00     0.000 C 
BRANCH   6   7
ATOM      7  C   UNL     1      -0.217  -7.446  10.623  1.00  0.00     0.000 C 
BRANCH   7   8
ATOM      8  C   UNL     1       0.730  -8.387  11.396  1.00  0.00     0.000 C 
BRANCH   8   9
ATOM      9  C   UNL     1       1.844  -9.036  10.550  1.00  0.00     0.000 C 
BRANCH   9  10
ATOM     10  C   UNL     1       3.275  -8.603  10.915  1.00  0.00     0.000 C 
BRANCH  10  11
ATOM     11  C   UNL     1       3.376  -8.028  12.337  1.00  0.00     0.000 C 
BRANCH  11  12
ATOM     12  C   UNL     1       4.830  -7.807  12.789  1.00  0.00     0.000 C 
BRANCH  12  13
ATOM     13  C   UNL     1       5.449  -6.491  12.267  1.00  0.00     0.006 C 
BRANCH  13  14
ATOM     14  C   UNL     1       6.980  -6.576  12.168  1.00  0.00     0.053 C 
BRANCH  14  15
ATOM     15  C   UNL     1       7.607  -6.523  13.526  1.00  0.00     0.041 C 
ATOM     16  O   UNL     1       8.305  -7.487  13.938  1.00  0.00    -0.550 OA
ATOM     17  O   UNL     1       7.414  -5.413  14.340  1.00  0.00    -0.550 OA
ENDBRANCH  14  15
ENDBRANCH  13  14
ENDBRANCH  12  13
ENDBRANCH  11  12
ENDBRANCH  10  11
ENDBRANCH   9  10
ENDBRANCH   8   9
ENDBRANCH   7   8
ENDBRANCH   6   7
ENDBRANCH   5   6
ENDBRANCH   4   5
ENDBRANCH   3   4
ENDBRANCH   2   3
ENDBRANCH   1   2
BRANCH   1  18
ATOM     18  C   UNL     1       1.462  -0.092   9.364  1.00  0.00     0.000 C 
BRANCH  18  19
ATOM     19  C   UNL     1       0.385   0.678  10.145  1.00  0.00     0.000 C 
BRANCH  19  20
ATOM     20  C   UNL     1      -0.182   1.884   9.369  1.00  0.00     0.000 C 
BRANCH  20  21
ATOM     21  C   UNL     1       0.888   2.811   8.754  1.00  0.00     0.000 C 
BRANCH  21  22
ATOM     22  C   UNL     1       2.298   2.685   9.354  1.00  0.00     0.000 C 
BRANCH  22  23
ATOM     23  C   UNL     1       2.972   4.050   9.588  1.00  0.00     0.000 C 
BRANCH  23  24
ATOM     24  C   UNL     1       3.916   4.046  10.804  1.00  0.00    -0.000 C 
BRANCH  24  25
ATOM     25  C   UNL     1       4.198   5.442  11.393  1.00  0.00    -0.000 C 
BRANCH  25  26
ATOM     26  C   UNL     1       4.130   5.533  12.930  1.00  0.00    -0.000 C 
BRANCH  26  27
ATOM     27  C   UNL     1       2.857   6.220  13.468  1.00  0.00    -0.000 C 
BRANCH  27  28
ATOM     28  C   UNL     1       2.860   6.328  15.001  1.00  0.00    -0.000 C 
BRANCH  28  29
ATOM     29  C   UNL     1       4.290   6.254  15.560  1.00  0.00    -0.000 C 
BRANCH  29  30
ATOM     30  C   UNL     1       4.861   7.638  15.905  1.00  0.00    -0.000 C 
BRANCH  30  31
ATOM     31  C   UNL     1       3.904   8.784  15.544  1.00  0.00    -0.003 C 
ATOM     32  C   UNL     1       4.633  10.124  15.534  1.00  0.00     0.004 C 
ENDBRANCH  30  31
ENDBRANCH  29  30
ENDBRANCH  28  29
ENDBRANCH  27  28
ENDBRANCH  26  27
ENDBRANCH  25  26
ENDBRANCH  24  25
ENDBRANCH  23  24
ENDBRANCH  22  23
ENDBRANCH  21  22
ENDBRANCH  20  21
ENDBRANCH  19  20
ENDBRANCH  18  19
ENDBRANCH   1  18
TORSDOF 28
ENDMDL
MODEL 6
REMARK VINA RESULT:    20.845      3.201     11.103
REMARK INTER + INTRA:          54.722
REMARK INTER:                  55.279
REMARK INTRA:                  -0.557
REMARK UNBOUND:                -0.243
REMARK SMILES CCCCCCCCCCCCCCCCCCCCCCCCCCCCCC(=O)[O-]
REMARK SMILES IDX 16 1 17 2 18 3 19 4 20 5 21 6 22 7 23 8 24 9 25 10 26 11
REMARK SMILES IDX 27 12 28 13 29 14 30 15 31 16 32 17 15 18 14 19 13 20 12 21
REMARK SMILES IDX 11 22 10 23 9 24 8 25 7 26 6 27 5 28 4 29 3 30 2 31 1 32
REMARK H PARENT
REMARK Flexibility Score: inf
ROOT
ATOM      1  C   UNL     1       1.991  -3.206   9.755  1.00  0.00     0.000 C 
ENDROOT
BRANCH   1   2
ATOM      2  C   UNL     1       2.823  -4.395  10.268  1.00  0.00     0.000 C 
BRANCH   2   3
ATOM      3  C   UNL     1       2.027  -5.696  10.510  1.00  0.00     0.000 C 
BRANCH   3   4
ATOM      4  C   UNL     1       1.842  -6.092  11.987  1.00  0.00     0.000 C 
BRANCH   4   5
ATOM      5  C   UNL     1       1.016  -7.378  12.159  1.00  0.00     0.000 C 
BRANCH   5   6
ATOM      6  C   UNL     1       0.827  -8.148  10.840  1.00  0.00     0.000 C 
BRANCH   6   7
ATOM      7  C   UNL     1       2.052  -8.967  10.386  1.00  0.00     0.000 C 
BRANCH   7   8
ATOM      8  C   UNL     1       3.418  -8.418  10.845  1.00  0.00     0.000 C 
BRANCH   8   9
ATOM      9  C   UNL     1       4.082  -9.192  12.001  1.00  0.00     0.000 C 
BRANCH   9  10
ATOM     10  C   UNL     1       4.534  -8.327  13.190  1.00  0.00     0.000 C 
BRANCH  10  11
ATOM     11  C   UNL     1       4.822  -6.871  12.789  1.00  0.00     0.000 C 
BRANCH  11  12
ATOM     12  C   UNL     1       6.023  -6.742  11.836  1.00  0.00     0.000 C 
BRANCH  12  13
ATOM     13  C   UNL     1       7.371  -6.536  12.561  1.00  0.00     0.006 C 
BRANCH  13  14
ATOM     14  C   UNL     1       7.233  -6.684  14.085  1.00  0.00     0.053 C 
BRANCH  14  15
ATOM     15  C   UNL     1       7.752  -5.469  14.788  1.00  0.00     0.041 C 
ATOM     16  O   UNL     1       6.957  -4.695  15.383  1.00  0.00    -0.550 OA
ATOM     17  O   UNL     1       9.113  -5.187  14.781  1.00  0.00    -0.550 OA
ENDBRANCH  14  15
ENDBRANCH  13  14
ENDBRANCH  12  13
ENDBRANCH  11  12
ENDBRANCH  10  11
ENDBRANCH   9  10
ENDBRANCH   8   9
ENDBRANCH   7   8
ENDBRANCH   6   7
ENDBRANCH   5   6
ENDBRANCH   4   5
ENDBRANCH   3   4
ENDBRANCH   2   3
ENDBRANCH   1   2
BRANCH   1  18
ATOM     18  C   UNL     1       2.591  -1.847  10.138  1.00  0.00     0.000 C 
BRANCH  18  19
ATOM     19  C   UNL     1       1.939  -0.714   9.330  1.00  0.00     0.000 C 
BRANCH  19  20
ATOM     20  C   UNL     1       1.453   0.457  10.209  1.00  0.00     0.000 C 
BRANCH  20  21
ATOM     21  C   UNL     1      -0.072   0.689  10.182  1.00  0.00     0.000 C 
BRANCH  21  22
ATOM     22  C   UNL     1      -0.541   1.926   9.396  1.00  0.00     0.000 C 
BRANCH  22  23
ATOM     23  C   UNL     1       0.541   2.479   8.451  1.00  0.00     0.000 C 
BRANCH  23  24
ATOM     24  C   UNL     1       1.211   3.754   8.997  1.00  0.00    -0.000 C 
BRANCH  24  25
ATOM     25  C   UNL     1       2.736   3.640   9.185  1.00  0.00    -0.000 C 
BRANCH  25  26
ATOM     26  C   UNL     1       3.364   4.690  10.122  1.00  0.00    -0.000 C 
BRANCH  26  27
ATOM     27  C   UNL     1       4.331   4.104  11.173  1.00  0.00    -0.000 C 
BRANCH  27  28
ATOM     28  C   UNL     1       4.556   5.062  12.353  1.00  0.00    -0.000 C 
BRANCH  28  29
ATOM     29  C   UNL     1       3.283   5.867  12.663  1.00  0.00    -0.000 C 
BRANCH  29  30
ATOM     30  C   UNL     1       3.065   6.069  14.172  1.00  0.00    -0.000 C 
BRANCH  30  31
ATOM     31  C   UNL     1       4.379   6.072  14.968  1.00  0.00    -0.003 C 
ATOM     32  C   UNL     1       4.467   7.294  15.876  1.00  0.00     0.004 C 
ENDBRANCH  30  31
ENDBRANCH  29  30
ENDBRANCH  28  29
ENDBRANCH  27  28
ENDBRANCH  26  27
ENDBRANCH  25  26
ENDBRANCH  24  25
ENDBRANCH  23  24
ENDBRANCH  22  23
ENDBRANCH  21  22
ENDBRANCH  20  21
ENDBRANCH  19  20
ENDBRANCH  18  19
ENDBRANCH   1  18
TORSDOF 28
ENDMDL
MODEL 7
REMARK VINA RESULT:    20.885      4.506     12.164
REMARK INTER + INTRA:          54.829
REMARK INTER:                  55.677
REMARK INTRA:                  -0.849
REMARK UNBOUND:                -0.243
REMARK SMILES CCCCCCCCCCCCCCCCCCCCCCCCCCCCCC(=O)[O-]
REMARK SMILES IDX 16 1 17 2 18 3 19 4 20 5 21 6 22 7 23 8 24 9 25 10 26 11
REMARK SMILES IDX 27 12 28 13 29 14 30 15 31 16 32 17 15 18 14 19 13 20 12 21
REMARK SMILES IDX 11 22 10 23 9 24 8 25 7 26 6 27 5 28 4 29 3 30 2 31 1 32
REMARK H PARENT
REMARK Flexibility Score: inf
ROOT
ATOM      1  C   UNL     1       1.571  -1.496  10.088  1.00  0.00     0.000 C 
ENDROOT
BRANCH   1   2
ATOM      2  C   UNL     1       2.857  -2.334   9.972  1.00  0.00     0.000 C 
BRANCH   2   3
ATOM      3  C   UNL     1       2.637  -3.836   9.690  1.00  0.00     0.000 C 
BRANCH   3   4
ATOM      4  C   UNL     1       2.276  -4.692  10.919  1.00  0.00     0.000 C 
BRANCH   4   5
ATOM      5  C   UNL     1       1.552  -5.996  10.544  1.00  0.00     0.000 C 
BRANCH   5   6
ATOM      6  C   UNL     1       0.955  -6.720  11.763  1.00  0.00     0.000 C 
BRANCH   6   7
ATOM      7  C   UNL     1      -0.348  -7.496  11.483  1.00  0.00     0.000 C 
BRANCH   7   8
ATOM      8  C   UNL     1      -0.184  -8.769  10.629  1.00  0.00     0.000 C 
BRANCH   8   9
ATOM      9  C   UNL     1       1.184  -9.471  10.754  1.00  0.00     0.000 C 
BRANCH   9  10
ATOM     10  C   UNL     1       2.331  -8.807   9.972  1.00  0.00     0.000 C 
BRANCH  10  11
ATOM     11  C   UNL     1       3.706  -9.049  10.616  1.00  0.00     0.000 C 
BRANCH  11  12
ATOM     12  C   UNL     1       4.504  -7.751  10.825  1.00  0.00     0.000 C 
BRANCH  12  13
ATOM     13  C   UNL     1       4.955  -7.529  12.285  1.00  0.00     0.006 C 
BRANCH  13  14
ATOM     14  C   UNL     1       3.824  -7.810  13.287  1.00  0.00     0.053 C 
BRANCH  14  15
ATOM     15  C   UNL     1       4.016  -9.137  13.951  1.00  0.00     0.041 C 
ATOM     16  O   UNL     1       3.173  -9.553  14.789  1.00  0.00    -0.550 OA
ATOM     17  O   UNL     1       5.129  -9.913  13.649  1.00  0.00    -0.550 OA
ENDBRANCH  14  15
ENDBRANCH  13  14
ENDBRANCH  12  13
ENDBRANCH  11  12
ENDBRANCH  10  11
ENDBRANCH   9  10
ENDBRANCH   8   9
ENDBRANCH   7   8
ENDBRANCH   6   7
ENDBRANCH   5   6
ENDBRANCH   4   5
ENDBRANCH   3   4
ENDBRANCH   2   3
ENDBRANCH   1   2
BRANCH   1  18
ATOM     18  C   UNL     1       1.715  -0.093   9.482  1.00  0.00     0.000 C 
BRANCH  18  19
ATOM     19  C   UNL     1       0.456   0.748   9.744  1.00  0.00     0.000 C 
BRANCH  19  20
ATOM     20  C   UNL     1       0.334   1.968   8.809  1.00  0.00     0.000 C 
BRANCH  20  21
ATOM     21  C   UNL     1       1.114   3.215   9.278  1.00  0.00     0.000 C 
BRANCH  21  22
ATOM     22  C   UNL     1       2.321   2.938  10.190  1.00  0.00     0.000 C 
BRANCH  22  23
ATOM     23  C   UNL     1       3.569   3.747   9.793  1.00  0.00     0.000 C 
BRANCH  23  24
ATOM     24  C   UNL     1       4.662   3.723  10.877  1.00  0.00    -0.000 C 
BRANCH  24  25
ATOM     25  C   UNL     1       4.785   5.031  11.684  1.00  0.00    -0.000 C 
BRANCH  25  26
ATOM     26  C   UNL     1       3.450   5.727  12.016  1.00  0.00    -0.000 C 
BRANCH  26  27
ATOM     27  C   UNL     1       2.761   5.200  13.293  1.00  0.00    -0.000 C 
BRANCH  27  28
ATOM     28  C   UNL     1       2.053   6.319  14.073  1.00  0.00    -0.000 C 
BRANCH  28  29
ATOM     29  C   UNL     1       2.857   6.718  15.321  1.00  0.00    -0.000 C 
BRANCH  29  30
ATOM     30  C   UNL     1       4.267   6.106  15.336  1.00  0.00    -0.000 C 
BRANCH  30  31
ATOM     31  C   UNL     1       5.321   7.055  15.926  1.00  0.00    -0.003 C 
ATOM     32  C   UNL     1       4.878   8.509  15.806  1.00  0.00     0.004 C 
ENDBRANCH  30  31
ENDBRANCH  29  30
ENDBRANCH  28  29
ENDBRANCH  27  28
ENDBRANCH  26  27
ENDBRANCH  25  26
ENDBRANCH  24  25
ENDBRANCH  23  24
ENDBRANCH  22  23
ENDBRANCH  21  22
ENDBRANCH  20  21
ENDBRANCH  19  20
ENDBRANCH  18  19
ENDBRANCH   1  18
TORSDOF 28
ENDMDL
MODEL 8
REMARK VINA RESULT:    21.126      3.635     11.919
REMARK INTER + INTRA:          55.464
REMARK INTER:                  56.894
REMARK INTRA:                  -1.430
REMARK UNBOUND:                -0.243
REMARK SMILES CCCCCCCCCCCCCCCCCCCCCCCCCCCCCC(=O)[O-]
REMARK SMILES IDX 16 1 17 2 18 3 19 4 20 5 21 6 22 7 23 8 24 9 25 10 26 11
REMARK SMILES IDX 27 12 28 13 29 14 30 15 31 16 32 17 15 18 14 19 13 20 12 21
REMARK SMILES IDX 11 22 10 23 9 24 8 25 7 26 6 27 5 28 4 29 3 30 2 31 1 32
REMARK H PARENT
REMARK Flexibility Score: inf
ROOT
ATOM      1  C   UNL     1       0.262   0.111   9.800  1.00  0.00     0.000 C 
ENDROOT
BRANCH   1   2
ATOM      2  C   UNL     1       1.728   0.057  10.266  1.00  0.00     0.000 C 
BRANCH   2   3
ATOM      3  C   UNL     1       2.535  -1.154   9.748  1.00  0.00     0.000 C 
BRANCH   3   4
ATOM      4  C   UNL     1       1.935  -2.534  10.070  1.00  0.00     0.000 C 
BRANCH   4   5
ATOM      5  C   UNL     1       2.935  -3.683   9.855  1.00  0.00     0.000 C 
BRANCH   5   6
ATOM      6  C   UNL     1       2.248  -5.020   9.529  1.00  0.00     0.000 C 
BRANCH   6   7
ATOM      7  C   UNL     1       1.641  -5.751  10.743  1.00  0.00     0.000 C 
BRANCH   7   8
ATOM      8  C   UNL     1       0.305  -6.474  10.476  1.00  0.00     0.000 C 
BRANCH   8   9
ATOM      9  C   UNL     1       0.126  -7.815  11.214  1.00  0.00     0.000 C 
BRANCH   9  10
ATOM     10  C   UNL     1       1.435  -8.517  11.617  1.00  0.00     0.000 C 
BRANCH  10  11
ATOM     11  C   UNL     1       2.396  -8.705  10.432  1.00  0.00     0.000 C 
BRANCH  11  12
ATOM     12  C   UNL     1       3.876  -8.656  10.850  1.00  0.00     0.000 C 
BRANCH  12  13
ATOM     13  C   UNL     1       4.096  -8.137  12.288  1.00  0.00     0.006 C 
BRANCH  13  14
ATOM     14  C   UNL     1       4.628  -6.695  12.304  1.00  0.00     0.053 C 
BRANCH  14  15
ATOM     15  C   UNL     1       6.121  -6.677  12.395  1.00  0.00     0.041 C 
ATOM     16  O   UNL     1       6.777  -5.742  11.864  1.00  0.00    -0.550 OA
ATOM     17  O   UNL     1       6.791  -7.697  13.061  1.00  0.00    -0.550 OA
ENDBRANCH  14  15
ENDBRANCH  13  14
ENDBRANCH  12  13
ENDBRANCH  11  12
ENDBRANCH  10  11
ENDBRANCH   9  10
ENDBRANCH   8   9
ENDBRANCH   7   8
ENDBRANCH   6   7
ENDBRANCH   5   6
ENDBRANCH   4   5
ENDBRANCH   3   4
ENDBRANCH   2   3
ENDBRANCH   1   2
BRANCH   1  18
ATOM     18  C   UNL     1      -0.366   1.502   9.965  1.00  0.00     0.000 C 
BRANCH  18  19
ATOM     19  C   UNL     1      -0.270   2.304   8.658  1.00  0.00     0.000 C 
BRANCH  19  20
ATOM     20  C   UNL     1       0.761   3.449   8.723  1.00  0.00     0.000 C 
BRANCH  20  21
ATOM     21  C   UNL     1       2.209   2.994   9.001  1.00  0.00     0.000 C 
BRANCH  21  22
ATOM     22  C   UNL     1       3.215   4.121   9.289  1.00  0.00     0.000 C 
BRANCH  22  23
ATOM     23  C   UNL     1       4.505   3.613   9.958  1.00  0.00     0.000 C 
BRANCH  23  24
ATOM     24  C   UNL     1       4.800   4.321  11.293  1.00  0.00    -0.000 C 
BRANCH  24  25
ATOM     25  C   UNL     1       3.548   4.848  12.022  1.00  0.00    -0.000 C 
BRANCH  25  26
ATOM     26  C   UNL     1       3.820   5.573  13.355  1.00  0.00    -0.000 C 
BRANCH  26  27
ATOM     27  C   UNL     1       2.546   6.008  14.111  1.00  0.00    -0.000 C 
BRANCH  27  28
ATOM     28  C   UNL     1       2.839   6.390  15.570  1.00  0.00    -0.000 C 
BRANCH  28  29
ATOM     29  C   UNL     1       4.337   6.256  15.888  1.00  0.00    -0.000 C 
BRANCH  29  30
ATOM     30  C   UNL     1       5.042   7.618  15.997  1.00  0.00    -0.000 C 
BRANCH  30  31
ATOM     31  C   UNL     1       4.207   8.768  15.414  1.00  0.00    -0.003 C 
ATOM     32  C   UNL     1       4.761  10.122  15.847  1.00  0.00     0.004 C 
ENDBRANCH  30  31
ENDBRANCH  29  30
ENDBRANCH  28  29
ENDBRANCH  27  28
ENDBRANCH  26  27
ENDBRANCH  25  26
ENDBRANCH  24  25
ENDBRANCH  23  24
ENDBRANCH  22  23
ENDBRANCH  21  22
ENDBRANCH  20  21
ENDBRANCH  19  20
ENDBRANCH  18  19
ENDBRANCH   1  18
TORSDOF 28
ENDMDL
MODEL 9
REMARK VINA RESULT:    21.292      3.838     11.927
REMARK INTER + INTRA:          55.901
REMARK INTER:                  57.889
REMARK INTRA:                  -1.988
REMARK UNBOUND:                -0.243
REMARK SMILES CCCCCCCCCCCCCCCCCCCCCCCCCCCCCC(=O)[O-]
REMARK SMILES IDX 16 1 17 2 18 3 19 4 20 5 21 6 22 7 23 8 24 9 25 10 26 11
REMARK SMILES IDX 27 12 28 13 29 14 30 15 31 16 32 17 15 18 14 19 13 20 12 21
REMARK SMILES IDX 11 22 10 23 9 24 8 25 7 26 6 27 5 28 4 29 3 30 2 31 1 32
REMARK H PARENT
REMARK Flexibility Score: inf
ROOT
ATOM      1  C   UNL     1       1.455   0.304  10.341  1.00  0.00     0.000 C 
ENDROOT
BRANCH   1   2
ATOM      2  C   UNL     1       2.227  -0.863   9.699  1.00  0.00     0.000 C 
BRANCH   2   3
ATOM      3  C   UNL     1       1.710  -2.271  10.064  1.00  0.00     0.000 C 
BRANCH   3   4
ATOM      4  C   UNL     1       2.635  -3.438   9.671  1.00  0.00     0.000 C 
BRANCH   4   5
ATOM      5  C   UNL     1       2.144  -4.793  10.206  1.00  0.00     0.000 C 
BRANCH   5   6
ATOM      6  C   UNL     1       1.325  -5.584   9.171  1.00  0.00     0.000 C 
BRANCH   6   7
ATOM      7  C   UNL     1      -0.190  -5.640   9.449  1.00  0.00     0.000 C 
BRANCH   7   8
ATOM      8  C   UNL     1      -0.838  -7.030   9.283  1.00  0.00     0.000 C 
BRANCH   8   9
ATOM      9  C   UNL     1      -0.567  -8.021  10.433  1.00  0.00     0.000 C 
BRANCH   9  10
ATOM     10  C   UNL     1      -0.049  -7.383  11.735  1.00  0.00     0.000 C 
BRANCH  10  11
ATOM     11  C   UNL     1       1.359  -7.870  12.115  1.00  0.00     0.000 C 
BRANCH  11  12
ATOM     12  C   UNL     1       2.180  -8.328  10.897  1.00  0.00     0.000 C 
BRANCH  12  13
ATOM     13  C   UNL     1       3.707  -8.294  11.130  1.00  0.00     0.006 C 
BRANCH  13  14
ATOM     14  C   UNL     1       4.124  -7.128  12.041  1.00  0.00     0.053 C 
BRANCH  14  15
ATOM     15  C   UNL     1       5.557  -7.258  12.452  1.00  0.00     0.041 C 
ATOM     16  O   UNL     1       5.917  -8.206  13.199  1.00  0.00    -0.550 OA
ATOM     17  O   UNL     1       6.494  -6.329  12.016  1.00  0.00    -0.550 OA
ENDBRANCH  14  15
ENDBRANCH  13  14
ENDBRANCH  12  13
ENDBRANCH  11  12
ENDBRANCH  10  11
ENDBRANCH   9  10
ENDBRANCH   8   9
ENDBRANCH   7   8
ENDBRANCH   6   7
ENDBRANCH   5   6
ENDBRANCH   4   5
ENDBRANCH   3   4
ENDBRANCH   2   3
ENDBRANCH   1   2
BRANCH   1  18
ATOM     18  C   UNL     1       0.374   0.884   9.419  1.00  0.00     0.000 C 
BRANCH  18  19
ATOM     19  C   UNL     1       0.691   2.343   9.055  1.00  0.00     0.000 C 
BRANCH  19  20
ATOM     20  C   UNL     1       2.202   2.650   9.038  1.00  0.00     0.000 C 
BRANCH  20  21
ATOM     21  C   UNL     1       2.620   3.857   9.904  1.00  0.00     0.000 C 
BRANCH  21  22
ATOM     22  C   UNL     1       4.052   3.807  10.465  1.00  0.00     0.000 C 
BRANCH  22  23
ATOM     23  C   UNL     1       4.199   4.567  11.795  1.00  0.00     0.000 C 
BRANCH  23  24
ATOM     24  C   UNL     1       3.704   6.022  11.705  1.00  0.00    -0.000 C 
BRANCH  24  25
ATOM     25  C   UNL     1       2.585   6.374  12.705  1.00  0.00    -0.000 C 
BRANCH  25  26
ATOM     26  C   UNL     1       2.821   5.897  14.152  1.00  0.00    -0.000 C 
BRANCH  26  27
ATOM     27  C   UNL     1       3.763   6.804  14.972  1.00  0.00    -0.000 C 
BRANCH  27  28
ATOM     28  C   UNL     1       4.057   6.226  16.366  1.00  0.00    -0.000 C 
BRANCH  28  29
ATOM     29  C   UNL     1       2.910   5.320  16.843  1.00  0.00    -0.000 C 
BRANCH  29  30
ATOM     30  C   UNL     1       2.149   5.912  18.039  1.00  0.00    -0.000 C 
BRANCH  30  31
ATOM     31  C   UNL     1       1.282   4.872  18.766  1.00  0.00    -0.003 C 
ATOM     32  C   UNL     1       1.796   3.458  18.517  1.00  0.00     0.004 C 
ENDBRANCH  30  31
ENDBRANCH  29  30
ENDBRANCH  28  29
ENDBRANCH  27  28
ENDBRANCH  26  27
ENDBRANCH  25  26
ENDBRANCH  24  25
ENDBRANCH  23  24
ENDBRANCH  22  23
ENDBRANCH  21  22
ENDBRANCH  20  21
ENDBRANCH  19  20
ENDBRANCH  18  19
ENDBRANCH   1  18
TORSDOF 28
ENDMDL
