MODEL 1
REMARK VINA RESULT:    -4.733      0.000      0.000
REMARK INTER + INTRA:          -8.597
REMARK INTER:                  -6.393
REMARK INTRA:                  -2.204
REMARK UNBOUND:                -2.204
REMARK SMILES CC[C@H](CC[C@H](C)[C@H]1CC[C@@H]2[C@@H]3CC(=O)C4=CC(=O)CC[C@@]4(C)[C@@H]3CC[C@]21C)C(C)C
REMARK SMILES IDX 4 1 3 2 2 3 1 4 29 5 30 6 31 7 5 8 6 9 7 10 8 11 9 12 27 13
REMARK SMILES IDX 10 14 11 15 26 16 28 17 12 18 25 19 24 20 13 21 22 22 14 23
REMARK SMILES IDX 16 24 21 25 23 26 15 27 17 28 20 29 18 30 19 31
REMARK H PARENT
REMARK Flexibility Score: inf
ROOT
ATOM      1  C   UNL     1      71.937  73.864  21.807  1.00  0.00     0.004 C 
ENDROOT
BRANCH   1   2
ATOM      2  C   UNL     1      72.015  73.792  23.357  1.00  0.00    -0.009 C 
BRANCH   2   3
ATOM      3  C   UNL     1      71.614  75.159  23.985  1.00  0.00     0.000 C 
ATOM      4  C   UNL     1      72.597  75.682  25.030  1.00  0.00     0.004 C 
ENDBRANCH   2   3
BRANCH   2   5
ATOM      5  C   UNL     1      71.188  72.557  23.870  1.00  0.00    -0.014 C 
ATOM      6  C   UNL     1      70.718  72.682  25.327  1.00  0.00     0.007 C 
ATOM      7  C   UNL     1      71.905  71.216  23.640  1.00  0.00     0.007 C 
ENDBRANCH   2   5
ENDBRANCH   1   2
BRANCH   1   8
ATOM      8  C   UNL     1      72.761  75.022  21.193  1.00  0.00     0.004 C 
BRANCH   8   9
ATOM      9  C   UNL     1      73.948  74.553  20.303  1.00  0.00    -0.011 C 
ATOM     10  C   UNL     1      73.695  73.086  19.885  1.00  0.00     0.008 C 
BRANCH   9  11
ATOM     11  C   UNL     1      75.342  74.830  20.986  1.00  0.00    -0.002 C 
ATOM     12  C   UNL     1      75.465  76.230  21.655  1.00  0.00     0.005 C 
ATOM     13  C   UNL     1      75.854  73.821  22.074  1.00  0.00    -0.026 C 
ATOM     14  C   UNL     1      75.735  76.006  23.152  1.00  0.00     0.005 C 
ATOM     15  C   UNL     1      75.441  74.529  23.367  1.00  0.00    -0.001 C 
ATOM     16  C   UNL     1      75.242  72.395  22.087  1.00  0.00     0.007 C 
ATOM     17  C   UNL     1      77.402  73.707  21.892  1.00  0.00     0.012 C 
ATOM     18  C   UNL     1      75.832  73.841  24.697  1.00  0.00     0.004 C 
ATOM     19  C   UNL     1      75.654  71.603  23.352  1.00  0.00     0.005 C 
ATOM     20  C   UNL     1      75.375  72.345  24.702  1.00  0.00     0.003 C 
ATOM     21  C   UNL     1      77.281  74.002  25.185  1.00  0.00     0.085 C 
ATOM     22  C   UNL     1      75.827  71.536  26.012  1.00  0.00    -0.000 C 
ATOM     23  C   UNL     1      77.337  73.570  26.615  1.00  0.00     0.159 C 
ATOM     24  C   UNL     1      76.472  72.453  27.069  1.00  0.00     0.005 C 
ATOM     25  C   UNL     1      74.558  70.859  26.620  1.00  0.00     0.020 C 
ATOM     26  C   UNL     1      76.886  70.443  25.699  1.00  0.00     0.017 C 
ATOM     27  O   UNL     1      78.123  74.152  27.411  1.00  0.00    -0.295 OA
ATOM     28  C   UNL     1      76.377  72.176  28.384  1.00  0.00     0.055 C 
ATOM     29  C   UNL     1      74.820  70.155  27.955  1.00  0.00     0.081 C 
ATOM     30  C   UNL     1      75.585  71.044  28.889  1.00  0.00     0.156 C 
ATOM     31  O   UNL     1      75.565  70.806  30.129  1.00  0.00    -0.295 OA
ENDBRANCH   9  11
ENDBRANCH   8   9
ENDBRANCH   1   8
TORSDOF 6
ENDMDL
MODEL 2
REMARK VINA RESULT:    -4.480      2.598      6.805
REMARK INTER + INTRA:          -8.256
REMARK INTER:                  -6.225
REMARK INTRA:                  -2.031
REMARK UNBOUND:                -2.204
REMARK SMILES CC[C@H](CC[C@H](C)[C@H]1CC[C@@H]2[C@@H]3CC(=O)C4=CC(=O)CC[C@@]4(C)[C@@H]3CC[C@]21C)C(C)C
REMARK SMILES IDX 4 1 3 2 2 3 1 4 29 5 30 6 31 7 5 8 6 9 7 10 8 11 9 12 27 13
REMARK SMILES IDX 10 14 11 15 26 16 28 17 12 18 25 19 24 20 13 21 22 22 14 23
REMARK SMILES IDX 16 24 21 25 23 26 15 27 17 28 20 29 18 30 19 31
REMARK H PARENT
REMARK Flexibility Score: inf
ROOT
ATOM      1  C   UNL     1      76.009  70.875  29.418  1.00  0.00     0.004 C 
ENDROOT
BRANCH   1   2
ATOM      2  C   UNL     1      75.807  70.014  28.141  1.00  0.00    -0.009 C 
BRANCH   2   3
ATOM      3  C   UNL     1      74.864  68.811  28.440  1.00  0.00     0.000 C 
ATOM      4  C   UNL     1      74.623  68.558  29.926  1.00  0.00     0.004 C 
ENDBRANCH   2   3
BRANCH   2   5
ATOM      5  C   UNL     1      75.351  70.935  26.951  1.00  0.00    -0.014 C 
ATOM      6  C   UNL     1      73.873  70.775  26.567  1.00  0.00     0.007 C 
ATOM      7  C   UNL     1      76.254  70.809  25.713  1.00  0.00     0.007 C 
ENDBRANCH   2   5
ENDBRANCH   1   2
BRANCH   1   8
ATOM      8  C   UNL     1      76.923  72.106  29.204  1.00  0.00     0.004 C 
BRANCH   8   9
ATOM      9  C   UNL     1      76.494  73.363  30.014  1.00  0.00    -0.011 C 
ATOM     10  C   UNL     1      75.061  73.134  30.549  1.00  0.00     0.008 C 
BRANCH   9  11
ATOM     11  C   UNL     1      76.702  74.693  29.193  1.00  0.00    -0.002 C 
ATOM     12  C   UNL     1      78.125  74.859  28.585  1.00  0.00     0.005 C 
ATOM     13  C   UNL     1      75.722  74.998  28.005  1.00  0.00    -0.026 C 
ATOM     14  C   UNL     1      77.969  74.946  27.057  1.00  0.00     0.005 C 
ATOM     15  C   UNL     1      76.535  74.508  26.804  1.00  0.00    -0.001 C 
ATOM     16  C   UNL     1      74.351  74.273  27.989  1.00  0.00     0.007 C 
ATOM     17  C   UNL     1      75.479  76.542  28.005  1.00  0.00     0.012 C 
ATOM     18  C   UNL     1      75.898  74.694  25.405  1.00  0.00     0.004 C 
ATOM     19  C   UNL     1      73.605  74.478  26.648  1.00  0.00     0.005 C 
ATOM     20  C   UNL     1      74.445  74.117  25.377  1.00  0.00     0.003 C 
ATOM     21  C   UNL     1      75.976  76.089  24.765  1.00  0.00     0.085 C 
ATOM     22  C   UNL     1      73.682  74.355  23.985  1.00  0.00    -0.000 C 
ATOM     23  C   UNL     1      75.626  75.954  23.318  1.00  0.00     0.159 C 
ATOM     24  C   UNL     1      74.607  74.955  22.909  1.00  0.00     0.005 C 
ATOM     25  C   UNL     1      73.141  72.976  23.491  1.00  0.00     0.020 C 
ATOM     26  C   UNL     1      72.494  75.347  24.122  1.00  0.00     0.017 C 
ATOM     27  O   UNL     1      76.191  76.695  22.468  1.00  0.00    -0.295 OA
ATOM     28  C   UNL     1      74.417  74.695  21.601  1.00  0.00     0.055 C 
ATOM     29  C   UNL     1      72.499  73.032  22.102  1.00  0.00     0.081 C 
ATOM     30  C   UNL     1      73.381  73.762  21.133  1.00  0.00     0.156 C 
ATOM     31  O   UNL     1      73.218  73.587  19.893  1.00  0.00    -0.295 OA
ENDBRANCH   9  11
ENDBRANCH   8   9
ENDBRANCH   1   8
TORSDOF 6
ENDMDL
MODEL 3
REMARK VINA RESULT:    -4.383      1.747      4.152
REMARK INTER + INTRA:          -8.125
REMARK INTER:                  -6.391
REMARK INTRA:                  -1.733
REMARK UNBOUND:                -2.204
REMARK SMILES CC[C@H](CC[C@H](C)[C@H]1CC[C@@H]2[C@@H]3CC(=O)C4=CC(=O)CC[C@@]4(C)[C@@H]3CC[C@]21C)C(C)C
REMARK SMILES IDX 4 1 3 2 2 3 1 4 29 5 30 6 31 7 5 8 6 9 7 10 8 11 9 12 27 13
REMARK SMILES IDX 10 14 11 15 26 16 28 17 12 18 25 19 24 20 13 21 22 22 14 23
REMARK SMILES IDX 16 24 21 25 23 26 15 27 17 28 20 29 18 30 19 31
REMARK H PARENT
REMARK Flexibility Score: inf
ROOT
ATOM      1  C   UNL     1      75.883  75.037  21.147  1.00  0.00     0.004 C 
ENDROOT
BRANCH   1   2
ATOM      2  C   UNL     1      76.613  73.698  21.444  1.00  0.00    -0.009 C 
BRANCH   2   3
ATOM      3  C   UNL     1      77.362  73.778  22.807  1.00  0.00     0.000 C 
ATOM      4  C   UNL     1      77.705  75.199  23.251  1.00  0.00     0.004 C 
ENDBRANCH   2   3
BRANCH   2   5
ATOM      5  C   UNL     1      75.598  72.505  21.312  1.00  0.00    -0.014 C 
ATOM      6  C   UNL     1      76.110  71.182  21.901  1.00  0.00     0.007 C 
ATOM      7  C   UNL     1      75.090  72.302  19.875  1.00  0.00     0.007 C 
ENDBRANCH   2   5
ENDBRANCH   1   2
BRANCH   1   8
ATOM      8  C   UNL     1      74.390  74.865  20.772  1.00  0.00     0.004 C 
BRANCH   8   9
ATOM      9  C   UNL     1      73.430  75.820  21.538  1.00  0.00    -0.011 C 
ATOM     10  C   UNL     1      74.276  76.929  22.207  1.00  0.00     0.008 C 
BRANCH   9  11
ATOM     11  C   UNL     1      72.463  75.035  22.504  1.00  0.00    -0.002 C 
ATOM     12  C   UNL     1      71.820  73.763  21.878  1.00  0.00     0.005 C 
ATOM     13  C   UNL     1      73.020  74.558  23.893  1.00  0.00    -0.026 C 
ATOM     14  C   UNL     1      72.262  72.556  22.723  1.00  0.00     0.005 C 
ATOM     15  C   UNL     1      73.383  73.102  23.593  1.00  0.00    -0.001 C 
ATOM     16  C   UNL     1      74.282  75.266  24.451  1.00  0.00     0.007 C 
ATOM     17  C   UNL     1      71.854  74.711  24.923  1.00  0.00     0.012 C 
ATOM     18  C   UNL     1      73.935  72.262  24.771  1.00  0.00     0.004 C 
ATOM     19  C   UNL     1      74.853  74.534  25.690  1.00  0.00     0.005 C 
ATOM     20  C   UNL     1      75.117  73.006  25.475  1.00  0.00     0.003 C 
ATOM     21  C   UNL     1      72.924  71.700  25.782  1.00  0.00     0.085 C 
ATOM     22  C   UNL     1      75.684  72.240  26.766  1.00  0.00    -0.000 C 
ATOM     23  C   UNL     1      73.620  70.661  26.602  1.00  0.00     0.159 C 
ATOM     24  C   UNL     1      75.053  70.846  26.941  1.00  0.00     0.005 C 
ATOM     25  C   UNL     1      77.229  72.092  26.597  1.00  0.00     0.020 C 
ATOM     26  C   UNL     1      75.389  73.005  28.086  1.00  0.00     0.017 C 
ATOM     27  O   UNL     1      72.979  69.653  27.004  1.00  0.00    -0.295 OA
ATOM     28  C   UNL     1      75.736  69.838  27.517  1.00  0.00     0.055 C 
ATOM     29  C   UNL     1      77.889  71.260  27.701  1.00  0.00     0.081 C 
ATOM     30  C   UNL     1      77.140  69.982  27.930  1.00  0.00     0.156 C 
ATOM     31  O   UNL     1      77.720  69.018  28.505  1.00  0.00    -0.295 OA
ENDBRANCH   9  11
ENDBRANCH   8   9
ENDBRANCH   1   8
TORSDOF 6
ENDMDL
MODEL 4
REMARK VINA RESULT:    -4.128      2.897      6.977
REMARK INTER + INTRA:          -7.780
REMARK INTER:                  -5.484
REMARK INTRA:                  -2.296
REMARK UNBOUND:                -2.204
REMARK SMILES CC[C@H](CC[C@H](C)[C@H]1CC[C@@H]2[C@@H]3CC(=O)C4=CC(=O)CC[C@@]4(C)[C@@H]3CC[C@]21C)C(C)C
REMARK SMILES IDX 4 1 3 2 2 3 1 4 29 5 30 6 31 7 5 8 6 9 7 10 8 11 9 12 27 13
REMARK SMILES IDX 10 14 11 15 26 16 28 17 12 18 25 19 24 20 13 21 22 22 14 23
REMARK SMILES IDX 16 24 21 25 23 26 15 27 17 28 20 29 18 30 19 31
REMARK H PARENT
REMARK Flexibility Score: inf
ROOT
ATOM      1  C   UNL     1      76.410  74.126  29.219  1.00  0.00     0.004 C 
ENDROOT
BRANCH   1   2
ATOM      2  C   UNL     1      76.160  74.927  27.911  1.00  0.00    -0.009 C 
BRANCH   2   3
ATOM      3  C   UNL     1      74.633  75.084  27.654  1.00  0.00     0.000 C 
ATOM      4  C   UNL     1      74.286  75.991  26.475  1.00  0.00     0.004 C 
ENDBRANCH   2   3
BRANCH   2   5
ATOM      5  C   UNL     1      76.969  76.275  27.957  1.00  0.00    -0.014 C 
ATOM      6  C   UNL     1      77.966  76.444  26.802  1.00  0.00     0.007 C 
ATOM      7  C   UNL     1      77.654  76.520  29.312  1.00  0.00     0.007 C 
ENDBRANCH   2   5
ENDBRANCH   1   2
BRANCH   1   8
ATOM      8  C   UNL     1      75.710  72.744  29.248  1.00  0.00     0.004 C 
BRANCH   8   9
ATOM      9  C   UNL     1      76.669  71.543  29.008  1.00  0.00    -0.011 C 
ATOM     10  C   UNL     1      78.125  72.057  29.086  1.00  0.00     0.008 C 
BRANCH   9  11
ATOM     11  C   UNL     1      76.302  70.749  27.696  1.00  0.00    -0.002 C 
ATOM     12  C   UNL     1      74.785  70.443  27.530  1.00  0.00     0.005 C 
ATOM     13  C   UNL     1      76.742  71.350  26.313  1.00  0.00    -0.026 C 
ATOM     14  C   UNL     1      74.314  71.122  26.233  1.00  0.00     0.005 C 
ATOM     15  C   UNL     1      75.458  72.053  25.863  1.00  0.00    -0.001 C 
ATOM     16  C   UNL     1      77.891  72.391  26.306  1.00  0.00     0.007 C 
ATOM     17  C   UNL     1      77.143  70.143  25.405  1.00  0.00     0.012 C 
ATOM     18  C   UNL     1      75.487  72.740  24.476  1.00  0.00     0.004 C 
ATOM     19  C   UNL     1      78.045  73.071  24.923  1.00  0.00     0.005 C 
ATOM     20  C   UNL     1      76.724  73.690  24.355  1.00  0.00     0.003 C 
ATOM     21  C   UNL     1      75.320  71.851  23.234  1.00  0.00     0.085 C 
ATOM     22  C   UNL     1      76.876  74.371  22.910  1.00  0.00    -0.000 C 
ATOM     23  C   UNL     1      75.032  72.738  22.066  1.00  0.00     0.159 C 
ATOM     24  C   UNL     1      75.671  74.076  21.997  1.00  0.00     0.005 C 
ATOM     25  C   UNL     1      77.003  75.914  23.116  1.00  0.00     0.020 C 
ATOM     26  C   UNL     1      78.125  73.858  22.141  1.00  0.00     0.017 C 
ATOM     27  O   UNL     1      74.261  72.334  21.153  1.00  0.00    -0.295 OA
ATOM     28  C   UNL     1      75.280  74.952  21.052  1.00  0.00     0.055 C 
ATOM     29  C   UNL     1      77.024  76.707  21.806  1.00  0.00     0.081 C 
ATOM     30  C   UNL     1      75.918  76.268  20.895  1.00  0.00     0.156 C 
ATOM     31  O   UNL     1      75.540  77.034  19.965  1.00  0.00    -0.295 OA
ENDBRANCH   9  11
ENDBRANCH   8   9
ENDBRANCH   1   8
TORSDOF 6
ENDMDL
MODEL 5
REMARK VINA RESULT:    -4.067      1.470      2.871
REMARK INTER + INTRA:          -7.698
REMARK INTER:                  -5.797
REMARK INTRA:                  -1.901
REMARK UNBOUND:                -2.204
REMARK SMILES CC[C@H](CC[C@H](C)[C@H]1CC[C@@H]2[C@@H]3CC(=O)C4=CC(=O)CC[C@@]4(C)[C@@H]3CC[C@]21C)C(C)C
REMARK SMILES IDX 4 1 3 2 2 3 1 4 29 5 30 6 31 7 5 8 6 9 7 10 8 11 9 12 27 13
REMARK SMILES IDX 10 14 11 15 26 16 28 17 12 18 25 19 24 20 13 21 22 22 14 23
REMARK SMILES IDX 16 24 21 25 23 26 15 27 17 28 20 29 18 30 19 31
REMARK H PARENT
REMARK Flexibility Score: inf
ROOT
ATOM      1  C   UNL     1      73.356  74.064  21.086  1.00  0.00     0.004 C 
ENDROOT
BRANCH   1   2
ATOM      2  C   UNL     1      73.179  72.743  21.883  1.00  0.00    -0.009 C 
BRANCH   2   3
ATOM      3  C   UNL     1      74.562  72.201  22.351  1.00  0.00     0.000 C 
ATOM      4  C   UNL     1      75.212  71.220  21.378  1.00  0.00     0.004 C 
ENDBRANCH   2   3
BRANCH   2   5
ATOM      5  C   UNL     1      72.126  72.957  23.031  1.00  0.00    -0.014 C 
ATOM      6  C   UNL     1      71.719  71.665  23.755  1.00  0.00     0.007 C 
ATOM      7  C   UNL     1      70.885  73.739  22.571  1.00  0.00     0.007 C 
ENDBRANCH   2   5
ENDBRANCH   1   2
BRANCH   1   8
ATOM      8  C   UNL     1      74.685  74.802  21.386  1.00  0.00     0.004 C 
BRANCH   8   9
ATOM      9  C   UNL     1      74.531  76.341  21.551  1.00  0.00    -0.011 C 
ATOM     10  C   UNL     1      75.514  77.037  20.581  1.00  0.00     0.008 C 
BRANCH   9  11
ATOM     11  C   UNL     1      74.644  76.786  23.060  1.00  0.00    -0.002 C 
ATOM     12  C   UNL     1      73.277  76.975  23.779  1.00  0.00     0.005 C 
ATOM     13  C   UNL     1      75.491  75.898  24.039  1.00  0.00    -0.026 C 
ATOM     14  C   UNL     1      73.234  75.989  24.960  1.00  0.00     0.005 C 
ATOM     15  C   UNL     1      74.403  75.051  24.703  1.00  0.00    -0.001 C 
ATOM     16  C   UNL     1      76.542  74.938  23.423  1.00  0.00     0.007 C 
ATOM     17  C   UNL     1      76.211  76.874  25.025  1.00  0.00     0.012 C 
ATOM     18  C   UNL     1      74.860  74.058  25.799  1.00  0.00     0.004 C 
ATOM     19  C   UNL     1      77.117  73.959  24.476  1.00  0.00     0.005 C 
ATOM     20  C   UNL     1      76.035  73.164  25.281  1.00  0.00     0.003 C 
ATOM     21  C   UNL     1      75.142  74.622  27.201  1.00  0.00     0.085 C 
ATOM     22  C   UNL     1      76.628  72.170  26.392  1.00  0.00    -0.000 C 
ATOM     23  C   UNL     1      75.221  73.473  28.154  1.00  0.00     0.159 C 
ATOM     24  C   UNL     1      75.801  72.187  27.691  1.00  0.00     0.005 C 
ATOM     25  C   UNL     1      76.626  70.726  25.796  1.00  0.00     0.020 C 
ATOM     26  C   UNL     1      78.078  72.544  26.810  1.00  0.00     0.017 C 
ATOM     27  O   UNL     1      74.808  73.615  29.337  1.00  0.00    -0.295 OA
ATOM     28  C   UNL     1      75.711  71.096  28.476  1.00  0.00     0.055 C 
ATOM     29  C   UNL     1      77.048  69.649  26.800  1.00  0.00     0.081 C 
ATOM     30  C   UNL     1      76.318  69.811  28.099  1.00  0.00     0.156 C 
ATOM     31  O   UNL     1      76.239  68.831  28.892  1.00  0.00    -0.295 OA
ENDBRANCH   9  11
ENDBRANCH   8   9
ENDBRANCH   1   8
TORSDOF 6
ENDMDL
MODEL 6
REMARK VINA RESULT:    -3.956      1.320      1.980
REMARK INTER + INTRA:          -7.548
REMARK INTER:                  -5.599
REMARK INTRA:                  -1.948
REMARK UNBOUND:                -2.204
REMARK SMILES CC[C@H](CC[C@H](C)[C@H]1CC[C@@H]2[C@@H]3CC(=O)C4=CC(=O)CC[C@@]4(C)[C@@H]3CC[C@]21C)C(C)C
REMARK SMILES IDX 4 1 3 2 2 3 1 4 29 5 30 6 31 7 5 8 6 9 7 10 8 11 9 12 27 13
REMARK SMILES IDX 10 14 11 15 26 16 28 17 12 18 25 19 24 20 13 21 22 22 14 23
REMARK SMILES IDX 16 24 21 25 23 26 15 27 17 28 20 29 18 30 19 31
REMARK H PARENT
REMARK Flexibility Score: inf
ROOT
ATOM      1  C   UNL     1      72.190  72.611  22.363  1.00  0.00     0.004 C 
ENDROOT
BRANCH   1   2
ATOM      2  C   UNL     1      71.908  72.546  23.889  1.00  0.00    -0.009 C 
BRANCH   2   3
ATOM      3  C   UNL     1      72.979  71.669  24.603  1.00  0.00     0.000 C 
ATOM      4  C   UNL     1      72.453  70.900  25.813  1.00  0.00     0.004 C 
ENDBRANCH   2   3
BRANCH   2   5
ATOM      5  C   UNL     1      71.755  74.004  24.459  1.00  0.00    -0.014 C 
ATOM      6  C   UNL     1      72.485  74.234  25.791  1.00  0.00     0.007 C 
ATOM      7  C   UNL     1      70.291  74.463  24.553  1.00  0.00     0.007 C 
ENDBRANCH   2   5
ENDBRANCH   1   2
BRANCH   1   8
ATOM      8  C   UNL     1      72.509  74.036  21.846  1.00  0.00     0.004 C 
BRANCH   8   9
ATOM      9  C   UNL     1      73.622  74.082  20.761  1.00  0.00    -0.011 C 
ATOM     10  C   UNL     1      73.926  72.634  20.311  1.00  0.00     0.008 C 
BRANCH   9  11
ATOM     11  C   UNL     1      74.873  74.917  21.234  1.00  0.00    -0.002 C 
ATOM     12  C   UNL     1      74.544  76.370  21.685  1.00  0.00     0.005 C 
ATOM     13  C   UNL     1      75.768  74.335  22.385  1.00  0.00    -0.026 C 
ATOM     14  C   UNL     1      74.965  76.505  23.157  1.00  0.00     0.005 C 
ATOM     15  C   UNL     1      75.214  75.073  23.606  1.00  0.00    -0.001 C 
ATOM     16  C   UNL     1      75.690  72.811  22.665  1.00  0.00     0.007 C 
ATOM     17  C   UNL     1      77.245  74.714  22.043  1.00  0.00     0.012 C 
ATOM     18  C   UNL     1      75.900  74.790  24.965  1.00  0.00     0.004 C 
ATOM     19  C   UNL     1      76.427  72.427  23.971  1.00  0.00     0.005 C 
ATOM     20  C   UNL     1      75.991  73.251  25.229  1.00  0.00     0.003 C 
ATOM     21  C   UNL     1      77.230  75.504  25.257  1.00  0.00     0.085 C 
ATOM     22  C   UNL     1      76.774  72.872  26.577  1.00  0.00    -0.000 C 
ATOM     23  C   UNL     1      77.519  75.363  26.716  1.00  0.00     0.159 C 
ATOM     24  C   UNL     1      77.124  74.115  27.416  1.00  0.00     0.005 C 
ATOM     25  C   UNL     1      75.858  71.924  27.415  1.00  0.00     0.020 C 
ATOM     26  C   UNL     1      78.125  72.157  26.298  1.00  0.00     0.017 C 
ATOM     27  O   UNL     1      78.102  76.299  27.329  1.00  0.00    -0.295 OA
ATOM     28  C   UNL     1      77.211  74.050  28.759  1.00  0.00     0.055 C 
ATOM     29  C   UNL     1      76.428  71.584  28.795  1.00  0.00     0.081 C 
ATOM     30  C   UNL     1      76.893  72.821  29.503  1.00  0.00     0.156 C 
ATOM     31  O   UNL     1      77.031  72.803  30.758  1.00  0.00    -0.295 OA
ENDBRANCH   9  11
ENDBRANCH   8   9
ENDBRANCH   1   8
TORSDOF 6
ENDMDL
MODEL 7
REMARK VINA RESULT:    -3.782      2.700      7.001
REMARK INTER + INTRA:          -7.313
REMARK INTER:                  -6.232
REMARK INTRA:                  -1.081
REMARK UNBOUND:                -2.204
REMARK SMILES CC[C@H](CC[C@H](C)[C@H]1CC[C@@H]2[C@@H]3CC(=O)C4=CC(=O)CC[C@@]4(C)[C@@H]3CC[C@]21C)C(C)C
REMARK SMILES IDX 4 1 3 2 2 3 1 4 29 5 30 6 31 7 5 8 6 9 7 10 8 11 9 12 27 13
REMARK SMILES IDX 10 14 11 15 26 16 28 17 12 18 25 19 24 20 13 21 22 22 14 23
REMARK SMILES IDX 16 24 21 25 23 26 15 27 17 28 20 29 18 30 19 31
REMARK H PARENT
REMARK Flexibility Score: inf
ROOT
ATOM      1  C   UNL     1      75.542  70.806  29.480  1.00  0.00     0.004 C 
ENDROOT
BRANCH   1   2
ATOM      2  C   UNL     1      75.710  69.766  28.339  1.00  0.00    -0.009 C 
BRANCH   2   3
ATOM      3  C   UNL     1      77.180  69.253  28.282  1.00  0.00     0.000 C 
ATOM      4  C   UNL     1      77.723  69.064  26.868  1.00  0.00     0.004 C 
ENDBRANCH   2   3
BRANCH   2   5
ATOM      5  C   UNL     1      74.620  68.642  28.485  1.00  0.00    -0.014 C 
ATOM      6  C   UNL     1      73.295  68.962  27.777  1.00  0.00     0.007 C 
ATOM      7  C   UNL     1      74.374  68.230  29.946  1.00  0.00     0.007 C 
ENDBRANCH   2   5
ENDBRANCH   1   2
BRANCH   1   8
ATOM      8  C   UNL     1      76.867  71.487  29.905  1.00  0.00     0.004 C 
BRANCH   8   9
ATOM      9  C   UNL     1      76.769  73.033  30.043  1.00  0.00    -0.011 C 
ATOM     10  C   UNL     1      75.344  73.391  30.526  1.00  0.00     0.008 C 
BRANCH   9  11
ATOM     11  C   UNL     1      77.243  73.774  28.734  1.00  0.00    -0.002 C 
ATOM     12  C   UNL     1      78.124  72.908  27.787  1.00  0.00     0.005 C 
ATOM     13  C   UNL     1      76.152  74.406  27.798  1.00  0.00    -0.026 C 
ATOM     14  C   UNL     1      77.390  72.801  26.440  1.00  0.00     0.005 C 
ATOM     15  C   UNL     1      75.990  73.314  26.737  1.00  0.00    -0.001 C 
ATOM     16  C   UNL     1      74.756  74.701  28.405  1.00  0.00     0.007 C 
ATOM     17  C   UNL     1      76.754  75.735  27.237  1.00  0.00     0.012 C 
ATOM     18  C   UNL     1      75.004  73.604  25.579  1.00  0.00     0.004 C 
ATOM     19  C   UNL     1      73.723  75.084  27.317  1.00  0.00     0.005 C 
ATOM     20  C   UNL     1      73.615  74.062  26.136  1.00  0.00     0.003 C 
ATOM     21  C   UNL     1      75.492  74.507  24.435  1.00  0.00     0.085 C 
ATOM     22  C   UNL     1      72.566  74.472  24.994  1.00  0.00    -0.000 C 
ATOM     23  C   UNL     1      74.536  74.366  23.295  1.00  0.00     0.159 C 
ATOM     24  C   UNL     1      73.093  74.165  23.580  1.00  0.00     0.005 C 
ATOM     25  C   UNL     1      71.249  73.668  25.241  1.00  0.00     0.020 C 
ATOM     26  C   UNL     1      72.241  75.992  25.004  1.00  0.00     0.017 C 
ATOM     27  O   UNL     1      74.965  74.430  22.111  1.00  0.00    -0.295 OA
ATOM     28  C   UNL     1      72.253  73.853  22.574  1.00  0.00     0.055 C 
ATOM     29  C   UNL     1      70.197  73.864  24.145  1.00  0.00     0.081 C 
ATOM     30  C   UNL     1      70.805  73.703  22.784  1.00  0.00     0.156 C 
ATOM     31  O   UNL     1      70.058  73.451  21.797  1.00  0.00    -0.295 OA
ENDBRANCH   9  11
ENDBRANCH   8   9
ENDBRANCH   1   8
TORSDOF 6
ENDMDL
MODEL 8
REMARK VINA RESULT:    -3.622      1.986      2.844
REMARK INTER + INTRA:          -7.097
REMARK INTER:                  -5.591
REMARK INTRA:                  -1.506
REMARK UNBOUND:                -2.204
REMARK SMILES CC[C@H](CC[C@H](C)[C@H]1CC[C@@H]2[C@@H]3CC(=O)C4=CC(=O)CC[C@@]4(C)[C@@H]3CC[C@]21C)C(C)C
REMARK SMILES IDX 4 1 3 2 2 3 1 4 29 5 30 6 31 7 5 8 6 9 7 10 8 11 9 12 27 13
REMARK SMILES IDX 10 14 11 15 26 16 28 17 12 18 25 19 24 20 13 21 22 22 14 23
REMARK SMILES IDX 16 24 21 25 23 26 15 27 17 28 20 29 18 30 19 31
REMARK H PARENT
REMARK Flexibility Score: inf
ROOT
ATOM      1  C   UNL     1      72.652  72.927  22.039  1.00  0.00     0.004 C 
ENDROOT
BRANCH   1   2
ATOM      2  C   UNL     1      72.014  73.159  23.437  1.00  0.00    -0.009 C 
BRANCH   2   3
ATOM      3  C   UNL     1      70.544  73.652  23.289  1.00  0.00     0.000 C 
ATOM      4  C   UNL     1      70.085  74.596  24.398  1.00  0.00     0.004 C 
ENDBRANCH   2   3
BRANCH   2   5
ATOM      5  C   UNL     1      72.196  71.871  24.320  1.00  0.00    -0.014 C 
ATOM      6  C   UNL     1      71.433  70.644  23.800  1.00  0.00     0.007 C 
ATOM      7  C   UNL     1      71.892  72.113  25.808  1.00  0.00     0.007 C 
ENDBRANCH   2   5
ENDBRANCH   1   2
BRANCH   1   8
ATOM      8  C   UNL     1      73.997  73.668  21.836  1.00  0.00     0.004 C 
BRANCH   8   9
ATOM      9  C   UNL     1      73.856  75.066  21.169  1.00  0.00    -0.011 C 
ATOM     10  C   UNL     1      74.714  75.083  19.883  1.00  0.00     0.008 C 
BRANCH   9  11
ATOM     11  C   UNL     1      74.142  76.236  22.186  1.00  0.00    -0.002 C 
ATOM     12  C   UNL     1      72.874  77.008  22.654  1.00  0.00     0.005 C 
ATOM     13  C   UNL     1      74.916  75.902  23.510  1.00  0.00    -0.026 C 
ATOM     14  C   UNL     1      72.770  76.849  24.180  1.00  0.00     0.005 C 
ATOM     15  C   UNL     1      73.765  75.746  24.507  1.00  0.00    -0.001 C 
ATOM     16  C   UNL     1      75.766  74.605  23.547  1.00  0.00     0.007 C 
ATOM     17  C   UNL     1      75.842  77.124  23.813  1.00  0.00     0.012 C 
ATOM     18  C   UNL     1      74.148  75.454  25.979  1.00  0.00     0.004 C 
ATOM     19  C   UNL     1      76.264  74.281  24.977  1.00  0.00     0.005 C 
ATOM     20  C   UNL     1      75.136  74.243  26.063  1.00  0.00     0.003 C 
ATOM     21  C   UNL     1      74.611  76.636  26.845  1.00  0.00     0.085 C 
ATOM     22  C   UNL     1      75.654  73.936  27.550  1.00  0.00    -0.000 C 
ATOM     23  C   UNL     1      74.587  76.198  28.274  1.00  0.00     0.159 C 
ATOM     24  C   UNL     1      74.934  74.794  28.607  1.00  0.00     0.005 C 
ATOM     25  C   UNL     1      75.394  72.424  27.846  1.00  0.00     0.020 C 
ATOM     26  C   UNL     1      77.169  74.234  27.724  1.00  0.00     0.017 C 
ATOM     27  O   UNL     1      74.286  77.027  29.175  1.00  0.00    -0.295 OA
ATOM     28  C   UNL     1      74.740  74.340  29.861  1.00  0.00     0.055 C 
ATOM     29  C   UNL     1      75.723  72.017  29.286  1.00  0.00     0.081 C 
ATOM     30  C   UNL     1      75.121  72.978  30.266  1.00  0.00     0.156 C 
ATOM     31  O   UNL     1      74.955  72.619  31.465  1.00  0.00    -0.295 OA
ENDBRANCH   9  11
ENDBRANCH   8   9
ENDBRANCH   1   8
TORSDOF 6
ENDMDL
