MODEL 1
REMARK VINA RESULT:    -4.547      0.000      0.000
REMARK INTER + INTRA:          -5.745
REMARK INTER:                  -5.477
REMARK INTRA:                  -0.269
REMARK UNBOUND:                -0.269
REMARK SMILES NC(=O)C[C@@H]([NH3+])C(=O)[O-]
REMARK SMILES IDX 4 1 5 2 6 3 7 7 8 8 9 9 2 10 3 11 1 12
REMARK H PARENT 6 4 6 5 6 6 1 13 1 14
REMARK Flexibility Score: inf
ROOT
ATOM      1  C   UNL     1     -23.448 -23.085 -13.556  1.00  0.00     0.171 C 
ENDROOT
BRANCH   1   2
ATOM      2  C   UNL     1     -24.698 -23.513 -14.350  1.00  0.00     0.237 C 
BRANCH   2   3
ATOM      3  N   UNL     1     -24.696 -22.898 -15.683  1.00  0.00    -0.350 N 
ATOM      4  H   UNL     1     -25.473 -22.201 -15.754  1.00  0.00     0.345 HD
ATOM      5  H   UNL     1     -24.816 -23.624 -16.426  1.00  0.00     0.345 HD
ATOM      6  H   UNL     1     -23.792 -22.396 -15.840  1.00  0.00     0.345 HD
ENDBRANCH   2   3
BRANCH   2   7
ATOM      7  C   UNL     1     -24.778 -25.013 -14.469  1.00  0.00     0.100 C 
ATOM      8  O   UNL     1     -23.784 -25.732 -14.179  1.00  0.00    -0.544 OA
ATOM      9  O   UNL     1     -25.960 -25.615 -14.882  1.00  0.00    -0.544 OA
ENDBRANCH   2   7
ENDBRANCH   1   2
BRANCH   1  10
ATOM     10  C   UNL     1     -23.379 -21.593 -13.394  1.00  0.00     0.223 C 
ATOM     11  O   UNL     1     -24.440 -20.932 -13.232  1.00  0.00    -0.275 OA
ATOM     12  N   UNL     1     -22.119 -20.922 -13.383  1.00  0.00    -0.369 N 
ATOM     13  H   UNL     1     -22.074 -19.887 -13.255  1.00  0.00     0.159 HD
ATOM     14  H   UNL     1     -21.229 -21.457 -13.497  1.00  0.00     0.159 HD
ENDBRANCH   1  10
TORSDOF 4
ENDMDL
MODEL 2
REMARK VINA RESULT:    -4.489      1.883      4.280
REMARK INTER + INTRA:          -5.677
REMARK INTER:                  -5.396
REMARK INTRA:                  -0.281
REMARK UNBOUND:                -0.269
REMARK SMILES NC(=O)C[C@@H]([NH3+])C(=O)[O-]
REMARK SMILES IDX 4 1 5 2 6 3 7 7 8 8 9 9 2 10 3 11 1 12
REMARK H PARENT 6 4 6 5 6 6 1 13 1 14
REMARK Flexibility Score: inf
ROOT
ATOM      1  C   UNL     1     -25.711 -23.996 -13.797  1.00  0.00     0.171 C 
ENDROOT
BRANCH   1   2
ATOM      2  C   UNL     1     -24.910 -22.809 -14.365  1.00  0.00     0.237 C 
BRANCH   2   3
ATOM      3  N   UNL     1     -24.730 -22.956 -15.815  1.00  0.00    -0.350 N 
ATOM      4  H   UNL     1     -25.599 -23.351 -16.242  1.00  0.00     0.345 HD
ATOM      5  H   UNL     1     -23.924 -23.590 -16.025  1.00  0.00     0.345 HD
ATOM      6  H   UNL     1     -24.550 -22.021 -16.246  1.00  0.00     0.345 HD
ENDBRANCH   2   3
BRANCH   2   7
ATOM      7  C   UNL     1     -25.586 -21.498 -14.055  1.00  0.00     0.100 C 
ATOM      8  O   UNL     1     -26.106 -21.299 -12.924  1.00  0.00    -0.544 OA
ATOM      9  O   UNL     1     -25.624 -20.492 -15.012  1.00  0.00    -0.544 OA
ENDBRANCH   2   7
ENDBRANCH   1   2
BRANCH   1  10
ATOM     10  C   UNL     1     -25.453 -25.259 -14.568  1.00  0.00     0.223 C 
ATOM     11  O   UNL     1     -24.292 -25.746 -14.600  1.00  0.00    -0.275 OA
ATOM     12  N   UNL     1     -26.521 -25.933 -15.235  1.00  0.00    -0.369 N 
ATOM     13  H   UNL     1     -26.340 -26.819 -15.757  1.00  0.00     0.159 HD
ATOM     14  H   UNL     1     -27.494 -25.554 -15.203  1.00  0.00     0.159 HD
ENDBRANCH   1  10
TORSDOF 4
ENDMDL
MODEL 3
REMARK VINA RESULT:    -4.420      1.568      1.957
REMARK INTER + INTRA:          -5.593
REMARK INTER:                  -5.112
REMARK INTRA:                  -0.482
REMARK UNBOUND:                -0.269
REMARK SMILES NC(=O)C[C@@H]([NH3+])C(=O)[O-]
REMARK SMILES IDX 4 1 5 2 6 3 7 7 8 8 9 9 2 10 3 11 1 12
REMARK H PARENT 6 4 6 5 6 6 1 13 1 14
REMARK Flexibility Score: inf
ROOT
ATOM      1  C   UNL     1     -25.557 -22.319 -13.612  1.00  0.00     0.171 C 
ENDROOT
BRANCH   1   2
ATOM      2  C   UNL     1     -25.110 -23.515 -14.476  1.00  0.00     0.237 C 
BRANCH   2   3
ATOM      3  N   UNL     1     -24.740 -23.066 -15.824  1.00  0.00    -0.350 N 
ATOM      4  H   UNL     1     -23.969 -22.362 -15.764  1.00  0.00     0.345 HD
ATOM      5  H   UNL     1     -25.561 -22.637 -16.309  1.00  0.00     0.345 HD
ATOM      6  H   UNL     1     -24.397 -23.879 -16.386  1.00  0.00     0.345 HD
ENDBRANCH   2   3
BRANCH   2   7
ATOM      7  C   UNL     1     -23.959 -24.247 -13.836  1.00  0.00     0.100 C 
ATOM      8  O   UNL     1     -23.870 -25.502 -13.923  1.00  0.00    -0.544 OA
ATOM      9  O   UNL     1     -22.975 -23.538 -13.158  1.00  0.00    -0.544 OA
ENDBRANCH   2   7
ENDBRANCH   1   2
BRANCH   1  10
ATOM     10  C   UNL     1     -25.015 -21.022 -14.139  1.00  0.00     0.223 C 
ATOM     11  O   UNL     1     -25.723 -20.312 -14.902  1.00  0.00    -0.275 OA
ATOM     12  N   UNL     1     -23.718 -20.566 -13.753  1.00  0.00    -0.369 N 
ATOM     13  H   UNL     1     -23.351 -19.656 -14.109  1.00  0.00     0.159 HD
ATOM     14  H   UNL     1     -23.125 -21.132 -13.106  1.00  0.00     0.159 HD
ENDBRANCH   1  10
TORSDOF 4
ENDMDL
MODEL 4
REMARK VINA RESULT:    -4.388      1.674      2.047
REMARK INTER + INTRA:          -5.555
REMARK INTER:                  -5.081
REMARK INTRA:                  -0.474
REMARK UNBOUND:                -0.269
REMARK SMILES NC(=O)C[C@@H]([NH3+])C(=O)[O-]
REMARK SMILES IDX 4 1 5 2 6 3 7 7 8 8 9 9 2 10 3 11 1 12
REMARK H PARENT 6 4 6 5 6 6 1 13 1 14
REMARK Flexibility Score: inf
ROOT
ATOM      1  C   UNL     1     -25.352 -21.914 -13.432  1.00  0.00     0.171 C 
ENDROOT
BRANCH   1   2
ATOM      2  C   UNL     1     -24.980 -23.153 -14.270  1.00  0.00     0.237 C 
BRANCH   2   3
ATOM      3  N   UNL     1     -24.892 -22.803 -15.693  1.00  0.00    -0.350 N 
ATOM      4  H   UNL     1     -25.536 -23.412 -16.249  1.00  0.00     0.345 HD
ATOM      5  H   UNL     1     -23.914 -22.926 -16.044  1.00  0.00     0.345 HD
ATOM      6  H   UNL     1     -25.182 -21.808 -15.832  1.00  0.00     0.345 HD
ENDBRANCH   2   3
BRANCH   2   7
ATOM      7  C   UNL     1     -23.683 -23.757 -13.800  1.00  0.00     0.100 C 
ATOM      8  O   UNL     1     -22.758 -23.023 -13.357  1.00  0.00    -0.544 OA
ATOM      9  O   UNL     1     -23.504 -25.134 -13.835  1.00  0.00    -0.544 OA
ENDBRANCH   2   7
ENDBRANCH   1   2
BRANCH   1  10
ATOM     10  C   UNL     1     -24.979 -20.639 -14.132  1.00  0.00     0.223 C 
ATOM     11  O   UNL     1     -25.838 -20.033 -14.826  1.00  0.00    -0.275 OA
ATOM     12  N   UNL     1     -23.670 -20.088 -13.987  1.00  0.00    -0.369 N 
ATOM     13  H   UNL     1     -23.419 -19.193 -14.463  1.00  0.00     0.159 HD
ATOM     14  H   UNL     1     -22.952 -20.567 -13.399  1.00  0.00     0.159 HD
ENDBRANCH   1  10
TORSDOF 4
ENDMDL
MODEL 5
REMARK VINA RESULT:    -4.376      1.679      4.313
REMARK INTER + INTRA:          -5.540
REMARK INTER:                  -5.070
REMARK INTRA:                  -0.470
REMARK UNBOUND:                -0.269
REMARK SMILES NC(=O)C[C@@H]([NH3+])C(=O)[O-]
REMARK SMILES IDX 4 1 5 2 6 3 7 7 8 8 9 9 2 10 3 11 1 12
REMARK H PARENT 6 4 6 5 6 6 1 13 1 14
REMARK Flexibility Score: inf
ROOT
ATOM      1  C   UNL     1     -24.944 -22.051 -13.290  1.00  0.00     0.171 C 
ENDROOT
BRANCH   1   2
ATOM      2  C   UNL     1     -24.076 -20.782 -13.185  1.00  0.00     0.237 C 
BRANCH   2   3
ATOM      3  N   UNL     1     -22.676 -21.089 -13.505  1.00  0.00    -0.350 N 
ATOM      4  H   UNL     1     -22.612 -22.033 -13.950  1.00  0.00     0.345 HD
ATOM      5  H   UNL     1     -22.087 -21.075 -12.641  1.00  0.00     0.345 HD
ATOM      6  H   UNL     1     -22.306 -20.383 -14.183  1.00  0.00     0.345 HD
ENDBRANCH   2   3
BRANCH   2   7
ATOM      7  C   UNL     1     -24.592 -19.695 -14.091  1.00  0.00     0.100 C 
ATOM      8  O   UNL     1     -23.908 -18.656 -14.299  1.00  0.00    -0.544 OA
ATOM      9  O   UNL     1     -25.823 -19.839 -14.719  1.00  0.00    -0.544 OA
ENDBRANCH   2   7
ENDBRANCH   1   2
BRANCH   1  10
ATOM     10  C   UNL     1     -24.445 -22.977 -14.362  1.00  0.00     0.223 C 
ATOM     11  O   UNL     1     -23.678 -23.929 -14.058  1.00  0.00    -0.275 OA
ATOM     12  N   UNL     1     -24.863 -22.810 -15.717  1.00  0.00    -0.369 N 
ATOM     13  H   UNL     1     -24.525 -23.465 -16.457  1.00  0.00     0.159 HD
ATOM     14  H   UNL     1     -25.513 -22.038 -15.983  1.00  0.00     0.159 HD
ENDBRANCH   1  10
TORSDOF 4
ENDMDL
MODEL 6
REMARK VINA RESULT:    -4.353      2.008      3.160
REMARK INTER + INTRA:          -5.512
REMARK INTER:                  -5.132
REMARK INTRA:                  -0.380
REMARK UNBOUND:                -0.269
REMARK SMILES NC(=O)C[C@@H]([NH3+])C(=O)[O-]
REMARK SMILES IDX 4 1 5 2 6 3 7 7 8 8 9 9 2 10 3 11 1 12
REMARK H PARENT 6 4 6 5 6 6 1 13 1 14
REMARK Flexibility Score: inf
ROOT
ATOM      1  C   UNL     1     -23.528 -23.067 -13.629  1.00  0.00     0.171 C 
ENDROOT
BRANCH   1   2
ATOM      2  C   UNL     1     -24.709 -22.416 -14.374  1.00  0.00     0.237 C 
BRANCH   2   3
ATOM      3  N   UNL     1     -24.843 -22.982 -15.722  1.00  0.00    -0.350 N 
ATOM      4  H   UNL     1     -25.835 -22.905 -16.043  1.00  0.00     0.345 HD
ATOM      5  H   UNL     1     -24.555 -23.988 -15.730  1.00  0.00     0.345 HD
ATOM      6  H   UNL     1     -24.240 -22.450 -16.391  1.00  0.00     0.345 HD
ENDBRANCH   2   3
BRANCH   2   7
ATOM      7  C   UNL     1     -25.995 -22.586 -13.608  1.00  0.00     0.100 C 
ATOM      8  O   UNL     1     -26.182 -21.966 -12.526  1.00  0.00    -0.544 OA
ATOM      9  O   UNL     1     -26.993 -23.417 -14.100  1.00  0.00    -0.544 OA
ENDBRANCH   2   7
ENDBRANCH   1   2
BRANCH   1  10
ATOM     10  C   UNL     1     -23.804 -24.507 -13.305  1.00  0.00     0.223 C 
ATOM     11  O   UNL     1     -23.822 -25.364 -14.229  1.00  0.00    -0.275 OA
ATOM     12  N   UNL     1     -24.008 -24.921 -11.954  1.00  0.00    -0.369 N 
ATOM     13  H   UNL     1     -24.185 -25.926 -11.731  1.00  0.00     0.159 HD
ATOM     14  H   UNL     1     -23.978 -24.228 -11.173  1.00  0.00     0.159 HD
ENDBRANCH   1  10
TORSDOF 4
ENDMDL
MODEL 7
REMARK VINA RESULT:    -4.319      2.078      3.846
REMARK INTER + INTRA:          -5.472
REMARK INTER:                  -5.148
REMARK INTRA:                  -0.323
REMARK UNBOUND:                -0.269
REMARK SMILES NC(=O)C[C@@H]([NH3+])C(=O)[O-]
REMARK SMILES IDX 4 1 5 2 6 3 7 7 8 8 9 9 2 10 3 11 1 12
REMARK H PARENT 6 4 6 5 6 6 1 13 1 14
REMARK Flexibility Score: inf
ROOT
ATOM      1  C   UNL     1     -24.832 -24.562 -13.846  1.00  0.00     0.171 C 
ENDROOT
BRANCH   1   2
ATOM      2  C   UNL     1     -23.990 -23.465 -14.528  1.00  0.00     0.237 C 
BRANCH   2   3
ATOM      3  N   UNL     1     -24.692 -22.933 -15.702  1.00  0.00    -0.350 N 
ATOM      4  H   UNL     1     -24.196 -22.084 -16.058  1.00  0.00     0.345 HD
ATOM      5  H   UNL     1     -25.678 -22.680 -15.461  1.00  0.00     0.345 HD
ATOM      6  H   UNL     1     -24.701 -23.649 -16.465  1.00  0.00     0.345 HD
ENDBRANCH   2   3
BRANCH   2   7
ATOM      7  C   UNL     1     -23.666 -22.352 -13.565  1.00  0.00     0.100 C 
ATOM      8  O   UNL     1     -22.501 -21.874 -13.508  1.00  0.00    -0.544 OA
ATOM      9  O   UNL     1     -24.659 -21.833 -12.744  1.00  0.00    -0.544 OA
ENDBRANCH   2   7
ENDBRANCH   1   2
BRANCH   1  10
ATOM     10  C   UNL     1     -26.190 -24.688 -14.474  1.00  0.00     0.223 C 
ATOM     11  O   UNL     1     -27.017 -23.743 -14.370  1.00  0.00    -0.275 OA
ATOM     12  N   UNL     1     -26.539 -25.854 -15.221  1.00  0.00    -0.369 N 
ATOM     13  H   UNL     1     -27.479 -25.931 -15.669  1.00  0.00     0.159 HD
ATOM     14  H   UNL     1     -25.859 -26.638 -15.334  1.00  0.00     0.159 HD
ENDBRANCH   1  10
TORSDOF 4
ENDMDL
MODEL 8
REMARK VINA RESULT:    -4.260      2.010      3.815
REMARK INTER + INTRA:          -5.400
REMARK INTER:                  -4.916
REMARK INTRA:                  -0.484
REMARK UNBOUND:                -0.269
REMARK SMILES NC(=O)C[C@@H]([NH3+])C(=O)[O-]
REMARK SMILES IDX 4 1 5 2 6 3 7 7 8 8 9 9 2 10 3 11 1 12
REMARK H PARENT 6 4 6 5 6 6 1 13 1 14
REMARK Flexibility Score: inf
ROOT
ATOM      1  C   UNL     1     -25.825 -23.072 -13.380  1.00  0.00     0.171 C 
ENDROOT
BRANCH   1   2
ATOM      2  C   UNL     1     -24.634 -23.429 -12.469  1.00  0.00     0.237 C 
BRANCH   2   3
ATOM      3  N   UNL     1     -24.097 -24.750 -12.818  1.00  0.00    -0.350 N 
ATOM      4  H   UNL     1     -23.356 -25.025 -12.132  1.00  0.00     0.345 HD
ATOM      5  H   UNL     1     -23.688 -24.740 -13.781  1.00  0.00     0.345 HD
ATOM      6  H   UNL     1     -24.860 -25.464 -12.778  1.00  0.00     0.345 HD
ENDBRANCH   2   3
BRANCH   2   7
ATOM      7  C   UNL     1     -23.550 -22.385 -12.558  1.00  0.00     0.100 C 
ATOM      8  O   UNL     1     -23.520 -21.423 -11.743  1.00  0.00    -0.544 OA
ATOM      9  O   UNL     1     -22.565 -22.488 -13.531  1.00  0.00    -0.544 OA
ENDBRANCH   2   7
ENDBRANCH   1   2
BRANCH   1  10
ATOM     10  C   UNL     1     -25.670 -23.665 -14.751  1.00  0.00     0.223 C 
ATOM     11  O   UNL     1     -26.267 -24.735 -15.041  1.00  0.00    -0.275 OA
ATOM     12  N   UNL     1     -24.882 -23.004 -15.742  1.00  0.00    -0.369 N 
ATOM     13  H   UNL     1     -24.789 -23.411 -16.699  1.00  0.00     0.159 HD
ATOM     14  H   UNL     1     -24.396 -22.105 -15.525  1.00  0.00     0.159 HD
ENDBRANCH   1  10
TORSDOF 4
ENDMDL
MODEL 9
REMARK VINA RESULT:    -4.201      2.569      4.081
REMARK INTER + INTRA:          -5.329
REMARK INTER:                  -4.949
REMARK INTRA:                  -0.380
REMARK UNBOUND:                -0.269
REMARK SMILES NC(=O)C[C@@H]([NH3+])C(=O)[O-]
REMARK SMILES IDX 4 1 5 2 6 3 7 7 8 8 9 9 2 10 3 11 1 12
REMARK H PARENT 6 4 6 5 6 6 1 13 1 14
REMARK Flexibility Score: inf
ROOT
ATOM      1  C   UNL     1     -25.651 -20.780 -14.408  1.00  0.00     0.171 C 
ENDROOT
BRANCH   1   2
ATOM      2  C   UNL     1     -25.176 -20.547 -12.960  1.00  0.00     0.237 C 
BRANCH   2   3
ATOM      3  N   UNL     1     -26.118 -21.147 -12.007  1.00  0.00    -0.350 N 
ATOM      4  H   UNL     1     -25.591 -21.593 -11.221  1.00  0.00     0.345 HD
ATOM      5  H   UNL     1     -26.710 -21.869 -12.478  1.00  0.00     0.345 HD
ATOM      6  H   UNL     1     -26.737 -20.405 -11.606  1.00  0.00     0.345 HD
ENDBRANCH   2   3
BRANCH   2   7
ATOM      7  C   UNL     1     -23.792 -21.103 -12.746  1.00  0.00     0.100 C 
ATOM      8  O   UNL     1     -23.611 -22.098 -11.994  1.00  0.00    -0.544 OA
ATOM      9  O   UNL     1     -22.705 -20.530 -13.394  1.00  0.00    -0.544 OA
ENDBRANCH   2   7
ENDBRANCH   1   2
BRANCH   1  10
ATOM     10  C   UNL     1     -25.701 -22.243 -14.745  1.00  0.00     0.223 C 
ATOM     11  O   UNL     1     -26.537 -22.989 -14.170  1.00  0.00    -0.275 OA
ATOM     12  N   UNL     1     -24.834 -22.788 -15.740  1.00  0.00    -0.369 N 
ATOM     13  H   UNL     1     -24.882 -23.802 -15.983  1.00  0.00     0.159 HD
ATOM     14  H   UNL     1     -24.147 -22.180 -16.241  1.00  0.00     0.159 HD
ENDBRANCH   1  10
TORSDOF 4
ENDMDL
