MODEL 1
REMARK VINA RESULT:    -4.827      0.000      0.000
REMARK INTER + INTRA:          -5.630
REMARK INTER:                  -5.533
REMARK INTRA:                  -0.097
REMARK UNBOUND:                -0.097
REMARK SMILES COc1cc(C(C)=O)ccc1O
REMARK SMILES IDX 5 1 4 2 3 3 11 4 10 5 9 6 6 7 7 8 8 9 2 10 1 11 12 12
REMARK H PARENT 12 13
REMARK Flexibility Score: inf
ROOT
ATOM      1  C   UNL     1      85.233  31.344  65.691  1.00  0.00     0.021 A 
ATOM      2  C   UNL     1      86.223  30.547  65.084  1.00  0.00     0.062 A 
ATOM      3  C   UNL     1      87.531  30.491  65.609  1.00  0.00     0.161 A 
ATOM      4  C   UNL     1      87.844  31.244  66.753  1.00  0.00     0.157 A 
ATOM      5  C   UNL     1      86.865  32.036  67.358  1.00  0.00     0.051 A 
ATOM      6  C   UNL     1      85.572  32.088  66.836  1.00  0.00     0.016 A 
ENDROOT
BRANCH   1   7
ATOM      7  C   UNL     1      83.858  31.388  65.121  1.00  0.00     0.159 C 
ATOM      8  C   UNL     1      83.122  30.143  64.727  1.00  0.00     0.093 C 
ATOM      9  O   UNL     1      83.282  32.499  64.961  1.00  0.00    -0.295 OA
ENDBRANCH   1   7
BRANCH   3  10
ATOM     10  O   UNL     1      88.535  29.704  65.022  1.00  0.00    -0.493 OA
ATOM     11  C   UNL     1      88.373  28.345  64.631  1.00  0.00     0.278 C 
ENDBRANCH   3  10
BRANCH   4  12
ATOM     12  O   UNL     1      89.125  31.218  67.305  1.00  0.00    -0.504 OA
ATOM     13  H   UNL     1      89.457  31.938  67.936  1.00  0.00     0.293 HD
ENDBRANCH   4  12
TORSDOF 3
ENDMDL
MODEL 2
REMARK VINA RESULT:    -4.516      1.398      4.200
REMARK INTER + INTRA:          -5.274
REMARK INTER:                  -5.179
REMARK INTRA:                  -0.095
REMARK UNBOUND:                -0.097
REMARK SMILES COc1cc(C(C)=O)ccc1O
REMARK SMILES IDX 5 1 4 2 3 3 11 4 10 5 9 6 6 7 7 8 8 9 2 10 1 11 12 12
REMARK H PARENT 12 13
REMARK Flexibility Score: inf
ROOT
ATOM      1  C   UNL     1      87.456  31.028  65.610  1.00  0.00     0.021 A 
ATOM      2  C   UNL     1      86.117  31.038  65.172  1.00  0.00     0.062 A 
ATOM      3  C   UNL     1      85.088  31.533  65.997  1.00  0.00     0.161 A 
ATOM      4  C   UNL     1      85.408  32.023  67.275  1.00  0.00     0.157 A 
ATOM      5  C   UNL     1      86.734  32.015  67.714  1.00  0.00     0.051 A 
ATOM      6  C   UNL     1      87.750  31.523  66.894  1.00  0.00     0.016 A 
ENDROOT
BRANCH   1   7
ATOM      7  C   UNL     1      88.529  30.501  64.722  1.00  0.00     0.159 C 
ATOM      8  C   UNL     1      89.092  31.309  63.593  1.00  0.00     0.093 C 
ATOM      9  O   UNL     1      88.987  29.341  64.915  1.00  0.00    -0.295 OA
ENDBRANCH   1   7
BRANCH   3  10
ATOM     10  O   UNL     1      83.746  31.554  65.582  1.00  0.00    -0.493 OA
ATOM     11  C   UNL     1      83.123  30.537  64.805  1.00  0.00     0.278 C 
ENDBRANCH   3  10
BRANCH   4  12
ATOM     12  O   UNL     1      84.420  32.522  68.124  1.00  0.00    -0.504 OA
ATOM     13  H   UNL     1      83.929  33.388  67.933  1.00  0.00     0.293 HD
ENDBRANCH   4  12
TORSDOF 3
ENDMDL
MODEL 3
REMARK VINA RESULT:    -4.317      2.228      2.758
REMARK INTER + INTRA:          -5.045
REMARK INTER:                  -4.927
REMARK INTRA:                  -0.118
REMARK UNBOUND:                -0.097
REMARK SMILES COc1cc(C(C)=O)ccc1O
REMARK SMILES IDX 5 1 4 2 3 3 11 4 10 5 9 6 6 7 7 8 8 9 2 10 1 11 12 12
REMARK H PARENT 12 13
REMARK Flexibility Score: inf
ROOT
ATOM      1  C   UNL     1      85.414  31.986  65.690  1.00  0.00     0.021 A 
ATOM      2  C   UNL     1      86.335  32.792  64.992  1.00  0.00     0.062 A 
ATOM      3  C   UNL     1      87.517  33.245  65.611  1.00  0.00     0.161 A 
ATOM      4  C   UNL     1      87.776  32.884  66.945  1.00  0.00     0.157 A 
ATOM      5  C   UNL     1      86.865  32.086  67.641  1.00  0.00     0.051 A 
ATOM      6  C   UNL     1      85.696  31.639  67.025  1.00  0.00     0.016 A 
ENDROOT
BRANCH   1   7
ATOM      7  C   UNL     1      84.171  31.518  65.017  1.00  0.00     0.159 C 
ATOM      8  C   UNL     1      84.008  30.103  64.549  1.00  0.00     0.093 C 
ATOM      9  O   UNL     1      83.219  32.324  64.830  1.00  0.00    -0.295 OA
ENDBRANCH   1   7
BRANCH   3  10
ATOM     10  O   UNL     1      88.450  34.048  64.935  1.00  0.00    -0.493 OA
ATOM     11  C   UNL     1      88.362  35.464  64.814  1.00  0.00     0.278 C 
ENDBRANCH   3  10
BRANCH   4  12
ATOM     12  O   UNL     1      88.933  33.311  67.596  1.00  0.00    -0.504 OA
ATOM     13  H   UNL     1      88.971  33.445  68.599  1.00  0.00     0.293 HD
ENDBRANCH   4  12
TORSDOF 3
ENDMDL
MODEL 4
REMARK VINA RESULT:    -4.200      2.036      4.527
REMARK INTER + INTRA:          -4.912
REMARK INTER:                  -4.799
REMARK INTRA:                  -0.112
REMARK UNBOUND:                -0.097
REMARK SMILES COc1cc(C(C)=O)ccc1O
REMARK SMILES IDX 5 1 4 2 3 3 11 4 10 5 9 6 6 7 7 8 8 9 2 10 1 11 12 12
REMARK H PARENT 12 13
REMARK Flexibility Score: inf
ROOT
ATOM      1  C   UNL     1      87.875  32.555  65.852  1.00  0.00     0.021 A 
ATOM      2  C   UNL     1      86.514  32.613  65.492  1.00  0.00     0.062 A 
ATOM      3  C   UNL     1      85.807  31.446  65.140  1.00  0.00     0.161 A 
ATOM      4  C   UNL     1      86.474  30.209  65.150  1.00  0.00     0.157 A 
ATOM      5  C   UNL     1      87.823  30.146  65.506  1.00  0.00     0.051 A 
ATOM      6  C   UNL     1      88.520  31.304  65.854  1.00  0.00     0.016 A 
ENDROOT
BRANCH   1   7
ATOM      7  C   UNL     1      88.604  33.799  66.221  1.00  0.00     0.159 C 
ATOM      8  C   UNL     1      88.742  34.949  65.269  1.00  0.00     0.093 C 
ATOM      9  O   UNL     1      89.125  33.904  67.365  1.00  0.00    -0.295 OA
ENDBRANCH   1   7
BRANCH   3  10
ATOM     10  O   UNL     1      84.450  31.480  64.777  1.00  0.00    -0.493 OA
ATOM     11  C   UNL     1      83.370  31.603  65.696  1.00  0.00     0.278 C 
ENDBRANCH   3  10
BRANCH   4  12
ATOM     12  O   UNL     1      85.811  29.030  64.809  1.00  0.00    -0.504 OA
ATOM     13  H   UNL     1      86.097  28.457  64.024  1.00  0.00     0.293 HD
ENDBRANCH   4  12
TORSDOF 3
ENDMDL
MODEL 5
REMARK VINA RESULT:    -4.062      2.027      3.789
REMARK INTER + INTRA:          -4.753
REMARK INTER:                  -4.633
REMARK INTRA:                  -0.119
REMARK UNBOUND:                -0.097
REMARK SMILES COc1cc(C(C)=O)ccc1O
REMARK SMILES IDX 5 1 4 2 3 3 11 4 10 5 9 6 6 7 7 8 8 9 2 10 1 11 12 12
REMARK H PARENT 12 13
REMARK Flexibility Score: inf
ROOT
ATOM      1  C   UNL     1      87.734  32.576  65.720  1.00  0.00     0.021 A 
ATOM      2  C   UNL     1      88.468  31.379  65.604  1.00  0.00     0.062 A 
ATOM      3  C   UNL     1      87.822  30.156  65.328  1.00  0.00     0.161 A 
ATOM      4  C   UNL     1      86.426  30.138  65.168  1.00  0.00     0.157 A 
ATOM      5  C   UNL     1      85.694  31.322  65.282  1.00  0.00     0.051 A 
ATOM      6  C   UNL     1      86.337  32.530  65.555  1.00  0.00     0.016 A 
ENDROOT
BRANCH   1   7
ATOM      7  C   UNL     1      88.435  33.856  66.011  1.00  0.00     0.159 C 
ATOM      8  C   UNL     1      88.349  35.035  65.090  1.00  0.00     0.093 C 
ATOM      9  O   UNL     1      89.125  33.967  67.062  1.00  0.00    -0.295 OA
ENDBRANCH   1   7
BRANCH   3  10
ATOM     10  O   UNL     1      88.533  28.951  65.208  1.00  0.00    -0.493 OA
ATOM     11  C   UNL     1      89.123  28.475  64.003  1.00  0.00     0.278 C 
ENDBRANCH   3  10
BRANCH   4  12
ATOM     12  O   UNL     1      85.747  28.950  64.894  1.00  0.00    -0.504 OA
ATOM     13  H   UNL     1      86.207  28.048  64.916  1.00  0.00     0.293 HD
ENDBRANCH   4  12
TORSDOF 3
ENDMDL
MODEL 6
REMARK VINA RESULT:    -4.062      1.955      4.168
REMARK INTER + INTRA:          -4.753
REMARK INTER:                  -4.644
REMARK INTRA:                  -0.108
REMARK UNBOUND:                -0.097
REMARK SMILES COc1cc(C(C)=O)ccc1O
REMARK SMILES IDX 5 1 4 2 3 3 11 4 10 5 9 6 6 7 7 8 8 9 2 10 1 11 12 12
REMARK H PARENT 12 13
REMARK Flexibility Score: inf
ROOT
ATOM      1  C   UNL     1      87.211  32.220  65.558  1.00  0.00     0.021 A 
ATOM      2  C   UNL     1      85.933  31.960  65.027  1.00  0.00     0.062 A 
ATOM      3  C   UNL     1      84.807  31.848  65.868  1.00  0.00     0.161 A 
ATOM      4  C   UNL     1      84.970  31.999  67.257  1.00  0.00     0.157 A 
ATOM      5  C   UNL     1      86.235  32.258  67.788  1.00  0.00     0.051 A 
ATOM      6  C   UNL     1      87.347  32.368  66.951  1.00  0.00     0.016 A 
ENDROOT
BRANCH   1   7
ATOM      7  C   UNL     1      88.387  32.335  64.652  1.00  0.00     0.159 C 
ATOM      8  C   UNL     1      88.749  31.251  63.682  1.00  0.00     0.093 C 
ATOM      9  O   UNL     1      89.108  33.370  64.689  1.00  0.00    -0.295 OA
ENDBRANCH   1   7
BRANCH   3  10
ATOM     10  O   UNL     1      83.523  31.589  65.362  1.00  0.00    -0.493 OA
ATOM     11  C   UNL     1      83.125  30.367  64.750  1.00  0.00     0.278 C 
ENDBRANCH   3  10
BRANCH   4  12
ATOM     12  O   UNL     1      83.883  31.897  68.125  1.00  0.00    -0.504 OA
ATOM     13  H   UNL     1      83.620  31.021  68.560  1.00  0.00     0.293 HD
ENDBRANCH   4  12
TORSDOF 3
ENDMDL
MODEL 7
REMARK VINA RESULT:    -4.055     15.591     16.590
REMARK INTER + INTRA:          -4.745
REMARK INTER:                  -4.609
REMARK INTRA:                  -0.135
REMARK UNBOUND:                -0.097
REMARK SMILES COc1cc(C(C)=O)ccc1O
REMARK SMILES IDX 5 1 4 2 3 3 11 4 10 5 9 6 6 7 7 8 8 9 2 10 1 11 12 12
REMARK H PARENT 12 13
REMARK Flexibility Score: inf
ROOT
ATOM      1  C   UNL     1      76.707  34.101  52.325  1.00  0.00     0.021 A 
ATOM      2  C   UNL     1      77.869  34.763  51.882  1.00  0.00     0.062 A 
ATOM      3  C   UNL     1      79.093  34.075  51.760  1.00  0.00     0.161 A 
ATOM      4  C   UNL     1      79.148  32.708  52.087  1.00  0.00     0.157 A 
ATOM      5  C   UNL     1      77.998  32.049  52.526  1.00  0.00     0.051 A 
ATOM      6  C   UNL     1      76.788  32.734  52.646  1.00  0.00     0.016 A 
ENDROOT
BRANCH   1   7
ATOM      7  C   UNL     1      75.424  34.847  52.446  1.00  0.00     0.159 C 
ATOM      8  C   UNL     1      74.158  34.180  52.893  1.00  0.00     0.093 C 
ATOM      9  O   UNL     1      75.386  36.077  52.168  1.00  0.00    -0.295 OA
ENDBRANCH   1   7
BRANCH   3  10
ATOM     10  O   UNL     1      80.265  34.712  51.321  1.00  0.00    -0.493 OA
ATOM     11  C   UNL     1      80.502  35.139  49.984  1.00  0.00     0.278 C 
ENDBRANCH   3  10
BRANCH   4  12
ATOM     12  O   UNL     1      80.339  31.989  51.981  1.00  0.00    -0.504 OA
ATOM     13  H   UNL     1      80.546  31.403  51.181  1.00  0.00     0.293 HD
ENDBRANCH   4  12
TORSDOF 3
ENDMDL
MODEL 8
REMARK VINA RESULT:    -3.961     15.088     16.901
REMARK INTER + INTRA:          -4.638
REMARK INTER:                  -4.522
REMARK INTRA:                  -0.115
REMARK UNBOUND:                -0.097
REMARK SMILES COc1cc(C(C)=O)ccc1O
REMARK SMILES IDX 5 1 4 2 3 3 11 4 10 5 9 6 6 7 7 8 8 9 2 10 1 11 12 12
REMARK H PARENT 12 13
REMARK Flexibility Score: inf
ROOT
ATOM      1  C   UNL     1      77.036  35.061  51.804  1.00  0.00     0.021 A 
ATOM      2  C   UNL     1      78.039  34.142  52.172  1.00  0.00     0.062 A 
ATOM      3  C   UNL     1      79.328  34.211  51.605  1.00  0.00     0.161 A 
ATOM      4  C   UNL     1      79.610  35.212  50.660  1.00  0.00     0.157 A 
ATOM      5  C   UNL     1      78.619  36.125  50.292  1.00  0.00     0.051 A 
ATOM      6  C   UNL     1      77.344  36.054  50.855  1.00  0.00     0.016 A 
ENDROOT
BRANCH   1   7
ATOM      7  C   UNL     1      75.681  34.971  52.415  1.00  0.00     0.159 C 
ATOM      8  C   UNL     1      74.720  36.121  52.385  1.00  0.00     0.093 C 
ATOM      9  O   UNL     1      75.317  33.902  52.976  1.00  0.00    -0.295 OA
ENDBRANCH   1   7
BRANCH   3  10
ATOM     10  O   UNL     1      80.344  33.307  51.956  1.00  0.00    -0.493 OA
ATOM     11  C   UNL     1      80.124  31.964  52.374  1.00  0.00     0.278 C 
ENDBRANCH   3  10
BRANCH   4  12
ATOM     12  O   UNL     1      80.872  35.316  50.075  1.00  0.00    -0.504 OA
ATOM     13  H   UNL     1      81.012  35.734  49.163  1.00  0.00     0.293 HD
ENDBRANCH   4  12
TORSDOF 3
ENDMDL
MODEL 9
REMARK VINA RESULT:    -3.833      1.533      4.528
REMARK INTER + INTRA:          -4.491
REMARK INTER:                  -4.393
REMARK INTRA:                  -0.097
REMARK UNBOUND:                -0.097
REMARK SMILES COc1cc(C(C)=O)ccc1O
REMARK SMILES IDX 5 1 4 2 3 3 11 4 10 5 9 6 6 7 7 8 8 9 2 10 1 11 12 12
REMARK H PARENT 12 13
REMARK Flexibility Score: inf
ROOT
ATOM      1  C   UNL     1      87.556  30.677  65.022  1.00  0.00     0.021 A 
ATOM      2  C   UNL     1      86.176  30.409  65.119  1.00  0.00     0.062 A 
ATOM      3  C   UNL     1      85.222  31.339  64.659  1.00  0.00     0.161 A 
ATOM      4  C   UNL     1      85.661  32.550  64.096  1.00  0.00     0.157 A 
ATOM      5  C   UNL     1      87.028  32.820  63.997  1.00  0.00     0.051 A 
ATOM      6  C   UNL     1      87.969  31.897  64.454  1.00  0.00     0.016 A 
ENDROOT
BRANCH   1   7
ATOM      7  C   UNL     1      88.547  29.680  65.514  1.00  0.00     0.159 C 
ATOM      8  C   UNL     1      88.887  28.448  64.731  1.00  0.00     0.093 C 
ATOM      9  O   UNL     1      89.125  29.866  66.619  1.00  0.00    -0.295 OA
ENDBRANCH   1   7
BRANCH   3  10
ATOM     10  O   UNL     1      83.842  31.094  64.745  1.00  0.00    -0.493 OA
ATOM     11  C   UNL     1      83.215  29.864  64.396  1.00  0.00     0.278 C 
ENDBRANCH   3  10
BRANCH   4  12
ATOM     12  O   UNL     1      84.751  33.498  63.627  1.00  0.00    -0.504 OA
ATOM     13  H   UNL     1      84.741  33.807  62.663  1.00  0.00     0.293 HD
ENDBRANCH   4  12
TORSDOF 3
ENDMDL
