MODEL 1
REMARK VINA RESULT:    -3.369      0.000      0.000
REMARK INTER + INTRA:          -5.121
REMARK INTER:                  -4.747
REMARK INTRA:                  -0.374
REMARK UNBOUND:                -0.374
REMARK SMILES CCCCCCCCC(=O)[O-]
REMARK SMILES IDX 6 1 7 2 8 3 9 4 10 5 11 6 5 7 4 8 3 9 2 10 1 11
REMARK H PARENT
REMARK Flexibility Score: inf
ROOT
ATOM      1  C   UNL     1      29.318  37.931  43.684  1.00  0.00     0.000 C 
ENDROOT
BRANCH   1   2
ATOM      2  C   UNL     1      27.921  37.678  43.097  1.00  0.00     0.006 C 
BRANCH   2   3
ATOM      3  C   UNL     1      27.967  37.384  41.593  1.00  0.00     0.053 C 
BRANCH   3   4
ATOM      4  C   UNL     1      26.808  36.543  41.154  1.00  0.00     0.041 C 
ATOM      5  O   UNL     1      26.336  36.669  39.993  1.00  0.00    -0.550 OA
ATOM      6  O   UNL     1      26.270  35.595  42.016  1.00  0.00    -0.550 OA
ENDBRANCH   3   4
ENDBRANCH   2   3
ENDBRANCH   1   2
BRANCH   1   7
ATOM      7  C   UNL     1      30.082  36.613  43.874  1.00  0.00     0.000 C 
BRANCH   7   8
ATOM      8  C   UNL     1      29.191  35.485  44.416  1.00  0.00    -0.000 C 
BRANCH   8   9
ATOM      9  C   UNL     1      29.758  34.844  45.692  1.00  0.00    -0.000 C 
BRANCH   9  10
ATOM     10  C   UNL     1      29.591  35.780  46.895  1.00  0.00    -0.003 C 
ATOM     11  C   UNL     1      30.041  35.103  48.186  1.00  0.00     0.004 C 
ENDBRANCH   9  10
ENDBRANCH   8   9
ENDBRANCH   7   8
ENDBRANCH   1   7
TORSDOF 7
ENDMDL
MODEL 2
REMARK VINA RESULT:    -2.918      1.715      2.297
REMARK INTER + INTRA:          -4.485
REMARK INTER:                  -4.091
REMARK INTRA:                  -0.394
REMARK UNBOUND:                -0.374
REMARK SMILES CCCCCCCCC(=O)[O-]
REMARK SMILES IDX 6 1 7 2 8 3 9 4 10 5 11 6 5 7 4 8 3 9 2 10 1 11
REMARK H PARENT
REMARK Flexibility Score: inf
ROOT
ATOM      1  C   UNL     1      28.007  37.333  42.631  1.00  0.00     0.000 C 
ENDROOT
BRANCH   1   2
ATOM      2  C   UNL     1      27.707  36.884  41.192  1.00  0.00     0.006 C 
BRANCH   2   3
ATOM      3  C   UNL     1      28.935  36.999  40.279  1.00  0.00     0.053 C 
BRANCH   3   4
ATOM      4  C   UNL     1      28.767  36.208  39.019  1.00  0.00     0.041 C 
ATOM      5  O   UNL     1      29.708  36.140  38.184  1.00  0.00    -0.550 OA
ATOM      6  O   UNL     1      27.584  35.520  38.781  1.00  0.00    -0.550 OA
ENDBRANCH   3   4
ENDBRANCH   2   3
ENDBRANCH   1   2
BRANCH   1   7
ATOM      7  C   UNL     1      29.511  37.570  42.830  1.00  0.00     0.000 C 
BRANCH   7   8
ATOM      8  C   UNL     1      30.125  36.631  43.880  1.00  0.00    -0.000 C 
BRANCH   8   9
ATOM      9  C   UNL     1      29.118  35.602  44.417  1.00  0.00    -0.000 C 
BRANCH   9  10
ATOM     10  C   UNL     1      29.664  34.902  45.667  1.00  0.00    -0.003 C 
ATOM     11  C   UNL     1      29.550  35.799  46.896  1.00  0.00     0.004 C 
ENDBRANCH   9  10
ENDBRANCH   8   9
ENDBRANCH   7   8
ENDBRANCH   1   7
TORSDOF 7
ENDMDL
MODEL 3
REMARK VINA RESULT:    -2.893      8.847     10.208
REMARK INTER + INTRA:          -4.451
REMARK INTER:                  -3.868
REMARK INTRA:                  -0.582
REMARK UNBOUND:                -0.374
REMARK SMILES CCCCCCCCC(=O)[O-]
REMARK SMILES IDX 6 1 7 2 8 3 9 4 10 5 11 6 5 7 4 8 3 9 2 10 1 11
REMARK H PARENT
REMARK Flexibility Score: inf
ROOT
ATOM      1  C   UNL     1      22.499  28.639  48.210  1.00  0.00     0.000 C 
ENDROOT
BRANCH   1   2
ATOM      2  C   UNL     1      23.776  29.471  48.021  1.00  0.00     0.006 C 
BRANCH   2   3
ATOM      3  C   UNL     1      23.937  29.971  46.580  1.00  0.00     0.053 C 
BRANCH   3   4
ATOM      4  C   UNL     1      24.119  31.456  46.523  1.00  0.00     0.041 C 
ATOM      5  O   UNL     1      23.217  32.223  46.952  1.00  0.00    -0.550 OA
ATOM      6  O   UNL     1      25.300  31.994  46.026  1.00  0.00    -0.550 OA
ENDBRANCH   3   4
ENDBRANCH   2   3
ENDBRANCH   1   2
BRANCH   1   7
ATOM      7  C   UNL     1      22.530  27.880  49.544  1.00  0.00     0.000 C 
BRANCH   7   8
ATOM      8  C   UNL     1      22.620  28.818  50.758  1.00  0.00    -0.000 C 
BRANCH   8   9
ATOM      9  C   UNL     1      21.309  29.578  51.019  1.00  0.00    -0.000 C 
BRANCH   9  10
ATOM     10  C   UNL     1      21.563  31.086  51.125  1.00  0.00    -0.003 C 
ATOM     11  C   UNL     1      21.135  31.807  49.850  1.00  0.00     0.004 C 
ENDBRANCH   9  10
ENDBRANCH   8   9
ENDBRANCH   7   8
ENDBRANCH   1   7
TORSDOF 7
ENDMDL
MODEL 4
REMARK VINA RESULT:    -2.779      7.816      8.889
REMARK INTER + INTRA:          -4.290
REMARK INTER:                  -3.904
REMARK INTRA:                  -0.386
REMARK UNBOUND:                -0.374
REMARK SMILES CCCCCCCCC(=O)[O-]
REMARK SMILES IDX 6 1 7 2 8 3 9 4 10 5 11 6 5 7 4 8 3 9 2 10 1 11
REMARK H PARENT
REMARK Flexibility Score: inf
ROOT
ATOM      1  C   UNL     1      23.613  29.769  47.031  1.00  0.00     0.000 C 
ENDROOT
BRANCH   1   2
ATOM      2  C   UNL     1      23.582  31.279  46.750  1.00  0.00     0.006 C 
BRANCH   2   3
ATOM      3  C   UNL     1      24.947  31.815  46.301  1.00  0.00     0.053 C 
BRANCH   3   4
ATOM      4  C   UNL     1      25.058  31.878  44.809  1.00  0.00     0.041 C 
ATOM      5  O   UNL     1      26.073  31.410  44.229  1.00  0.00    -0.550 OA
ATOM      6  O   UNL     1      24.024  32.422  44.056  1.00  0.00    -0.550 OA
ENDBRANCH   3   4
ENDBRANCH   2   3
ENDBRANCH   1   2
BRANCH   1   7
ATOM      7  C   UNL     1      23.319  29.480  48.510  1.00  0.00     0.000 C 
BRANCH   7   8
ATOM      8  C   UNL     1      22.049  30.186  49.012  1.00  0.00    -0.000 C 
BRANCH   8   9
ATOM      9  C   UNL     1      22.001  30.299  50.544  1.00  0.00    -0.000 C 
BRANCH   9  10
ATOM     10  C   UNL     1      21.247  31.563  50.974  1.00  0.00    -0.003 C 
ATOM     11  C   UNL     1      20.890  32.429  49.770  1.00  0.00     0.004 C 
ENDBRANCH   9  10
ENDBRANCH   8   9
ENDBRANCH   7   8
ENDBRANCH   1   7
TORSDOF 7
ENDMDL
MODEL 5
REMARK VINA RESULT:    -2.756      9.375     10.965
REMARK INTER + INTRA:          -4.258
REMARK INTER:                  -3.700
REMARK INTRA:                  -0.557
REMARK UNBOUND:                -0.374
REMARK SMILES CCCCCCCCC(=O)[O-]
REMARK SMILES IDX 6 1 7 2 8 3 9 4 10 5 11 6 5 7 4 8 3 9 2 10 1 11
REMARK H PARENT
REMARK Flexibility Score: inf
ROOT
ATOM      1  C   UNL     1      22.596  28.896  50.636  1.00  0.00     0.000 C 
ENDROOT
BRANCH   1   2
ATOM      2  C   UNL     1      21.330  29.670  51.035  1.00  0.00     0.006 C 
BRANCH   2   3
ATOM      3  C   UNL     1      21.546  31.188  51.018  1.00  0.00     0.053 C 
BRANCH   3   4
ATOM      4  C   UNL     1      20.842  31.837  49.866  1.00  0.00     0.041 C 
ATOM      5  O   UNL     1      20.306  31.132  48.971  1.00  0.00    -0.550 OA
ATOM      6  O   UNL     1      20.750  33.222  49.798  1.00  0.00    -0.550 OA
ENDBRANCH   3   4
ENDBRANCH   2   3
ENDBRANCH   1   2
BRANCH   1   7
ATOM      7  C   UNL     1      22.503  28.401  49.186  1.00  0.00     0.000 C 
BRANCH   7   8
ATOM      8  C   UNL     1      23.695  28.854  48.327  1.00  0.00    -0.000 C 
BRANCH   8   9
ATOM      9  C   UNL     1      23.259  29.504  47.005  1.00  0.00    -0.000 C 
BRANCH   9  10
ATOM     10  C   UNL     1      24.005  30.823  46.772  1.00  0.00    -0.003 C 
ATOM     11  C   UNL     1      23.073  32.020  46.937  1.00  0.00     0.004 C 
ENDBRANCH   9  10
ENDBRANCH   8   9
ENDBRANCH   7   8
ENDBRANCH   1   7
TORSDOF 7
ENDMDL
MODEL 6
REMARK VINA RESULT:    -2.739      1.330      2.137
REMARK INTER + INTRA:          -4.234
REMARK INTER:                  -3.881
REMARK INTRA:                  -0.353
REMARK UNBOUND:                -0.374
REMARK SMILES CCCCCCCCC(=O)[O-]
REMARK SMILES IDX 6 1 7 2 8 3 9 4 10 5 11 6 5 7 4 8 3 9 2 10 1 11
REMARK H PARENT
REMARK Flexibility Score: inf
ROOT
ATOM      1  C   UNL     1      28.308  38.064  41.550  1.00  0.00     0.000 C 
ENDROOT
BRANCH   1   2
ATOM      2  C   UNL     1      27.641  36.705  41.287  1.00  0.00     0.006 C 
BRANCH   2   3
ATOM      3  C   UNL     1      26.418  36.475  42.184  1.00  0.00     0.053 C 
BRANCH   3   4
ATOM      4  C   UNL     1      25.682  35.225  41.812  1.00  0.00     0.041 C 
ATOM      5  O   UNL     1      24.965  35.195  40.777  1.00  0.00    -0.550 OA
ATOM      6  O   UNL     1      25.815  34.081  42.590  1.00  0.00    -0.550 OA
ENDBRANCH   3   4
ENDBRANCH   2   3
ENDBRANCH   1   2
BRANCH   1   7
ATOM      7  C   UNL     1      29.809  37.895  41.826  1.00  0.00     0.000 C 
BRANCH   7   8
ATOM      8  C   UNL     1      30.125  36.621  42.626  1.00  0.00    -0.000 C 
BRANCH   8   9
ATOM      9  C   UNL     1      29.848  36.781  44.129  1.00  0.00    -0.000 C 
BRANCH   9  10
ATOM     10  C   UNL     1      29.934  35.429  44.847  1.00  0.00    -0.003 C 
ATOM     11  C   UNL     1      29.563  35.565  46.321  1.00  0.00     0.004 C 
ENDBRANCH   9  10
ENDBRANCH   8   9
ENDBRANCH   7   8
ENDBRANCH   1   7
TORSDOF 7
ENDMDL
MODEL 7
REMARK VINA RESULT:    -2.680     10.724     12.632
REMARK INTER + INTRA:          -4.151
REMARK INTER:                  -3.430
REMARK INTRA:                  -0.721
REMARK UNBOUND:                -0.374
REMARK SMILES CCCCCCCCC(=O)[O-]
REMARK SMILES IDX 6 1 7 2 8 3 9 4 10 5 11 6 5 7 4 8 3 9 2 10 1 11
REMARK H PARENT
REMARK Flexibility Score: inf
ROOT
ATOM      1  C   UNL     1      22.208  26.846  50.037  1.00  0.00     0.000 C 
ENDROOT
BRANCH   1   2
ATOM      2  C   UNL     1      23.649  26.736  50.558  1.00  0.00     0.006 C 
BRANCH   2   3
ATOM      3  C   UNL     1      24.616  26.215  49.488  1.00  0.00     0.053 C 
BRANCH   3   4
ATOM      4  C   UNL     1      25.905  25.740  50.086  1.00  0.00     0.041 C 
ATOM      5  O   UNL     1      27.002  26.209  49.682  1.00  0.00    -0.550 OA
ATOM      6  O   UNL     1      25.893  24.804  51.113  1.00  0.00    -0.550 OA
ENDBRANCH   3   4
ENDBRANCH   2   3
ENDBRANCH   1   2
BRANCH   1   7
ATOM      7  C   UNL     1      21.593  28.203  50.404  1.00  0.00     0.000 C 
BRANCH   7   8
ATOM      8  C   UNL     1      22.582  29.367  50.239  1.00  0.00    -0.000 C 
BRANCH   8   9
ATOM      9  C   UNL     1      22.513  30.010  48.845  1.00  0.00    -0.000 C 
BRANCH   9  10
ATOM     10  C   UNL     1      23.714  29.591  47.989  1.00  0.00    -0.003 C 
ATOM     11  C   UNL     1      23.283  28.680  46.843  1.00  0.00     0.004 C 
ENDBRANCH   9  10
ENDBRANCH   8   9
ENDBRANCH   7   8
ENDBRANCH   1   7
TORSDOF 7
ENDMDL
MODEL 8
REMARK VINA RESULT:    -2.674      8.903      9.892
REMARK INTER + INTRA:          -4.142
REMARK INTER:                  -3.348
REMARK INTRA:                  -0.795
REMARK UNBOUND:                -0.374
REMARK SMILES CCCCCCCCC(=O)[O-]
REMARK SMILES IDX 6 1 7 2 8 3 9 4 10 5 11 6 5 7 4 8 3 9 2 10 1 11
REMARK H PARENT
REMARK Flexibility Score: inf
ROOT
ATOM      1  C   UNL     1      20.416  31.480  47.708  1.00  0.00     0.000 C 
ENDROOT
BRANCH   1   2
ATOM      2  C   UNL     1      21.543  30.602  47.142  1.00  0.00     0.006 C 
BRANCH   2   3
ATOM      3  C   UNL     1      22.934  31.162  47.466  1.00  0.00     0.053 C 
BRANCH   3   4
ATOM      4  C   UNL     1      23.622  31.686  46.244  1.00  0.00     0.041 C 
ATOM      5  O   UNL     1      24.880  31.680  46.172  1.00  0.00    -0.550 OA
ATOM      6  O   UNL     1      22.874  32.150  45.168  1.00  0.00    -0.550 OA
ENDBRANCH   3   4
ENDBRANCH   2   3
ENDBRANCH   1   2
BRANCH   1   7
ATOM      7  C   UNL     1      20.969  32.513  48.699  1.00  0.00     0.000 C 
BRANCH   7   8
ATOM      8  C   UNL     1      20.469  32.286  50.134  1.00  0.00    -0.000 C 
BRANCH   8   9
ATOM      9  C   UNL     1      21.483  31.524  51.002  1.00  0.00    -0.000 C 
BRANCH   9  10
ATOM     10  C   UNL     1      21.097  30.046  51.125  1.00  0.00    -0.003 C 
ATOM     11  C   UNL     1      22.215  29.140  50.618  1.00  0.00     0.004 C 
ENDBRANCH   9  10
ENDBRANCH   8   9
ENDBRANCH   7   8
ENDBRANCH   1   7
TORSDOF 7
ENDMDL
MODEL 9
REMARK VINA RESULT:    -2.668     10.021     11.430
REMARK INTER + INTRA:          -4.134
REMARK INTER:                  -3.427
REMARK INTRA:                  -0.707
REMARK UNBOUND:                -0.374
REMARK SMILES CCCCCCCCC(=O)[O-]
REMARK SMILES IDX 6 1 7 2 8 3 9 4 10 5 11 6 5 7 4 8 3 9 2 10 1 11
REMARK H PARENT
REMARK Flexibility Score: inf
ROOT
ATOM      1  C   UNL     1      20.760  32.462  50.012  1.00  0.00     0.000 C 
ENDROOT
BRANCH   1   2
ATOM      2  C   UNL     1      20.488  31.112  50.694  1.00  0.00     0.006 C 
BRANCH   2   3
ATOM      3  C   UNL     1      21.781  30.408  51.124  1.00  0.00     0.053 C 
BRANCH   3   4
ATOM      4  C   UNL     1      21.753  28.946  50.799  1.00  0.00     0.041 C 
ATOM      5  O   UNL     1      22.822  28.280  50.785  1.00  0.00    -0.550 OA
ATOM      6  O   UNL     1      20.543  28.312  50.544  1.00  0.00    -0.550 OA
ENDBRANCH   3   4
ENDBRANCH   2   3
ENDBRANCH   1   2
BRANCH   1   7
ATOM      7  C   UNL     1      20.634  32.343  48.487  1.00  0.00     0.000 C 
BRANCH   7   8
ATOM      8  C   UNL     1      21.992  32.423  47.771  1.00  0.00    -0.000 C 
BRANCH   8   9
ATOM      9  C   UNL     1      22.148  31.356  46.676  1.00  0.00    -0.000 C 
BRANCH   9  10
ATOM     10  C   UNL     1      22.361  29.968  47.291  1.00  0.00    -0.003 C 
ATOM     11  C   UNL     1      23.821  29.757  47.682  1.00  0.00     0.004 C 
ENDBRANCH   9  10
ENDBRANCH   8   9
ENDBRANCH   7   8
ENDBRANCH   1   7
TORSDOF 7
ENDMDL
