MODEL 1
REMARK VINA RESULT:    -6.871      0.000      0.000
REMARK INTER + INTRA:          -7.361
REMARK INTER:                  -7.273
REMARK INTRA:                  -0.088
REMARK UNBOUND:                -0.088
REMARK SMILES C=C(C)[C@H]1CC=C(C)C(=O)C1
REMARK SMILES IDX 8 1 7 2 6 3 5 4 4 5 11 6 9 7 10 8 2 9 1 10 3 11
REMARK H PARENT
REMARK Flexibility Score: inf
ROOT
ATOM      1  C   UNL     1     -13.329  10.511   1.850  1.00  0.00     0.048 C 
ATOM      2  C   UNL     1     -13.921  11.878   1.646  1.00  0.00    -0.012 C 
ATOM      3  C   UNL     1     -13.898  12.773   2.649  1.00  0.00    -0.019 C 
ATOM      4  C   UNL     1     -14.492  14.149   2.505  1.00  0.00     0.036 C 
ATOM      5  C   UNL     1     -14.357  14.663   1.059  1.00  0.00     0.025 C 
ATOM      6  C   UNL     1     -14.976  13.654   0.074  1.00  0.00     0.089 C 
ATOM      7  C   UNL     1     -14.416  12.278   0.305  1.00  0.00     0.158 C 
ATOM      8  O   UNL     1     -14.407  11.450  -0.646  1.00  0.00    -0.295 OA
ENDROOT
BRANCH   5   9
ATOM      9  C   UNL     1     -14.963  16.051   0.896  1.00  0.00    -0.077 C 
ATOM     10  C   UNL     1     -14.206  17.110   0.562  1.00  0.00     0.008 C 
ATOM     11  C   UNL     1     -16.440  16.260   1.105  1.00  0.00     0.039 C 
ENDBRANCH   5   9
TORSDOF 1
ENDMDL
MODEL 2
REMARK VINA RESULT:    -6.708      1.701      2.245
REMARK INTER + INTRA:          -7.189
REMARK INTER:                  -7.096
REMARK INTRA:                  -0.093
REMARK UNBOUND:                -0.088
REMARK SMILES C=C(C)[C@H]1CC=C(C)C(=O)C1
REMARK SMILES IDX 8 1 7 2 6 3 5 4 4 5 11 6 9 7 10 8 2 9 1 10 3 11
REMARK H PARENT
REMARK Flexibility Score: inf
ROOT
ATOM      1  C   UNL     1     -13.965  10.815   2.436  1.00  0.00     0.048 C 
ATOM      2  C   UNL     1     -14.062  12.265   2.049  1.00  0.00    -0.012 C 
ATOM      3  C   UNL     1     -14.071  12.611   0.751  1.00  0.00    -0.019 C 
ATOM      4  C   UNL     1     -14.149  14.049   0.308  1.00  0.00     0.036 C 
ATOM      5  C   UNL     1     -14.978  14.889   1.298  1.00  0.00     0.025 C 
ATOM      6  C   UNL     1     -14.412  14.747   2.723  1.00  0.00     0.089 C 
ATOM      7  C   UNL     1     -14.273  13.297   3.095  1.00  0.00     0.158 C 
ATOM      8  O   UNL     1     -14.300  12.970   4.312  1.00  0.00    -0.295 OA
ENDROOT
BRANCH   5   9
ATOM      9  C   UNL     1     -15.057  16.349   0.868  1.00  0.00    -0.077 C 
ATOM     10  C   UNL     1     -13.969  17.012   0.441  1.00  0.00     0.008 C 
ATOM     11  C   UNL     1     -16.374  17.079   0.913  1.00  0.00     0.039 C 
ENDBRANCH   5   9
TORSDOF 1
ENDMDL
MODEL 3
REMARK VINA RESULT:    -5.912      2.313      4.609
REMARK INTER + INTRA:          -6.346
REMARK INTER:                  -6.248
REMARK INTRA:                  -0.098
REMARK UNBOUND:                -0.088
REMARK SMILES C=C(C)[C@H]1CC=C(C)C(=O)C1
REMARK SMILES IDX 8 1 7 2 6 3 5 4 4 5 11 6 9 7 10 8 2 9 1 10 3 11
REMARK H PARENT
REMARK Flexibility Score: inf
ROOT
ATOM      1  C   UNL     1     -14.606  13.267  -0.397  1.00  0.00     0.048 C 
ATOM      2  C   UNL     1     -14.320  12.890   1.030  1.00  0.00    -0.012 C 
ATOM      3  C   UNL     1     -13.940  11.635   1.327  1.00  0.00    -0.019 C 
ATOM      4  C   UNL     1     -13.659  11.199   2.741  1.00  0.00     0.036 C 
ATOM      5  C   UNL     1     -13.079  12.357   3.573  1.00  0.00     0.025 C 
ATOM      6  C   UNL     1     -14.017  13.578   3.514  1.00  0.00     0.089 C 
ATOM      7  C   UNL     1     -14.338  13.931   2.089  1.00  0.00     0.158 C 
ATOM      8  O   UNL     1     -14.660  15.116   1.806  1.00  0.00    -0.295 OA
ENDROOT
BRANCH   5   9
ATOM      9  C   UNL     1     -12.800  11.933   5.009  1.00  0.00    -0.077 C 
ATOM     10  C   UNL     1     -12.568  12.840   5.974  1.00  0.00     0.008 C 
ATOM     11  C   UNL     1     -12.781  10.472   5.376  1.00  0.00     0.039 C 
ENDBRANCH   5   9
TORSDOF 1
ENDMDL
MODEL 4
REMARK VINA RESULT:    -5.909      2.080      2.980
REMARK INTER + INTRA:          -6.343
REMARK INTER:                  -6.245
REMARK INTRA:                  -0.098
REMARK UNBOUND:                -0.088
REMARK SMILES C=C(C)[C@H]1CC=C(C)C(=O)C1
REMARK SMILES IDX 8 1 7 2 6 3 5 4 4 5 11 6 9 7 10 8 2 9 1 10 3 11
REMARK H PARENT
REMARK Flexibility Score: inf
ROOT
ATOM      1  C   UNL     1     -12.597  11.289   5.730  1.00  0.00     0.048 C 
ATOM      2  C   UNL     1     -13.234  11.881   4.503  1.00  0.00    -0.012 C 
ATOM      3  C   UNL     1     -13.619  13.168   4.506  1.00  0.00    -0.019 C 
ATOM      4  C   UNL     1     -14.278  13.807   3.311  1.00  0.00     0.036 C 
ATOM      5  C   UNL     1     -13.750  13.200   1.997  1.00  0.00     0.025 C 
ATOM      6  C   UNL     1     -13.921  11.669   2.010  1.00  0.00     0.089 C 
ATOM      7  C   UNL     1     -13.323  11.080   3.256  1.00  0.00     0.158 C 
ATOM      8  O   UNL     1     -12.930   9.882   3.243  1.00  0.00    -0.295 OA
ENDROOT
BRANCH   5   9
ATOM      9  C   UNL     1     -14.416  13.829   0.780  1.00  0.00    -0.077 C 
ATOM     10  C   UNL     1     -14.508  13.168  -0.387  1.00  0.00     0.008 C 
ATOM     11  C   UNL     1     -14.991  15.219   0.867  1.00  0.00     0.039 C 
ENDBRANCH   5   9
TORSDOF 1
ENDMDL
MODEL 5
REMARK VINA RESULT:    -5.819      1.483      4.451
REMARK INTER + INTRA:          -6.248
REMARK INTER:                  -6.152
REMARK INTRA:                  -0.096
REMARK UNBOUND:                -0.088
REMARK SMILES C=C(C)[C@H]1CC=C(C)C(=O)C1
REMARK SMILES IDX 8 1 7 2 6 3 5 4 4 5 11 6 9 7 10 8 2 9 1 10 3 11
REMARK H PARENT
REMARK Flexibility Score: inf
ROOT
ATOM      1  C   UNL     1     -15.581  15.898   1.130  1.00  0.00     0.048 C 
ATOM      2  C   UNL     1     -14.813  14.759   1.741  1.00  0.00    -0.012 C 
ATOM      3  C   UNL     1     -14.608  14.728   3.069  1.00  0.00    -0.019 C 
ATOM      4  C   UNL     1     -13.831  13.620   3.731  1.00  0.00     0.036 C 
ATOM      5  C   UNL     1     -14.023  12.286   2.986  1.00  0.00     0.025 C 
ATOM      6  C   UNL     1     -13.657  12.448   1.498  1.00  0.00     0.089 C 
ATOM      7  C   UNL     1     -14.391  13.613   0.896  1.00  0.00     0.158 C 
ATOM      8  O   UNL     1     -14.613  13.626  -0.344  1.00  0.00    -0.295 OA
ENDROOT
BRANCH   5   9
ATOM      9  C   UNL     1     -13.234  11.159   3.639  1.00  0.00    -0.077 C 
ATOM     10  C   UNL     1     -12.852  11.225   4.926  1.00  0.00     0.008 C 
ATOM     11  C   UNL     1     -12.866   9.933   2.842  1.00  0.00     0.039 C 
ENDBRANCH   5   9
TORSDOF 1
ENDMDL
MODEL 6
REMARK VINA RESULT:    -5.568      2.529      3.585
REMARK INTER + INTRA:          -5.982
REMARK INTER:                  -5.884
REMARK INTRA:                  -0.098
REMARK UNBOUND:                -0.088
REMARK SMILES C=C(C)[C@H]1CC=C(C)C(=O)C1
REMARK SMILES IDX 8 1 7 2 6 3 5 4 4 5 11 6 9 7 10 8 2 9 1 10 3 11
REMARK H PARENT
REMARK Flexibility Score: inf
ROOT
ATOM      1  C   UNL     1     -12.873  10.044   5.339  1.00  0.00     0.048 C 
ATOM      2  C   UNL     1     -13.097  10.981   4.184  1.00  0.00    -0.012 C 
ATOM      3  C   UNL     1     -13.490  10.494   2.995  1.00  0.00    -0.019 C 
ATOM      4  C   UNL     1     -13.711  11.385   1.801  1.00  0.00     0.036 C 
ATOM      5  C   UNL     1     -14.223  12.772   2.232  1.00  0.00     0.025 C 
ATOM      6  C   UNL     1     -13.262  13.400   3.259  1.00  0.00     0.089 C 
ATOM      7  C   UNL     1     -13.004  12.448   4.393  1.00  0.00     0.158 C 
ATOM      8  O   UNL     1     -12.669  12.908   5.518  1.00  0.00    -0.295 OA
ENDROOT
BRANCH   5   9
ATOM      9  C   UNL     1     -14.442  13.688   1.034  1.00  0.00    -0.077 C 
ATOM     10  C   UNL     1     -14.585  15.016   1.186  1.00  0.00     0.008 C 
ATOM     11  C   UNL     1     -14.498  13.113  -0.357  1.00  0.00     0.039 C 
ENDBRANCH   5   9
TORSDOF 1
ENDMDL
MODEL 7
REMARK VINA RESULT:    -5.504      2.040      4.377
REMARK INTER + INTRA:          -5.914
REMARK INTER:                  -5.822
REMARK INTRA:                  -0.091
REMARK UNBOUND:                -0.088
REMARK SMILES C=C(C)[C@H]1CC=C(C)C(=O)C1
REMARK SMILES IDX 8 1 7 2 6 3 5 4 4 5 11 6 9 7 10 8 2 9 1 10 3 11
REMARK H PARENT
REMARK Flexibility Score: inf
ROOT
ATOM      1  C   UNL     1     -14.835  13.756  -0.078  1.00  0.00     0.048 C 
ATOM      2  C   UNL     1     -14.358  13.389   1.300  1.00  0.00    -0.012 C 
ATOM      3  C   UNL     1     -14.437  14.289   2.295  1.00  0.00    -0.019 C 
ATOM      4  C   UNL     1     -13.956  13.981   3.690  1.00  0.00     0.036 C 
ATOM      5  C   UNL     1     -14.155  12.491   4.028  1.00  0.00     0.025 C 
ATOM      6  C   UNL     1     -13.473  11.607   2.967  1.00  0.00     0.089 C 
ATOM      7  C   UNL     1     -13.917  12.000   1.585  1.00  0.00     0.158 C 
ATOM      8  O   UNL     1     -13.876  11.146   0.660  1.00  0.00    -0.295 OA
ENDROOT
BRANCH   5   9
ATOM      9  C   UNL     1     -13.665  12.163   5.432  1.00  0.00    -0.077 C 
ATOM     10  C   UNL     1     -14.287  11.247   6.194  1.00  0.00     0.008 C 
ATOM     11  C   UNL     1     -12.456  12.866   5.994  1.00  0.00     0.039 C 
ENDBRANCH   5   9
TORSDOF 1
ENDMDL
MODEL 8
REMARK VINA RESULT:    -5.455      1.881      4.487
REMARK INTER + INTRA:          -5.862
REMARK INTER:                  -5.768
REMARK INTRA:                  -0.094
REMARK UNBOUND:                -0.088
REMARK SMILES C=C(C)[C@H]1CC=C(C)C(=O)C1
REMARK SMILES IDX 8 1 7 2 6 3 5 4 4 5 11 6 9 7 10 8 2 9 1 10 3 11
REMARK H PARENT
REMARK Flexibility Score: inf
ROOT
ATOM      1  C   UNL     1     -15.659  17.753   0.530  1.00  0.00     0.048 C 
ATOM      2  C   UNL     1     -15.066  16.457   1.009  1.00  0.00    -0.012 C 
ATOM      3  C   UNL     1     -15.708  15.734   1.943  1.00  0.00    -0.019 C 
ATOM      4  C   UNL     1     -15.150  14.437   2.471  1.00  0.00     0.036 C 
ATOM      5  C   UNL     1     -14.354  13.692   1.384  1.00  0.00     0.025 C 
ATOM      6  C   UNL     1     -13.258  14.606   0.804  1.00  0.00     0.089 C 
ATOM      7  C   UNL     1     -13.842  15.919   0.364  1.00  0.00     0.158 C 
ATOM      8  O   UNL     1     -13.259  16.581  -0.537  1.00  0.00    -0.295 OA
ENDROOT
BRANCH   5   9
ATOM      9  C   UNL     1     -13.776  12.384   1.907  1.00  0.00    -0.077 C 
ATOM     10  C   UNL     1     -13.198  12.309   3.118  1.00  0.00     0.008 C 
ATOM     11  C   UNL     1     -13.846  11.136   1.065  1.00  0.00     0.039 C 
ENDBRANCH   5   9
TORSDOF 1
ENDMDL
