MODEL 1
REMARK VINA RESULT:    -3.503      0.000      0.000
REMARK INTER + INTRA:          -3.708
REMARK INTER:                  -3.708
REMARK INTRA:                   0.000
REMARK UNBOUND:                 0.000
REMARK SMILES Cc1cc(O)c(C)c(C)c1O
REMARK SMILES IDX 1 1 2 2 3 3 4 4 6 5 8 6 10 7 9 8 7 9 11 10 5 12
REMARK H PARENT 11 11 5 13
REMARK Flexibility Score: inf
ROOT
ATOM      1  C   UNL     1       7.915   1.347  18.403  1.00  0.00     0.048 C 
ATOM      2  C   UNL     1       7.940   2.852  18.384  1.00  0.00    -0.005 A 
ATOM      3  C   UNL     1       6.760   3.558  18.639  1.00  0.00     0.053 A 
ATOM      4  C   UNL     1       6.733   4.952  18.620  1.00  0.00     0.119 A 
ATOM      5  C   UNL     1       7.908   5.680  18.318  1.00  0.00    -0.003 A 
ATOM      6  C   UNL     1       9.128   4.976  18.120  1.00  0.00    -0.002 A 
ATOM      7  C   UNL     1       9.132   3.562  18.128  1.00  0.00     0.121 A 
ATOM      8  C   UNL     1      10.422   5.722  17.875  1.00  0.00     0.049 C 
ATOM      9  C   UNL     1       7.842   7.190  18.243  1.00  0.00     0.049 C 
ENDROOT
BRANCH   7  10
ATOM     10  O   UNL     1      10.330   2.882  17.879  1.00  0.00    -0.507 OA
ATOM     11  H   UNL     1      10.412   2.120  17.218  1.00  0.00     0.293 HD
ENDBRANCH   7  10
BRANCH   4  12
ATOM     12  O   UNL     1       5.521   5.580  18.916  1.00  0.00    -0.508 OA
ATOM     13  H   UNL     1       5.093   6.279  18.323  1.00  0.00     0.293 HD
ENDBRANCH   4  12
TORSDOF 2
ENDMDL
MODEL 2
REMARK VINA RESULT:    -3.462      0.550      4.376
REMARK INTER + INTRA:          -3.665
REMARK INTER:                  -3.665
REMARK INTRA:                   0.000
REMARK UNBOUND:                 0.000
REMARK SMILES Cc1cc(O)c(C)c(C)c1O
REMARK SMILES IDX 1 1 2 2 3 3 4 4 6 5 8 6 10 7 9 8 7 9 11 10 5 12
REMARK H PARENT 11 11 5 13
REMARK Flexibility Score: inf
ROOT
ATOM      1  C   UNL     1       7.881   7.187  18.251  1.00  0.00     0.048 C 
ATOM      2  C   UNL     1       8.037   5.691  18.312  1.00  0.00    -0.005 A 
ATOM      3  C   UNL     1       9.293   5.126  18.068  1.00  0.00     0.053 A 
ATOM      4  C   UNL     1       9.483   3.745  18.102  1.00  0.00     0.119 A 
ATOM      5  C   UNL     1       8.392   2.885  18.365  1.00  0.00    -0.003 A 
ATOM      6  C   UNL     1       7.124   3.450  18.679  1.00  0.00    -0.002 A 
ATOM      7  C   UNL     1       6.947   4.851  18.624  1.00  0.00     0.121 A 
ATOM      8  C   UNL     1       5.952   2.566  19.046  1.00  0.00     0.049 C 
ATOM      9  C   UNL     1       8.608   1.388  18.337  1.00  0.00     0.049 C 
ENDROOT
BRANCH   7  10
ATOM     10  O   UNL     1       5.682   5.390  18.883  1.00  0.00    -0.507 OA
ATOM     11  H   UNL     1       5.219   5.321  19.781  1.00  0.00     0.293 HD
ENDBRANCH   7  10
BRANCH   4  12
ATOM     12  O   UNL     1      10.776   3.264  17.876  1.00  0.00    -0.508 OA
ATOM     13  H   UNL     1      10.978   2.436  17.332  1.00  0.00     0.293 HD
ENDBRANCH   4  12
TORSDOF 2
ENDMDL
MODEL 3
REMARK VINA RESULT:    -2.715      0.695      3.174
REMARK INTER + INTRA:          -2.874
REMARK INTER:                  -2.874
REMARK INTRA:                   0.000
REMARK UNBOUND:                 0.000
REMARK SMILES Cc1cc(O)c(C)c(C)c1O
REMARK SMILES IDX 1 1 2 2 3 3 4 4 6 5 8 6 10 7 9 8 7 9 11 10 5 12
REMARK H PARENT 11 11 5 13
REMARK Flexibility Score: inf
ROOT
ATOM      1  C   UNL     1       6.016   2.054  19.064  1.00  0.00     0.048 C 
ATOM      2  C   UNL     1       7.130   3.010  18.732  1.00  0.00    -0.005 A 
ATOM      3  C   UNL     1       8.406   2.505  18.463  1.00  0.00     0.053 A 
ATOM      4  C   UNL     1       9.470   3.353  18.162  1.00  0.00     0.119 A 
ATOM      5  C   UNL     1       9.278   4.754  18.145  1.00  0.00    -0.003 A 
ATOM      6  C   UNL     1       7.972   5.277  18.354  1.00  0.00    -0.002 A 
ATOM      7  C   UNL     1       6.908   4.402  18.673  1.00  0.00     0.121 A 
ATOM      8  C   UNL     1       7.710   6.765  18.264  1.00  0.00     0.049 C 
ATOM      9  C   UNL     1      10.462   5.658  17.876  1.00  0.00     0.049 C 
ENDROOT
BRANCH   7  10
ATOM     10  O   UNL     1       5.640   4.936  18.928  1.00  0.00    -0.507 OA
ATOM     11  H   UNL     1       4.946   5.096  18.208  1.00  0.00     0.293 HD
ENDBRANCH   7  10
BRANCH   4  12
ATOM     12  O   UNL     1      10.705   2.765  17.875  1.00  0.00    -0.508 OA
ATOM     13  H   UNL     1      11.379   3.161  17.232  1.00  0.00     0.293 HD
ENDBRANCH   4  12
TORSDOF 2
ENDMDL
MODEL 4
REMARK VINA RESULT:    -2.031      1.569      2.463
REMARK INTER + INTRA:          -2.150
REMARK INTER:                  -2.150
REMARK INTRA:                   0.000
REMARK UNBOUND:                 0.000
REMARK SMILES Cc1cc(O)c(C)c(C)c1O
REMARK SMILES IDX 1 1 2 2 3 3 4 4 6 5 8 6 10 7 9 8 7 9 11 10 5 12
REMARK H PARENT 11 11 5 13
REMARK Flexibility Score: inf
ROOT
ATOM      1  C   UNL     1      10.957   2.939  17.876  1.00  0.00     0.048 C 
ATOM      2  C   UNL     1       9.604   3.524  18.181  1.00  0.00    -0.005 A 
ATOM      3  C   UNL     1       8.543   2.667  18.491  1.00  0.00     0.053 A 
ATOM      4  C   UNL     1       7.270   3.163  18.768  1.00  0.00     0.119 A 
ATOM      5  C   UNL     1       7.025   4.556  18.718  1.00  0.00    -0.003 A 
ATOM      6  C   UNL     1       8.109   5.442  18.467  1.00  0.00    -0.002 A 
ATOM      7  C   UNL     1       9.390   4.919  18.173  1.00  0.00     0.121 A 
ATOM      8  C   UNL     1       7.904   6.941  18.485  1.00  0.00     0.049 C 
ATOM      9  C   UNL     1       5.622   5.067  18.963  1.00  0.00     0.049 C 
ENDROOT
BRANCH   7  10
ATOM     10  O   UNL     1      10.434   5.801  17.875  1.00  0.00    -0.507 OA
ATOM     11  H   UNL     1      10.345   6.576  17.230  1.00  0.00     0.293 HD
ENDBRANCH   7  10
BRANCH   4  12
ATOM     12  O   UNL     1       6.274   2.241  19.099  1.00  0.00    -0.508 OA
ATOM     13  H   UNL     1       5.654   2.346  19.892  1.00  0.00     0.293 HD
ENDBRANCH   4  12
TORSDOF 2
ENDMDL
MODEL 5
REMARK VINA RESULT:    -1.876      1.414      2.965
REMARK INTER + INTRA:          -1.986
REMARK INTER:                  -1.986
REMARK INTRA:                   0.000
REMARK UNBOUND:                 0.000
REMARK SMILES Cc1cc(O)c(C)c(C)c1O
REMARK SMILES IDX 1 1 2 2 3 3 4 4 6 5 8 6 10 7 9 8 7 9 11 10 5 12
REMARK H PARENT 11 11 5 13
REMARK Flexibility Score: inf
ROOT
ATOM      1  C   UNL     1       8.496   1.015  18.252  1.00  0.00     0.048 C 
ATOM      2  C   UNL     1       8.338   2.510  18.334  1.00  0.00    -0.005 A 
ATOM      3  C   UNL     1       9.446   3.328  18.089  1.00  0.00     0.053 A 
ATOM      4  C   UNL     1       9.350   4.716  18.165  1.00  0.00     0.119 A 
ATOM      5  C   UNL     1       8.122   5.324  18.516  1.00  0.00    -0.003 A 
ATOM      6  C   UNL     1       6.973   4.508  18.705  1.00  0.00    -0.002 A 
ATOM      7  C   UNL     1       7.094   3.100  18.639  1.00  0.00     0.121 A 
ATOM      8  C   UNL     1       5.624   5.125  19.001  1.00  0.00     0.049 C 
ATOM      9  C   UNL     1       8.056   6.830  18.652  1.00  0.00     0.049 C 
ENDROOT
BRANCH   7  10
ATOM     10  O   UNL     1       5.966   2.307  18.879  1.00  0.00    -0.507 OA
ATOM     11  H   UNL     1       5.678   1.549  18.274  1.00  0.00     0.293 HD
ENDBRANCH   7  10
BRANCH   4  12
ATOM     12  O   UNL     1      10.497   5.461  17.875  1.00  0.00    -0.508 OA
ATOM     13  H   UNL     1      10.874   6.170  18.491  1.00  0.00     0.293 HD
ENDBRANCH   4  12
TORSDOF 2
ENDMDL
MODEL 6
REMARK VINA RESULT:    -1.481      0.703      3.107
REMARK INTER + INTRA:          -1.568
REMARK INTER:                  -1.568
REMARK INTRA:                   0.000
REMARK UNBOUND:                 0.000
REMARK SMILES Cc1cc(O)c(C)c(C)c1O
REMARK SMILES IDX 1 1 2 2 3 3 4 4 6 5 8 6 10 7 9 8 7 9 11 10 5 12
REMARK H PARENT 11 11 5 13
REMARK Flexibility Score: inf
ROOT
ATOM      1  C   UNL     1      10.287   5.780  18.024  1.00  0.00     0.048 C 
ATOM      2  C   UNL     1       9.151   4.820  18.256  1.00  0.00    -0.005 A 
ATOM      3  C   UNL     1       7.879   5.324  18.545  1.00  0.00     0.053 A 
ATOM      4  C   UNL     1       6.800   4.473  18.778  1.00  0.00     0.119 A 
ATOM      5  C   UNL     1       6.983   3.071  18.747  1.00  0.00    -0.003 A 
ATOM      6  C   UNL     1       8.256   2.546  18.391  1.00  0.00    -0.002 A 
ATOM      7  C   UNL     1       9.343   3.424  18.173  1.00  0.00     0.121 A 
ATOM      8  C   UNL     1       8.472   1.053  18.267  1.00  0.00     0.049 C 
ATOM      9  C   UNL     1       5.812   2.166  19.064  1.00  0.00     0.049 C 
ENDROOT
BRANCH   7  10
ATOM     10  O   UNL     1      10.602   2.892  17.875  1.00  0.00    -0.507 OA
ATOM     11  H   UNL     1      11.022   2.130  18.393  1.00  0.00     0.293 HD
ENDBRANCH   7  10
BRANCH   4  12
ATOM     12  O   UNL     1       5.557   5.059  19.030  1.00  0.00    -0.508 OA
ATOM     13  H   UNL     1       4.918   4.732  19.743  1.00  0.00     0.293 HD
ENDBRANCH   4  12
TORSDOF 2
ENDMDL
