MODEL 1
REMARK VINA RESULT:    -5.849      0.000      0.000
REMARK INTER + INTRA:          -7.139
REMARK INTER:                  -6.875
REMARK INTRA:                  -0.264
REMARK UNBOUND:                -0.264
REMARK SMILES O=c1cc(-c2ccc(O)c(O)c2)oc2cc(O)cc(O)c12
REMARK SMILES IDX 4 1 3 2 2 3 1 4 21 5 19 6 18 7 16 8 15 9 14 10 13 11 5 12
REMARK SMILES IDX 6 13 7 14 8 15 12 16 10 17 9 18 11 20 20 22 17 24
REMARK H PARENT 9 19 11 21 20 23 17 25
REMARK Flexibility Score: inf
ROOT
ATOM      1  C   UNL     1      -5.379  -0.035   6.557  1.00  0.00     0.138 A 
ATOM      2  C   UNL     1      -5.968   0.362   5.348  1.00  0.00     0.100 A 
ATOM      3  C   UNL     1      -6.655  -0.575   4.574  1.00  0.00     0.197 A 
ATOM      4  O   UNL     1      -7.225  -0.176   3.526  1.00  0.00    -0.289 OA
ATOM      5  C   UNL     1      -6.724  -1.923   4.998  1.00  0.00     0.107 A 
ATOM      6  C   UNL     1      -7.362  -2.972   4.272  1.00  0.00     0.134 A 
ATOM      7  C   UNL     1      -7.469  -4.244   4.847  1.00  0.00     0.093 A 
ATOM      8  C   UNL     1      -6.910  -4.521   6.094  1.00  0.00     0.123 A 
ATOM      9  C   UNL     1      -6.237  -3.516   6.791  1.00  0.00     0.094 A 
ATOM     10  C   UNL     1      -6.143  -2.228   6.258  1.00  0.00     0.146 A 
ATOM     11  O   UNL     1      -5.507  -1.295   6.960  1.00  0.00    -0.456 OA
ENDROOT
BRANCH   1  12
ATOM     12  C   UNL     1      -4.638   0.920   7.419  1.00  0.00     0.021 A 
ATOM     13  C   UNL     1      -3.245   0.829   7.594  1.00  0.00     0.016 A 
ATOM     14  C   UNL     1      -2.576   1.734   8.420  1.00  0.00     0.051 A 
ATOM     15  C   UNL     1      -3.275   2.741   9.092  1.00  0.00     0.157 A 
ATOM     16  C   UNL     1      -5.341   1.923   8.106  1.00  0.00     0.062 A 
ATOM     17  C   UNL     1      -4.678   2.836   8.935  1.00  0.00     0.158 A 
BRANCH  15  18
ATOM     18  O   UNL     1      -2.545   3.616   9.899  1.00  0.00    -0.504 OA
ATOM     19  H   UNL     1      -2.176   3.372  10.807  1.00  0.00     0.293 HD
ENDBRANCH  15  18
BRANCH  17  20
ATOM     20  O   UNL     1      -5.444   3.811   9.577  1.00  0.00    -0.504 OA
ATOM     21  H   UNL     1      -5.899   3.675  10.468  1.00  0.00     0.293 HD
ENDBRANCH  17  20
ENDBRANCH   1  12
BRANCH   6  22
ATOM     22  O   UNL     1      -7.879  -2.825   2.981  1.00  0.00    -0.507 OA
ATOM     23  H   UNL     1      -8.506  -3.475   2.533  1.00  0.00     0.293 HD
ENDBRANCH   6  22
BRANCH   8  24
ATOM     24  O   UNL     1      -7.022  -5.802   6.628  1.00  0.00    -0.508 OA
ATOM     25  H   UNL     1      -6.871  -6.629   6.061  1.00  0.00     0.293 HD
ENDBRANCH   8  24
TORSDOF 5
ENDMDL
MODEL 2
REMARK VINA RESULT:    -5.665      1.159      2.661
REMARK INTER + INTRA:          -6.923
REMARK INTER:                  -6.656
REMARK INTRA:                  -0.267
REMARK UNBOUND:                -0.264
REMARK SMILES O=c1cc(-c2ccc(O)c(O)c2)oc2cc(O)cc(O)c12
REMARK SMILES IDX 4 1 3 2 2 3 1 4 21 5 19 6 18 7 16 8 15 9 14 10 13 11 5 12
REMARK SMILES IDX 6 13 7 14 8 15 12 16 10 17 9 18 11 20 20 22 17 24
REMARK H PARENT 9 19 11 21 20 23 17 25
REMARK Flexibility Score: inf
ROOT
ATOM      1  C   UNL     1      -5.375  -0.520   6.779  1.00  0.00     0.138 A 
ATOM      2  C   UNL     1      -5.512  -1.790   7.357  1.00  0.00     0.100 A 
ATOM      3  C   UNL     1      -6.191  -2.794   6.666  1.00  0.00     0.197 A 
ATOM      4  O   UNL     1      -6.244  -3.940   7.183  1.00  0.00    -0.289 OA
ATOM      5  C   UNL     1      -6.764  -2.514   5.402  1.00  0.00     0.107 A 
ATOM      6  C   UNL     1      -7.512  -3.447   4.625  1.00  0.00     0.134 A 
ATOM      7  C   UNL     1      -7.930  -3.093   3.336  1.00  0.00     0.093 A 
ATOM      8  C   UNL     1      -7.680  -1.822   2.820  1.00  0.00     0.123 A 
ATOM      9  C   UNL     1      -6.995  -0.883   3.593  1.00  0.00     0.094 A 
ATOM     10  C   UNL     1      -6.535  -1.217   4.869  1.00  0.00     0.146 A 
ATOM     11  O   UNL     1      -5.874  -0.300   5.567  1.00  0.00    -0.456 OA
ENDROOT
BRANCH   1  12
ATOM     12  C   UNL     1      -4.663   0.584   7.471  1.00  0.00     0.021 A 
ATOM     13  C   UNL     1      -3.259   0.645   7.513  1.00  0.00     0.016 A 
ATOM     14  C   UNL     1      -2.616   1.689   8.181  1.00  0.00     0.051 A 
ATOM     15  C   UNL     1      -3.353   2.687   8.825  1.00  0.00     0.157 A 
ATOM     16  C   UNL     1      -5.402   1.580   8.131  1.00  0.00     0.062 A 
ATOM     17  C   UNL     1      -4.766   2.631   8.802  1.00  0.00     0.158 A 
BRANCH  15  18
ATOM     18  O   UNL     1      -2.648   3.705   9.472  1.00  0.00    -0.504 OA
ATOM     19  H   UNL     1      -1.839   4.167   9.082  1.00  0.00     0.293 HD
ENDBRANCH  15  18
BRANCH  17  20
ATOM     20  O   UNL     1      -5.569   3.588   9.426  1.00  0.00    -0.504 OA
ATOM     21  H   UNL     1      -5.947   3.487  10.357  1.00  0.00     0.293 HD
ENDBRANCH  17  20
ENDBRANCH   1  12
BRANCH   6  22
ATOM     22  O   UNL     1      -7.891  -4.715   5.078  1.00  0.00    -0.507 OA
ATOM     23  H   UNL     1      -7.301  -5.532   5.066  1.00  0.00     0.293 HD
ENDBRANCH   6  22
BRANCH   8  24
ATOM     24  O   UNL     1      -8.125  -1.500   1.540  1.00  0.00    -0.508 OA
ATOM     25  H   UNL     1      -8.790  -0.751   1.383  1.00  0.00     0.293 HD
ENDBRANCH   8  24
TORSDOF 5
ENDMDL
MODEL 3
REMARK VINA RESULT:    -5.146      1.342      1.748
REMARK INTER + INTRA:          -6.312
REMARK INTER:                  -6.045
REMARK INTRA:                  -0.267
REMARK UNBOUND:                -0.264
REMARK SMILES O=c1cc(-c2ccc(O)c(O)c2)oc2cc(O)cc(O)c12
REMARK SMILES IDX 4 1 3 2 2 3 1 4 21 5 19 6 18 7 16 8 15 9 14 10 13 11 5 12
REMARK SMILES IDX 6 13 7 14 8 15 12 16 10 17 9 18 11 20 20 22 17 24
REMARK H PARENT 9 19 11 21 20 23 17 25
REMARK Flexibility Score: inf
ROOT
ATOM      1  C   UNL     1      -5.423  -0.892   7.170  1.00  0.00     0.138 A 
ATOM      2  C   UNL     1      -5.773  -1.090   5.826  1.00  0.00     0.100 A 
ATOM      3  C   UNL     1      -6.392  -2.280   5.441  1.00  0.00     0.197 A 
ATOM      4  O   UNL     1      -6.749  -2.403   4.241  1.00  0.00    -0.289 OA
ATOM      5  C   UNL     1      -6.635  -3.290   6.403  1.00  0.00     0.107 A 
ATOM      6  C   UNL     1      -7.223  -4.557   6.119  1.00  0.00     0.134 A 
ATOM      7  C   UNL     1      -7.522  -5.431   7.172  1.00  0.00     0.093 A 
ATOM      8  C   UNL     1      -7.200  -5.109   8.489  1.00  0.00     0.123 A 
ATOM      9  C   UNL     1      -6.575  -3.893   8.773  1.00  0.00     0.094 A 
ATOM     10  C   UNL     1      -6.295  -2.987   7.749  1.00  0.00     0.146 A 
ATOM     11  O   UNL     1      -5.713  -1.833   8.062  1.00  0.00    -0.456 OA
ENDROOT
BRANCH   1  12
ATOM     12  C   UNL     1      -4.762   0.354   7.633  1.00  0.00     0.021 A 
ATOM     13  C   UNL     1      -3.381   0.561   7.471  1.00  0.00     0.016 A 
ATOM     14  C   UNL     1      -2.785   1.739   7.926  1.00  0.00     0.051 A 
ATOM     15  C   UNL     1      -3.545   2.728   8.557  1.00  0.00     0.157 A 
ATOM     16  C   UNL     1      -5.523   1.342   8.279  1.00  0.00     0.062 A 
ATOM     17  C   UNL     1      -4.933   2.527   8.738  1.00  0.00     0.158 A 
BRANCH  15  18
ATOM     18  O   UNL     1      -2.887   3.883   8.986  1.00  0.00    -0.504 OA
ATOM     19  H   UNL     1      -3.324   4.612   9.530  1.00  0.00     0.293 HD
ENDBRANCH  15  18
BRANCH  17  20
ATOM     20  O   UNL     1      -5.756   3.466   9.362  1.00  0.00    -0.504 OA
ATOM     21  H   UNL     1      -5.450   4.083  10.101  1.00  0.00     0.293 HD
ENDBRANCH  17  20
ENDBRANCH   1  12
BRANCH   6  22
ATOM     22  O   UNL     1      -7.508  -5.015   4.829  1.00  0.00    -0.507 OA
ATOM     23  H   UNL     1      -7.941  -4.464   4.103  1.00  0.00     0.293 HD
ENDBRANCH   6  22
BRANCH   8  24
ATOM     24  O   UNL     1      -7.497  -6.010   9.510  1.00  0.00    -0.508 OA
ATOM     25  H   UNL     1      -7.456  -7.012   9.362  1.00  0.00     0.293 HD
ENDBRANCH   8  24
TORSDOF 5
ENDMDL
MODEL 4
REMARK VINA RESULT:    -5.060      2.240      6.948
REMARK INTER + INTRA:          -6.211
REMARK INTER:                  -5.923
REMARK INTRA:                  -0.289
REMARK UNBOUND:                -0.264
REMARK SMILES O=c1cc(-c2ccc(O)c(O)c2)oc2cc(O)cc(O)c12
REMARK SMILES IDX 4 1 3 2 2 3 1 4 21 5 19 6 18 7 16 8 15 9 14 10 13 11 5 12
REMARK SMILES IDX 6 13 7 14 8 15 12 16 10 17 9 18 11 20 20 22 17 24
REMARK H PARENT 9 19 11 21 20 23 17 25
REMARK Flexibility Score: inf
ROOT
ATOM      1  C   UNL     1      -6.057  -2.765   7.815  1.00  0.00     0.138 A 
ATOM      2  C   UNL     1      -6.479  -2.212   6.597  1.00  0.00     0.100 A 
ATOM      3  C   UNL     1      -5.950  -0.993   6.172  1.00  0.00     0.197 A 
ATOM      4  O   UNL     1      -6.302  -0.552   5.047  1.00  0.00    -0.289 OA
ATOM      5  C   UNL     1      -5.015  -0.309   6.986  1.00  0.00     0.107 A 
ATOM      6  C   UNL     1      -4.439   0.957   6.674  1.00  0.00     0.134 A 
ATOM      7  C   UNL     1      -3.437   1.482   7.499  1.00  0.00     0.093 A 
ATOM      8  C   UNL     1      -3.032   0.816   8.655  1.00  0.00     0.123 A 
ATOM      9  C   UNL     1      -3.627  -0.399   8.999  1.00  0.00     0.094 A 
ATOM     10  C   UNL     1      -4.605  -0.965   8.178  1.00  0.00     0.146 A 
ATOM     11  O   UNL     1      -5.136  -2.130   8.533  1.00  0.00    -0.456 OA
ENDROOT
BRANCH   1  12
ATOM     12  C   UNL     1      -6.588  -4.058   8.314  1.00  0.00     0.021 A 
ATOM     13  C   UNL     1      -6.552  -4.394   9.679  1.00  0.00     0.016 A 
ATOM     14  C   UNL     1      -7.049  -5.622  10.119  1.00  0.00     0.051 A 
ATOM     15  C   UNL     1      -7.582  -6.544   9.213  1.00  0.00     0.157 A 
ATOM     16  C   UNL     1      -7.111  -4.991   7.403  1.00  0.00     0.062 A 
ATOM     17  C   UNL     1      -7.612  -6.225   7.835  1.00  0.00     0.158 A 
BRANCH  15  18
ATOM     18  O   UNL     1      -8.065  -7.753   9.719  1.00  0.00    -0.504 OA
ATOM     19  H   UNL     1      -8.832  -8.269   9.312  1.00  0.00     0.293 HD
ENDBRANCH  15  18
BRANCH  17  20
ATOM     20  O   UNL     1      -8.125  -7.095   6.871  1.00  0.00    -0.504 OA
ATOM     21  H   UNL     1      -9.111  -7.213   6.684  1.00  0.00     0.293 HD
ENDBRANCH  17  20
ENDBRANCH   1  12
BRANCH   6  22
ATOM     22  O   UNL     1      -4.831   1.747   5.589  1.00  0.00    -0.507 OA
ATOM     23  H   UNL     1      -4.223   2.367   5.077  1.00  0.00     0.293 HD
ENDBRANCH   6  22
BRANCH   8  24
ATOM     24  O   UNL     1      -2.043   1.375   9.460  1.00  0.00    -0.508 OA
ATOM     25  H   UNL     1      -2.212   2.216  10.001  1.00  0.00     0.293 HD
ENDBRANCH   8  24
TORSDOF 5
ENDMDL
MODEL 5
REMARK VINA RESULT:    -4.988      1.375      7.190
REMARK INTER + INTRA:          -6.126
REMARK INTER:                  -5.859
REMARK INTRA:                  -0.268
REMARK UNBOUND:                -0.264
REMARK SMILES O=c1cc(-c2ccc(O)c(O)c2)oc2cc(O)cc(O)c12
REMARK SMILES IDX 4 1 3 2 2 3 1 4 21 5 19 6 18 7 16 8 15 9 14 10 13 11 5 12
REMARK SMILES IDX 6 13 7 14 8 15 12 16 10 17 9 18 11 20 20 22 17 24
REMARK H PARENT 9 19 11 21 20 23 17 25
REMARK Flexibility Score: inf
ROOT
ATOM      1  C   UNL     1      -5.207  -0.398   7.207  1.00  0.00     0.138 A 
ATOM      2  C   UNL     1      -3.826  -0.210   7.360  1.00  0.00     0.100 A 
ATOM      3  C   UNL     1      -3.352   0.922   8.026  1.00  0.00     0.197 A 
ATOM      4  O   UNL     1      -2.111   1.032   8.201  1.00  0.00    -0.289 OA
ATOM      5  C   UNL     1      -4.267   1.884   8.515  1.00  0.00     0.107 A 
ATOM      6  C   UNL     1      -3.898   3.094   9.174  1.00  0.00     0.134 A 
ATOM      7  C   UNL     1      -4.894   3.915   9.719  1.00  0.00     0.093 A 
ATOM      8  C   UNL     1      -6.245   3.601   9.576  1.00  0.00     0.123 A 
ATOM      9  C   UNL     1      -6.619   2.447   8.887  1.00  0.00     0.094 A 
ATOM     10  C   UNL     1      -5.649   1.591   8.362  1.00  0.00     0.146 A 
ATOM     11  O   UNL     1      -6.046   0.494   7.724  1.00  0.00    -0.456 OA
ENDROOT
BRANCH   1  12
ATOM     12  C   UNL     1      -5.764  -1.582   6.507  1.00  0.00     0.021 A 
ATOM     13  C   UNL     1      -5.809  -2.848   7.117  1.00  0.00     0.016 A 
ATOM     14  C   UNL     1      -6.329  -3.947   6.430  1.00  0.00     0.051 A 
ATOM     15  C   UNL     1      -6.806  -3.812   5.122  1.00  0.00     0.157 A 
ATOM     16  C   UNL     1      -6.231  -1.451   5.188  1.00  0.00     0.062 A 
ATOM     17  C   UNL     1      -6.754  -2.548   4.491  1.00  0.00     0.158 A 
BRANCH  15  18
ATOM     18  O   UNL     1      -7.315  -4.950   4.493  1.00  0.00    -0.504 OA
ATOM     19  H   UNL     1      -7.785  -4.938   3.599  1.00  0.00     0.293 HD
ENDBRANCH  15  18
BRANCH  17  20
ATOM     20  O   UNL     1      -7.207  -2.336   3.188  1.00  0.00    -0.504 OA
ATOM     21  H   UNL     1      -6.970  -1.526   2.632  1.00  0.00     0.293 HD
ENDBRANCH  17  20
ENDBRANCH   1  12
BRANCH   6  22
ATOM     22  O   UNL     1      -2.581   3.546   9.298  1.00  0.00    -0.507 OA
ATOM     23  H   UNL     1      -2.311   4.507   9.441  1.00  0.00     0.293 HD
ENDBRANCH   6  22
BRANCH   8  24
ATOM     24  O   UNL     1      -7.209   4.449  10.117  1.00  0.00    -0.508 OA
ATOM     25  H   UNL     1      -8.169   4.148  10.244  1.00  0.00     0.293 HD
ENDBRANCH   8  24
TORSDOF 5
ENDMDL
MODEL 6
REMARK VINA RESULT:    -4.911      1.254      7.031
REMARK INTER + INTRA:          -6.036
REMARK INTER:                  -5.772
REMARK INTRA:                  -0.264
REMARK UNBOUND:                -0.264
REMARK SMILES O=c1cc(-c2ccc(O)c(O)c2)oc2cc(O)cc(O)c12
REMARK SMILES IDX 4 1 3 2 2 3 1 4 21 5 19 6 18 7 16 8 15 9 14 10 13 11 5 12
REMARK SMILES IDX 6 13 7 14 8 15 12 16 10 17 9 18 11 20 20 22 17 24
REMARK H PARENT 9 19 11 21 20 23 17 25
REMARK Flexibility Score: inf
ROOT
ATOM      1  C   UNL     1      -5.978  -0.446   7.243  1.00  0.00     0.138 A 
ATOM      2  C   UNL     1      -6.845   0.643   7.419  1.00  0.00     0.100 A 
ATOM      3  C   UNL     1      -6.398   1.779   8.095  1.00  0.00     0.197 A 
ATOM      4  O   UNL     1      -7.178   2.762   8.184  1.00  0.00    -0.289 OA
ATOM      5  C   UNL     1      -5.086   1.812   8.625  1.00  0.00     0.107 A 
ATOM      6  C   UNL     1      -4.536   2.900   9.365  1.00  0.00     0.134 A 
ATOM      7  C   UNL     1      -3.187   2.869   9.739  1.00  0.00     0.093 A 
ATOM      8  C   UNL     1      -2.384   1.766   9.451  1.00  0.00     0.123 A 
ATOM      9  C   UNL     1      -2.926   0.673   8.773  1.00  0.00     0.094 A 
ATOM     10  C   UNL     1      -4.259   0.688   8.358  1.00  0.00     0.146 A 
ATOM     11  O   UNL     1      -4.733  -0.366   7.702  1.00  0.00    -0.456 OA
ENDROOT
BRANCH   1  12
ATOM     12  C   UNL     1      -6.401  -1.678   6.533  1.00  0.00     0.021 A 
ATOM     13  C   UNL     1      -6.523  -2.911   7.200  1.00  0.00     0.016 A 
ATOM     14  C   UNL     1      -6.913  -4.056   6.503  1.00  0.00     0.051 A 
ATOM     15  C   UNL     1      -7.181  -4.003   5.132  1.00  0.00     0.157 A 
ATOM     16  C   UNL     1      -6.658  -1.629   5.152  1.00  0.00     0.062 A 
ATOM     17  C   UNL     1      -7.050  -2.773   4.446  1.00  0.00     0.158 A 
BRANCH  15  18
ATOM     18  O   UNL     1      -7.570  -5.184   4.496  1.00  0.00    -0.504 OA
ATOM     19  H   UNL     1      -7.268  -5.453   3.571  1.00  0.00     0.293 HD
ENDBRANCH  15  18
BRANCH  17  20
ATOM     20  O   UNL     1      -7.297  -2.642   3.078  1.00  0.00    -0.504 OA
ATOM     21  H   UNL     1      -6.786  -2.017   2.469  1.00  0.00     0.293 HD
ENDBRANCH  17  20
ENDBRANCH   1  12
BRANCH   6  22
ATOM     22  O   UNL     1      -5.273   4.014   9.780  1.00  0.00    -0.507 OA
ATOM     23  H   UNL     1      -4.885   4.926   9.966  1.00  0.00     0.293 HD
ENDBRANCH   6  22
BRANCH   8  24
ATOM     24  O   UNL     1      -1.050   1.763   9.851  1.00  0.00    -0.508 OA
ATOM     25  H   UNL     1      -0.731   1.196  10.629  1.00  0.00     0.293 HD
ENDBRANCH   8  24
TORSDOF 5
ENDMDL
MODEL 7
REMARK VINA RESULT:    -4.893     13.981     16.092
REMARK INTER + INTRA:          -6.015
REMARK INTER:                  -5.697
REMARK INTRA:                  -0.318
REMARK UNBOUND:                -0.264
REMARK SMILES O=c1cc(-c2ccc(O)c(O)c2)oc2cc(O)cc(O)c12
REMARK SMILES IDX 4 1 3 2 2 3 1 4 21 5 19 6 18 7 16 8 15 9 14 10 13 11 5 12
REMARK SMILES IDX 6 13 7 14 8 15 12 16 10 17 9 18 11 20 20 22 17 24
REMARK H PARENT 9 19 11 21 20 23 17 25
REMARK Flexibility Score: inf
ROOT
ATOM      1  C   UNL     1      -6.282  -4.320  -7.500  1.00  0.00     0.138 A 
ATOM      2  C   UNL     1      -7.360  -3.443  -7.312  1.00  0.00     0.100 A 
ATOM      3  C   UNL     1      -7.121  -2.074  -7.183  1.00  0.00     0.197 A 
ATOM      4  O   UNL     1      -8.112  -1.306  -7.076  1.00  0.00    -0.289 OA
ATOM      5  C   UNL     1      -5.793  -1.585  -7.213  1.00  0.00     0.107 A 
ATOM      6  C   UNL     1      -5.428  -0.216  -7.052  1.00  0.00     0.134 A 
ATOM      7  C   UNL     1      -4.091   0.165  -7.218  1.00  0.00     0.093 A 
ATOM      8  C   UNL     1      -3.098  -0.779  -7.478  1.00  0.00     0.123 A 
ATOM      9  C   UNL     1      -3.437  -2.129  -7.584  1.00  0.00     0.094 A 
ATOM     10  C   UNL     1      -4.767  -2.536  -7.458  1.00  0.00     0.146 A 
ATOM     11  O   UNL     1      -5.050  -3.829  -7.581  1.00  0.00    -0.456 OA
ENDROOT
BRANCH   1  12
ATOM     12  C   UNL     1      -6.479  -5.785  -7.642  1.00  0.00     0.021 A 
ATOM     13  C   UNL     1      -7.749  -6.375  -7.514  1.00  0.00     0.016 A 
ATOM     14  C   UNL     1      -7.903  -7.757  -7.641  1.00  0.00     0.051 A 
ATOM     15  C   UNL     1      -6.800  -8.580  -7.890  1.00  0.00     0.157 A 
ATOM     16  C   UNL     1      -5.370  -6.614  -7.879  1.00  0.00     0.062 A 
ATOM     17  C   UNL     1      -5.515  -8.001  -8.009  1.00  0.00     0.158 A 
BRANCH  15  18
ATOM     18  O   UNL     1      -7.023  -9.953  -8.010  1.00  0.00    -0.504 OA
ATOM     19  H   UNL     1      -7.890 -10.408  -7.763  1.00  0.00     0.293 HD
ENDBRANCH  15  18
BRANCH  17  20
ATOM     20  O   UNL     1      -4.367  -8.756  -8.253  1.00  0.00    -0.504 OA
ATOM     21  H   UNL     1      -3.534  -8.718  -7.682  1.00  0.00     0.293 HD
ENDBRANCH  17  20
ENDBRANCH   1  12
BRANCH   6  22
ATOM     22  O   UNL     1      -6.328   0.797  -6.708  1.00  0.00    -0.507 OA
ATOM     23  H   UNL     1      -6.768   0.896  -5.806  1.00  0.00     0.293 HD
ENDBRANCH   6  22
BRANCH   8  24
ATOM     24  O   UNL     1      -1.776  -0.365  -7.621  1.00  0.00    -0.508 OA
ATOM     25  H   UNL     1      -1.254  -0.540  -8.473  1.00  0.00     0.293 HD
ENDBRANCH   8  24
TORSDOF 5
ENDMDL
MODEL 8
REMARK VINA RESULT:    -4.596      1.617      3.074
REMARK INTER + INTRA:          -5.666
REMARK INTER:                  -5.402
REMARK INTRA:                  -0.263
REMARK UNBOUND:                -0.264
REMARK SMILES O=c1cc(-c2ccc(O)c(O)c2)oc2cc(O)cc(O)c12
REMARK SMILES IDX 4 1 3 2 2 3 1 4 21 5 19 6 18 7 16 8 15 9 14 10 13 11 5 12
REMARK SMILES IDX 6 13 7 14 8 15 12 16 10 17 9 18 11 20 20 22 17 24
REMARK H PARENT 9 19 11 21 20 23 17 25
REMARK Flexibility Score: inf
ROOT
ATOM      1  C   UNL     1      -5.197  -0.887   8.309  1.00  0.00     0.138 A 
ATOM      2  C   UNL     1      -5.218  -1.806   9.368  1.00  0.00     0.100 A 
ATOM      3  C   UNL     1      -5.778  -3.070   9.174  1.00  0.00     0.197 A 
ATOM      4  O   UNL     1      -5.727  -3.894  10.124  1.00  0.00    -0.289 OA
ATOM      5  C   UNL     1      -6.347  -3.403   7.922  1.00  0.00     0.107 A 
ATOM      6  C   UNL     1      -6.980  -4.645   7.622  1.00  0.00     0.134 A 
ATOM      7  C   UNL     1      -7.403  -4.906   6.312  1.00  0.00     0.093 A 
ATOM      8  C   UNL     1      -7.270  -3.949   5.308  1.00  0.00     0.123 A 
ATOM      9  C   UNL     1      -6.700  -2.709   5.602  1.00  0.00     0.094 A 
ATOM     10  C   UNL     1      -6.238  -2.432   6.890  1.00  0.00     0.146 A 
ATOM     11  O   UNL     1      -5.688  -1.245   7.127  1.00  0.00    -0.456 OA
ENDROOT
BRANCH   1  12
ATOM     12  C   UNL     1      -4.615   0.470   8.460  1.00  0.00     0.021 A 
ATOM     13  C   UNL     1      -3.270   0.736   8.148  1.00  0.00     0.016 A 
ATOM     14  C   UNL     1      -2.746   2.020   8.311  1.00  0.00     0.051 A 
ATOM     15  C   UNL     1      -3.544   3.062   8.794  1.00  0.00     0.157 A 
ATOM     16  C   UNL     1      -5.412   1.514   8.958  1.00  0.00     0.062 A 
ATOM     17  C   UNL     1      -4.895   2.806   9.125  1.00  0.00     0.158 A 
BRANCH  15  18
ATOM     18  O   UNL     1      -2.960   4.323   8.930  1.00  0.00    -0.504 OA
ATOM     19  H   UNL     1      -1.980   4.473   9.120  1.00  0.00     0.293 HD
ENDBRANCH  15  18
BRANCH  17  20
ATOM     20  O   UNL     1      -5.752   3.792   9.615  1.00  0.00    -0.504 OA
ATOM     21  H   UNL     1      -6.760   3.730   9.587  1.00  0.00     0.293 HD
ENDBRANCH  17  20
ENDBRANCH   1  12
BRANCH   6  22
ATOM     22  O   UNL     1      -7.240  -5.639   8.571  1.00  0.00    -0.507 OA
ATOM     23  H   UNL     1      -8.112  -6.136   8.662  1.00  0.00     0.293 HD
ENDBRANCH   6  22
BRANCH   8  24
ATOM     24  O   UNL     1      -7.716  -4.237   4.020  1.00  0.00    -0.508 OA
ATOM     25  H   UNL     1      -8.639  -4.622   3.852  1.00  0.00     0.293 HD
ENDBRANCH   8  24
TORSDOF 5
ENDMDL
MODEL 9
REMARK VINA RESULT:    -4.476     14.773     16.436
REMARK INTER + INTRA:          -5.525
REMARK INTER:                  -5.222
REMARK INTRA:                  -0.303
REMARK UNBOUND:                -0.264
REMARK SMILES O=c1cc(-c2ccc(O)c(O)c2)oc2cc(O)cc(O)c12
REMARK SMILES IDX 4 1 3 2 2 3 1 4 21 5 19 6 18 7 16 8 15 9 14 10 13 11 5 12
REMARK SMILES IDX 6 13 7 14 8 15 12 16 10 17 9 18 11 20 20 22 17 24
REMARK H PARENT 9 19 11 21 20 23 17 25
REMARK Flexibility Score: inf
ROOT
ATOM      1  C   UNL     1      -5.591  -2.991  -8.347  1.00  0.00     0.138 A 
ATOM      2  C   UNL     1      -6.358  -2.074  -9.081  1.00  0.00     0.100 A 
ATOM      3  C   UNL     1      -5.849  -0.801  -9.343  1.00  0.00     0.197 A 
ATOM      4  O   UNL     1      -6.534  -0.023 -10.056  1.00  0.00    -0.289 OA
ATOM      5  C   UNL     1      -4.578  -0.435  -8.840  1.00  0.00     0.107 A 
ATOM      6  C   UNL     1      -3.976   0.847  -9.010  1.00  0.00     0.134 A 
ATOM      7  C   UNL     1      -2.664   1.058  -8.568  1.00  0.00     0.093 A 
ATOM      8  C   UNL     1      -1.955   0.053  -7.910  1.00  0.00     0.123 A 
ATOM      9  C   UNL     1      -2.553  -1.188  -7.691  1.00  0.00     0.094 A 
ATOM     10  C   UNL     1      -3.848  -1.440  -8.150  1.00  0.00     0.146 A 
ATOM     11  O   UNL     1      -4.378  -2.640  -7.934  1.00  0.00    -0.456 OA
ENDROOT
BRANCH   1  12
ATOM     12  C   UNL     1      -6.084  -4.357  -8.040  1.00  0.00     0.021 A 
ATOM     13  C   UNL     1      -7.440  -4.608  -7.764  1.00  0.00     0.016 A 
ATOM     14  C   UNL     1      -7.873  -5.902  -7.467  1.00  0.00     0.051 A 
ATOM     15  C   UNL     1      -6.970  -6.968  -7.431  1.00  0.00     0.157 A 
ATOM     16  C   UNL     1      -5.175  -5.427  -7.990  1.00  0.00     0.062 A 
ATOM     17  C   UNL     1      -5.601  -6.728  -7.694  1.00  0.00     0.158 A 
BRANCH  15  18
ATOM     18  O   UNL     1      -7.469  -8.238  -7.132  1.00  0.00    -0.504 OA
ATOM     19  H   UNL     1      -7.847  -8.498  -6.232  1.00  0.00     0.293 HD
ENDBRANCH  15  18
BRANCH  17  20
ATOM     20  O   UNL     1      -4.639  -7.740  -7.673  1.00  0.00    -0.504 OA
ATOM     21  H   UNL     1      -4.212  -8.130  -8.501  1.00  0.00     0.293 HD
ENDBRANCH  17  20
ENDBRANCH   1  12
BRANCH   6  22
ATOM     22  O   UNL     1      -4.627   1.947  -9.578  1.00  0.00    -0.507 OA
ATOM     23  H   UNL     1      -4.203   2.601 -10.217  1.00  0.00     0.293 HD
ENDBRANCH   6  22
BRANCH   8  24
ATOM     24  O   UNL     1      -0.657   0.303  -7.471  1.00  0.00    -0.508 OA
ATOM     25  H   UNL     1      -0.138  -0.382  -6.933  1.00  0.00     0.293 HD
ENDBRANCH   8  24
TORSDOF 5
ENDMDL
