MODEL 1
REMARK VINA RESULT:    -4.805      0.000      0.000
REMARK INTER + INTRA:          -6.624
REMARK INTER:                  -6.210
REMARK INTRA:                  -0.414
REMARK UNBOUND:                -0.414
REMARK SMILES CCO[C@H]1O[C@@H](CO)[C@H](O)[C@H](O)[C@@H]1O
REMARK SMILES IDX 4 1 13 2 11 3 9 4 6 5 5 6 3 7 2 8 1 9 14 10 12 12 7 14 8 15
REMARK SMILES IDX 10 17
REMARK H PARENT 14 11 12 13 8 16 10 18
REMARK Flexibility Score: inf
ROOT
ATOM      1  C   UNL     1     -22.272 -27.108   2.378  1.00  0.00     0.281 C 
ATOM      2  C   UNL     1     -21.157 -27.792   1.532  1.00  0.00     0.202 C 
ATOM      3  C   UNL     1     -20.022 -26.795   1.235  1.00  0.00     0.179 C 
ATOM      4  C   UNL     1     -20.574 -25.524   0.550  1.00  0.00     0.177 C 
ATOM      5  C   UNL     1     -21.970 -25.155   1.130  1.00  0.00     0.178 C 
ATOM      6  O   UNL     1     -22.123 -25.693   2.431  1.00  0.00    -0.341 OA
ENDROOT
BRANCH   1   7
ATOM      7  O   UNL     1     -22.208 -27.619   3.698  1.00  0.00    -0.350 OA
BRANCH   7   8
ATOM      8  C   UNL     1     -22.552 -28.992   3.737  1.00  0.00     0.160 C 
ATOM      9  C   UNL     1     -24.055 -29.161   3.548  1.00  0.00     0.035 C 
ENDBRANCH   7   8
ENDBRANCH   1   7
BRANCH   2  10
ATOM     10  O   UNL     1     -21.709 -28.271   0.330  1.00  0.00    -0.385 OA
ATOM     11  H   UNL     1     -21.668 -27.529  -0.328  1.00  0.00     0.211 HD
ENDBRANCH   2  10
BRANCH   3  12
ATOM     12  O   UNL     1     -19.035 -27.407   0.443  1.00  0.00    -0.387 OA
ATOM     13  H   UNL     1     -18.568 -26.679  -0.043  1.00  0.00     0.211 HD
ENDBRANCH   3  12
BRANCH   5  14
ATOM     14  C   UNL     1     -22.178 -23.633   1.186  1.00  0.00     0.191 C 
BRANCH  14  15
ATOM     15  O   UNL     1     -21.424 -22.981   0.198  1.00  0.00    -0.394 OA
ATOM     16  H   UNL     1     -21.184 -23.667  -0.479  1.00  0.00     0.210 HD
ENDBRANCH  14  15
ENDBRANCH   5  14
BRANCH   4  17
ATOM     17  O   UNL     1     -20.676 -25.734  -0.837  1.00  0.00    -0.387 OA
ATOM     18  H   UNL     1     -20.092 -26.508  -1.052  1.00  0.00     0.211 HD
ENDBRANCH   4  17
TORSDOF 7
ENDMDL
MODEL 2
REMARK VINA RESULT:    -4.768      9.887     11.835
REMARK INTER + INTRA:          -6.577
REMARK INTER:                  -6.245
REMARK INTRA:                  -0.331
REMARK UNBOUND:                -0.414
REMARK SMILES CCO[C@H]1O[C@@H](CO)[C@H](O)[C@H](O)[C@@H]1O
REMARK SMILES IDX 4 1 13 2 11 3 9 4 6 5 5 6 3 7 2 8 1 9 14 10 12 12 7 14 8 15
REMARK SMILES IDX 10 17
REMARK H PARENT 14 11 12 13 8 16 10 18
REMARK Flexibility Score: inf
ROOT
ATOM      1  C   UNL     1     -20.989 -31.340  13.019  1.00  0.00     0.281 C 
ATOM      2  C   UNL     1     -19.908 -30.636  12.143  1.00  0.00     0.202 C 
ATOM      3  C   UNL     1     -20.474 -30.314  10.749  1.00  0.00     0.179 C 
ATOM      4  C   UNL     1     -21.029 -31.590  10.073  1.00  0.00     0.177 C 
ATOM      5  C   UNL     1     -21.701 -32.516  11.128  1.00  0.00     0.178 C 
ATOM      6  O   UNL     1     -22.114 -31.764  12.255  1.00  0.00    -0.341 OA
ENDROOT
BRANCH   1   7
ATOM      7  O   UNL     1     -21.432 -30.423  14.004  1.00  0.00    -0.350 OA
BRANCH   7   8
ATOM      8  C   UNL     1     -22.110 -31.084  15.056  1.00  0.00     0.160 C 
ATOM      9  C   UNL     1     -22.093 -30.223  16.314  1.00  0.00     0.035 C 
ENDBRANCH   7   8
ENDBRANCH   1   7
BRANCH   2  10
ATOM     10  O   UNL     1     -18.783 -31.473  12.030  1.00  0.00    -0.385 OA
ATOM     11  H   UNL     1     -18.035 -31.023  12.503  1.00  0.00     0.211 HD
ENDBRANCH   2  10
BRANCH   3  12
ATOM     12  O   UNL     1     -19.485 -29.711   9.953  1.00  0.00    -0.387 OA
ATOM     13  H   UNL     1     -19.957 -29.105   9.323  1.00  0.00     0.211 HD
ENDBRANCH   3  12
BRANCH   5  14
ATOM     14  C   UNL     1     -22.915 -33.256  10.544  1.00  0.00     0.191 C 
BRANCH  14  15
ATOM     15  O   UNL     1     -22.787 -33.424   9.156  1.00  0.00    -0.394 OA
ATOM     16  H   UNL     1     -23.407 -32.775   8.731  1.00  0.00     0.210 HD
ENDBRANCH  14  15
ENDBRANCH   5  14
BRANCH   4  17
ATOM     17  O   UNL     1     -19.987 -32.281   9.430  1.00  0.00    -0.387 OA
ATOM     18  H   UNL     1     -20.265 -32.400   8.484  1.00  0.00     0.211 HD
ENDBRANCH   4  17
TORSDOF 7
ENDMDL
MODEL 3
REMARK VINA RESULT:    -4.694     13.679     16.063
REMARK INTER + INTRA:          -6.481
REMARK INTER:                  -6.280
REMARK INTRA:                  -0.201
REMARK UNBOUND:                -0.414
REMARK SMILES CCO[C@H]1O[C@@H](CO)[C@H](O)[C@H](O)[C@@H]1O
REMARK SMILES IDX 4 1 13 2 11 3 9 4 6 5 5 6 3 7 2 8 1 9 14 10 12 12 7 14 8 15
REMARK SMILES IDX 10 17
REMARK H PARENT 14 11 12 13 8 16 10 18
REMARK Flexibility Score: inf
ROOT
ATOM      1  C   UNL     1     -22.503 -26.579  15.534  1.00  0.00     0.281 C 
ATOM      2  C   UNL     1     -23.237 -25.876  16.716  1.00  0.00     0.202 C 
ATOM      3  C   UNL     1     -22.646 -26.333  18.062  1.00  0.00     0.179 C 
ATOM      4  C   UNL     1     -22.688 -27.874  18.185  1.00  0.00     0.177 C 
ATOM      5  C   UNL     1     -22.411 -28.538  16.806  1.00  0.00     0.178 C 
ATOM      6  O   UNL     1     -21.682 -27.657  15.969  1.00  0.00    -0.341 OA
ENDROOT
BRANCH   1   7
ATOM      7  O   UNL     1     -21.685 -25.622  14.884  1.00  0.00    -0.350 OA
BRANCH   7   8
ATOM      8  C   UNL     1     -20.348 -25.687  15.347  1.00  0.00     0.160 C 
ATOM      9  C   UNL     1     -19.527 -24.556  14.740  1.00  0.00     0.035 C 
ENDBRANCH   7   8
ENDBRANCH   1   7
BRANCH   2  10
ATOM     10  O   UNL     1     -24.609 -26.179  16.661  1.00  0.00    -0.385 OA
ATOM     11  H   UNL     1     -24.923 -25.953  15.746  1.00  0.00     0.211 HD
ENDBRANCH   2  10
BRANCH   3  12
ATOM     12  O   UNL     1     -23.333 -25.722  19.124  1.00  0.00    -0.387 OA
ATOM     13  H   UNL     1     -22.643 -25.395  19.759  1.00  0.00     0.211 HD
ENDBRANCH   3  12
BRANCH   5  14
ATOM     14  C   UNL     1     -21.630 -29.853  16.955  1.00  0.00     0.191 C 
BRANCH  14  15
ATOM     15  O   UNL     1     -20.665 -29.758  17.969  1.00  0.00    -0.394 OA
ATOM     16  H   UNL     1     -20.501 -30.681  18.296  1.00  0.00     0.210 HD
ENDBRANCH  14  15
ENDBRANCH   5  14
BRANCH   4  17
ATOM     17  O   UNL     1     -23.946 -28.280  18.664  1.00  0.00    -0.387 OA
ATOM     18  H   UNL     1     -24.303 -27.527  19.204  1.00  0.00     0.211 HD
ENDBRANCH   4  17
TORSDOF 7
ENDMDL
MODEL 4
REMARK VINA RESULT:    -4.683      9.450     11.485
REMARK INTER + INTRA:          -6.466
REMARK INTER:                  -6.209
REMARK INTRA:                  -0.257
REMARK UNBOUND:                -0.414
REMARK SMILES CCO[C@H]1O[C@@H](CO)[C@H](O)[C@H](O)[C@@H]1O
REMARK SMILES IDX 4 1 13 2 11 3 9 4 6 5 5 6 3 7 2 8 1 9 14 10 12 12 7 14 8 15
REMARK SMILES IDX 10 17
REMARK H PARENT 14 11 12 13 8 16 10 18
REMARK Flexibility Score: inf
ROOT
ATOM      1  C   UNL     1     -21.566 -31.073  12.302  1.00  0.00     0.281 C 
ATOM      2  C   UNL     1     -22.717 -32.032  11.872  1.00  0.00     0.202 C 
ATOM      3  C   UNL     1     -22.192 -33.095  10.891  1.00  0.00     0.179 C 
ATOM      4  C   UNL     1     -21.507 -32.429   9.675  1.00  0.00     0.177 C 
ATOM      5  C   UNL     1     -20.739 -31.150  10.116  1.00  0.00     0.178 C 
ATOM      6  O   UNL     1     -20.405 -31.222  11.491  1.00  0.00    -0.341 OA
ENDROOT
BRANCH   1   7
ATOM      7  O   UNL     1     -21.220 -31.363  13.644  1.00  0.00    -0.350 OA
BRANCH   7   8
ATOM      8  C   UNL     1     -21.703 -30.367  14.528  1.00  0.00     0.160 C 
ATOM      9  C   UNL     1     -22.309 -31.015  15.768  1.00  0.00     0.035 C 
ENDBRANCH   7   8
ENDBRANCH   1   7
BRANCH   2  10
ATOM     10  O   UNL     1     -23.748 -31.286  11.274  1.00  0.00    -0.385 OA
ATOM     11  H   UNL     1     -23.336 -30.743  10.553  1.00  0.00     0.211 HD
ENDBRANCH   2  10
BRANCH   3  12
ATOM     12  O   UNL     1     -23.240 -33.936  10.481  1.00  0.00    -0.387 OA
ATOM     13  H   UNL     1     -23.643 -33.518   9.676  1.00  0.00     0.211 HD
ENDBRANCH   3  12
BRANCH   5  14
ATOM     14  C   UNL     1     -19.455 -30.946   9.296  1.00  0.00     0.191 C 
BRANCH  14  15
ATOM     15  O   UNL     1     -19.166 -32.077   8.517  1.00  0.00    -0.394 OA
ATOM     16  H   UNL     1     -19.664 -31.971   7.664  1.00  0.00     0.210 HD
ENDBRANCH  14  15
ENDBRANCH   5  14
BRANCH   4  17
ATOM     17  O   UNL     1     -22.472 -32.093   8.709  1.00  0.00    -0.387 OA
ATOM     18  H   UNL     1     -22.867 -32.947   8.391  1.00  0.00     0.211 HD
ENDBRANCH   4  17
TORSDOF 7
ENDMDL
MODEL 5
REMARK VINA RESULT:    -4.675     13.165     15.389
REMARK INTER + INTRA:          -6.456
REMARK INTER:                  -6.291
REMARK INTRA:                  -0.166
REMARK UNBOUND:                -0.414
REMARK SMILES CCO[C@H]1O[C@@H](CO)[C@H](O)[C@H](O)[C@@H]1O
REMARK SMILES IDX 4 1 13 2 11 3 9 4 6 5 5 6 3 7 2 8 1 9 14 10 12 12 7 14 8 15
REMARK SMILES IDX 10 17
REMARK H PARENT 14 11 12 13 8 16 10 18
REMARK Flexibility Score: inf
ROOT
ATOM      1  C   UNL     1     -21.379 -29.305  16.171  1.00  0.00     0.281 C 
ATOM      2  C   UNL     1     -22.236 -29.421  17.468  1.00  0.00     0.202 C 
ATOM      3  C   UNL     1     -23.224 -28.244  17.565  1.00  0.00     0.179 C 
ATOM      4  C   UNL     1     -22.477 -26.892  17.481  1.00  0.00     0.177 C 
ATOM      5  C   UNL     1     -21.285 -26.990  16.486  1.00  0.00     0.178 C 
ATOM      6  O   UNL     1     -21.505 -28.030  15.550  1.00  0.00    -0.341 OA
ENDROOT
BRANCH   1   7
ATOM      7  O   UNL     1     -21.814 -30.297  15.259  1.00  0.00    -0.350 OA
BRANCH   7   8
ATOM      8  C   UNL     1     -21.411 -29.993  13.935  1.00  0.00     0.160 C 
ATOM      9  C   UNL     1     -21.326 -31.269  13.106  1.00  0.00     0.035 C 
ENDBRANCH   7   8
ENDBRANCH   1   7
BRANCH   2  10
ATOM     10  O   UNL     1     -21.387 -29.436  18.589  1.00  0.00    -0.385 OA
ATOM     11  H   UNL     1     -20.795 -30.228  18.497  1.00  0.00     0.211 HD
ENDBRANCH   2  10
BRANCH   3  12
ATOM     12  O   UNL     1     -23.970 -28.335  18.752  1.00  0.00    -0.387 OA
ATOM     13  H   UNL     1     -24.302 -27.421  18.951  1.00  0.00     0.211 HD
ENDBRANCH   3  12
BRANCH   5  14
ATOM     14  C   UNL     1     -21.065 -25.670  15.731  1.00  0.00     0.191 C 
BRANCH  14  15
ATOM     15  O   UNL     1     -22.188 -25.333  14.961  1.00  0.00    -0.394 OA
ATOM     16  H   UNL     1     -22.978 -25.720  15.422  1.00  0.00     0.210 HD
ENDBRANCH  14  15
ENDBRANCH   5  14
BRANCH   4  17
ATOM     17  O   UNL     1     -22.004 -26.528  18.754  1.00  0.00    -0.387 OA
ATOM     18  H   UNL     1     -21.814 -27.373  19.241  1.00  0.00     0.211 HD
ENDBRANCH   4  17
TORSDOF 7
ENDMDL
MODEL 6
REMARK VINA RESULT:    -4.652      1.711      4.421
REMARK INTER + INTRA:          -6.427
REMARK INTER:                  -6.266
REMARK INTRA:                  -0.161
REMARK UNBOUND:                -0.414
REMARK SMILES CCO[C@H]1O[C@@H](CO)[C@H](O)[C@H](O)[C@@H]1O
REMARK SMILES IDX 4 1 13 2 11 3 9 4 6 5 5 6 3 7 2 8 1 9 14 10 12 12 7 14 8 15
REMARK SMILES IDX 10 17
REMARK H PARENT 14 11 12 13 8 16 10 18
REMARK Flexibility Score: inf
ROOT
ATOM      1  C   UNL     1     -20.825 -25.846   0.598  1.00  0.00     0.281 C 
ATOM      2  C   UNL     1     -21.860 -26.566   1.515  1.00  0.00     0.202 C 
ATOM      3  C   UNL     1     -21.156 -27.179   2.739  1.00  0.00     0.179 C 
ATOM      4  C   UNL     1     -20.013 -28.123   2.299  1.00  0.00     0.177 C 
ATOM      5  C   UNL     1     -19.300 -27.563   1.035  1.00  0.00     0.178 C 
ATOM      6  O   UNL     1     -19.481 -26.160   0.946  1.00  0.00    -0.341 OA
ENDROOT
BRANCH   1   7
ATOM      7  O   UNL     1     -21.010 -24.447   0.729  1.00  0.00    -0.350 OA
BRANCH   7   8
ATOM      8  C   UNL     1     -22.335 -24.137   1.120  1.00  0.00     0.160 C 
ATOM      9  C   UNL     1     -22.442 -22.661   1.488  1.00  0.00     0.035 C 
ENDBRANCH   7   8
ENDBRANCH   1   7
BRANCH   2  10
ATOM     10  O   UNL     1     -22.517 -27.568   0.779  1.00  0.00    -0.385 OA
ATOM     11  H   UNL     1     -21.832 -28.017   0.218  1.00  0.00     0.211 HD
ENDBRANCH   2  10
BRANCH   3  12
ATOM     12  O   UNL     1     -22.088 -27.856   3.544  1.00  0.00    -0.387 OA
ATOM     13  H   UNL     1     -22.988 -27.629   3.190  1.00  0.00     0.211 HD
ENDBRANCH   3  12
BRANCH   5  14
ATOM     14  C   UNL     1     -17.796 -27.877   1.045  1.00  0.00     0.191 C 
BRANCH  14  15
ATOM     15  O   UNL     1     -17.460 -28.781   0.025  1.00  0.00    -0.394 OA
ATOM     16  H   UNL     1     -16.497 -28.997   0.140  1.00  0.00     0.210 HD
ENDBRANCH  14  15
ENDBRANCH   5  14
BRANCH   4  17
ATOM     17  O   UNL     1     -20.530 -29.402   2.025  1.00  0.00    -0.387 OA
ATOM     18  H   UNL     1     -20.396 -29.946   2.845  1.00  0.00     0.211 HD
ENDBRANCH   4  17
TORSDOF 7
ENDMDL
MODEL 7
REMARK VINA RESULT:    -4.644      1.473      3.091
REMARK INTER + INTRA:          -6.416
REMARK INTER:                  -6.203
REMARK INTRA:                  -0.213
REMARK UNBOUND:                -0.414
REMARK SMILES CCO[C@H]1O[C@@H](CO)[C@H](O)[C@H](O)[C@@H]1O
REMARK SMILES IDX 4 1 13 2 11 3 9 4 6 5 5 6 3 7 2 8 1 9 14 10 12 12 7 14 8 15
REMARK SMILES IDX 10 17
REMARK H PARENT 14 11 12 13 8 16 10 18
REMARK Flexibility Score: inf
ROOT
ATOM      1  C   UNL     1     -21.370 -26.527   2.559  1.00  0.00     0.281 C 
ATOM      2  C   UNL     1     -21.999 -25.880   1.288  1.00  0.00     0.202 C 
ATOM      3  C   UNL     1     -21.482 -26.580   0.018  1.00  0.00     0.179 C 
ATOM      4  C   UNL     1     -19.936 -26.564  -0.026  1.00  0.00     0.177 C 
ATOM      5  C   UNL     1     -19.349 -26.740   1.404  1.00  0.00     0.178 C 
ATOM      6  O   UNL     1     -20.283 -27.392   2.247  1.00  0.00    -0.341 OA
ENDROOT
BRANCH   1   7
ATOM      7  O   UNL     1     -22.372 -27.282   3.218  1.00  0.00    -0.350 OA
BRANCH   7   8
ATOM      8  C   UNL     1     -22.257 -28.662   2.923  1.00  0.00     0.160 C 
ATOM      9  C   UNL     1     -23.520 -29.398   3.353  1.00  0.00     0.035 C 
ENDBRANCH   7   8
ENDBRANCH   1   7
BRANCH   2  10
ATOM     10  O   UNL     1     -21.678 -24.511   1.254  1.00  0.00    -0.385 OA
ATOM     11  H   UNL     1     -21.843 -24.195   0.328  1.00  0.00     0.211 HD
ENDBRANCH   2  10
BRANCH   3  12
ATOM     12  O   UNL     1     -22.025 -25.970  -1.125  1.00  0.00    -0.387 OA
ATOM     13  H   UNL     1     -21.259 -25.707  -1.699  1.00  0.00     0.211 HD
ENDBRANCH   3  12
BRANCH   5  14
ATOM     14  C   UNL     1     -18.040 -27.545   1.386  1.00  0.00     0.191 C 
BRANCH  14  15
ATOM     15  O   UNL     1     -18.115 -28.615   0.481  1.00  0.00    -0.394 OA
ATOM     16  H   UNL     1     -18.602 -28.281  -0.318  1.00  0.00     0.210 HD
ENDBRANCH  14  15
ENDBRANCH   5  14
BRANCH   4  17
ATOM     17  O   UNL     1     -19.486 -25.352  -0.578  1.00  0.00    -0.387 OA
ATOM     18  H   UNL     1     -18.960 -24.894   0.129  1.00  0.00     0.211 HD
ENDBRANCH   4  17
TORSDOF 7
ENDMDL
MODEL 8
REMARK VINA RESULT:    -4.593     13.316     15.733
REMARK INTER + INTRA:          -6.350
REMARK INTER:                  -6.018
REMARK INTRA:                  -0.332
REMARK UNBOUND:                -0.414
REMARK SMILES CCO[C@H]1O[C@@H](CO)[C@H](O)[C@H](O)[C@@H]1O
REMARK SMILES IDX 4 1 13 2 11 3 9 4 6 5 5 6 3 7 2 8 1 9 14 10 12 12 7 14 8 15
REMARK SMILES IDX 10 17
REMARK H PARENT 14 11 12 13 8 16 10 18
REMARK Flexibility Score: inf
ROOT
ATOM      1  C   UNL     1     -20.753 -26.895  16.013  1.00  0.00     0.281 C 
ATOM      2  C   UNL     1     -20.668 -28.447  16.134  1.00  0.00     0.202 C 
ATOM      3  C   UNL     1     -22.067 -29.044  16.368  1.00  0.00     0.179 C 
ATOM      4  C   UNL     1     -22.738 -28.401  17.604  1.00  0.00     0.177 C 
ATOM      5  C   UNL     1     -22.375 -26.891  17.697  1.00  0.00     0.178 C 
ATOM      6  O   UNL     1     -22.020 -26.388  16.421  1.00  0.00    -0.341 OA
ENDROOT
BRANCH   1   7
ATOM      7  O   UNL     1     -20.540 -26.540  14.658  1.00  0.00    -0.350 OA
BRANCH   7   8
ATOM      8  C   UNL     1     -20.858 -25.180  14.425  1.00  0.00     0.160 C 
ATOM      9  C   UNL     1     -19.641 -24.303  14.699  1.00  0.00     0.035 C 
ENDBRANCH   7   8
ENDBRANCH   1   7
BRANCH   2  10
ATOM     10  O   UNL     1     -19.811 -28.786  17.196  1.00  0.00    -0.385 OA
ATOM     11  H   UNL     1     -20.231 -28.451  18.030  1.00  0.00     0.211 HD
ENDBRANCH   2  10
BRANCH   3  12
ATOM     12  O   UNL     1     -21.979 -30.439  16.510  1.00  0.00    -0.387 OA
ATOM     13  H   UNL     1     -21.014 -30.669  16.484  1.00  0.00     0.211 HD
ENDBRANCH   3  12
BRANCH   5  14
ATOM     14  C   UNL     1     -23.538 -26.060  18.261  1.00  0.00     0.191 C 
BRANCH  14  15
ATOM     15  O   UNL     1     -24.649 -26.870  18.546  1.00  0.00    -0.394 OA
ATOM     16  H   UNL     1     -24.631 -27.621  17.896  1.00  0.00     0.210 HD
ENDBRANCH  14  15
ENDBRANCH   5  14
BRANCH   4  17
ATOM     17  O   UNL     1     -22.321 -29.063  18.772  1.00  0.00    -0.387 OA
ATOM     18  H   UNL     1     -21.329 -29.028  18.781  1.00  0.00     0.211 HD
ENDBRANCH   4  17
TORSDOF 7
ENDMDL
MODEL 9
REMARK VINA RESULT:    -4.534      7.427     10.453
REMARK INTER + INTRA:          -6.274
REMARK INTER:                  -5.908
REMARK INTRA:                  -0.366
REMARK UNBOUND:                -0.414
REMARK SMILES CCO[C@H]1O[C@@H](CO)[C@H](O)[C@H](O)[C@@H]1O
REMARK SMILES IDX 4 1 13 2 11 3 9 4 6 5 5 6 3 7 2 8 1 9 14 10 12 12 7 14 8 15
REMARK SMILES IDX 10 17
REMARK H PARENT 14 11 12 13 8 16 10 18
REMARK Flexibility Score: inf
ROOT
ATOM      1  C   UNL     1     -21.574 -31.009   8.696  1.00  0.00     0.281 C 
ATOM      2  C   UNL     1     -21.845 -32.512   9.012  1.00  0.00     0.202 C 
ATOM      3  C   UNL     1     -22.467 -32.661  10.412  1.00  0.00     0.179 C 
ATOM      4  C   UNL     1     -21.574 -31.994  11.484  1.00  0.00     0.177 C 
ATOM      5  C   UNL     1     -20.923 -30.698  10.920  1.00  0.00     0.178 C 
ATOM      6  O   UNL     1     -21.694 -30.182   9.849  1.00  0.00    -0.341 OA
ENDROOT
BRANCH   1   7
ATOM      7  O   UNL     1     -22.518 -30.579   7.731  1.00  0.00    -0.350 OA
BRANCH   7   8
ATOM      8  C   UNL     1     -22.929 -31.649   6.899  1.00  0.00     0.160 C 
ATOM      9  C   UNL     1     -22.871 -31.227   5.435  1.00  0.00     0.035 C 
ENDBRANCH   7   8
ENDBRANCH   1   7
BRANCH   2  10
ATOM     10  O   UNL     1     -20.637 -33.229   8.938  1.00  0.00    -0.385 OA
ATOM     11  H   UNL     1     -19.976 -32.749   9.501  1.00  0.00     0.211 HD
ENDBRANCH   2  10
BRANCH   3  12
ATOM     12  O   UNL     1     -22.677 -34.019  10.705  1.00  0.00    -0.387 OA
ATOM     13  H   UNL     1     -21.999 -34.530  10.190  1.00  0.00     0.211 HD
ENDBRANCH   3  12
BRANCH   5  14
ATOM     14  C   UNL     1     -20.778 -29.617  12.002  1.00  0.00     0.191 C 
BRANCH  14  15
ATOM     15  O   UNL     1     -20.778 -30.182  13.287  1.00  0.00    -0.394 OA
ATOM     16  H   UNL     1     -20.623 -31.156  13.171  1.00  0.00     0.210 HD
ENDBRANCH  14  15
ENDBRANCH   5  14
BRANCH   4  17
ATOM     17  O   UNL     1     -20.571 -32.889  11.895  1.00  0.00    -0.387 OA
ATOM     18  H   UNL     1     -20.688 -33.716  11.357  1.00  0.00     0.211 HD
ENDBRANCH   4  17
TORSDOF 7
ENDMDL
