MODEL 1
REMARK VINA RESULT:    -4.140      0.000      0.000
REMARK INTER + INTRA:         -10.186
REMARK INTER:                  -7.771
REMARK INTRA:                  -2.415
REMARK UNBOUND:                -2.415
REMARK SMILES O=C([O-])CCCCCCCCCCCCCCC(=O)[O-]
REMARK SMILES IDX 10 1 9 2 8 3 7 4 6 5 5 6 4 7 2 8 1 9 3 10 11 11 12 12 13 13
REMARK SMILES IDX 14 14 15 15 16 16 17 17 18 18 19 19 20 20
REMARK H PARENT
REMARK Flexibility Score: inf
ROOT
ATOM      1  C   UNL     1       6.921 -16.898  24.706  1.00  0.00     0.000 C 
ENDROOT
BRANCH   1   2
ATOM      2  C   UNL     1       6.935 -18.025  23.661  1.00  0.00     0.000 C 
BRANCH   2   3
ATOM      3  C   UNL     1       8.353 -18.527  23.351  1.00  0.00     0.000 C 
BRANCH   3   4
ATOM      4  C   UNL     1       8.912 -17.849  22.094  1.00  0.00     0.000 C 
BRANCH   4   5
ATOM      5  C   UNL     1       7.778 -17.370  21.176  1.00  0.00     0.000 C 
BRANCH   5   6
ATOM      6  C   UNL     1       7.900 -15.882  20.811  1.00  0.00     0.006 C 
BRANCH   6   7
ATOM      7  C   UNL     1       7.126 -15.518  19.538  1.00  0.00     0.053 C 
BRANCH   7   8
ATOM      8  C   UNL     1       6.354 -14.253  19.740  1.00  0.00     0.041 C 
ATOM      9  O   UNL     1       6.141 -13.479  18.770  1.00  0.00    -0.550 OA
ATOM     10  O   UNL     1       5.826 -13.953  20.989  1.00  0.00    -0.550 OA
ENDBRANCH   7   8
ENDBRANCH   6   7
ENDBRANCH   5   6
ENDBRANCH   4   5
ENDBRANCH   3   4
ENDBRANCH   2   3
ENDBRANCH   1   2
BRANCH   1  11
ATOM     11  C   UNL     1       6.350 -15.583  24.147  1.00  0.00     0.000 C 
BRANCH  11  12
ATOM     12  C   UNL     1       7.345 -14.415  24.257  1.00  0.00     0.000 C 
BRANCH  12  13
ATOM     13  C   UNL     1       8.695 -14.842  24.863  1.00  0.00     0.000 C 
BRANCH  13  14
ATOM     14  C   UNL     1       9.865 -14.683  23.877  1.00  0.00     0.000 C 
BRANCH  14  15
ATOM     15  C   UNL     1      11.082 -15.538  24.263  1.00  0.00     0.000 C 
BRANCH  15  16
ATOM     16  C   UNL     1      10.740 -16.625  25.300  1.00  0.00     0.006 C 
BRANCH  16  17
ATOM     17  C   UNL     1      11.757 -17.775  25.368  1.00  0.00     0.053 C 
BRANCH  17  18
ATOM     18  C   UNL     1      11.434 -18.744  26.464  1.00  0.00     0.041 C 
ATOM     19  O   UNL     1      11.951 -19.892  26.469  1.00  0.00    -0.550 OA
ATOM     20  O   UNL     1      10.535 -18.389  27.462  1.00  0.00    -0.550 OA
ENDBRANCH  17  18
ENDBRANCH  16  17
ENDBRANCH  15  16
ENDBRANCH  14  15
ENDBRANCH  13  14
ENDBRANCH  12  13
ENDBRANCH  11  12
ENDBRANCH   1  11
TORSDOF 15
ENDMDL
MODEL 2
REMARK VINA RESULT:    -4.127      3.088      4.238
REMARK INTER + INTRA:         -10.161
REMARK INTER:                  -7.984
REMARK INTRA:                  -2.177
REMARK UNBOUND:                -2.415
REMARK SMILES O=C([O-])CCCCCCCCCCCCCCC(=O)[O-]
REMARK SMILES IDX 10 1 9 2 8 3 7 4 6 5 5 6 4 7 2 8 1 9 3 10 11 11 12 12 13 13
REMARK SMILES IDX 14 14 15 15 16 16 17 17 18 18 19 19 20 20
REMARK H PARENT
REMARK Flexibility Score: inf
ROOT
ATOM      1  C   UNL     1       7.363 -14.357  23.911  1.00  0.00     0.000 C 
ENDROOT
BRANCH   1   2
ATOM      2  C   UNL     1       6.234 -15.400  23.862  1.00  0.00     0.000 C 
BRANCH   2   3
ATOM      3  C   UNL     1       6.523 -16.626  24.741  1.00  0.00     0.000 C 
BRANCH   3   4
ATOM      4  C   UNL     1       6.703 -17.886  23.884  1.00  0.00     0.000 C 
BRANCH   4   5
ATOM      5  C   UNL     1       7.613 -17.605  22.678  1.00  0.00     0.000 C 
BRANCH   5   6
ATOM      6  C   UNL     1       8.344 -18.863  22.183  1.00  0.00     0.006 C 
BRANCH   6   7
ATOM      7  C   UNL     1       7.411 -20.072  22.039  1.00  0.00     0.053 C 
BRANCH   7   8
ATOM      8  C   UNL     1       7.770 -20.867  20.824  1.00  0.00     0.041 C 
ATOM      9  O   UNL     1       8.262 -20.295  19.815  1.00  0.00    -0.550 OA
ATOM     10  O   UNL     1       7.607 -22.246  20.822  1.00  0.00    -0.550 OA
ENDBRANCH   7   8
ENDBRANCH   6   7
ENDBRANCH   5   6
ENDBRANCH   4   5
ENDBRANCH   3   4
ENDBRANCH   2   3
ENDBRANCH   1   2
BRANCH   1  11
ATOM     11  C   UNL     1       8.401 -14.663  25.005  1.00  0.00     0.000 C 
BRANCH  11  12
ATOM     12  C   UNL     1       9.798 -14.951  24.428  1.00  0.00     0.000 C 
BRANCH  12  13
ATOM     13  C   UNL     1      10.427 -16.230  25.009  1.00  0.00     0.000 C 
BRANCH  13  14
ATOM     14  C   UNL     1       9.856 -16.598  26.389  1.00  0.00     0.000 C 
BRANCH  14  15
ATOM     15  C   UNL     1      10.111 -18.068  26.759  1.00  0.00     0.000 C 
BRANCH  15  16
ATOM     16  C   UNL     1       9.735 -19.040  25.625  1.00  0.00     0.006 C 
BRANCH  16  17
ATOM     17  C   UNL     1       9.602 -20.506  26.069  1.00  0.00     0.053 C 
BRANCH  17  18
ATOM     18  C   UNL     1       8.192 -20.853  26.437  1.00  0.00     0.041 C 
ATOM     19  O   UNL     1       7.880 -21.049  27.640  1.00  0.00    -0.550 OA
ATOM     20  O   UNL     1       7.229 -20.993  25.444  1.00  0.00    -0.550 OA
ENDBRANCH  17  18
ENDBRANCH  16  17
ENDBRANCH  15  16
ENDBRANCH  14  15
ENDBRANCH  13  14
ENDBRANCH  12  13
ENDBRANCH  11  12
ENDBRANCH   1  11
TORSDOF 15
ENDMDL
MODEL 3
REMARK VINA RESULT:    -4.115      3.315      5.894
REMARK INTER + INTRA:         -10.138
REMARK INTER:                  -8.322
REMARK INTRA:                  -1.816
REMARK UNBOUND:                -2.415
REMARK SMILES O=C([O-])CCCCCCCCCCCCCCC(=O)[O-]
REMARK SMILES IDX 10 1 9 2 8 3 7 4 6 5 5 6 4 7 2 8 1 9 3 10 11 11 12 12 13 13
REMARK SMILES IDX 14 14 15 15 16 16 17 17 18 18 19 19 20 20
REMARK H PARENT
REMARK Flexibility Score: inf
ROOT
ATOM      1  C   UNL     1       7.906 -18.284  26.240  1.00  0.00     0.000 C 
ENDROOT
BRANCH   1   2
ATOM      2  C   UNL     1       7.075 -17.004  26.057  1.00  0.00     0.000 C 
BRANCH   2   3
ATOM      3  C   UNL     1       6.448 -16.900  24.658  1.00  0.00     0.000 C 
BRANCH   3   4
ATOM      4  C   UNL     1       6.785 -15.553  24.005  1.00  0.00     0.000 C 
BRANCH   4   5
ATOM      5  C   UNL     1       7.825 -14.784  24.834  1.00  0.00     0.000 C 
BRANCH   5   6
ATOM      6  C   UNL     1       9.132 -14.540  24.063  1.00  0.00     0.006 C 
BRANCH   6   7
ATOM      7  C   UNL     1       9.866 -15.840  23.713  1.00  0.00     0.053 C 
BRANCH   7   8
ATOM      8  C   UNL     1      11.157 -15.929  24.462  1.00  0.00     0.041 C 
ATOM      9  O   UNL     1      12.214 -15.463  23.960  1.00  0.00    -0.550 OA
ATOM     10  O   UNL     1      11.186 -16.483  25.736  1.00  0.00    -0.550 OA
ENDBRANCH   7   8
ENDBRANCH   6   7
ENDBRANCH   5   6
ENDBRANCH   4   5
ENDBRANCH   3   4
ENDBRANCH   2   3
ENDBRANCH   1   2
BRANCH   1  11
ATOM     11  C   UNL     1       7.144 -19.375  27.014  1.00  0.00     0.000 C 
BRANCH  11  12
ATOM     12  C   UNL     1       7.353 -20.776  26.416  1.00  0.00     0.000 C 
BRANCH  12  13
ATOM     13  C   UNL     1       7.200 -20.795  24.884  1.00  0.00     0.000 C 
BRANCH  13  14
ATOM     14  C   UNL     1       8.507 -21.165  24.162  1.00  0.00     0.000 C 
BRANCH  14  15
ATOM     15  C   UNL     1       8.871 -20.166  23.051  1.00  0.00     0.000 C 
BRANCH  15  16
ATOM     16  C   UNL     1       7.633 -19.614  22.320  1.00  0.00     0.006 C 
BRANCH  16  17
ATOM     17  C   UNL     1       7.094 -20.532  21.211  1.00  0.00     0.053 C 
BRANCH  17  18
ATOM     18  C   UNL     1       8.193 -21.081  20.355  1.00  0.00     0.041 C 
ATOM     19  O   UNL     1       8.502 -22.300  20.423  1.00  0.00    -0.550 OA
ATOM     20  O   UNL     1       8.899 -20.238  19.504  1.00  0.00    -0.550 OA
ENDBRANCH  17  18
ENDBRANCH  16  17
ENDBRANCH  15  16
ENDBRANCH  14  15
ENDBRANCH  13  14
ENDBRANCH  12  13
ENDBRANCH  11  12
ENDBRANCH   1  11
TORSDOF 15
ENDMDL
MODEL 4
REMARK VINA RESULT:    -4.093      3.575      5.466
REMARK INTER + INTRA:         -10.097
REMARK INTER:                  -8.320
REMARK INTRA:                  -1.776
REMARK UNBOUND:                -2.415
REMARK SMILES O=C([O-])CCCCCCCCCCCCCCC(=O)[O-]
REMARK SMILES IDX 10 1 9 2 8 3 7 4 6 5 5 6 4 7 2 8 1 9 3 10 11 11 12 12 13 13
REMARK SMILES IDX 14 14 15 15 16 16 17 17 18 18 19 19 20 20
REMARK H PARENT
REMARK Flexibility Score: inf
ROOT
ATOM      1  C   UNL     1       7.224 -15.838  19.515  1.00  0.00     0.000 C 
ENDROOT
BRANCH   1   2
ATOM      2  C   UNL     1       8.731 -16.137  19.573  1.00  0.00     0.000 C 
BRANCH   2   3
ATOM      3  C   UNL     1       9.034 -17.550  20.091  1.00  0.00     0.000 C 
BRANCH   3   4
ATOM      4  C   UNL     1       7.762 -18.224  20.623  1.00  0.00     0.000 C 
BRANCH   4   5
ATOM      5  C   UNL     1       8.051 -19.003  21.915  1.00  0.00     0.000 C 
BRANCH   5   6
ATOM      6  C   UNL     1       7.256 -20.315  22.005  1.00  0.00     0.006 C 
BRANCH   6   7
ATOM      7  C   UNL     1       8.161 -21.550  22.098  1.00  0.00     0.053 C 
BRANCH   7   8
ATOM      8  C   UNL     1       8.884 -21.767  20.807  1.00  0.00     0.041 C 
ATOM      9  O   UNL     1       8.239 -21.994  19.749  1.00  0.00    -0.550 OA
ATOM     10  O   UNL     1      10.269 -21.669  20.761  1.00  0.00    -0.550 OA
ENDBRANCH   7   8
ENDBRANCH   6   7
ENDBRANCH   5   6
ENDBRANCH   4   5
ENDBRANCH   3   4
ENDBRANCH   2   3
ENDBRANCH   1   2
BRANCH   1  11
ATOM     11  C   UNL     1       6.920 -14.463  18.892  1.00  0.00     0.000 C 
BRANCH  11  12
ATOM     12  C   UNL     1       6.000 -13.606  19.779  1.00  0.00     0.000 C 
BRANCH  12  13
ATOM     13  C   UNL     1       5.789 -14.215  21.177  1.00  0.00     0.000 C 
BRANCH  13  14
ATOM     14  C   UNL     1       6.368 -13.339  22.300  1.00  0.00     0.000 C 
BRANCH  14  15
ATOM     15  C   UNL     1       7.109 -14.162  23.367  1.00  0.00     0.000 C 
BRANCH  15  16
ATOM     16  C   UNL     1       6.863 -15.676  23.226  1.00  0.00     0.006 C 
BRANCH  16  17
ATOM     17  C   UNL     1       6.031 -16.288  24.365  1.00  0.00     0.053 C 
BRANCH  17  18
ATOM     18  C   UNL     1       6.895 -16.925  25.409  1.00  0.00     0.041 C 
ATOM     19  O   UNL     1       7.410 -16.226  26.320  1.00  0.00    -0.550 OA
ATOM     20  O   UNL     1       7.157 -18.289  25.357  1.00  0.00    -0.550 OA
ENDBRANCH  17  18
ENDBRANCH  16  17
ENDBRANCH  15  16
ENDBRANCH  14  15
ENDBRANCH  13  14
ENDBRANCH  12  13
ENDBRANCH  11  12
ENDBRANCH   1  11
TORSDOF 15
ENDMDL
MODEL 5
REMARK VINA RESULT:    -4.076      3.306      5.394
REMARK INTER + INTRA:         -10.065
REMARK INTER:                  -7.478
REMARK INTRA:                  -2.587
REMARK UNBOUND:                -2.415
REMARK SMILES O=C([O-])CCCCCCCCCCCCCCC(=O)[O-]
REMARK SMILES IDX 10 1 9 2 8 3 7 4 6 5 5 6 4 7 2 8 1 9 3 10 11 11 12 12 13 13
REMARK SMILES IDX 14 14 15 15 16 16 17 17 18 18 19 19 20 20
REMARK H PARENT
REMARK Flexibility Score: inf
ROOT
ATOM      1  C   UNL     1       7.795 -16.110  26.175  1.00  0.00     0.000 C 
ENDROOT
BRANCH   1   2
ATOM      2  C   UNL     1       7.034 -17.439  26.310  1.00  0.00     0.000 C 
BRANCH   2   3
ATOM      3  C   UNL     1       7.972 -18.647  26.450  1.00  0.00     0.000 C 
BRANCH   3   4
ATOM      4  C   UNL     1       9.441 -18.217  26.340  1.00  0.00     0.000 C 
BRANCH   4   5
ATOM      5  C   UNL     1      10.094 -18.805  25.081  1.00  0.00     0.000 C 
BRANCH   5   6
ATOM      6  C   UNL     1      10.664 -17.724  24.150  1.00  0.00     0.006 C 
BRANCH   6   7
ATOM      7  C   UNL     1      11.287 -16.551  24.916  1.00  0.00     0.053 C 
BRANCH   7   8
ATOM      8  C   UNL     1      11.535 -15.398  23.995  1.00  0.00     0.041 C 
ATOM      9  O   UNL     1      10.576 -14.680  23.606  1.00  0.00    -0.550 OA
ATOM     10  O   UNL     1      12.831 -15.088  23.603  1.00  0.00    -0.550 OA
ENDBRANCH   7   8
ENDBRANCH   6   7
ENDBRANCH   5   6
ENDBRANCH   4   5
ENDBRANCH   3   4
ENDBRANCH   2   3
ENDBRANCH   1   2
BRANCH   1  11
ATOM     11  C   UNL     1       7.513 -15.402  24.838  1.00  0.00     0.000 C 
BRANCH  11  12
ATOM     12  C   UNL     1       6.761 -16.302  23.842  1.00  0.00     0.000 C 
BRANCH  12  13
ATOM     13  C   UNL     1       7.506 -16.456  22.504  1.00  0.00     0.000 C 
BRANCH  13  14
ATOM     14  C   UNL     1       7.751 -17.926  22.125  1.00  0.00     0.000 C 
BRANCH  14  15
ATOM     15  C   UNL     1       6.924 -18.900  22.980  1.00  0.00     0.000 C 
BRANCH  15  16
ATOM     16  C   UNL     1       7.340 -20.369  22.776  1.00  0.00     0.006 C 
BRANCH  16  17
ATOM     17  C   UNL     1       7.192 -20.872  21.331  1.00  0.00     0.053 C 
BRANCH  17  18
ATOM     18  C   UNL     1       8.471 -21.446  20.804  1.00  0.00     0.041 C 
ATOM     19  O   UNL     1       9.302 -20.708  20.213  1.00  0.00    -0.550 OA
ATOM     20  O   UNL     1       8.729 -22.805  20.937  1.00  0.00    -0.550 OA
ENDBRANCH  17  18
ENDBRANCH  16  17
ENDBRANCH  15  16
ENDBRANCH  14  15
ENDBRANCH  13  14
ENDBRANCH  12  13
ENDBRANCH  11  12
ENDBRANCH   1  11
TORSDOF 15
ENDMDL
MODEL 6
REMARK VINA RESULT:    -4.072      2.501      5.743
REMARK INTER + INTRA:         -10.058
REMARK INTER:                  -7.769
REMARK INTRA:                  -2.288
REMARK UNBOUND:                -2.415
REMARK SMILES O=C([O-])CCCCCCCCCCCCCCC(=O)[O-]
REMARK SMILES IDX 10 1 9 2 8 3 7 4 6 5 5 6 4 7 2 8 1 9 3 10 11 11 12 12 13 13
REMARK SMILES IDX 14 14 15 15 16 16 17 17 18 18 19 19 20 20
REMARK H PARENT
REMARK Flexibility Score: inf
ROOT
ATOM      1  C   UNL     1       8.227 -21.434  23.712  1.00  0.00     0.000 C 
ENDROOT
BRANCH   1   2
ATOM      2  C   UNL     1       7.525 -20.343  22.886  1.00  0.00     0.000 C 
BRANCH   2   3
ATOM      3  C   UNL     1       8.512 -19.347  22.260  1.00  0.00     0.000 C 
BRANCH   3   4
ATOM      4  C   UNL     1       9.846 -20.030  21.931  1.00  0.00     0.000 C 
BRANCH   4   5
ATOM      5  C   UNL     1      11.008 -19.356  22.677  1.00  0.00     0.000 C 
BRANCH   5   6
ATOM      6  C   UNL     1      10.623 -17.989  23.262  1.00  0.00     0.006 C 
BRANCH   6   7
ATOM      7  C   UNL     1      11.165 -17.777  24.681  1.00  0.00     0.053 C 
BRANCH   7   8
ATOM      8  C   UNL     1      10.844 -16.397  25.161  1.00  0.00     0.041 C 
ATOM      9  O   UNL     1      10.926 -15.417  24.375  1.00  0.00    -0.550 OA
ATOM     10  O   UNL     1      10.408 -16.200  26.465  1.00  0.00    -0.550 OA
ENDBRANCH   7   8
ENDBRANCH   6   7
ENDBRANCH   5   6
ENDBRANCH   4   5
ENDBRANCH   3   4
ENDBRANCH   2   3
ENDBRANCH   1   2
BRANCH   1  11
ATOM     11  C   UNL     1       8.468 -21.004  25.170  1.00  0.00     0.000 C 
BRANCH  11  12
ATOM     12  C   UNL     1       7.190 -21.077  26.024  1.00  0.00     0.000 C 
BRANCH  12  13
ATOM     13  C   UNL     1       6.992 -19.827  26.901  1.00  0.00     0.000 C 
BRANCH  13  14
ATOM     14  C   UNL     1       7.938 -18.677  26.518  1.00  0.00     0.000 C 
BRANCH  14  15
ATOM     15  C   UNL     1       7.186 -17.376  26.195  1.00  0.00     0.000 C 
BRANCH  15  16
ATOM     16  C   UNL     1       7.029 -17.142  24.680  1.00  0.00     0.006 C 
BRANCH  16  17
ATOM     17  C   UNL     1       6.001 -16.060  24.312  1.00  0.00     0.053 C 
BRANCH  17  18
ATOM     18  C   UNL     1       6.657 -14.818  23.793  1.00  0.00     0.041 C 
ATOM     19  O   UNL     1       6.251 -14.283  22.728  1.00  0.00    -0.550 OA
ATOM     20  O   UNL     1       7.739 -14.269  24.470  1.00  0.00    -0.550 OA
ENDBRANCH  17  18
ENDBRANCH  16  17
ENDBRANCH  15  16
ENDBRANCH  14  15
ENDBRANCH  13  14
ENDBRANCH  12  13
ENDBRANCH  11  12
ENDBRANCH   1  11
TORSDOF 15
ENDMDL
MODEL 7
REMARK VINA RESULT:    -4.054      3.156      5.391
REMARK INTER + INTRA:         -10.025
REMARK INTER:                  -8.063
REMARK INTRA:                  -1.962
REMARK UNBOUND:                -2.415
REMARK SMILES O=C([O-])CCCCCCCCCCCCCCC(=O)[O-]
REMARK SMILES IDX 10 1 9 2 8 3 7 4 6 5 5 6 4 7 2 8 1 9 3 10 11 11 12 12 13 13
REMARK SMILES IDX 14 14 15 15 16 16 17 17 18 18 19 19 20 20
REMARK H PARENT
REMARK Flexibility Score: inf
ROOT
ATOM      1  C   UNL     1       8.067 -18.993  25.225  1.00  0.00     0.000 C 
ENDROOT
BRANCH   1   2
ATOM      2  C   UNL     1       7.277 -18.331  26.366  1.00  0.00     0.000 C 
BRANCH   2   3
ATOM      3  C   UNL     1       7.125 -16.814  26.179  1.00  0.00     0.000 C 
BRANCH   3   4
ATOM      4  C   UNL     1       6.515 -16.488  24.810  1.00  0.00     0.000 C 
BRANCH   4   5
ATOM      5  C   UNL     1       7.189 -15.257  24.186  1.00  0.00     0.000 C 
BRANCH   5   6
ATOM      6  C   UNL     1       7.958 -15.592  22.899  1.00  0.00     0.006 C 
BRANCH   6   7
ATOM      7  C   UNL     1       9.330 -16.218  23.175  1.00  0.00     0.053 C 
BRANCH   7   8
ATOM      8  C   UNL     1      10.118 -15.357  24.111  1.00  0.00     0.041 C 
ATOM      9  O   UNL     1      10.206 -14.117  23.910  1.00  0.00    -0.550 OA
ATOM     10  O   UNL     1      10.715 -15.917  25.234  1.00  0.00    -0.550 OA
ENDBRANCH   7   8
ENDBRANCH   6   7
ENDBRANCH   5   6
ENDBRANCH   4   5
ENDBRANCH   3   4
ENDBRANCH   2   3
ENDBRANCH   1   2
BRANCH   1  11
ATOM     11  C   UNL     1       7.493 -20.366  24.831  1.00  0.00     0.000 C 
BRANCH  11  12
ATOM     12  C   UNL     1       6.811 -20.345  23.452  1.00  0.00     0.000 C 
BRANCH  12  13
ATOM     13  C   UNL     1       7.414 -19.288  22.509  1.00  0.00     0.000 C 
BRANCH  13  14
ATOM     14  C   UNL     1       7.511 -19.778  21.054  1.00  0.00     0.000 C 
BRANCH  14  15
ATOM     15  C   UNL     1       8.886 -20.385  20.727  1.00  0.00     0.000 C 
BRANCH  15  16
ATOM     16  C   UNL     1       8.797 -21.864  20.310  1.00  0.00     0.006 C 
BRANCH  16  17
ATOM     17  C   UNL     1       8.722 -22.849  21.488  1.00  0.00     0.053 C 
BRANCH  17  18
ATOM     18  C   UNL     1       9.912 -22.734  22.390  1.00  0.00     0.041 C 
ATOM     19  O   UNL     1       9.757 -22.633  23.636  1.00  0.00    -0.550 OA
ATOM     20  O   UNL     1      11.193 -22.707  21.851  1.00  0.00    -0.550 OA
ENDBRANCH  17  18
ENDBRANCH  16  17
ENDBRANCH  15  16
ENDBRANCH  14  15
ENDBRANCH  13  14
ENDBRANCH  12  13
ENDBRANCH  11  12
ENDBRANCH   1  11
TORSDOF 15
ENDMDL
MODEL 8
REMARK VINA RESULT:    -4.039      2.731      5.098
REMARK INTER + INTRA:          -9.996
REMARK INTER:                  -8.032
REMARK INTRA:                  -1.964
REMARK UNBOUND:                -2.415
REMARK SMILES O=C([O-])CCCCCCCCCCCCCCC(=O)[O-]
REMARK SMILES IDX 10 1 9 2 8 3 7 4 6 5 5 6 4 7 2 8 1 9 3 10 11 11 12 12 13 13
REMARK SMILES IDX 14 14 15 15 16 16 17 17 18 18 19 19 20 20
REMARK H PARENT
REMARK Flexibility Score: inf
ROOT
ATOM      1  C   UNL     1       7.618 -15.852  20.896  1.00  0.00     0.000 C 
ENDROOT
BRANCH   1   2
ATOM      2  C   UNL     1       7.466 -17.072  19.972  1.00  0.00     0.000 C 
BRANCH   2   3
ATOM      3  C   UNL     1       7.776 -18.396  20.686  1.00  0.00     0.000 C 
BRANCH   3   4
ATOM      4  C   UNL     1       7.492 -18.289  22.189  1.00  0.00     0.000 C 
BRANCH   4   5
ATOM      5  C   UNL     1       6.863 -19.584  22.725  1.00  0.00     0.000 C 
BRANCH   5   6
ATOM      6  C   UNL     1       7.591 -20.127  23.964  1.00  0.00     0.006 C 
BRANCH   6   7
ATOM      7  C   UNL     1       9.087 -20.357  23.720  1.00  0.00     0.053 C 
BRANCH   7   8
ATOM      8  C   UNL     1       9.290 -21.415  22.683  1.00  0.00     0.041 C 
ATOM      9  O   UNL     1       8.852 -22.581  22.873  1.00  0.00    -0.550 OA
ATOM     10  O   UNL     1       9.920 -21.103  21.485  1.00  0.00    -0.550 OA
ENDBRANCH   7   8
ENDBRANCH   6   7
ENDBRANCH   5   6
ENDBRANCH   4   5
ENDBRANCH   3   4
ENDBRANCH   2   3
ENDBRANCH   1   2
BRANCH   1  11
ATOM     11  C   UNL     1       6.577 -14.757  20.601  1.00  0.00     0.000 C 
BRANCH  11  12
ATOM     12  C   UNL     1       5.946 -14.184  21.882  1.00  0.00     0.000 C 
BRANCH  12  13
ATOM     13  C   UNL     1       6.726 -14.572  23.151  1.00  0.00     0.000 C 
BRANCH  13  14
ATOM     14  C   UNL     1       5.954 -15.557  24.045  1.00  0.00     0.000 C 
BRANCH  14  15
ATOM     15  C   UNL     1       6.856 -16.244  25.083  1.00  0.00     0.000 C 
BRANCH  15  16
ATOM     16  C   UNL     1       8.174 -15.484  25.320  1.00  0.00     0.006 C 
BRANCH  16  17
ATOM     17  C   UNL     1       9.436 -16.274  24.940  1.00  0.00     0.053 C 
BRANCH  17  18
ATOM     18  C   UNL     1      10.505 -15.388  24.380  1.00  0.00     0.041 C 
ATOM     19  O   UNL     1      10.213 -14.251  23.926  1.00  0.00    -0.550 OA
ATOM     20  O   UNL     1      11.821 -15.833  24.329  1.00  0.00    -0.550 OA
ENDBRANCH  17  18
ENDBRANCH  16  17
ENDBRANCH  15  16
ENDBRANCH  14  15
ENDBRANCH  13  14
ENDBRANCH  12  13
ENDBRANCH  11  12
ENDBRANCH   1  11
TORSDOF 15
ENDMDL
MODEL 9
REMARK VINA RESULT:    -4.003      3.330      5.073
REMARK INTER + INTRA:          -9.929
REMARK INTER:                  -7.439
REMARK INTRA:                  -2.490
REMARK UNBOUND:                -2.415
REMARK SMILES O=C([O-])CCCCCCCCCCCCCCC(=O)[O-]
REMARK SMILES IDX 10 1 9 2 8 3 7 4 6 5 5 6 4 7 2 8 1 9 3 10 11 11 12 12 13 13
REMARK SMILES IDX 14 14 15 15 16 16 17 17 18 18 19 19 20 20
REMARK H PARENT
REMARK Flexibility Score: inf
ROOT
ATOM      1  C   UNL     1      10.098 -18.567  26.781  1.00  0.00     0.000 C 
ENDROOT
BRANCH   1   2
ATOM      2  C   UNL     1      10.601 -19.176  25.462  1.00  0.00     0.000 C 
BRANCH   2   3
ATOM      3  C   UNL     1      10.997 -18.109  24.431  1.00  0.00     0.000 C 
BRANCH   3   4
ATOM      4  C   UNL     1      10.545 -18.514  23.022  1.00  0.00     0.000 C 
BRANCH   4   5
ATOM      5  C   UNL     1       9.184 -17.888  22.680  1.00  0.00     0.000 C 
BRANCH   5   6
ATOM      6  C   UNL     1       9.283 -16.384  22.379  1.00  0.00     0.006 C 
BRANCH   6   7
ATOM      7  C   UNL     1       8.276 -15.551  23.181  1.00  0.00     0.053 C 
BRANCH   7   8
ATOM      8  C   UNL     1       8.980 -14.737  24.219  1.00  0.00     0.041 C 
ATOM      9  O   UNL     1      10.170 -14.368  24.035  1.00  0.00    -0.550 OA
ATOM     10  O   UNL     1       8.307 -14.344  25.369  1.00  0.00    -0.550 OA
ENDBRANCH   7   8
ENDBRANCH   6   7
ENDBRANCH   5   6
ENDBRANCH   4   5
ENDBRANCH   3   4
ENDBRANCH   2   3
ENDBRANCH   1   2
BRANCH   1  11
ATOM     11  C   UNL     1       8.918 -17.602  26.572  1.00  0.00     0.000 C 
BRANCH  11  12
ATOM     12  C   UNL     1       7.674 -18.307  26.005  1.00  0.00     0.000 C 
BRANCH  12  13
ATOM     13  C   UNL     1       7.193 -19.466  26.896  1.00  0.00     0.000 C 
BRANCH  13  14
ATOM     14  C   UNL     1       7.165 -20.813  26.154  1.00  0.00     0.000 C 
BRANCH  14  15
ATOM     15  C   UNL     1       7.258 -20.648  24.628  1.00  0.00     0.000 C 
BRANCH  15  16
ATOM     16  C   UNL     1       8.344 -21.541  24.000  1.00  0.00     0.006 C 
BRANCH  16  17
ATOM     17  C   UNL     1       8.335 -21.560  22.463  1.00  0.00     0.053 C 
BRANCH  17  18
ATOM     18  C   UNL     1       9.459 -22.377  21.906  1.00  0.00     0.041 C 
ATOM     19  O   UNL     1       9.227 -23.298  21.080  1.00  0.00    -0.550 OA
ATOM     20  O   UNL     1      10.764 -22.141  22.325  1.00  0.00    -0.550 OA
ENDBRANCH  17  18
ENDBRANCH  16  17
ENDBRANCH  15  16
ENDBRANCH  14  15
ENDBRANCH  13  14
ENDBRANCH  12  13
ENDBRANCH  11  12
ENDBRANCH   1  11
TORSDOF 15
ENDMDL
