MODEL 1
REMARK VINA RESULT:    -4.018      0.000      0.000
REMARK INTER + INTRA:          -5.449
REMARK INTER:                  -5.192
REMARK INTRA:                  -0.257
REMARK UNBOUND:                -0.257
REMARK SMILES CCCCCCC(=O)[O-]
REMARK SMILES IDX 5 1 6 2 7 3 8 4 9 5 4 6 3 7 2 8 1 9
REMARK H PARENT
REMARK Flexibility Score: inf
ROOT
ATOM      1  C   UNL     1     117.518 165.805 121.852  1.00  0.00     0.006 C 
ENDROOT
BRANCH   1   2
ATOM      2  C   UNL     1     116.180 165.261 122.373  1.00  0.00     0.053 C 
BRANCH   2   3
ATOM      3  C   UNL     1     115.197 166.360 122.633  1.00  0.00     0.041 C 
ATOM      4  O   UNL     1     114.716 167.021 121.675  1.00  0.00    -0.550 OA
ATOM      5  O   UNL     1     114.785 166.633 123.932  1.00  0.00    -0.550 OA
ENDBRANCH   2   3
ENDBRANCH   1   2
BRANCH   1   6
ATOM      6  C   UNL     1     118.131 164.901 120.772  1.00  0.00     0.000 C 
BRANCH   6   7
ATOM      7  C   UNL     1     117.108 164.581 119.676  1.00  0.00    -0.000 C 
BRANCH   7   8
ATOM      8  C   UNL     1     116.830 165.812 118.806  1.00  0.00    -0.003 C 
ATOM      9  C   UNL     1     115.819 165.493 117.708  1.00  0.00     0.004 C 
ENDBRANCH   7   8
ENDBRANCH   6   7
ENDBRANCH   1   6
TORSDOF 5
ENDMDL
MODEL 2
REMARK VINA RESULT:    -3.701     13.697     14.702
REMARK INTER + INTRA:          -5.040
REMARK INTER:                  -4.805
REMARK INTRA:                  -0.235
REMARK UNBOUND:                -0.257
REMARK SMILES CCCCCCC(=O)[O-]
REMARK SMILES IDX 5 1 6 2 7 3 8 4 9 5 4 6 3 7 2 8 1 9
REMARK H PARENT
REMARK Flexibility Score: inf
ROOT
ATOM      1  C   UNL     1     119.887 179.816 125.473  1.00  0.00     0.006 C 
ENDROOT
BRANCH   1   2
ATOM      2  C   UNL     1     119.501 178.698 124.494  1.00  0.00     0.053 C 
BRANCH   2   3
ATOM      3  C   UNL     1     118.044 178.366 124.576  1.00  0.00     0.041 C 
ATOM      4  O   UNL     1     117.297 178.538 123.576  1.00  0.00    -0.550 OA
ATOM      5  O   UNL     1     117.514 177.835 125.746  1.00  0.00    -0.550 OA
ENDBRANCH   2   3
ENDBRANCH   1   2
BRANCH   1   6
ATOM      6  C   UNL     1     120.922 179.351 126.508  1.00  0.00     0.000 C 
BRANCH   6   7
ATOM      7  C   UNL     1     121.779 178.207 125.953  1.00  0.00    -0.000 C 
BRANCH   7   8
ATOM      8  C   UNL     1     123.248 178.374 126.358  1.00  0.00    -0.003 C 
ATOM      9  C   UNL     1     123.401 179.426 127.453  1.00  0.00     0.004 C 
ENDBRANCH   7   8
ENDBRANCH   6   7
ENDBRANCH   1   6
TORSDOF 5
ENDMDL
MODEL 3
REMARK VINA RESULT:    -3.700      2.874      4.358
REMARK INTER + INTRA:          -5.038
REMARK INTER:                  -4.835
REMARK INTRA:                  -0.204
REMARK UNBOUND:                -0.257
REMARK SMILES CCCCCCC(=O)[O-]
REMARK SMILES IDX 5 1 6 2 7 3 8 4 9 5 4 6 3 7 2 8 1 9
REMARK H PARENT
REMARK Flexibility Score: inf
ROOT
ATOM      1  C   UNL     1     116.928 165.284 120.228  1.00  0.00     0.006 C 
ENDROOT
BRANCH   1   2
ATOM      2  C   UNL     1     115.927 166.191 119.500  1.00  0.00     0.053 C 
BRANCH   2   3
ATOM      3  C   UNL     1     116.082 166.109 118.013  1.00  0.00     0.041 C 
ATOM      4  O   UNL     1     115.616 165.124 117.380  1.00  0.00    -0.550 OA
ATOM      5  O   UNL     1     116.712 167.136 117.321  1.00  0.00    -0.550 OA
ENDBRANCH   2   3
ENDBRANCH   1   2
BRANCH   1   6
ATOM      6  C   UNL     1     117.084 165.661 121.709  1.00  0.00     0.000 C 
BRANCH   6   7
ATOM      7  C   UNL     1     115.844 165.254 122.513  1.00  0.00    -0.000 C 
BRANCH   7   8
ATOM      8  C   UNL     1     115.382 166.395 123.426  1.00  0.00    -0.003 C 
ATOM      9  C   UNL     1     114.770 167.536 122.617  1.00  0.00     0.004 C 
ENDBRANCH   7   8
ENDBRANCH   6   7
ENDBRANCH   1   6
TORSDOF 5
ENDMDL
MODEL 4
REMARK VINA RESULT:    -3.691     13.235     14.306
REMARK INTER + INTRA:          -5.027
REMARK INTER:                  -4.780
REMARK INTRA:                  -0.247
REMARK UNBOUND:                -0.257
REMARK SMILES CCCCCCC(=O)[O-]
REMARK SMILES IDX 5 1 6 2 7 3 8 4 9 5 4 6 3 7 2 8 1 9
REMARK H PARENT
REMARK Flexibility Score: inf
ROOT
ATOM      1  C   UNL     1     119.075 178.347 124.001  1.00  0.00     0.006 C 
ENDROOT
BRANCH   1   2
ATOM      2  C   UNL     1     118.202 178.036 125.224  1.00  0.00     0.053 C 
BRANCH   2   3
ATOM      3  C   UNL     1     116.746 178.227 124.930  1.00  0.00     0.041 C 
ATOM      4  O   UNL     1     115.896 178.148 125.856  1.00  0.00    -0.550 OA
ATOM      5  O   UNL     1     116.329 178.525 123.638  1.00  0.00    -0.550 OA
ENDBRANCH   2   3
ENDBRANCH   1   2
BRANCH   1   6
ATOM      6  C   UNL     1     120.385 179.050 124.387  1.00  0.00     0.000 C 
BRANCH   6   7
ATOM      7  C   UNL     1     120.265 179.722 125.760  1.00  0.00    -0.000 C 
BRANCH   7   8
ATOM      8  C   UNL     1     121.376 179.247 126.703  1.00  0.00    -0.003 C 
ATOM      9  C   UNL     1     120.806 178.807 128.049  1.00  0.00     0.004 C 
ENDBRANCH   7   8
ENDBRANCH   6   7
ENDBRANCH   1   6
TORSDOF 5
ENDMDL
MODEL 5
REMARK VINA RESULT:    -3.681     14.484     15.468
REMARK INTER + INTRA:          -5.015
REMARK INTER:                  -4.793
REMARK INTRA:                  -0.222
REMARK UNBOUND:                -0.257
REMARK SMILES CCCCCCC(=O)[O-]
REMARK SMILES IDX 5 1 6 2 7 3 8 4 9 5 4 6 3 7 2 8 1 9
REMARK H PARENT
REMARK Flexibility Score: inf
ROOT
ATOM      1  C   UNL     1     123.625 178.112 120.959  1.00  0.00     0.006 C 
ENDROOT
BRANCH   1   2
ATOM      2  C   UNL     1     124.029 177.280 119.735  1.00  0.00     0.053 C 
BRANCH   2   3
ATOM      3  C   UNL     1     124.984 178.021 118.850  1.00  0.00     0.041 C 
ATOM      4  O   UNL     1     126.001 178.580 119.341  1.00  0.00    -0.550 OA
ATOM      5  O   UNL     1     124.769 178.067 117.478  1.00  0.00    -0.550 OA
ENDBRANCH   2   3
ENDBRANCH   1   2
BRANCH   1   6
ATOM      6  C   UNL     1     123.718 177.309 122.265  1.00  0.00     0.000 C 
BRANCH   6   7
ATOM      7  C   UNL     1     125.152 176.825 122.511  1.00  0.00    -0.000 C 
BRANCH   7   8
ATOM      8  C   UNL     1     125.674 177.319 123.865  1.00  0.00    -0.003 C 
ATOM      9  C   UNL     1     126.945 178.147 123.697  1.00  0.00     0.004 C 
ENDBRANCH   7   8
ENDBRANCH   6   7
ENDBRANCH   1   6
TORSDOF 5
ENDMDL
MODEL 6
REMARK VINA RESULT:    -3.673     14.421     15.269
REMARK INTER + INTRA:          -5.004
REMARK INTER:                  -4.780
REMARK INTRA:                  -0.224
REMARK UNBOUND:                -0.257
REMARK SMILES CCCCCCC(=O)[O-]
REMARK SMILES IDX 5 1 6 2 7 3 8 4 9 5 4 6 3 7 2 8 1 9
REMARK H PARENT
REMARK Flexibility Score: inf
ROOT
ATOM      1  C   UNL     1     123.575 178.099 120.879  1.00  0.00     0.006 C 
ENDROOT
BRANCH   1   2
ATOM      2  C   UNL     1     124.014 177.276 119.660  1.00  0.00     0.053 C 
BRANCH   2   3
ATOM      3  C   UNL     1     124.931 178.051 118.766  1.00  0.00     0.041 C 
ATOM      4  O   UNL     1     124.634 178.231 117.555  1.00  0.00    -0.550 OA
ATOM      5  O   UNL     1     126.098 178.605 119.277  1.00  0.00    -0.550 OA
ENDBRANCH   2   3
ENDBRANCH   1   2
BRANCH   1   6
ATOM      6  C   UNL     1     123.746 177.327 122.194  1.00  0.00     0.000 C 
BRANCH   6   7
ATOM      7  C   UNL     1     125.228 177.080 122.499  1.00  0.00    -0.000 C 
BRANCH   7   8
ATOM      8  C   UNL     1     125.536 177.337 123.979  1.00  0.00    -0.003 C 
ATOM      9  C   UNL     1     124.256 177.366 124.810  1.00  0.00     0.004 C 
ENDBRANCH   7   8
ENDBRANCH   6   7
ENDBRANCH   1   6
TORSDOF 5
ENDMDL
MODEL 7
REMARK VINA RESULT:    -3.669      1.952      2.129
REMARK INTER + INTRA:          -4.999
REMARK INTER:                  -4.799
REMARK INTRA:                  -0.199
REMARK UNBOUND:                -0.257
REMARK SMILES CCCCCCC(=O)[O-]
REMARK SMILES IDX 5 1 6 2 7 3 8 4 9 5 4 6 3 7 2 8 1 9
REMARK H PARENT
REMARK Flexibility Score: inf
ROOT
ATOM      1  C   UNL     1     116.567 165.705 121.288  1.00  0.00     0.006 C 
ENDROOT
BRANCH   1   2
ATOM      2  C   UNL     1     116.891 165.670 122.788  1.00  0.00     0.053 C 
BRANCH   2   3
ATOM      3  C   UNL     1     117.730 166.838 123.203  1.00  0.00     0.041 C 
ATOM      4  O   UNL     1     118.987 166.749 123.202  1.00  0.00    -0.550 OA
ATOM      5  O   UNL     1     117.127 168.038 123.559  1.00  0.00    -0.550 OA
ENDBRANCH   2   3
ENDBRANCH   1   2
BRANCH   1   6
ATOM      6  C   UNL     1     117.437 164.728 120.483  1.00  0.00     0.000 C 
BRANCH   6   7
ATOM      7  C   UNL     1     116.993 164.675 119.017  1.00  0.00    -0.000 C 
BRANCH   7   8
ATOM      8  C   UNL     1     115.996 165.797 118.704  1.00  0.00    -0.003 C 
ATOM      9  C   UNL     1     116.455 166.623 117.505  1.00  0.00     0.004 C 
ENDBRANCH   7   8
ENDBRANCH   6   7
ENDBRANCH   1   6
TORSDOF 5
ENDMDL
MODEL 8
REMARK VINA RESULT:    -3.591     13.386     14.123
REMARK INTER + INTRA:          -4.898
REMARK INTER:                  -4.723
REMARK INTRA:                  -0.175
REMARK UNBOUND:                -0.257
REMARK SMILES CCCCCCC(=O)[O-]
REMARK SMILES IDX 5 1 6 2 7 3 8 4 9 5 4 6 3 7 2 8 1 9
REMARK H PARENT
REMARK Flexibility Score: inf
ROOT
ATOM      1  C   UNL     1     117.081 178.499 124.205  1.00  0.00     0.006 C 
ENDROOT
BRANCH   1   2
ATOM      2  C   UNL     1     115.874 178.122 125.076  1.00  0.00     0.053 C 
BRANCH   2   3
ATOM      3  C   UNL     1     115.116 179.331 125.529  1.00  0.00     0.041 C 
ATOM      4  O   UNL     1     115.709 180.431 125.683  1.00  0.00    -0.550 OA
ATOM      5  O   UNL     1     113.746 179.252 125.748  1.00  0.00    -0.550 OA
ENDBRANCH   2   3
ENDBRANCH   1   2
BRANCH   1   6
ATOM      6  C   UNL     1     118.416 178.147 124.877  1.00  0.00     0.000 C 
BRANCH   6   7
ATOM      7  C   UNL     1     119.578 178.257 123.883  1.00  0.00    -0.000 C 
BRANCH   7   8
ATOM      8  C   UNL     1     120.738 179.061 124.480  1.00  0.00    -0.003 C 
ATOM      9  C   UNL     1     120.250 179.999 125.581  1.00  0.00     0.004 C 
ENDBRANCH   7   8
ENDBRANCH   6   7
ENDBRANCH   1   6
TORSDOF 5
ENDMDL
MODEL 9
REMARK VINA RESULT:    -3.572     13.489     14.184
REMARK INTER + INTRA:          -4.873
REMARK INTER:                  -4.651
REMARK INTRA:                  -0.222
REMARK UNBOUND:                -0.257
REMARK SMILES CCCCCCC(=O)[O-]
REMARK SMILES IDX 5 1 6 2 7 3 8 4 9 5 4 6 3 7 2 8 1 9
REMARK H PARENT
REMARK Flexibility Score: inf
ROOT
ATOM      1  C   UNL     1     118.206 177.699 125.643  1.00  0.00     0.006 C 
ENDROOT
BRANCH   1   2
ATOM      2  C   UNL     1     118.774 178.176 124.299  1.00  0.00     0.053 C 
BRANCH   2   3
ATOM      3  C   UNL     1     119.961 179.069 124.483  1.00  0.00     0.041 C 
ATOM      4  O   UNL     1     120.993 178.906 123.778  1.00  0.00    -0.550 OA
ATOM      5  O   UNL     1     119.918 180.103 125.409  1.00  0.00    -0.550 OA
ENDBRANCH   2   3
ENDBRANCH   1   2
BRANCH   1   6
ATOM      6  C   UNL     1     116.676 177.825 125.705  1.00  0.00     0.000 C 
BRANCH   6   7
ATOM      7  C   UNL     1     116.119 178.400 124.397  1.00  0.00    -0.000 C 
BRANCH   7   8
ATOM      8  C   UNL     1     115.257 179.639 124.665  1.00  0.00    -0.003 C 
ATOM      9  C   UNL     1     114.186 179.349 125.713  1.00  0.00     0.004 C 
ENDBRANCH   7   8
ENDBRANCH   6   7
ENDBRANCH   1   6
TORSDOF 5
ENDMDL
