MODEL 1
REMARK VINA RESULT:    -5.364      0.000      0.000
REMARK INTER + INTRA:          -6.394
REMARK INTER:                  -6.462
REMARK INTRA:                   0.067
REMARK UNBOUND:                 0.067
REMARK SMILES CC[C@@H](C)[C@H]([NH3+])C(=O)[O-]
REMARK SMILES IDX 3 1 4 2 5 3 6 4 7 8 8 9 9 10 2 11 1 12
REMARK H PARENT 6 5 6 6 6 7
REMARK Flexibility Score: inf
ROOT
ATOM      1  C   UNL     1     -20.643  69.133  -0.657  1.00  0.00     0.050 C 
ATOM      2  C   UNL     1     -20.856  70.512  -0.004  1.00  0.00     0.014 C 
ENDROOT
BRANCH   1   3
ATOM      3  C   UNL     1     -19.186  68.617  -0.421  1.00  0.00     0.230 C 
BRANCH   3   4
ATOM      4  N   UNL     1     -18.262  69.078  -1.468  1.00  0.00    -0.350 N 
ATOM      5  H   UNL     1     -17.274  69.040  -1.122  1.00  0.00     0.345 HD
ATOM      6  H   UNL     1     -18.345  68.484  -2.325  1.00  0.00     0.345 HD
ATOM      7  H   UNL     1     -18.459  70.075  -1.712  1.00  0.00     0.345 HD
ENDBRANCH   3   4
BRANCH   3   8
ATOM      8  C   UNL     1     -19.151  67.111  -0.357  1.00  0.00     0.099 C 
ATOM      9  O   UNL     1     -18.918  66.528   0.734  1.00  0.00    -0.544 OA
ATOM     10  O   UNL     1     -19.384  66.357  -1.501  1.00  0.00    -0.544 OA
ENDBRANCH   3   8
ENDBRANCH   1   3
BRANCH   1  11
ATOM     11  C   UNL     1     -21.708  68.133  -0.112  1.00  0.00     0.006 C 
ATOM     12  C   UNL     1     -22.098  68.414   1.340  1.00  0.00     0.004 C 
ENDBRANCH   1  11
TORSDOF 4
ENDMDL
MODEL 2
REMARK VINA RESULT:    -5.245      1.519      1.694
REMARK INTER + INTRA:          -6.251
REMARK INTER:                  -6.273
REMARK INTRA:                   0.021
REMARK UNBOUND:                 0.067
REMARK SMILES CC[C@@H](C)[C@H]([NH3+])C(=O)[O-]
REMARK SMILES IDX 3 1 4 2 5 3 6 4 7 8 8 9 9 10 2 11 1 12
REMARK H PARENT 6 5 6 6 6 7
REMARK Flexibility Score: inf
ROOT
ATOM      1  C   UNL     1     -21.074  68.758  -0.977  1.00  0.00     0.050 C 
ATOM      2  C   UNL     1     -20.614  69.966  -0.140  1.00  0.00     0.014 C 
ENDROOT
BRANCH   1   3
ATOM      3  C   UNL     1     -19.855  67.897  -1.443  1.00  0.00     0.230 C 
BRANCH   3   4
ATOM      4  N   UNL     1     -20.261  66.546  -1.859  1.00  0.00    -0.350 N 
ATOM      5  H   UNL     1     -20.503  66.538  -2.877  1.00  0.00     0.345 HD
ATOM      6  H   UNL     1     -19.492  65.858  -1.686  1.00  0.00     0.345 HD
ATOM      7  H   UNL     1     -21.120  66.251  -1.341  1.00  0.00     0.345 HD
ENDBRANCH   3   4
BRANCH   3   8
ATOM      8  C   UNL     1     -18.821  67.790  -0.351  1.00  0.00     0.099 C 
ATOM      9  O   UNL     1     -17.807  68.535  -0.362  1.00  0.00    -0.544 OA
ATOM     10  O   UNL     1     -18.988  66.874   0.682  1.00  0.00    -0.544 OA
ENDBRANCH   3   8
ENDBRANCH   1   3
BRANCH   1  11
ATOM     11  C   UNL     1     -22.096  67.917  -0.152  1.00  0.00     0.006 C 
ATOM     12  C   UNL     1     -22.196  68.367   1.306  1.00  0.00     0.004 C 
ENDBRANCH   1  11
TORSDOF 4
ENDMDL
MODEL 3
REMARK VINA RESULT:    -5.123      2.215      3.098
REMARK INTER + INTRA:          -6.103
REMARK INTER:                  -6.064
REMARK INTRA:                  -0.040
REMARK UNBOUND:                 0.067
REMARK SMILES CC[C@@H](C)[C@H]([NH3+])C(=O)[O-]
REMARK SMILES IDX 3 1 4 2 5 3 6 4 7 8 8 9 9 10 2 11 1 12
REMARK H PARENT 6 5 6 6 6 7
REMARK Flexibility Score: inf
ROOT
ATOM      1  C   UNL     1     -19.344  68.420  -0.227  1.00  0.00     0.050 C 
ATOM      2  C   UNL     1     -18.388  69.168  -1.174  1.00  0.00     0.014 C 
ENDROOT
BRANCH   1   3
ATOM      3  C   UNL     1     -20.786  69.024  -0.290  1.00  0.00     0.230 C 
BRANCH   3   4
ATOM      4  N   UNL     1     -20.790  70.469  -0.015  1.00  0.00    -0.350 N 
ATOM      5  H   UNL     1     -21.413  70.680   0.799  1.00  0.00     0.345 HD
ATOM      6  H   UNL     1     -19.824  70.809   0.198  1.00  0.00     0.345 HD
ATOM      7  H   UNL     1     -21.174  70.992  -0.834  1.00  0.00     0.345 HD
ENDBRANCH   3   4
BRANCH   3   8
ATOM      8  C   UNL     1     -21.704  68.331   0.684  1.00  0.00     0.099 C 
ATOM      9  O   UNL     1     -21.485  68.403   1.922  1.00  0.00    -0.544 OA
ATOM     10  O   UNL     1     -22.804  67.617   0.223  1.00  0.00    -0.544 OA
ENDBRANCH   3   8
ENDBRANCH   1   3
BRANCH   1  11
ATOM     11  C   UNL     1     -19.336  66.901  -0.577  1.00  0.00     0.006 C 
ATOM     12  C   UNL     1     -20.137  66.578  -1.839  1.00  0.00     0.004 C 
ENDBRANCH   1  11
TORSDOF 4
ENDMDL
MODEL 4
REMARK VINA RESULT:    -5.105      2.689      3.723
REMARK INTER + INTRA:          -6.082
REMARK INTER:                  -6.021
REMARK INTRA:                  -0.061
REMARK UNBOUND:                 0.067
REMARK SMILES CC[C@@H](C)[C@H]([NH3+])C(=O)[O-]
REMARK SMILES IDX 3 1 4 2 5 3 6 4 7 8 8 9 9 10 2 11 1 12
REMARK H PARENT 6 5 6 6 6 7
REMARK Flexibility Score: inf
ROOT
ATOM      1  C   UNL     1     -20.457  67.850  -1.097  1.00  0.00     0.050 C 
ATOM      2  C   UNL     1     -20.337  66.557  -1.925  1.00  0.00     0.014 C 
ENDROOT
BRANCH   1   3
ATOM      3  C   UNL     1     -21.593  67.733  -0.029  1.00  0.00     0.230 C 
BRANCH   3   4
ATOM      4  N   UNL     1     -22.929  67.862  -0.630  1.00  0.00    -0.350 N 
ATOM      5  H   UNL     1     -23.316  66.917  -0.860  1.00  0.00     0.345 HD
ATOM      6  H   UNL     1     -23.585  68.348   0.024  1.00  0.00     0.345 HD
ATOM      7  H   UNL     1     -22.872  68.392  -1.529  1.00  0.00     0.345 HD
ENDBRANCH   3   4
BRANCH   3   8
ATOM      8  C   UNL     1     -21.431  68.775   1.048  1.00  0.00     0.099 C 
ATOM      9  O   UNL     1     -21.196  68.429   2.235  1.00  0.00    -0.544 OA
ATOM     10  O   UNL     1     -21.531  70.126   0.734  1.00  0.00    -0.544 OA
ENDBRANCH   3   8
ENDBRANCH   1   3
BRANCH   1  11
ATOM     11  C   UNL     1     -19.079  68.175  -0.444  1.00  0.00     0.006 C 
ATOM     12  C   UNL     1     -18.376  69.365  -1.102  1.00  0.00     0.004 C 
ENDBRANCH   1  11
TORSDOF 4
ENDMDL
MODEL 5
REMARK VINA RESULT:    -5.082      1.550      2.227
REMARK INTER + INTRA:          -6.055
REMARK INTER:                  -6.000
REMARK INTRA:                  -0.054
REMARK UNBOUND:                 0.067
REMARK SMILES CC[C@@H](C)[C@H]([NH3+])C(=O)[O-]
REMARK SMILES IDX 3 1 4 2 5 3 6 4 7 8 8 9 9 10 2 11 1 12
REMARK H PARENT 6 5 6 6 6 7
REMARK Flexibility Score: inf
ROOT
ATOM      1  C   UNL     1     -21.442  68.016   0.229  1.00  0.00     0.050 C 
ATOM      2  C   UNL     1     -22.766  67.675  -0.478  1.00  0.00     0.014 C 
ENDROOT
BRANCH   1   3
ATOM      3  C   UNL     1     -20.227  67.859  -0.743  1.00  0.00     0.230 C 
BRANCH   3   4
ATOM      4  N   UNL     1     -20.472  66.833  -1.768  1.00  0.00    -0.350 N 
ATOM      5  H   UNL     1     -19.574  66.361  -2.029  1.00  0.00     0.345 HD
ATOM      6  H   UNL     1     -21.146  66.113  -1.420  1.00  0.00     0.345 HD
ATOM      7  H   UNL     1     -20.846  67.273  -2.639  1.00  0.00     0.345 HD
ENDBRANCH   3   4
BRANCH   3   8
ATOM      8  C   UNL     1     -18.971  67.511   0.016  1.00  0.00     0.099 C 
ATOM      9  O   UNL     1     -18.997  66.631   0.915  1.00  0.00    -0.544 OA
ATOM     10  O   UNL     1     -17.775  68.154  -0.281  1.00  0.00    -0.544 OA
ENDBRANCH   3   8
ENDBRANCH   1   3
BRANCH   1  11
ATOM     11  C   UNL     1     -21.528  69.456   0.822  1.00  0.00     0.006 C 
ATOM     12  C   UNL     1     -20.774  70.489  -0.017  1.00  0.00     0.004 C 
ENDBRANCH   1  11
TORSDOF 4
ENDMDL
MODEL 6
REMARK VINA RESULT:    -4.886      1.051      1.373
REMARK INTER + INTRA:          -5.819
REMARK INTER:                  -5.696
REMARK INTRA:                  -0.123
REMARK UNBOUND:                 0.067
REMARK SMILES CC[C@@H](C)[C@H]([NH3+])C(=O)[O-]
REMARK SMILES IDX 3 1 4 2 5 3 6 4 7 8 8 9 9 10 2 11 1 12
REMARK H PARENT 6 5 6 6 6 7
REMARK Flexibility Score: inf
ROOT
ATOM      1  C   UNL     1     -20.700  68.908  -0.075  1.00  0.00     0.050 C 
ATOM      2  C   UNL     1     -20.421  70.400  -0.336  1.00  0.00     0.014 C 
ENDROOT
BRANCH   1   3
ATOM      3  C   UNL     1     -19.426  68.042  -0.342  1.00  0.00     0.230 C 
BRANCH   3   4
ATOM      4  N   UNL     1     -18.343  68.829  -0.953  1.00  0.00    -0.350 N 
ATOM      5  H   UNL     1     -18.261  68.602  -1.971  1.00  0.00     0.345 HD
ATOM      6  H   UNL     1     -18.523  69.854  -0.846  1.00  0.00     0.345 HD
ATOM      7  H   UNL     1     -17.426  68.585  -0.513  1.00  0.00     0.345 HD
ENDBRANCH   3   4
BRANCH   3   8
ATOM      8  C   UNL     1     -19.748  66.869  -1.233  1.00  0.00     0.099 C 
ATOM      9  O   UNL     1     -20.837  66.833  -1.864  1.00  0.00    -0.544 OA
ATOM     10  O   UNL     1     -18.841  65.825  -1.371  1.00  0.00    -0.544 OA
ENDBRANCH   3   8
ENDBRANCH   1   3
BRANCH   1  11
ATOM     11  C   UNL     1     -21.229  68.728   1.381  1.00  0.00     0.006 C 
ATOM     12  C   UNL     1     -22.568  67.990   1.438  1.00  0.00     0.004 C 
ENDBRANCH   1  11
TORSDOF 4
ENDMDL
MODEL 7
REMARK VINA RESULT:    -4.526      1.800      2.386
REMARK INTER + INTRA:          -5.385
REMARK INTER:                  -5.387
REMARK INTRA:                   0.002
REMARK UNBOUND:                 0.067
REMARK SMILES CC[C@@H](C)[C@H]([NH3+])C(=O)[O-]
REMARK SMILES IDX 3 1 4 2 5 3 6 4 7 8 8 9 9 10 2 11 1 12
REMARK H PARENT 6 5 6 6 6 7
REMARK Flexibility Score: inf
ROOT
ATOM      1  C   UNL     1     -20.734  67.570  -0.256  1.00  0.00     0.050 C 
ATOM      2  C   UNL     1     -20.516  67.018  -1.676  1.00  0.00     0.014 C 
ENDROOT
BRANCH   1   3
ATOM      3  C   UNL     1     -19.872  68.851  -0.010  1.00  0.00     0.230 C 
BRANCH   3   4
ATOM      4  N   UNL     1     -20.533  70.065  -0.514  1.00  0.00    -0.350 N 
ATOM      5  H   UNL     1     -19.818  70.774  -0.798  1.00  0.00     0.345 HD
ATOM      6  H   UNL     1     -21.139  69.843  -1.337  1.00  0.00     0.345 HD
ATOM      7  H   UNL     1     -21.111  70.501   0.240  1.00  0.00     0.345 HD
ENDBRANCH   3   4
BRANCH   3   8
ATOM      8  C   UNL     1     -18.516  68.721  -0.657  1.00  0.00     0.099 C 
ATOM      9  O   UNL     1     -18.215  69.438  -1.647  1.00  0.00    -0.544 OA
ATOM     10  O   UNL     1     -17.587  67.816  -0.158  1.00  0.00    -0.544 OA
ENDBRANCH   3   8
ENDBRANCH   1   3
BRANCH   1  11
ATOM     11  C   UNL     1     -22.253  67.842  -0.034  1.00  0.00     0.006 C 
ATOM     12  C   UNL     1     -22.628  67.950   1.445  1.00  0.00     0.004 C 
ENDBRANCH   1  11
TORSDOF 4
ENDMDL
MODEL 8
REMARK VINA RESULT:    -4.522      2.527      3.518
REMARK INTER + INTRA:          -5.379
REMARK INTER:                  -5.272
REMARK INTRA:                  -0.107
REMARK UNBOUND:                 0.067
REMARK SMILES CC[C@@H](C)[C@H]([NH3+])C(=O)[O-]
REMARK SMILES IDX 3 1 4 2 5 3 6 4 7 8 8 9 9 10 2 11 1 12
REMARK H PARENT 6 5 6 6 6 7
REMARK Flexibility Score: inf
ROOT
ATOM      1  C   UNL     1     -20.075  67.638  -1.091  1.00  0.00     0.050 C 
ATOM      2  C   UNL     1     -19.167  66.395  -1.036  1.00  0.00     0.014 C 
ENDROOT
BRANCH   1   3
ATOM      3  C   UNL     1     -20.513  68.080   0.344  1.00  0.00     0.230 C 
BRANCH   3   4
ATOM      4  N   UNL     1     -19.858  67.280   1.390  1.00  0.00    -0.350 N 
ATOM      5  H   UNL     1     -18.935  67.703   1.644  1.00  0.00     0.345 HD
ATOM      6  H   UNL     1     -20.456  67.229   2.247  1.00  0.00     0.345 HD
ATOM      7  H   UNL     1     -19.663  66.315   1.040  1.00  0.00     0.345 HD
ENDBRANCH   3   4
BRANCH   3   8
ATOM      8  C   UNL     1     -22.008  67.978   0.507  1.00  0.00     0.099 C 
ATOM      9  O   UNL     1     -22.540  68.186   1.629  1.00  0.00    -0.544 OA
ATOM     10  O   UNL     1     -22.811  67.665  -0.584  1.00  0.00    -0.544 OA
ENDBRANCH   3   8
ENDBRANCH   1   3
BRANCH   1  11
ATOM     11  C   UNL     1     -19.340  68.783  -1.851  1.00  0.00     0.006 C 
ATOM     12  C   UNL     1     -18.239  69.439  -1.016  1.00  0.00     0.004 C 
ENDBRANCH   1  11
TORSDOF 4
ENDMDL
MODEL 9
REMARK VINA RESULT:    -4.474      2.330      3.417
REMARK INTER + INTRA:          -5.322
REMARK INTER:                  -5.297
REMARK INTRA:                  -0.025
REMARK UNBOUND:                 0.067
REMARK SMILES CC[C@@H](C)[C@H]([NH3+])C(=O)[O-]
REMARK SMILES IDX 3 1 4 2 5 3 6 4 7 8 8 9 9 10 2 11 1 12
REMARK H PARENT 6 5 6 6 6 7
REMARK Flexibility Score: inf
ROOT
ATOM      1  C   UNL     1     -19.763  68.771  -0.013  1.00  0.00     0.050 C 
ATOM      2  C   UNL     1     -20.453  70.042  -0.542  1.00  0.00     0.014 C 
ENDROOT
BRANCH   1   3
ATOM      3  C   UNL     1     -20.664  67.511  -0.221  1.00  0.00     0.230 C 
BRANCH   3   4
ATOM      4  N   UNL     1     -20.588  67.001  -1.599  1.00  0.00    -0.350 N 
ATOM      5  H   UNL     1     -20.151  66.050  -1.610  1.00  0.00     0.345 HD
ATOM      6  H   UNL     1     -21.541  66.942  -2.027  1.00  0.00     0.345 HD
ATOM      7  H   UNL     1     -19.980  67.621  -2.181  1.00  0.00     0.345 HD
ENDBRANCH   3   4
BRANCH   3   8
ATOM      8  C   UNL     1     -22.102  67.814   0.116  1.00  0.00     0.099 C 
ATOM      9  O   UNL     1     -22.999  67.688  -0.759  1.00  0.00    -0.544 OA
ATOM     10  O   UNL     1     -22.448  68.225   1.397  1.00  0.00    -0.544 OA
ENDBRANCH   3   8
ENDBRANCH   1   3
BRANCH   1  11
ATOM     11  C   UNL     1     -18.374  68.612  -0.703  1.00  0.00     0.006 C 
ATOM     12  C   UNL     1     -17.871  69.912  -1.333  1.00  0.00     0.004 C 
ENDBRANCH   1  11
TORSDOF 4
ENDMDL
