MODEL 1
REMARK VINA RESULT:    -2.393      0.000      0.000
REMARK INTER + INTRA:          -2.259
REMARK INTER:                  -2.743
REMARK INTRA:                   0.484
REMARK UNBOUND:                 0.484
REMARK SMILES COc1cc(C(C)=O)ccc1O
REMARK SMILES IDX 5 1 4 2 3 3 11 4 10 5 9 6 6 7 7 8 8 9 2 10 1 11 12 12
REMARK H PARENT 12 13
REMARK Flexibility Score: inf
ROOT
ATOM      1  C   UNL     1       9.518  14.415   1.073  1.00  0.00     0.021 A 
ATOM      2  C   UNL     1      10.674  14.392   1.878  1.00  0.00     0.062 A 
ATOM      3  C   UNL     1      11.913  13.977   1.350  1.00  0.00     0.161 A 
ATOM      4  C   UNL     1      11.992  13.584   0.008  1.00  0.00     0.157 A 
ATOM      5  C   UNL     1      10.848  13.604  -0.798  1.00  0.00     0.051 A 
ATOM      6  C   UNL     1       9.622  14.015  -0.272  1.00  0.00     0.016 A 
ENDROOT
BRANCH   1   7
ATOM      7  C   UNL     1       8.202  14.850   1.617  1.00  0.00     0.159 C 
ATOM      8  C   UNL     1       7.950  16.264   2.047  1.00  0.00     0.093 C 
ATOM      9  O   UNL     1       7.262  14.015   1.726  1.00  0.00    -0.295 OA
ENDBRANCH   1   7
BRANCH   3  10
ATOM     10  O   UNL     1      13.084  13.944   2.124  1.00  0.00    -0.493 OA
ATOM     11  C   UNL     1      14.026  12.876   2.116  1.00  0.00     0.278 C 
ENDBRANCH   3  10
BRANCH   4  12
ATOM     12  O   UNL     1      13.216  13.173  -0.519  1.00  0.00    -0.504 OA
ATOM     13  H   UNL     1      13.487  12.198  -0.532  1.00  0.00     0.293 HD
ENDBRANCH   4  12
TORSDOF 3
ENDMDL
MODEL 2
REMARK VINA RESULT:    -2.250      1.668      2.534
REMARK INTER + INTRA:          -2.094
REMARK INTER:                  -2.018
REMARK INTRA:                  -0.076
REMARK UNBOUND:                 0.484
REMARK SMILES COc1cc(C(C)=O)ccc1O
REMARK SMILES IDX 5 1 4 2 3 3 11 4 10 5 9 6 6 7 7 8 8 9 2 10 1 11 12 12
REMARK H PARENT 12 13
REMARK Flexibility Score: inf
ROOT
ATOM      1  C   UNL     1       8.815  15.211   2.052  1.00  0.00     0.021 A 
ATOM      2  C   UNL     1       9.734  14.147   1.945  1.00  0.00     0.062 A 
ATOM      3  C   UNL     1      11.122  14.393   1.910  1.00  0.00     0.161 A 
ATOM      4  C   UNL     1      11.589  15.712   1.983  1.00  0.00     0.157 A 
ATOM      5  C   UNL     1      10.683  16.772   2.089  1.00  0.00     0.051 A 
ATOM      6  C   UNL     1       9.309  16.526   2.124  1.00  0.00     0.016 A 
ENDROOT
BRANCH   1   7
ATOM      7  C   UNL     1       7.347  14.967   2.091  1.00  0.00     0.159 C 
ATOM      8  C   UNL     1       6.774  13.582   2.122  1.00  0.00     0.093 C 
ATOM      9  O   UNL     1       6.550  15.944   2.095  1.00  0.00    -0.295 OA
ENDBRANCH   1   7
BRANCH   3  10
ATOM     10  O   UNL     1      12.064  13.357   1.804  1.00  0.00    -0.493 OA
ATOM     11  C   UNL     1      12.599  12.875   0.576  1.00  0.00     0.278 C 
ENDBRANCH   3  10
BRANCH   4  12
ATOM     12  O   UNL     1      12.960  15.960   1.949  1.00  0.00    -0.504 OA
ATOM     13  H   UNL     1      13.622  15.243   1.679  1.00  0.00     0.293 HD
ENDBRANCH   4  12
TORSDOF 3
ENDMDL
MODEL 3
REMARK VINA RESULT:    -0.704      1.345      2.817
REMARK INTER + INTRA:          -0.323
REMARK INTER:                  -0.209
REMARK INTRA:                  -0.113
REMARK UNBOUND:                 0.484
REMARK SMILES COc1cc(C(C)=O)ccc1O
REMARK SMILES IDX 5 1 4 2 3 3 11 4 10 5 9 6 6 7 7 8 8 9 2 10 1 11 12 12
REMARK H PARENT 12 13
REMARK Flexibility Score: inf
ROOT
ATOM      1  C   UNL     1       9.269  14.518   1.304  1.00  0.00     0.021 A 
ATOM      2  C   UNL     1       9.393  14.065  -0.024  1.00  0.00     0.062 A 
ATOM      3  C   UNL     1      10.636  13.629  -0.526  1.00  0.00     0.161 A 
ATOM      4  C   UNL     1      11.760  13.648   0.311  1.00  0.00     0.157 A 
ATOM      5  C   UNL     1      11.644  14.096   1.631  1.00  0.00     0.051 A 
ATOM      6  C   UNL     1      10.412  14.527   2.125  1.00  0.00     0.016 A 
ENDROOT
BRANCH   1   7
ATOM      7  C   UNL     1       7.962  14.981   1.848  1.00  0.00     0.159 C 
ATOM      8  C   UNL     1       6.820  14.037   2.078  1.00  0.00     0.093 C 
ATOM      9  O   UNL     1       7.796  16.200   2.125  1.00  0.00    -0.295 OA
ENDBRANCH   1   7
BRANCH   3  10
ATOM     10  O   UNL     1      10.795  13.172  -1.843  1.00  0.00    -0.493 OA
ATOM     11  C   UNL     1      10.833  14.014  -2.991  1.00  0.00     0.278 C 
ENDBRANCH   3  10
BRANCH   4  12
ATOM     12  O   UNL     1      12.992  13.218  -0.179  1.00  0.00    -0.504 OA
ATOM     13  H   UNL     1      13.183  13.180  -1.174  1.00  0.00     0.293 HD
ENDBRANCH   4  12
TORSDOF 3
ENDMDL
