MODEL 1
REMARK VINA RESULT:    -4.447      0.000      0.000
REMARK INTER + INTRA:          -4.447
REMARK INTER:                  -4.447
REMARK INTRA:                   0.000
REMARK UNBOUND:                 0.000
REMARK SMILES CC1=CC(=O)[C@@H]2C[C@H]1C2(C)C
REMARK SMILES IDX 1 1 2 2 3 3 4 4 5 5 6 6 7 7 8 8 9 9 10 10 11 11
REMARK H PARENT
REMARK Flexibility Score: inf
ROOT
ATOM      1  C   UNL     1      14.869  51.003  37.792  1.00  0.00     0.040 C 
ATOM      2  C   UNL     1      15.004  52.037  36.720  1.00  0.00    -0.066 C 
ATOM      3  C   UNL     1      14.879  53.371  36.976  1.00  0.00     0.047 C 
ATOM      4  C   UNL     1      15.040  54.288  35.801  1.00  0.00     0.159 C 
ATOM      5  O   UNL     1      14.989  55.541  35.915  1.00  0.00    -0.295 OA
ATOM      6  C   UNL     1      15.271  53.596  34.458  1.00  0.00     0.067 C 
ATOM      7  C   UNL     1      14.226  52.461  34.433  1.00  0.00     0.021 C 
ATOM      8  C   UNL     1      15.238  51.629  35.251  1.00  0.00     0.022 C 
ATOM      9  C   UNL     1      16.368  52.509  34.643  1.00  0.00    -0.019 C 
ATOM     10  C   UNL     1      17.598  52.845  35.532  1.00  0.00     0.012 C 
ATOM     11  C   UNL     1      16.883  51.955  33.291  1.00  0.00     0.012 C 
ENDROOT
TORSDOF 0
ENDMDL
MODEL 2
REMARK VINA RESULT:    -4.417     15.692     17.153
REMARK INTER + INTRA:          -4.417
REMARK INTER:                  -4.417
REMARK INTRA:                   0.000
REMARK UNBOUND:                 0.000
REMARK SMILES CC1=CC(=O)[C@@H]2C[C@H]1C2(C)C
REMARK SMILES IDX 1 1 2 2 3 3 4 4 5 5 6 6 7 7 8 8 9 9 10 10 11 11
REMARK H PARENT
REMARK Flexibility Score: inf
ROOT
ATOM      1  C   UNL     1      12.057  62.902  19.078  1.00  0.00     0.040 C 
ATOM      2  C   UNL     1      12.559  61.929  20.097  1.00  0.00    -0.066 C 
ATOM      3  C   UNL     1      12.188  60.616  20.092  1.00  0.00     0.047 C 
ATOM      4  C   UNL     1      12.773  59.760  21.175  1.00  0.00     0.159 C 
ATOM      5  O   UNL     1      12.542  58.526  21.254  1.00  0.00    -0.295 OA
ATOM      6  C   UNL     1      13.669  60.492  22.175  1.00  0.00     0.067 C 
ATOM      7  C   UNL     1      12.879  61.772  22.523  1.00  0.00     0.021 C 
ATOM      8  C   UNL     1      13.484  62.388  21.241  1.00  0.00     0.022 C 
ATOM      9  C   UNL     1      14.666  61.386  21.386  1.00  0.00    -0.019 C 
ATOM     10  C   UNL     1      15.306  60.812  20.090  1.00  0.00     0.012 C 
ATOM     11  C   UNL     1      15.801  61.939  22.284  1.00  0.00     0.012 C 
ENDROOT
TORSDOF 0
ENDMDL
MODEL 3
REMARK VINA RESULT:    -4.338     15.382     16.705
REMARK INTER + INTRA:          -4.338
REMARK INTER:                  -4.338
REMARK INTRA:                   0.000
REMARK UNBOUND:                 0.000
REMARK SMILES CC1=CC(=O)[C@@H]2C[C@H]1C2(C)C
REMARK SMILES IDX 1 1 2 2 3 3 4 4 5 5 6 6 7 7 8 8 9 9 10 10 11 11
REMARK H PARENT
REMARK Flexibility Score: inf
ROOT
ATOM      1  C   UNL     1      12.325  62.125  19.207  1.00  0.00     0.040 C 
ATOM      2  C   UNL     1      13.199  61.904  20.401  1.00  0.00    -0.066 C 
ATOM      3  C   UNL     1      12.858  62.351  21.644  1.00  0.00     0.047 C 
ATOM      4  C   UNL     1      13.832  62.053  22.744  1.00  0.00     0.159 C 
ATOM      5  O   UNL     1      13.613  62.376  23.940  1.00  0.00    -0.295 OA
ATOM      6  C   UNL     1      15.108  61.331  22.310  1.00  0.00     0.067 C 
ATOM      7  C   UNL     1      15.558  62.089  21.042  1.00  0.00     0.021 C 
ATOM      8  C   UNL     1      14.563  61.199  20.263  1.00  0.00     0.022 C 
ATOM      9  C   UNL     1      14.715  60.139  21.392  1.00  0.00    -0.019 C 
ATOM     10  C   UNL     1      13.470  59.290  21.776  1.00  0.00     0.012 C 
ATOM     11  C   UNL     1      15.900  59.173  21.138  1.00  0.00     0.012 C 
ENDROOT
TORSDOF 0
ENDMDL
MODEL 4
REMARK VINA RESULT:    -4.228     15.262     16.590
REMARK INTER + INTRA:          -4.228
REMARK INTER:                  -4.228
REMARK INTRA:                   0.000
REMARK UNBOUND:                 0.000
REMARK SMILES CC1=CC(=O)[C@@H]2C[C@H]1C2(C)C
REMARK SMILES IDX 1 1 2 2 3 3 4 4 5 5 6 6 7 7 8 8 9 9 10 10 11 11
REMARK H PARENT
REMARK Flexibility Score: inf
ROOT
ATOM      1  C   UNL     1      14.640  62.420  24.098  1.00  0.00     0.040 C 
ATOM      2  C   UNL     1      14.552  61.895  22.699  1.00  0.00    -0.066 C 
ATOM      3  C   UNL     1      15.659  61.664  21.939  1.00  0.00     0.047 C 
ATOM      4  C   UNL     1      15.414  61.136  20.557  1.00  0.00     0.159 C 
ATOM      5  O   UNL     1      16.354  60.843  19.773  1.00  0.00    -0.295 OA
ATOM      6  C   UNL     1      13.944  60.981  20.167  1.00  0.00     0.067 C 
ATOM      7  C   UNL     1      13.288  62.297  20.637  1.00  0.00     0.021 C 
ATOM      8  C   UNL     1      13.184  61.645  22.033  1.00  0.00     0.022 C 
ATOM      9  C   UNL     1      13.198  60.259  21.325  1.00  0.00    -0.019 C 
ATOM     10  C   UNL     1      13.912  59.076  22.039  1.00  0.00     0.012 C 
ATOM     11  C   UNL     1      11.779  59.792  20.914  1.00  0.00     0.012 C 
ENDROOT
TORSDOF 0
ENDMDL
MODEL 5
REMARK VINA RESULT:    -4.221     14.963     16.429
REMARK INTER + INTRA:          -4.221
REMARK INTER:                  -4.221
REMARK INTRA:                   0.000
REMARK UNBOUND:                 0.000
REMARK SMILES CC1=CC(=O)[C@@H]2C[C@H]1C2(C)C
REMARK SMILES IDX 1 1 2 2 3 3 4 4 5 5 6 6 7 7 8 8 9 9 10 10 11 11
REMARK H PARENT
REMARK Flexibility Score: inf
ROOT
ATOM      1  C   UNL     1      17.255  62.732  23.075  1.00  0.00     0.040 C 
ATOM      2  C   UNL     1      16.382  61.735  22.382  1.00  0.00    -0.066 C 
ATOM      3  C   UNL     1      16.270  60.445  22.810  1.00  0.00     0.047 C 
ATOM      4  C   UNL     1      15.355  59.562  22.015  1.00  0.00     0.159 C 
ATOM      5  O   UNL     1      15.135  58.364  22.333  1.00  0.00    -0.295 OA
ATOM      6  C   UNL     1      14.711  60.218  20.794  1.00  0.00     0.067 C 
ATOM      7  C   UNL     1      15.874  60.967  20.109  1.00  0.00     0.021 C 
ATOM      8  C   UNL     1      15.605  62.116  21.106  1.00  0.00     0.022 C 
ATOM      9  C   UNL     1      14.141  61.601  21.217  1.00  0.00    -0.019 C 
ATOM     10  C   UNL     1      13.424  61.715  22.592  1.00  0.00     0.012 C 
ATOM     11  C   UNL     1      13.216  62.215  20.136  1.00  0.00     0.012 C 
ENDROOT
TORSDOF 0
ENDMDL
MODEL 6
REMARK VINA RESULT:    -4.207     15.183     16.571
REMARK INTER + INTRA:          -4.207
REMARK INTER:                  -4.207
REMARK INTRA:                   0.000
REMARK UNBOUND:                 0.000
REMARK SMILES CC1=CC(=O)[C@@H]2C[C@H]1C2(C)C
REMARK SMILES IDX 1 1 2 2 3 3 4 4 5 5 6 6 7 7 8 8 9 9 10 10 11 11
REMARK H PARENT
REMARK Flexibility Score: inf
ROOT
ATOM      1  C   UNL     1      13.274  61.523  24.269  1.00  0.00     0.040 C 
ATOM      2  C   UNL     1      13.747  61.127  22.906  1.00  0.00    -0.066 C 
ATOM      3  C   UNL     1      14.475  59.994  22.690  1.00  0.00     0.047 C 
ATOM      4  C   UNL     1      14.878  59.727  21.270  1.00  0.00     0.159 C 
ATOM      5  O   UNL     1      15.515  58.695  20.936  1.00  0.00    -0.295 OA
ATOM      6  C   UNL     1      14.462  60.797  20.261  1.00  0.00     0.067 C 
ATOM      7  C   UNL     1      14.831  62.129  20.947  1.00  0.00     0.021 C 
ATOM      8  C   UNL     1      13.476  62.025  21.682  1.00  0.00     0.022 C 
ATOM      9  C   UNL     1      12.966  61.149  20.500  1.00  0.00    -0.019 C 
ATOM     10  C   UNL     1      11.976  59.992  20.816  1.00  0.00     0.012 C 
ATOM     11  C   UNL     1      12.369  62.000  19.351  1.00  0.00     0.012 C 
ENDROOT
TORSDOF 0
ENDMDL
MODEL 7
REMARK VINA RESULT:    -4.196      1.798      2.822
REMARK INTER + INTRA:          -4.196
REMARK INTER:                  -4.196
REMARK INTRA:                   0.000
REMARK UNBOUND:                 0.000
REMARK SMILES CC1=CC(=O)[C@@H]2C[C@H]1C2(C)C
REMARK SMILES IDX 1 1 2 2 3 3 4 4 5 5 6 6 7 7 8 8 9 9 10 10 11 11
REMARK H PARENT
REMARK Flexibility Score: inf
ROOT
ATOM      1  C   UNL     1      14.849  51.213  37.648  1.00  0.00     0.040 C 
ATOM      2  C   UNL     1      15.195  51.792  36.313  1.00  0.00    -0.066 C 
ATOM      3  C   UNL     1      14.635  51.337  35.156  1.00  0.00     0.047 C 
ATOM      4  C   UNL     1      15.079  52.016  33.895  1.00  0.00     0.159 C 
ATOM      5  O   UNL     1      14.605  51.716  32.768  1.00  0.00    -0.295 OA
ATOM      6  C   UNL     1      16.146  53.096  34.074  1.00  0.00     0.067 C 
ATOM      7  C   UNL     1      17.176  52.455  35.028  1.00  0.00     0.021 C 
ATOM      8  C   UNL     1      16.255  52.905  36.184  1.00  0.00     0.022 C 
ATOM      9  C   UNL     1      15.719  54.025  35.246  1.00  0.00    -0.019 C 
ATOM     10  C   UNL     1      14.221  54.427  35.362  1.00  0.00     0.012 C 
ATOM     11  C   UNL     1      16.574  55.315  35.319  1.00  0.00     0.012 C 
ENDROOT
TORSDOF 0
ENDMDL
MODEL 8
REMARK VINA RESULT:    -4.104      1.298      3.127
REMARK INTER + INTRA:          -4.104
REMARK INTER:                  -4.104
REMARK INTRA:                   0.000
REMARK UNBOUND:                 0.000
REMARK SMILES CC1=CC(=O)[C@@H]2C[C@H]1C2(C)C
REMARK SMILES IDX 1 1 2 2 3 3 4 4 5 5 6 6 7 7 8 8 9 9 10 10 11 11
REMARK H PARENT
REMARK Flexibility Score: inf
ROOT
ATOM      1  C   UNL     1      13.619  52.073  33.072  1.00  0.00     0.040 C 
ATOM      2  C   UNL     1      14.675  52.644  33.965  1.00  0.00    -0.066 C 
ATOM      3  C   UNL     1      15.358  53.781  33.649  1.00  0.00     0.047 C 
ATOM      4  C   UNL     1      16.387  54.233  34.642  1.00  0.00     0.159 C 
ATOM      5  O   UNL     1      17.053  55.288  34.485  1.00  0.00    -0.295 OA
ATOM      6  C   UNL     1      16.568  53.321  35.856  1.00  0.00     0.067 C 
ATOM      7  C   UNL     1      16.623  51.900  35.256  1.00  0.00     0.021 C 
ATOM      8  C   UNL     1      15.078  51.929  35.271  1.00  0.00     0.022 C 
ATOM      9  C   UNL     1      15.165  52.969  36.425  1.00  0.00    -0.019 C 
ATOM     10  C   UNL     1      14.090  54.090  36.487  1.00  0.00     0.012 C 
ATOM     11  C   UNL     1      15.245  52.296  37.819  1.00  0.00     0.012 C 
ENDROOT
TORSDOF 0
ENDMDL
MODEL 9
REMARK VINA RESULT:    -4.098     15.251     16.450
REMARK INTER + INTRA:          -4.098
REMARK INTER:                  -4.098
REMARK INTRA:                   0.000
REMARK UNBOUND:                 0.000
REMARK SMILES CC1=CC(=O)[C@@H]2C[C@H]1C2(C)C
REMARK SMILES IDX 1 1 2 2 3 3 4 4 5 5 6 6 7 7 8 8 9 9 10 10 11 11
REMARK H PARENT
REMARK Flexibility Score: inf
ROOT
ATOM      1  C   UNL     1      14.500  57.904  21.444  1.00  0.00     0.040 C 
ATOM      2  C   UNL     1      14.627  59.377  21.214  1.00  0.00    -0.066 C 
ATOM      3  C   UNL     1      13.586  60.135  20.765  1.00  0.00     0.047 C 
ATOM      4  C   UNL     1      13.862  61.597  20.584  1.00  0.00     0.159 C 
ATOM      5  O   UNL     1      12.973  62.408  20.216  1.00  0.00    -0.295 OA
ATOM      6  C   UNL     1      15.298  62.033  20.877  1.00  0.00     0.067 C 
ATOM      7  C   UNL     1      16.166  60.973  20.167  1.00  0.00     0.021 C 
ATOM      8  C   UNL     1      15.973  60.098  21.426  1.00  0.00     0.022 C 
ATOM      9  C   UNL     1      15.738  61.408  22.232  1.00  0.00    -0.019 C 
ATOM     10  C   UNL     1      14.712  61.379  23.400  1.00  0.00     0.012 C 
ATOM     11  C   UNL     1      17.060  62.020  22.762  1.00  0.00     0.012 C 
ENDROOT
TORSDOF 0
ENDMDL
