MODEL 1
REMARK VINA RESULT:    -5.233      0.000      0.000
REMARK INTER + INTRA:          -6.755
REMARK INTER:                  -6.456
REMARK INTRA:                  -0.299
REMARK UNBOUND:                -0.299
REMARK SMILES Oc1cc(O)c2cc(O)c(-c3cc(O)c(O)c(O)c3)[o+]c2c1
REMARK SMILES IDX 10 1 20 2 21 3 22 4 2 5 3 6 4 7 6 8 7 9 8 10 11 11 12 12
REMARK SMILES IDX 13 13 19 14 15 15 17 16 14 17 16 19 18 21 9 23 1 25 5 27
REMARK H PARENT 14 18 16 20 18 22 9 24 1 26 5 28
REMARK Flexibility Score: inf
ROOT
ATOM      1  C   UNL     1     -14.498 -33.135 -13.114  1.00  0.00     0.402 A 
ATOM      2  O   UNL     1     -15.628 -33.827 -13.226  1.00  0.00    -0.202 OA
ATOM      3  C   UNL     1     -15.818 -34.772 -14.142  1.00  0.00     0.368 A 
ATOM      4  C   UNL     1     -17.040 -35.448 -14.179  1.00  0.00     0.162 A 
ATOM      5  C   UNL     1     -17.265 -36.448 -15.130  1.00  0.00     0.128 A 
ATOM      6  C   UNL     1     -16.261 -36.775 -16.045  1.00  0.00     0.093 A 
ATOM      7  C   UNL     1     -15.027 -36.114 -16.028  1.00  0.00     0.136 A 
ATOM      8  C   UNL     1     -14.795 -35.096 -15.067  1.00  0.00     0.125 A 
ATOM      9  C   UNL     1     -13.595 -34.371 -14.983  1.00  0.00     0.078 A 
ATOM     10  C   UNL     1     -13.441 -33.377 -14.012  1.00  0.00     0.223 A 
ENDROOT
BRANCH   1  11
ATOM     11  C   UNL     1     -14.405 -32.114 -12.046  1.00  0.00     0.091 A 
ATOM     12  C   UNL     1     -13.557 -32.286 -10.939  1.00  0.00     0.068 A 
ATOM     13  C   UNL     1     -13.500 -31.318  -9.927  1.00  0.00     0.162 A 
ATOM     14  C   UNL     1     -15.222 -30.974 -12.109  1.00  0.00     0.068 A 
ATOM     15  C   UNL     1     -14.305 -30.168 -10.010  1.00  0.00     0.200 A 
ATOM     16  C   UNL     1     -15.170 -30.002 -11.106  1.00  0.00     0.162 A 
BRANCH  13  17
ATOM     17  O   UNL     1     -12.650 -31.497  -8.837  1.00  0.00    -0.504 OA
ATOM     18  H   UNL     1     -12.478 -32.414  -8.442  1.00  0.00     0.293 HD
ENDBRANCH  13  17
BRANCH  15  19
ATOM     19  O   UNL     1     -14.257 -29.193  -9.014  1.00  0.00    -0.502 OA
ATOM     20  H   UNL     1     -13.608 -28.416  -9.049  1.00  0.00     0.293 HD
ENDBRANCH  15  19
BRANCH  16  21
ATOM     21  O   UNL     1     -15.987 -28.877 -11.212  1.00  0.00    -0.504 OA
ATOM     22  H   UNL     1     -16.439 -28.460 -10.407  1.00  0.00     0.293 HD
ENDBRANCH  16  21
ENDBRANCH   1  11
BRANCH  10  23
ATOM     23  O   UNL     1     -12.269 -32.624 -13.961  1.00  0.00    -0.500 OA
ATOM     24  H   UNL     1     -12.204 -31.776 -13.412  1.00  0.00     0.294 HD
ENDBRANCH  10  23
BRANCH   5  25
ATOM     25  O   UNL     1     -18.481 -37.125 -15.173  1.00  0.00    -0.507 OA
ATOM     26  H   UNL     1     -19.247 -36.877 -14.558  1.00  0.00     0.293 HD
ENDBRANCH   5  25
BRANCH   7  27
ATOM     27  O   UNL     1     -14.075 -36.503 -16.974  1.00  0.00    -0.507 OA
ATOM     28  H   UNL     1     -13.998 -36.109 -17.901  1.00  0.00     0.293 HD
ENDBRANCH   7  27
TORSDOF 7
ENDMDL
