MODEL 1
REMARK VINA RESULT:     6.295      0.000      0.000
REMARK INTER + INTRA:           7.962
REMARK INTER:                   7.215
REMARK INTRA:                   0.748
REMARK UNBOUND:                 0.748
REMARK SMILES C=C(C)[C@@H]1CC[C@@]2(C(=O)[O-])CC[C@@]3(C)[C@@H](CC[C@@H]4[C@@]5(C)CC[C@@H](O)C(C)(C)[C@@H]5CC[C@]43C)[C@H]12
REMARK SMILES IDX 7 1 6 2 33 3 11 4 5 5 15 6 4 7 12 8 16 9 13 10 17 11 31 12
REMARK SMILES IDX 14 13 18 14 30 15 32 16 19 17 29 18 21 19 20 20 28 21 22 22
REMARK SMILES IDX 25 23 23 24 26 25 27 26 8 27 9 28 10 29 2 30 3 31 1 32 24 33
REMARK H PARENT 24 34
REMARK Flexibility Score: inf
ROOT
ATOM      1  C   UNL     1     -11.170  12.192 -32.869  1.00  0.00     0.014 C 
ATOM      2  C   UNL     1      -9.875  12.840 -33.392  1.00  0.00     0.014 C 
ATOM      3  C   UNL     1     -11.564  13.214 -31.782  1.00  0.00     0.012 C 
ATOM      4  C   UNL     1     -10.976  10.816 -32.199  1.00  0.00     0.014 C 
ATOM      5  C   UNL     1     -10.171  14.352 -33.427  1.00  0.00     0.009 C 
ATOM      6  C   UNL     1     -12.863  12.855 -31.008  1.00  0.00     0.000 C 
ATOM      7  C   UNL     1     -11.282  14.615 -32.377  1.00  0.00     0.018 C 
ATOM      8  C   UNL     1     -12.281  10.371 -31.486  1.00  0.00     0.008 C 
ATOM      9  C   UNL     1     -13.208  13.879 -29.885  1.00  0.00     0.005 C 
ATOM     10  C   UNL     1     -12.825  11.385 -30.405  1.00  0.00    -0.024 C 
ATOM     11  C   UNL     1     -14.347  13.404 -28.937  1.00  0.00     0.005 C 
ATOM     12  C   UNL     1     -14.325  10.981 -29.858  1.00  0.00    -0.024 C 
ATOM     13  C   UNL     1     -11.758  11.345 -29.237  1.00  0.00     0.012 C 
ATOM     14  C   UNL     1     -15.196  12.298 -29.604  1.00  0.00     0.002 C 
ATOM     15  C   UNL     1     -15.151  10.140 -30.885  1.00  0.00     0.008 C 
ATOM     16  C   UNL     1     -14.175  10.082 -28.586  1.00  0.00     0.012 C 
ATOM     17  C   UNL     1     -16.690  12.099 -29.105  1.00  0.00    -0.026 C 
ATOM     18  C   UNL     1     -16.622   9.875 -30.470  1.00  0.00     0.005 C 
ATOM     19  C   UNL     1     -17.438  13.475 -29.101  1.00  0.00     0.010 C 
ATOM     20  C   UNL     1     -16.721  11.530 -27.654  1.00  0.00     0.012 C 
ATOM     21  C   UNL     1     -17.398  11.187 -30.189  1.00  0.00     0.003 C 
ATOM     22  C   UNL     1     -18.965  13.361 -28.939  1.00  0.00     0.033 C 
ATOM     23  C   UNL     1     -18.964  11.032 -30.050  1.00  0.00    -0.006 C 
ATOM     24  C   UNL     1     -19.609  12.455 -30.000  1.00  0.00     0.120 C 
ATOM     25  C   UNL     1     -19.395  10.208 -28.810  1.00  0.00     0.014 C 
ATOM     26  C   UNL     1     -19.546  10.295 -31.288  1.00  0.00     0.014 C 
ENDROOT
BRANCH   1  27
ATOM     27  C   UNL     1     -12.142  12.019 -34.041  1.00  0.00     0.048 C 
ATOM     28  O   UNL     1     -11.736  11.812 -35.215  1.00  0.00    -0.550 OA
ATOM     29  O   UNL     1     -13.504  12.216 -33.849  1.00  0.00    -0.550 OA
ENDBRANCH   1  27
BRANCH   7  30
ATOM     30  C   UNL     1     -12.477  15.420 -32.903  1.00  0.00    -0.077 C 
ATOM     31  C   UNL     1     -12.238  16.566 -33.859  1.00  0.00     0.039 C 
ATOM     32  C   UNL     1     -13.755  15.085 -32.662  1.00  0.00     0.008 C 
ENDBRANCH   7  30
BRANCH  24  33
ATOM     33  O   UNL     1     -19.506  13.081 -31.258  1.00  0.00    -0.393 OA
ATOM     34  H   UNL     1     -19.906  12.464 -31.925  1.00  0.00     0.210 HD
ENDBRANCH  24  33
TORSDOF 3
ENDMDL
