MODEL 1
REMARK VINA RESULT:    10.232      0.000      0.000
REMARK INTER + INTRA:          17.455
REMARK INTER:                  14.419
REMARK INTRA:                   3.036
REMARK UNBOUND:                 3.036
REMARK SMILES CC1=CCC(=C(C)C)C(=O)CC(C)=CCC1
REMARK SMILES IDX 12 1 14 2 13 3 15 4 16 5 2 6 1 7 3 8 11 10 9 11 10 12 5 13
REMARK SMILES IDX 6 14 7 15 8 16 4 17
REMARK H PARENT
REMARK Flexibility Score: 60.00
ROOT
ATOM      1  C   UNL     1      61.493   9.953   1.148  1.00  0.00    -0.070 C 
ATOM      2  C   UNL     1      60.462  10.132   2.004  1.00  0.00    -0.027 C 
ATOM      3  C   UNL     1      61.442  10.669  -0.178  1.00  0.00     0.039 C 
ENDROOT
BRANCH   2   4
ATOM      4  C   UNL     1      60.285   9.430   3.332  1.00  0.00     0.032 C 
BRANCH   4   5
ATOM      5  C   UNL     1      60.013  10.366   4.528  1.00  0.00     0.034 C 
BRANCH   5   6
ATOM      6  C   UNL     1      60.921  10.099   5.715  1.00  0.00    -0.077 C 
ATOM      7  C   UNL     1      60.488  10.624   7.061  1.00  0.00     0.039 C 
ATOM      8  C   UNL     1      62.124   9.481   5.632  1.00  0.00    -0.023 CG0
ATOM      9  G   UNL     1      62.751   8.861   4.399  1.00  0.00     0.000 G0
ENDBRANCH   5   6
ENDBRANCH   4   5
ENDBRANCH   2   4
BRANCH   1  10
ATOM     10  C   UNL     1      62.642   9.002   1.418  1.00  0.00     0.111 C 
BRANCH  10  11
ATOM     11  C   UNL     1      63.736   9.664   2.213  1.00  0.00     0.163 C 
ATOM     12  O   UNL     1      64.677  10.217   1.582  1.00  0.00    -0.294 OA
BRANCH  11  13
ATOM     13  C   UNL     1      63.774   9.632   3.705  1.00  0.00    -0.002 C 
ATOM     14  C   UNL     1      64.817  10.189   4.391  1.00  0.00    -0.069 C 
ATOM     15  C   UNL     1      65.884  10.991   3.678  1.00  0.00     0.039 C 
ATOM     16  C   UNL     1      64.965  10.035   5.889  1.00  0.00     0.039 C 
BRANCH  13  17
ATOM     17  C   UNL     1      62.661   8.875   4.412  1.00  0.00     0.066 CG0
ATOM     18  G   UNL     1      62.195   9.580   5.671  1.00  0.00     0.000 G0
ENDBRANCH  13  17
ENDBRANCH  11  13
ENDBRANCH  10  11
ENDBRANCH   1  10
TORSDOF 0
ENDMDL
MODEL 2
REMARK VINA RESULT:    11.190     17.997     20.209
REMARK INTER + INTRA:          18.806
REMARK INTER:                  17.421
REMARK INTRA:                   1.385
REMARK UNBOUND:                 3.036
REMARK SMILES CC1=CCC(=C(C)C)C(=O)CC(C)=CCC1
REMARK SMILES IDX 12 1 14 2 13 3 15 4 16 5 2 6 1 7 3 8 11 10 9 11 10 12 5 13
REMARK SMILES IDX 6 14 7 15 8 16 4 17
REMARK H PARENT
REMARK Flexibility Score: 60.00
ROOT
ATOM      1  C   UNL     1      64.452  25.825  15.120  1.00  0.00    -0.070 C 
ATOM      2  C   UNL     1      64.376  26.119  13.803  1.00  0.00    -0.027 C 
ATOM      3  C   UNL     1      65.816  25.573  15.710  1.00  0.00     0.039 C 
ENDROOT
BRANCH   2   4
ATOM      4  C   UNL     1      63.100  26.308  13.012  1.00  0.00     0.032 C 
BRANCH   4   5
ATOM      5  C   UNL     1      62.512  25.013  12.412  1.00  0.00     0.034 C 
BRANCH   5   6
ATOM      6  C   UNL     1      61.549  24.305  13.347  1.00  0.00    -0.077 C 
ATOM      7  C   UNL     1      61.485  22.799  13.278  1.00  0.00     0.039 C 
ATOM      8  C   UNL     1      60.696  24.939  14.189  1.00  0.00    -0.023 CG0
ATOM      9  G   UNL     1      60.596  26.431  14.437  1.00  0.00     0.000 G0
ENDBRANCH   5   6
ENDBRANCH   4   5
ENDBRANCH   2   4
BRANCH   1  10
ATOM     10  C   UNL     1      63.234  25.648  16.004  1.00  0.00     0.111 C 
BRANCH  10  11
ATOM     11  C   UNL     1      62.425  26.915  16.098  1.00  0.00     0.163 C 
ATOM     12  O   UNL     1      63.004  27.960  16.500  1.00  0.00    -0.294 OA
BRANCH  11  13
ATOM     13  C   UNL     1      60.964  26.958  15.792  1.00  0.00    -0.002 C 
ATOM     14  C   UNL     1      60.061  27.347  16.743  1.00  0.00    -0.069 C 
ATOM     15  C   UNL     1      60.516  27.895  18.078  1.00  0.00     0.039 C 
ATOM     16  C   UNL     1      58.569  27.250  16.517  1.00  0.00     0.039 C 
BRANCH  13  17
ATOM     17  C   UNL     1      60.526  26.462  14.424  1.00  0.00     0.066 CG0
ATOM     18  G   UNL     1      60.703  24.964  14.269  1.00  0.00     0.000 G0
ENDBRANCH  13  17
ENDBRANCH  11  13
ENDBRANCH  10  11
ENDBRANCH   1  10
TORSDOF 0
ENDMDL
