MODEL 1
REMARK VINA RESULT:    -3.903      0.000      0.000
REMARK INTER + INTRA:          -6.446
REMARK INTER:                  -5.956
REMARK INTRA:                  -0.489
REMARK UNBOUND:                -0.489
REMARK SMILES O=C([O-])CCCCCCCCC(=O)[O-]
REMARK SMILES IDX 7 1 6 2 5 3 4 4 2 5 1 6 3 7 8 8 9 9 10 10 11 11 12 12 13 13
REMARK SMILES IDX 14 14
REMARK H PARENT
REMARK Flexibility Score: inf
ROOT
ATOM      1  C   UNL     1       8.586  -5.089  -7.471  1.00  0.00     0.000 C 
ENDROOT
BRANCH   1   2
ATOM      2  C   UNL     1       7.989  -5.352  -8.862  1.00  0.00     0.000 C 
BRANCH   2   3
ATOM      3  C   UNL     1       7.144  -4.176  -9.375  1.00  0.00     0.006 C 
BRANCH   3   4
ATOM      4  C   UNL     1       5.813  -4.088  -8.623  1.00  0.00     0.053 C 
BRANCH   4   5
ATOM      5  C   UNL     1       4.744  -3.534  -9.511  1.00  0.00     0.041 C 
ATOM      6  O   UNL     1       4.862  -2.379 -10.000  1.00  0.00    -0.550 OA
ATOM      7  O   UNL     1       3.594  -4.272  -9.761  1.00  0.00    -0.550 OA
ENDBRANCH   4   5
ENDBRANCH   3   4
ENDBRANCH   2   3
ENDBRANCH   1   2
BRANCH   1   8
ATOM      8  C   UNL     1       8.324  -6.239  -6.486  1.00  0.00     0.000 C 
BRANCH   8   9
ATOM      9  C   UNL     1       9.503  -7.219  -6.461  1.00  0.00     0.000 C 
BRANCH   9  10
ATOM     10  C   UNL     1      10.843  -6.469  -6.515  1.00  0.00     0.006 C 
BRANCH  10  11
ATOM     11  C   UNL     1      11.514  -6.378  -5.139  1.00  0.00     0.053 C 
BRANCH  11  12
ATOM     12  C   UNL     1      10.985  -5.228  -4.339  1.00  0.00     0.041 C 
ATOM     13  O   UNL     1      10.522  -5.417  -3.183  1.00  0.00    -0.550 OA
ATOM     14  O   UNL     1      11.034  -3.940  -4.858  1.00  0.00    -0.550 OA
ENDBRANCH  11  12
ENDBRANCH  10  11
ENDBRANCH   9  10
ENDBRANCH   8   9
ENDBRANCH   1   8
TORSDOF 9
ENDMDL
MODEL 2
REMARK VINA RESULT:    -3.887      0.744      6.920
REMARK INTER + INTRA:          -6.422
REMARK INTER:                  -5.996
REMARK INTRA:                  -0.426
REMARK UNBOUND:                -0.489
REMARK SMILES O=C([O-])CCCCCCCCC(=O)[O-]
REMARK SMILES IDX 7 1 6 2 5 3 4 4 2 5 1 6 3 7 8 8 9 9 10 10 11 11 12 12 13 13
REMARK SMILES IDX 14 14
REMARK H PARENT
REMARK Flexibility Score: inf
ROOT
ATOM      1  C   UNL     1       8.655  -6.334  -6.668  1.00  0.00     0.000 C 
ENDROOT
BRANCH   1   2
ATOM      2  C   UNL     1      10.036  -6.998  -6.557  1.00  0.00     0.000 C 
BRANCH   2   3
ATOM      3  C   UNL     1      11.189  -5.986  -6.659  1.00  0.00     0.006 C 
BRANCH   3   4
ATOM      4  C   UNL     1      11.928  -5.862  -5.323  1.00  0.00     0.053 C 
BRANCH   4   5
ATOM      5  C   UNL     1      11.201  -4.931  -4.406  1.00  0.00     0.041 C 
ATOM      6  O   UNL     1      10.527  -5.385  -3.445  1.00  0.00    -0.550 OA
ATOM      7  O   UNL     1      11.227  -3.561  -4.642  1.00  0.00    -0.550 OA
ENDBRANCH   4   5
ENDBRANCH   3   4
ENDBRANCH   2   3
ENDBRANCH   1   2
BRANCH   1   8
ATOM      8  C   UNL     1       8.686  -5.032  -7.483  1.00  0.00     0.000 C 
BRANCH   8   9
ATOM      9  C   UNL     1       7.676  -5.081  -8.635  1.00  0.00     0.000 C 
BRANCH   9  10
ATOM     10  C   UNL     1       6.382  -4.340  -8.264  1.00  0.00     0.006 C 
BRANCH  10  11
ATOM     11  C   UNL     1       5.747  -3.641  -9.473  1.00  0.00     0.053 C 
BRANCH  11  12
ATOM     12  C   UNL     1       4.269  -3.471  -9.303  1.00  0.00     0.041 C 
ATOM     13  O   UNL     1       3.471  -4.303  -9.810  1.00  0.00    -0.550 OA
ATOM     14  O   UNL     1       3.773  -2.408  -8.557  1.00  0.00    -0.550 OA
ENDBRANCH  11  12
ENDBRANCH  10  11
ENDBRANCH   9  10
ENDBRANCH   8   9
ENDBRANCH   1   8
TORSDOF 9
ENDMDL
MODEL 3
REMARK VINA RESULT:    -3.771      0.680      1.154
REMARK INTER + INTRA:          -6.244
REMARK INTER:                  -5.765
REMARK INTRA:                  -0.479
REMARK UNBOUND:                -0.489
REMARK SMILES O=C([O-])CCCCCCCCC(=O)[O-]
REMARK SMILES IDX 7 1 6 2 5 3 4 4 2 5 1 6 3 7 8 8 9 9 10 10 11 11 12 12 13 13
REMARK SMILES IDX 14 14
REMARK H PARENT
REMARK Flexibility Score: inf
ROOT
ATOM      1  C   UNL     1       8.298  -4.864  -7.939  1.00  0.00     0.000 C 
ENDROOT
BRANCH   1   2
ATOM      2  C   UNL     1       8.311  -4.324  -9.377  1.00  0.00     0.000 C 
BRANCH   2   3
ATOM      3  C   UNL     1       6.916  -4.321 -10.021  1.00  0.00     0.006 C 
BRANCH   3   4
ATOM      4  C   UNL     1       5.827  -4.097  -8.968  1.00  0.00     0.053 C 
BRANCH   4   5
ATOM      5  C   UNL     1       4.595  -3.532  -9.601  1.00  0.00     0.041 C 
ATOM      6  O   UNL     1       3.554  -4.233  -9.701  1.00  0.00    -0.550 OA
ATOM      7  O   UNL     1       4.609  -2.245 -10.124  1.00  0.00    -0.550 OA
ENDBRANCH   4   5
ENDBRANCH   3   4
ENDBRANCH   2   3
ENDBRANCH   1   2
BRANCH   1   8
ATOM      8  C   UNL     1       8.802  -6.312  -7.844  1.00  0.00     0.000 C 
BRANCH   8   9
ATOM      9  C   UNL     1       8.755  -6.817  -6.398  1.00  0.00     0.000 C 
BRANCH   9  10
ATOM     10  C   UNL     1      10.126  -7.352  -5.956  1.00  0.00     0.006 C 
BRANCH  10  11
ATOM     11  C   UNL     1      11.192  -6.250  -5.914  1.00  0.00     0.053 C 
BRANCH  11  12
ATOM     12  C   UNL     1      10.922  -5.257  -4.826  1.00  0.00     0.041 C 
ATOM     13  O   UNL     1      10.609  -5.649  -3.671  1.00  0.00    -0.550 OA
ATOM     14  O   UNL     1      11.046  -3.897  -5.080  1.00  0.00    -0.550 OA
ENDBRANCH  11  12
ENDBRANCH  10  11
ENDBRANCH   9  10
ENDBRANCH   8   9
ENDBRANCH   1   8
TORSDOF 9
ENDMDL
MODEL 4
REMARK VINA RESULT:    -3.720      1.185      6.394
REMARK INTER + INTRA:          -6.166
REMARK INTER:                  -5.476
REMARK INTRA:                  -0.690
REMARK UNBOUND:                -0.489
REMARK SMILES O=C([O-])CCCCCCCCC(=O)[O-]
REMARK SMILES IDX 7 1 6 2 5 3 4 4 2 5 1 6 3 7 8 8 9 9 10 10 11 11 12 12 13 13
REMARK SMILES IDX 14 14
REMARK H PARENT
REMARK Flexibility Score: inf
ROOT
ATOM      1  C   UNL     1       9.063  -6.982  -6.620  1.00  0.00     0.000 C 
ENDROOT
BRANCH   1   2
ATOM      2  C   UNL     1      10.194  -7.788  -5.962  1.00  0.00     0.000 C 
BRANCH   2   3
ATOM      3  C   UNL     1      11.368  -6.904  -5.514  1.00  0.00     0.006 C 
BRANCH   3   4
ATOM      4  C   UNL     1      11.043  -5.420  -5.711  1.00  0.00     0.053 C 
BRANCH   4   5
ATOM      5  C   UNL     1      11.062  -4.701  -4.400  1.00  0.00     0.041 C 
ATOM      6  O   UNL     1      10.606  -5.256  -3.366  1.00  0.00    -0.550 OA
ATOM      7  O   UNL     1      11.538  -3.398  -4.328  1.00  0.00    -0.550 OA
ENDBRANCH   4   5
ENDBRANCH   3   4
ENDBRANCH   2   3
ENDBRANCH   1   2
BRANCH   1   8
ATOM      8  C   UNL     1       8.903  -7.297  -8.115  1.00  0.00     0.000 C 
BRANCH   8   9
ATOM      9  C   UNL     1       8.669  -6.015  -8.924  1.00  0.00     0.000 C 
BRANCH   9  10
ATOM     10  C   UNL     1       8.245  -4.856  -8.009  1.00  0.00     0.006 C 
BRANCH  10  11
ATOM     11  C   UNL     1       6.742  -4.564  -8.102  1.00  0.00     0.053 C 
BRANCH  11  12
ATOM     12  C   UNL     1       6.371  -3.985  -9.432  1.00  0.00     0.041 C 
ATOM     13  O   UNL     1       5.315  -4.353 -10.013  1.00  0.00    -0.550 OA
ATOM     14  O   UNL     1       7.175  -3.015 -10.018  1.00  0.00    -0.550 OA
ENDBRANCH  11  12
ENDBRANCH  10  11
ENDBRANCH   9  10
ENDBRANCH   8   9
ENDBRANCH   1   8
TORSDOF 9
ENDMDL
MODEL 5
REMARK VINA RESULT:    -3.427      1.429      2.209
REMARK INTER + INTRA:          -5.720
REMARK INTER:                  -5.106
REMARK INTRA:                  -0.613
REMARK UNBOUND:                -0.489
REMARK SMILES O=C([O-])CCCCCCCCC(=O)[O-]
REMARK SMILES IDX 7 1 6 2 5 3 4 4 2 5 1 6 3 7 8 8 9 9 10 10 11 11 12 12 13 13
REMARK SMILES IDX 14 14
REMARK H PARENT
REMARK Flexibility Score: inf
ROOT
ATOM      1  C   UNL     1       9.377  -7.874  -7.650  1.00  0.00     0.000 C 
ENDROOT
BRANCH   1   2
ATOM      2  C   UNL     1       8.760  -6.809  -8.569  1.00  0.00     0.000 C 
BRANCH   2   3
ATOM      3  C   UNL     1       8.959  -5.381  -8.038  1.00  0.00     0.006 C 
BRANCH   3   4
ATOM      4  C   UNL     1       7.613  -4.715  -7.738  1.00  0.00     0.053 C 
BRANCH   4   5
ATOM      5  C   UNL     1       6.986  -4.209  -8.998  1.00  0.00     0.041 C 
ATOM      6  O   UNL     1       7.701  -3.704  -9.904  1.00  0.00    -0.550 OA
ATOM      7  O   UNL     1       5.606  -4.249  -9.155  1.00  0.00    -0.550 OA
ENDBRANCH   4   5
ENDBRANCH   3   4
ENDBRANCH   2   3
ENDBRANCH   1   2
BRANCH   1   8
ATOM      8  C   UNL     1       9.558  -7.379  -6.207  1.00  0.00     0.000 C 
BRANCH   8   9
ATOM      9  C   UNL     1      10.984  -7.643  -5.711  1.00  0.00     0.000 C 
BRANCH   9  10
ATOM     10  C   UNL     1      11.399  -6.610  -4.651  1.00  0.00     0.006 C 
BRANCH  10  11
ATOM     11  C   UNL     1      11.335  -5.173  -5.184  1.00  0.00     0.053 C 
BRANCH  11  12
ATOM     12  C   UNL     1      11.453  -4.166  -4.082  1.00  0.00     0.041 C 
ATOM     13  O   UNL     1      11.713  -2.963  -4.346  1.00  0.00    -0.550 OA
ATOM     14  O   UNL     1      11.245  -4.551  -2.763  1.00  0.00    -0.550 OA
ENDBRANCH  11  12
ENDBRANCH  10  11
ENDBRANCH   9  10
ENDBRANCH   8   9
ENDBRANCH   1   8
TORSDOF 9
ENDMDL
MODEL 6
REMARK VINA RESULT:    -3.207      2.977      6.093
REMARK INTER + INTRA:          -5.383
REMARK INTER:                  -4.621
REMARK INTRA:                  -0.762
REMARK UNBOUND:                -0.489
REMARK SMILES O=C([O-])CCCCCCCCC(=O)[O-]
REMARK SMILES IDX 7 1 6 2 5 3 4 4 2 5 1 6 3 7 8 8 9 9 10 10 11 11 12 12 13 13
REMARK SMILES IDX 14 14
REMARK H PARENT
REMARK Flexibility Score: inf
ROOT
ATOM      1  C   UNL     1       8.017  -6.024  -6.824  1.00  0.00     0.000 C 
ENDROOT
BRANCH   1   2
ATOM      2  C   UNL     1       9.462  -6.514  -6.647  1.00  0.00     0.000 C 
BRANCH   2   3
ATOM      3  C   UNL     1      10.409  -5.404  -6.165  1.00  0.00     0.006 C 
BRANCH   3   4
ATOM      4  C   UNL     1      11.126  -5.818  -4.876  1.00  0.00     0.053 C 
BRANCH   4   5
ATOM      5  C   UNL     1      11.267  -4.647  -3.956  1.00  0.00     0.041 C 
ATOM      6  O   UNL     1      11.161  -4.803  -2.711  1.00  0.00    -0.550 OA
ATOM      7  O   UNL     1      11.466  -3.374  -4.475  1.00  0.00    -0.550 OA
ENDBRANCH   4   5
ENDBRANCH   3   4
ENDBRANCH   2   3
ENDBRANCH   1   2
BRANCH   1   8
ATOM      8  C   UNL     1       7.936  -4.646  -7.498  1.00  0.00     0.000 C 
BRANCH   8   9
ATOM      9  C   UNL     1       7.258  -4.744  -8.869  1.00  0.00     0.000 C 
BRANCH   9  10
ATOM     10  C   UNL     1       8.279  -5.085  -9.966  1.00  0.00     0.006 C 
BRANCH  10  11
ATOM     11  C   UNL     1       9.396  -4.038 -10.064  1.00  0.00     0.053 C 
BRANCH  11  12
ATOM     12  C   UNL     1      10.742  -4.634  -9.790  1.00  0.00     0.041 C 
ATOM     13  O   UNL     1      11.708  -3.898  -9.457  1.00  0.00    -0.550 OA
ATOM     14  O   UNL     1      10.922  -6.010  -9.871  1.00  0.00    -0.550 OA
ENDBRANCH  11  12
ENDBRANCH  10  11
ENDBRANCH   9  10
ENDBRANCH   8   9
ENDBRANCH   1   8
TORSDOF 9
ENDMDL
MODEL 7
REMARK VINA RESULT:    -3.148     13.636     15.074
REMARK INTER + INTRA:          -5.293
REMARK INTER:                  -4.613
REMARK INTRA:                  -0.679
REMARK UNBOUND:                -0.489
REMARK SMILES O=C([O-])CCCCCCCCC(=O)[O-]
REMARK SMILES IDX 7 1 6 2 5 3 4 4 2 5 1 6 3 7 8 8 9 9 10 10 11 11 12 12 13 13
REMARK SMILES IDX 14 14
REMARK H PARENT
REMARK Flexibility Score: inf
ROOT
ATOM      1  C   UNL     1      -7.782  -3.052  -5.341  1.00  0.00     0.000 C 
ENDROOT
BRANCH   1   2
ATOM      2  C   UNL     1      -7.307  -2.323  -6.607  1.00  0.00     0.000 C 
BRANCH   2   3
ATOM      3  C   UNL     1      -7.412  -3.196  -7.868  1.00  0.00     0.006 C 
BRANCH   3   4
ATOM      4  C   UNL     1      -6.030  -3.445  -8.477  1.00  0.00     0.053 C 
BRANCH   4   5
ATOM      5  C   UNL     1      -5.775  -2.495  -9.605  1.00  0.00     0.041 C 
ATOM      6  O   UNL     1      -6.729  -1.857 -10.124  1.00  0.00    -0.550 OA
ATOM      7  O   UNL     1      -4.492  -2.349 -10.116  1.00  0.00    -0.550 OA
ENDBRANCH   4   5
ENDBRANCH   3   4
ENDBRANCH   2   3
ENDBRANCH   1   2
BRANCH   1   8
ATOM      8  C   UNL     1      -7.054  -4.387  -5.118  1.00  0.00     0.000 C 
BRANCH   8   9
ATOM      9  C   UNL     1      -8.028  -5.567  -5.222  1.00  0.00     0.000 C 
BRANCH   9  10
ATOM     10  C   UNL     1      -7.549  -6.585  -6.268  1.00  0.00     0.006 C 
BRANCH  10  11
ATOM     11  C   UNL     1      -6.258  -7.294  -5.840  1.00  0.00     0.053 C 
BRANCH  11  12
ATOM     12  C   UNL     1      -5.112  -6.954  -6.742  1.00  0.00     0.041 C 
ATOM     13  O   UNL     1      -4.284  -6.065  -6.411  1.00  0.00    -0.550 OA
ATOM     14  O   UNL     1      -4.940  -7.642  -7.937  1.00  0.00    -0.550 OA
ENDBRANCH  11  12
ENDBRANCH  10  11
ENDBRANCH   9  10
ENDBRANCH   8   9
ENDBRANCH   1   8
TORSDOF 9
ENDMDL
MODEL 8
REMARK VINA RESULT:    -3.131      2.978      3.429
REMARK INTER + INTRA:          -5.267
REMARK INTER:                  -4.459
REMARK INTRA:                  -0.808
REMARK UNBOUND:                -0.489
REMARK SMILES O=C([O-])CCCCCCCCC(=O)[O-]
REMARK SMILES IDX 7 1 6 2 5 3 4 4 2 5 1 6 3 7 8 8 9 9 10 10 11 11 12 12 13 13
REMARK SMILES IDX 14 14
REMARK H PARENT
REMARK Flexibility Score: inf
ROOT
ATOM      1  C   UNL     1       8.391  -5.785  -6.582  1.00  0.00     0.000 C 
ENDROOT
BRANCH   1   2
ATOM      2  C   UNL     1       8.038  -4.773  -7.683  1.00  0.00     0.000 C 
BRANCH   2   3
ATOM      3  C   UNL     1       8.055  -5.397  -9.087  1.00  0.00     0.006 C 
BRANCH   3   4
ATOM      4  C   UNL     1       8.899  -4.557 -10.049  1.00  0.00     0.053 C 
BRANCH   4   5
ATOM      5  C   UNL     1      10.355  -4.833  -9.846  1.00  0.00     0.041 C 
ATOM      6  O   UNL     1      11.128  -3.915  -9.466  1.00  0.00    -0.550 OA
ATOM      7  O   UNL     1      10.870  -6.093 -10.125  1.00  0.00    -0.550 OA
ENDBRANCH   4   5
ENDBRANCH   3   4
ENDBRANCH   2   3
ENDBRANCH   1   2
BRANCH   1   8
ATOM      8  C   UNL     1       9.040  -7.062  -7.135  1.00  0.00     0.000 C 
BRANCH   8   9
ATOM      9  C   UNL     1      10.539  -7.100  -6.814  1.00  0.00     0.000 C 
BRANCH   9  10
ATOM     10  C   UNL     1      10.776  -7.380  -5.322  1.00  0.00     0.006 C 
BRANCH  10  11
ATOM     11  C   UNL     1      11.801  -6.418  -4.707  1.00  0.00     0.053 C 
BRANCH  11  12
ATOM     12  C   UNL     1      11.150  -5.176  -4.180  1.00  0.00     0.041 C 
ATOM     13  O   UNL     1      11.072  -4.146  -4.899  1.00  0.00    -0.550 OA
ATOM     14  O   UNL     1      10.601  -5.168  -2.904  1.00  0.00    -0.550 OA
ENDBRANCH  11  12
ENDBRANCH  10  11
ENDBRANCH   9  10
ENDBRANCH   8   9
ENDBRANCH   1   8
TORSDOF 9
ENDMDL
MODEL 9
REMARK VINA RESULT:    -3.029     13.918     15.452
REMARK INTER + INTRA:          -5.111
REMARK INTER:                  -4.145
REMARK INTRA:                  -0.966
REMARK UNBOUND:                -0.489
REMARK SMILES O=C([O-])CCCCCCCCC(=O)[O-]
REMARK SMILES IDX 7 1 6 2 5 3 4 4 2 5 1 6 3 7 8 8 9 9 10 10 11 11 12 12 13 13
REMARK SMILES IDX 14 14
REMARK H PARENT
REMARK Flexibility Score: inf
ROOT
ATOM      1  C   UNL     1      -6.242  -4.751  -4.941  1.00  0.00     0.000 C 
ENDROOT
BRANCH   1   2
ATOM      2  C   UNL     1      -7.745  -4.582  -5.209  1.00  0.00     0.000 C 
BRANCH   2   3
ATOM      3  C   UNL     1      -8.032  -3.843  -6.526  1.00  0.00     0.006 C 
BRANCH   3   4
ATOM      4  C   UNL     1      -7.046  -2.689  -6.732  1.00  0.00     0.053 C 
BRANCH   4   5
ATOM      5  C   UNL     1      -6.657  -2.584  -8.173  1.00  0.00     0.041 C 
ATOM      6  O   UNL     1      -5.651  -3.205  -8.605  1.00  0.00    -0.550 OA
ATOM      7  O   UNL     1      -7.377  -1.760  -9.030  1.00  0.00    -0.550 OA
ENDBRANCH   4   5
ENDBRANCH   3   4
ENDBRANCH   2   3
ENDBRANCH   1   2
BRANCH   1   8
ATOM      8  C   UNL     1      -5.739  -6.168  -5.254  1.00  0.00     0.000 C 
BRANCH   8   9
ATOM      9  C   UNL     1      -4.959  -6.195  -6.574  1.00  0.00     0.000 C 
BRANCH   9  10
ATOM     10  C   UNL     1      -5.495  -7.290  -7.509  1.00  0.00     0.006 C 
BRANCH  10  11
ATOM     11  C   UNL     1      -6.900  -6.967  -8.035  1.00  0.00     0.053 C 
BRANCH  11  12
ATOM     12  C   UNL     1      -6.865  -6.489  -9.453  1.00  0.00     0.041 C 
ATOM     13  O   UNL     1      -7.928  -6.147 -10.035  1.00  0.00    -0.550 OA
ATOM     14  O   UNL     1      -5.652  -6.392 -10.124  1.00  0.00    -0.550 OA
ENDBRANCH  11  12
ENDBRANCH  10  11
ENDBRANCH   9  10
ENDBRANCH   8   9
ENDBRANCH   1   8
TORSDOF 9
ENDMDL
