MODEL 1
REMARK VINA RESULT:    -5.058      0.000      0.000
REMARK INTER + INTRA:          -5.058
REMARK INTER:                  -5.058
REMARK INTRA:                   0.000
REMARK UNBOUND:                 0.000
REMARK SMILES O=c1ccc2ccccc2o1
REMARK SMILES IDX 7 1 8 2 9 3 10 4 5 5 6 6 4 7 3 8 2 9 1 10 11 11
REMARK H PARENT
REMARK Flexibility Score: inf
ROOT
ATOM      1  C   UNL     1      21.873   0.428 -23.125  1.00  0.00     0.001 A 
ATOM      2  C   UNL     1      21.953   1.580 -22.336  1.00  0.00     0.004 A 
ATOM      3  C   UNL     1      21.492   1.563 -21.016  1.00  0.00     0.048 A 
ATOM      4  C   UNL     1      20.947   0.392 -20.479  1.00  0.00     0.138 A 
ATOM      5  C   UNL     1      20.865  -0.773 -21.275  1.00  0.00     0.018 A 
ATOM      6  C   UNL     1      21.330  -0.749 -22.598  1.00  0.00     0.012 A 
ATOM      7  C   UNL     1      20.316  -1.929 -20.712  1.00  0.00     0.019 A 
ATOM      8  C   UNL     1      19.870  -1.900 -19.391  1.00  0.00     0.094 A 
ATOM      9  C   UNL     1      19.982  -0.711 -18.662  1.00  0.00     0.336 A 
ATOM     10  O   UNL     1      19.584  -0.666 -17.469  1.00  0.00    -0.246 OA
ATOM     11  O   UNL     1      20.509   0.376 -19.222  1.00  0.00    -0.423 OA
ENDROOT
TORSDOF 0
ENDMDL
MODEL 2
REMARK VINA RESULT:    -4.895     17.671     19.660
REMARK INTER + INTRA:          -4.895
REMARK INTER:                  -4.895
REMARK INTRA:                   0.000
REMARK UNBOUND:                 0.000
REMARK SMILES O=c1ccc2ccccc2o1
REMARK SMILES IDX 7 1 8 2 9 3 10 4 5 5 6 6 4 7 3 8 2 9 1 10 11 11
REMARK H PARENT
REMARK Flexibility Score: inf
ROOT
ATOM      1  C   UNL     1       4.188   5.671  -8.566  1.00  0.00     0.001 A 
ATOM      2  C   UNL     1       3.910   4.787  -7.518  1.00  0.00     0.004 A 
ATOM      3  C   UNL     1       4.868   3.852  -7.113  1.00  0.00     0.048 A 
ATOM      4  C   UNL     1       6.109   3.796  -7.756  1.00  0.00     0.138 A 
ATOM      5  C   UNL     1       6.390   4.688  -8.816  1.00  0.00     0.018 A 
ATOM      6  C   UNL     1       5.426   5.624  -9.217  1.00  0.00     0.012 A 
ATOM      7  C   UNL     1       7.638   4.610  -9.440  1.00  0.00     0.019 A 
ATOM      8  C   UNL     1       8.563   3.661  -9.003  1.00  0.00     0.094 A 
ATOM      9  C   UNL     1       8.216   2.811  -7.948  1.00  0.00     0.336 A 
ATOM     10  O   UNL     1       9.036   1.948  -7.540  1.00  0.00    -0.246 OA
ATOM     11  O   UNL     1       7.020   2.906  -7.371  1.00  0.00    -0.423 OA
ENDROOT
TORSDOF 0
ENDMDL
MODEL 3
REMARK VINA RESULT:    -4.875      1.599      3.831
REMARK INTER + INTRA:          -4.875
REMARK INTER:                  -4.875
REMARK INTRA:                   0.000
REMARK UNBOUND:                 0.000
REMARK SMILES O=c1ccc2ccccc2o1
REMARK SMILES IDX 7 1 8 2 9 3 10 4 5 5 6 6 4 7 3 8 2 9 1 10 11 11
REMARK H PARENT
REMARK Flexibility Score: inf
ROOT
ATOM      1  C   UNL     1      19.934  -1.977 -19.400  1.00  0.00     0.001 A 
ATOM      2  C   UNL     1      19.965  -0.801 -18.642  1.00  0.00     0.004 A 
ATOM      3  C   UNL     1      20.450   0.385 -19.202  1.00  0.00     0.048 A 
ATOM      4  C   UNL     1      20.908   0.400 -20.523  1.00  0.00     0.138 A 
ATOM      5  C   UNL     1      20.878  -0.786 -21.290  1.00  0.00     0.018 A 
ATOM      6  C   UNL     1      20.390  -1.973 -20.723  1.00  0.00     0.012 A 
ATOM      7  C   UNL     1      21.342  -0.741 -22.608  1.00  0.00     0.019 A 
ATOM      8  C   UNL     1      21.817   0.464 -23.124  1.00  0.00     0.094 A 
ATOM      9  C   UNL     1      21.817   1.599 -22.307  1.00  0.00     0.336 A 
ATOM     10  O   UNL     1      22.243   2.696 -22.756  1.00  0.00    -0.246 OA
ATOM     11  O   UNL     1      21.370   1.530 -21.056  1.00  0.00    -0.423 OA
ENDROOT
TORSDOF 0
ENDMDL
MODEL 4
REMARK VINA RESULT:    -4.865     17.658     19.676
REMARK INTER + INTRA:          -4.865
REMARK INTER:                  -4.865
REMARK INTRA:                   0.000
REMARK UNBOUND:                 0.000
REMARK SMILES O=c1ccc2ccccc2o1
REMARK SMILES IDX 7 1 8 2 9 3 10 4 5 5 6 6 4 7 3 8 2 9 1 10 11 11
REMARK H PARENT
REMARK Flexibility Score: inf
ROOT
ATOM      1  C   UNL     1       4.119   4.109  -6.807  1.00  0.00     0.001 A 
ATOM      2  C   UNL     1       3.953   5.146  -7.731  1.00  0.00     0.004 A 
ATOM      3  C   UNL     1       4.971   5.448  -8.641  1.00  0.00     0.048 A 
ATOM      4  C   UNL     1       6.162   4.714  -8.629  1.00  0.00     0.138 A 
ATOM      5  C   UNL     1       6.331   3.666  -7.696  1.00  0.00     0.018 A 
ATOM      6  C   UNL     1       5.306   3.368  -6.787  1.00  0.00     0.012 A 
ATOM      7  C   UNL     1       7.531   2.950  -7.708  1.00  0.00     0.019 A 
ATOM      8  C   UNL     1       8.519   3.286  -8.633  1.00  0.00     0.094 A 
ATOM      9  C   UNL     1       8.283   4.335  -9.527  1.00  0.00     0.336 A 
ATOM     10  O   UNL     1       9.163   4.654 -10.370  1.00  0.00    -0.246 OA
ATOM     11  O   UNL     1       7.131   5.002  -9.496  1.00  0.00    -0.423 OA
ENDROOT
TORSDOF 0
ENDMDL
MODEL 5
REMARK VINA RESULT:    -4.860     18.200     20.084
REMARK INTER + INTRA:          -4.860
REMARK INTER:                  -4.860
REMARK INTRA:                   0.000
REMARK UNBOUND:                 0.000
REMARK SMILES O=c1ccc2ccccc2o1
REMARK SMILES IDX 7 1 8 2 9 3 10 4 5 5 6 6 4 7 3 8 2 9 1 10 11 11
REMARK H PARENT
REMARK Flexibility Score: inf
ROOT
ATOM      1  C   UNL     1       7.684   2.639  -7.717  1.00  0.00     0.001 A 
ATOM      2  C   UNL     1       8.298   3.377  -8.734  1.00  0.00     0.004 A 
ATOM      3  C   UNL     1       7.647   4.481  -9.294  1.00  0.00     0.048 A 
ATOM      4  C   UNL     1       6.377   4.851  -8.838  1.00  0.00     0.138 A 
ATOM      5  C   UNL     1       5.755   4.106  -7.811  1.00  0.00     0.018 A 
ATOM      6  C   UNL     1       6.414   3.000  -7.253  1.00  0.00     0.012 A 
ATOM      7  C   UNL     1       4.486   4.498  -7.376  1.00  0.00     0.019 A 
ATOM      8  C   UNL     1       3.875   5.606  -7.962  1.00  0.00     0.094 A 
ATOM      9  C   UNL     1       4.549   6.296  -8.975  1.00  0.00     0.336 A 
ATOM     10  O   UNL     1       4.013   7.298  -9.517  1.00  0.00    -0.246 OA
ATOM     11  O   UNL     1       5.757   5.902  -9.371  1.00  0.00    -0.423 OA
ENDROOT
TORSDOF 0
ENDMDL
MODEL 6
REMARK VINA RESULT:    -4.784      1.239      2.142
REMARK INTER + INTRA:          -4.784
REMARK INTER:                  -4.784
REMARK INTRA:                   0.000
REMARK UNBOUND:                 0.000
REMARK SMILES O=c1ccc2ccccc2o1
REMARK SMILES IDX 7 1 8 2 9 3 10 4 5 5 6 6 4 7 3 8 2 9 1 10 11 11
REMARK H PARENT
REMARK Flexibility Score: inf
ROOT
ATOM      1  C   UNL     1      21.915   1.465 -22.364  1.00  0.00     0.001 A 
ATOM      2  C   UNL     1      21.745   0.303 -23.125  1.00  0.00     0.004 A 
ATOM      3  C   UNL     1      21.155  -0.831 -22.557  1.00  0.00     0.048 A 
ATOM      4  C   UNL     1      20.734  -0.809 -21.223  1.00  0.00     0.138 A 
ATOM      5  C   UNL     1      20.906   0.364 -20.453  1.00  0.00     0.018 A 
ATOM      6  C   UNL     1      21.497   1.498 -21.029  1.00  0.00     0.012 A 
ATOM      7  C   UNL     1      20.475   0.357 -19.123  1.00  0.00     0.019 A 
ATOM      8  C   UNL     1      19.893  -0.796 -18.599  1.00  0.00     0.094 A 
ATOM      9  C   UNL     1      19.755  -1.920 -19.420  1.00  0.00     0.336 A 
ATOM     10  O   UNL     1      19.232  -2.971 -18.964  1.00  0.00    -0.246 OA
ATOM     11  O   UNL     1      20.173  -1.888 -20.683  1.00  0.00    -0.423 OA
ENDROOT
TORSDOF 0
ENDMDL
MODEL 7
REMARK VINA RESULT:    -4.764     16.363     18.786
REMARK INTER + INTRA:          -4.764
REMARK INTER:                  -4.764
REMARK INTRA:                   0.000
REMARK UNBOUND:                 0.000
REMARK SMILES O=c1ccc2ccccc2o1
REMARK SMILES IDX 7 1 8 2 9 3 10 4 5 5 6 6 4 7 3 8 2 9 1 10 11 11
REMARK H PARENT
REMARK Flexibility Score: inf
ROOT
ATOM      1  C   UNL     1       7.650  -7.655  -5.711  1.00  0.00     0.001 A 
ATOM      2  C   UNL     1       8.000  -6.316  -5.508  1.00  0.00     0.004 A 
ATOM      3  C   UNL     1       9.039  -5.740  -6.246  1.00  0.00     0.048 A 
ATOM      4  C   UNL     1       9.734  -6.503  -7.190  1.00  0.00     0.138 A 
ATOM      5  C   UNL     1       9.382  -7.856  -7.396  1.00  0.00     0.018 A 
ATOM      6  C   UNL     1       8.338  -8.427  -6.653  1.00  0.00     0.012 A 
ATOM      7  C   UNL     1      10.093  -8.594  -8.346  1.00  0.00     0.019 A 
ATOM      8  C   UNL     1      11.122  -7.979  -9.059  1.00  0.00     0.094 A 
ATOM      9  C   UNL     1      11.416  -6.635  -8.803  1.00  0.00     0.336 A 
ATOM     10  O   UNL     1      12.342  -6.062  -9.436  1.00  0.00    -0.246 OA
ATOM     11  O   UNL     1      10.723  -5.955  -7.893  1.00  0.00    -0.423 OA
ENDROOT
TORSDOF 0
ENDMDL
MODEL 8
REMARK VINA RESULT:    -4.717     15.955     18.065
REMARK INTER + INTRA:          -4.717
REMARK INTER:                  -4.717
REMARK INTRA:                   0.000
REMARK UNBOUND:                 0.000
REMARK SMILES O=c1ccc2ccccc2o1
REMARK SMILES IDX 7 1 8 2 9 3 10 4 5 5 6 6 4 7 3 8 2 9 1 10 11 11
REMARK H PARENT
REMARK Flexibility Score: inf
ROOT
ATOM      1  C   UNL     1      14.652   4.072  -6.860  1.00  0.00     0.001 A 
ATOM      2  C   UNL     1      13.801   3.169  -7.505  1.00  0.00     0.004 A 
ATOM      3  C   UNL     1      12.696   2.639  -6.832  1.00  0.00     0.048 A 
ATOM      4  C   UNL     1      12.438   3.009  -5.508  1.00  0.00     0.138 A 
ATOM      5  C   UNL     1      13.297   3.921  -4.854  1.00  0.00     0.018 A 
ATOM      6  C   UNL     1      14.404   4.449  -5.535  1.00  0.00     0.012 A 
ATOM      7  C   UNL     1      13.015   4.273  -3.531  1.00  0.00     0.019 A 
ATOM      8  C   UNL     1      11.902   3.719  -2.899  1.00  0.00     0.094 A 
ATOM      9  C   UNL     1      11.095   2.824  -3.608  1.00  0.00     0.336 A 
ATOM     10  O   UNL     1      10.086   2.313  -3.054  1.00  0.00    -0.246 OA
ATOM     11  O   UNL     1      11.385   2.505  -4.867  1.00  0.00    -0.423 OA
ENDROOT
TORSDOF 0
ENDMDL
MODEL 9
REMARK VINA RESULT:    -4.695     19.288     20.727
REMARK INTER + INTRA:          -4.695
REMARK INTER:                  -4.695
REMARK INTRA:                   0.000
REMARK UNBOUND:                 0.000
REMARK SMILES O=c1ccc2ccccc2o1
REMARK SMILES IDX 7 1 8 2 9 3 10 4 5 5 6 6 4 7 3 8 2 9 1 10 11 11
REMARK H PARENT
REMARK Flexibility Score: inf
ROOT
ATOM      1  C   UNL     1       5.738   3.293  -7.116  1.00  0.00     0.001 A 
ATOM      2  C   UNL     1       4.475   3.787  -6.775  1.00  0.00     0.004 A 
ATOM      3  C   UNL     1       3.964   4.919  -7.418  1.00  0.00     0.048 A 
ATOM      4  C   UNL     1       4.716   5.563  -8.406  1.00  0.00     0.138 A 
ATOM      5  C   UNL     1       5.994   5.066  -8.751  1.00  0.00     0.018 A 
ATOM      6  C   UNL     1       6.500   3.930  -8.102  1.00  0.00     0.012 A 
ATOM      7  C   UNL     1       6.723   5.730  -9.741  1.00  0.00     0.019 A 
ATOM      8  C   UNL     1       6.174   6.855 -10.356  1.00  0.00     0.094 A 
ATOM      9  C   UNL     1       4.904   7.291  -9.964  1.00  0.00     0.336 A 
ATOM     10  O   UNL     1       4.392   8.305 -10.507  1.00  0.00    -0.246 OA
ATOM     11  O   UNL     1       4.230   6.640  -9.018  1.00  0.00    -0.423 OA
ENDROOT
TORSDOF 0
ENDMDL
