MODEL 1
REMARK VINA RESULT:    -3.988      0.000      0.000
REMARK INTER + INTRA:          -4.671
REMARK INTER:                  -4.571
REMARK INTRA:                  -0.100
REMARK UNBOUND:                -0.100
REMARK SMILES COc1cc(C(=O)[O-])ccc1O
REMARK SMILES IDX 5 1 9 2 4 3 10 4 3 5 11 6 6 7 7 8 8 9 2 10 1 11 12 12
REMARK H PARENT 12 13
REMARK Flexibility Score: inf
ROOT
ATOM      1  C   UNL     1      22.689  38.967  29.628  1.00  0.00     0.001 A 
ATOM      2  C   UNL     1      23.297  38.690  30.864  1.00  0.00     0.014 A 
ATOM      3  C   UNL     1      22.618  37.951  28.658  1.00  0.00     0.060 A 
ATOM      4  C   UNL     1      23.823  37.424  31.125  1.00  0.00     0.051 A 
ATOM      5  C   UNL     1      23.148  36.670  28.917  1.00  0.00     0.161 A 
ATOM      6  C   UNL     1      23.752  36.415  30.161  1.00  0.00     0.157 A 
ENDROOT
BRANCH   1   7
ATOM      7  C   UNL     1      22.131  40.309  29.348  1.00  0.00     0.072 C 
ATOM      8  O   UNL     1      21.124  40.443  28.603  1.00  0.00    -0.545 OA
ATOM      9  O   UNL     1      22.711  41.443  29.906  1.00  0.00    -0.545 OA
ENDBRANCH   1   7
BRANCH   5  10
ATOM     10  O   UNL     1      23.091  35.637  27.968  1.00  0.00    -0.493 OA
ATOM     11  C   UNL     1      21.927  34.870  27.674  1.00  0.00     0.278 C 
ENDBRANCH   5  10
BRANCH   6  12
ATOM     12  O   UNL     1      24.288  35.162  30.458  1.00  0.00    -0.504 OA
ATOM     13  H   UNL     1      24.882  34.661  29.808  1.00  0.00     0.293 HD
ENDBRANCH   6  12
TORSDOF 3
ENDMDL
MODEL 2
REMARK VINA RESULT:    -3.662     14.491     15.628
REMARK INTER + INTRA:          -4.298
REMARK INTER:                  -4.206
REMARK INTRA:                  -0.092
REMARK UNBOUND:                -0.100
REMARK SMILES COc1cc(C(=O)[O-])ccc1O
REMARK SMILES IDX 5 1 9 2 4 3 10 4 3 5 11 6 6 7 7 8 8 9 2 10 1 11 12 12
REMARK H PARENT 12 13
REMARK Flexibility Score: inf
ROOT
ATOM      1  C   UNL     1      23.863  39.749  15.467  1.00  0.00     0.001 A 
ATOM      2  C   UNL     1      24.014  38.534  14.778  1.00  0.00     0.014 A 
ATOM      3  C   UNL     1      24.408  40.921  14.915  1.00  0.00     0.060 A 
ATOM      4  C   UNL     1      24.697  38.493  13.562  1.00  0.00     0.051 A 
ATOM      5  C   UNL     1      25.097  40.885  13.685  1.00  0.00     0.161 A 
ATOM      6  C   UNL     1      25.237  39.659  13.012  1.00  0.00     0.157 A 
ENDROOT
BRANCH   1   7
ATOM      7  C   UNL     1      23.141  39.795  16.759  1.00  0.00     0.072 C 
ATOM      8  O   UNL     1      21.881  39.812  16.790  1.00  0.00    -0.545 OA
ATOM      9  O   UNL     1      23.843  39.822  17.959  1.00  0.00    -0.545 OA
ENDBRANCH   1   7
BRANCH   5  10
ATOM     10  O   UNL     1      25.651  42.040  13.110  1.00  0.00    -0.493 OA
ATOM     11  C   UNL     1      24.944  42.943  12.266  1.00  0.00     0.278 C 
ENDBRANCH   5  10
BRANCH   6  12
ATOM     12  O   UNL     1      25.912  39.577  11.794  1.00  0.00    -0.504 OA
ATOM     13  H   UNL     1      26.922  39.517  11.739  1.00  0.00     0.293 HD
ENDBRANCH   6  12
TORSDOF 3
ENDMDL
MODEL 3
REMARK VINA RESULT:    -3.633      1.804      4.370
REMARK INTER + INTRA:          -4.264
REMARK INTER:                  -4.166
REMARK INTRA:                  -0.098
REMARK UNBOUND:                -0.100
REMARK SMILES COc1cc(C(=O)[O-])ccc1O
REMARK SMILES IDX 5 1 9 2 4 3 10 4 3 5 11 6 6 7 7 8 8 9 2 10 1 11 12 12
REMARK H PARENT 12 13
REMARK Flexibility Score: inf
ROOT
ATOM      1  C   UNL     1      22.179  35.498  28.821  1.00  0.00     0.001 A 
ATOM      2  C   UNL     1      23.114  35.067  29.778  1.00  0.00     0.014 A 
ATOM      3  C   UNL     1      22.081  36.870  28.530  1.00  0.00     0.060 A 
ATOM      4  C   UNL     1      23.934  35.990  30.429  1.00  0.00     0.051 A 
ATOM      5  C   UNL     1      22.908  37.806  29.185  1.00  0.00     0.161 A 
ATOM      6  C   UNL     1      23.837  37.354  30.139  1.00  0.00     0.157 A 
ENDROOT
BRANCH   1   7
ATOM      7  C   UNL     1      21.308  34.522  28.129  1.00  0.00     0.072 C 
ATOM      8  O   UNL     1      20.626  33.692  28.787  1.00  0.00    -0.545 OA
ATOM      9  O   UNL     1      21.230  34.506  26.741  1.00  0.00    -0.545 OA
ENDBRANCH   1   7
BRANCH   5  10
ATOM     10  O   UNL     1      22.832  39.182  28.915  1.00  0.00    -0.493 OA
ATOM     11  C   UNL     1      21.889  40.072  29.504  1.00  0.00     0.278 C 
ENDBRANCH   5  10
BRANCH   6  12
ATOM     12  O   UNL     1      24.673  38.245  30.810  1.00  0.00    -0.504 OA
ATOM     13  H   UNL     1      24.638  39.245  30.649  1.00  0.00     0.293 HD
ENDBRANCH   6  12
TORSDOF 3
ENDMDL
MODEL 4
REMARK VINA RESULT:    -3.569     16.696     18.440
REMARK INTER + INTRA:          -4.192
REMARK INTER:                  -4.093
REMARK INTRA:                  -0.099
REMARK UNBOUND:                -0.100
REMARK SMILES COc1cc(C(=O)[O-])ccc1O
REMARK SMILES IDX 5 1 9 2 4 3 10 4 3 5 11 6 6 7 7 8 8 9 2 10 1 11 12 12
REMARK H PARENT 12 13
REMARK Flexibility Score: inf
ROOT
ATOM      1  C   UNL     1      13.096  38.004  15.441  1.00  0.00     0.001 A 
ATOM      2  C   UNL     1      12.782  36.693  15.834  1.00  0.00     0.014 A 
ATOM      3  C   UNL     1      12.672  38.461  14.180  1.00  0.00     0.060 A 
ATOM      4  C   UNL     1      12.058  35.855  14.984  1.00  0.00     0.051 A 
ATOM      5  C   UNL     1      11.939  37.619  13.318  1.00  0.00     0.161 A 
ATOM      6  C   UNL     1      11.636  36.310  13.731  1.00  0.00     0.157 A 
ENDROOT
BRANCH   1   7
ATOM      7  C   UNL     1      13.865  38.895  16.340  1.00  0.00     0.072 C 
ATOM      8  O   UNL     1      14.952  38.510  16.848  1.00  0.00    -0.545 OA
ATOM      9  O   UNL     1      13.397  40.170  16.637  1.00  0.00    -0.545 OA
ENDBRANCH   1   7
BRANCH   5  10
ATOM     10  O   UNL     1      11.503  38.048  12.055  1.00  0.00    -0.493 OA
ATOM     11  C   UNL     1      12.306  38.049  10.878  1.00  0.00     0.278 C 
ENDBRANCH   5  10
BRANCH   6  12
ATOM     12  O   UNL     1      10.914  35.443  12.910  1.00  0.00    -0.504 OA
ATOM     13  H   UNL     1      10.163  35.767  12.312  1.00  0.00     0.293 HD
ENDBRANCH   6  12
TORSDOF 3
ENDMDL
MODEL 5
REMARK VINA RESULT:    -3.555      2.002      3.972
REMARK INTER + INTRA:          -4.175
REMARK INTER:                  -4.077
REMARK INTRA:                  -0.099
REMARK UNBOUND:                -0.100
REMARK SMILES COc1cc(C(=O)[O-])ccc1O
REMARK SMILES IDX 5 1 9 2 4 3 10 4 3 5 11 6 6 7 7 8 8 9 2 10 1 11 12 12
REMARK H PARENT 12 13
REMARK Flexibility Score: inf
ROOT
ATOM      1  C   UNL     1      21.644  37.339  28.664  1.00  0.00     0.001 A 
ATOM      2  C   UNL     1      22.815  36.562  28.664  1.00  0.00     0.014 A 
ATOM      3  C   UNL     1      21.587  38.490  29.468  1.00  0.00     0.060 A 
ATOM      4  C   UNL     1      23.906  36.930  29.452  1.00  0.00     0.051 A 
ATOM      5  C   UNL     1      22.687  38.867  30.266  1.00  0.00     0.161 A 
ATOM      6  C   UNL     1      23.849  38.076  30.251  1.00  0.00     0.157 A 
ENDROOT
BRANCH   1   7
ATOM      7  C   UNL     1      20.485  36.950  27.829  1.00  0.00     0.072 C 
ATOM      8  O   UNL     1      20.182  35.737  27.677  1.00  0.00    -0.545 OA
ATOM      9  O   UNL     1      19.713  37.920  27.199  1.00  0.00    -0.545 OA
ENDBRANCH   1   7
BRANCH   5  10
ATOM     10  O   UNL     1      22.658  40.012  31.078  1.00  0.00    -0.493 OA
ATOM     11  C   UNL     1      22.723  41.350  30.594  1.00  0.00     0.278 C 
ENDBRANCH   5  10
BRANCH   6  12
ATOM     12  O   UNL     1      24.960  38.412  31.025  1.00  0.00    -0.504 OA
ATOM     13  H   UNL     1      25.456  37.727  31.584  1.00  0.00     0.293 HD
ENDBRANCH   6  12
TORSDOF 3
ENDMDL
MODEL 6
REMARK VINA RESULT:    -3.546     15.305     16.908
REMARK INTER + INTRA:          -4.164
REMARK INTER:                  -4.068
REMARK INTRA:                  -0.096
REMARK UNBOUND:                -0.100
REMARK SMILES COc1cc(C(=O)[O-])ccc1O
REMARK SMILES IDX 5 1 9 2 4 3 10 4 3 5 11 6 6 7 7 8 8 9 2 10 1 11 12 12
REMARK H PARENT 12 13
REMARK Flexibility Score: inf
ROOT
ATOM      1  C   UNL     1      23.252  37.705  13.004  1.00  0.00     0.001 A 
ATOM      2  C   UNL     1      23.871  37.672  11.743  1.00  0.00     0.014 A 
ATOM      3  C   UNL     1      23.657  38.673  13.939  1.00  0.00     0.060 A 
ATOM      4  C   UNL     1      24.874  38.588  11.425  1.00  0.00     0.051 A 
ATOM      5  C   UNL     1      24.669  39.603  13.622  1.00  0.00     0.161 A 
ATOM      6  C   UNL     1      25.276  39.552  12.355  1.00  0.00     0.157 A 
ENDROOT
BRANCH   1   7
ATOM      7  C   UNL     1      22.188  36.734  13.345  1.00  0.00     0.072 C 
ATOM      8  O   UNL     1      22.168  35.592  12.813  1.00  0.00    -0.545 OA
ATOM      9  O   UNL     1      21.195  37.068  14.258  1.00  0.00    -0.545 OA
ENDBRANCH   1   7
BRANCH   5  10
ATOM     10  O   UNL     1      25.093  40.580  14.536  1.00  0.00    -0.493 OA
ATOM     11  C   UNL     1      24.279  41.645  15.019  1.00  0.00     0.278 C 
ENDBRANCH   5  10
BRANCH   6  12
ATOM     12  O   UNL     1      26.281  40.451  11.999  1.00  0.00    -0.504 OA
ATOM     13  H   UNL     1      26.404  40.775  11.047  1.00  0.00     0.293 HD
ENDBRANCH   6  12
TORSDOF 3
ENDMDL
MODEL 7
REMARK VINA RESULT:    -3.543     14.330     15.389
REMARK INTER + INTRA:          -4.161
REMARK INTER:                  -4.066
REMARK INTRA:                  -0.096
REMARK UNBOUND:                -0.100
REMARK SMILES COc1cc(C(=O)[O-])ccc1O
REMARK SMILES IDX 5 1 9 2 4 3 10 4 3 5 11 6 6 7 7 8 8 9 2 10 1 11 12 12
REMARK H PARENT 12 13
REMARK Flexibility Score: inf
ROOT
ATOM      1  C   UNL     1      23.825  39.991  15.626  1.00  0.00     0.001 A 
ATOM      2  C   UNL     1      24.420  41.238  15.373  1.00  0.00     0.014 A 
ATOM      3  C   UNL     1      23.978  38.957  14.686  1.00  0.00     0.060 A 
ATOM      4  C   UNL     1      25.153  41.447  14.204  1.00  0.00     0.051 A 
ATOM      5  C   UNL     1      24.719  39.162  13.504  1.00  0.00     0.161 A 
ATOM      6  C   UNL     1      25.306  40.418  13.270  1.00  0.00     0.157 A 
ENDROOT
BRANCH   1   7
ATOM      7  C   UNL     1      23.046  39.767  16.865  1.00  0.00     0.072 C 
ATOM      8  O   UNL     1      23.624  39.697  17.982  1.00  0.00    -0.545 OA
ATOM      9  O   UNL     1      21.664  39.630  16.813  1.00  0.00    -0.545 OA
ENDBRANCH   1   7
BRANCH   5  10
ATOM     10  O   UNL     1      24.888  38.148  12.547  1.00  0.00    -0.493 OA
ATOM     11  C   UNL     1      23.951  37.840  11.520  1.00  0.00     0.278 C 
ENDBRANCH   5  10
BRANCH   6  12
ATOM     12  O   UNL     1      26.046  40.665  12.114  1.00  0.00    -0.504 OA
ATOM     13  H   UNL     1      25.972  40.079  11.290  1.00  0.00     0.293 HD
ENDBRANCH   6  12
TORSDOF 3
ENDMDL
MODEL 8
REMARK VINA RESULT:    -3.529     16.357     18.161
REMARK INTER + INTRA:          -4.146
REMARK INTER:                  -4.049
REMARK INTRA:                  -0.097
REMARK UNBOUND:                -0.100
REMARK SMILES COc1cc(C(=O)[O-])ccc1O
REMARK SMILES IDX 5 1 9 2 4 3 10 4 3 5 11 6 6 7 7 8 8 9 2 10 1 11 12 12
REMARK H PARENT 12 13
REMARK Flexibility Score: inf
ROOT
ATOM      1  C   UNL     1      12.974  37.465  15.765  1.00  0.00     0.001 A 
ATOM      2  C   UNL     1      12.944  38.449  14.762  1.00  0.00     0.014 A 
ATOM      3  C   UNL     1      12.384  36.213  15.513  1.00  0.00     0.060 A 
ATOM      4  C   UNL     1      12.336  38.186  13.534  1.00  0.00     0.051 A 
ATOM      5  C   UNL     1      11.770  35.943  14.273  1.00  0.00     0.161 A 
ATOM      6  C   UNL     1      11.751  36.941  13.284  1.00  0.00     0.157 A 
ENDROOT
BRANCH   1   7
ATOM      7  C   UNL     1      13.617  37.741  17.069  1.00  0.00     0.072 C 
ATOM      8  O   UNL     1      14.239  36.834  17.683  1.00  0.00    -0.545 OA
ATOM      9  O   UNL     1      13.541  39.008  17.638  1.00  0.00    -0.545 OA
ENDBRANCH   1   7
BRANCH   5  10
ATOM     10  O   UNL     1      11.174  34.703  13.994  1.00  0.00    -0.493 OA
ATOM     11  C   UNL     1      11.867  33.567  13.486  1.00  0.00     0.278 C 
ENDBRANCH   5  10
BRANCH   6  12
ATOM     12  O   UNL     1      11.154  36.717  12.043  1.00  0.00    -0.504 OA
ATOM     13  H   UNL     1      11.677  36.760  11.176  1.00  0.00     0.293 HD
ENDBRANCH   6  12
TORSDOF 3
ENDMDL
MODEL 9
REMARK VINA RESULT:    -3.494     18.016     20.157
REMARK INTER + INTRA:          -4.105
REMARK INTER:                  -4.010
REMARK INTRA:                  -0.095
REMARK UNBOUND:                -0.100
REMARK SMILES COc1cc(C(=O)[O-])ccc1O
REMARK SMILES IDX 5 1 9 2 4 3 10 4 3 5 11 6 6 7 7 8 8 9 2 10 1 11 12 12
REMARK H PARENT 12 13
REMARK Flexibility Score: inf
ROOT
ATOM      1  C   UNL     1       9.464  46.274  16.271  1.00  0.00     0.001 A 
ATOM      2  C   UNL     1       8.542  46.823  17.178  1.00  0.00     0.014 A 
ATOM      3  C   UNL     1      10.839  46.457  16.497  1.00  0.00     0.060 A 
ATOM      4  C   UNL     1       8.987  47.540  18.290  1.00  0.00     0.051 A 
ATOM      5  C   UNL     1      11.294  47.179  17.620  1.00  0.00     0.161 A 
ATOM      6  C   UNL     1      10.355  47.720  18.516  1.00  0.00     0.157 A 
ENDROOT
BRANCH   1   7
ATOM      7  C   UNL     1       8.994  45.514  15.090  1.00  0.00     0.072 C 
ATOM      8  O   UNL     1       8.228  46.049  14.246  1.00  0.00    -0.545 OA
ATOM      9  O   UNL     1       9.392  44.196  14.897  1.00  0.00    -0.545 OA
ENDBRANCH   1   7
BRANCH   5  10
ATOM     10  O   UNL     1      12.661  47.378  17.872  1.00  0.00    -0.493 OA
ATOM     11  C   UNL     1      13.498  46.459  18.567  1.00  0.00     0.278 C 
ENDBRANCH   5  10
BRANCH   6  12
ATOM     12  O   UNL     1      10.761  48.442  19.638  1.00  0.00    -0.504 OA
ATOM     13  H   UNL     1      11.738  48.608  19.849  1.00  0.00     0.293 HD
ENDBRANCH   6  12
TORSDOF 3
ENDMDL
