MODEL 1
REMARK VINA RESULT:    -0.712      0.000      0.000
REMARK INTER + INTRA:          -0.237
REMARK INTER:                  -0.962
REMARK INTRA:                   0.724
REMARK UNBOUND:                 0.724
REMARK SMILES CC[C@@H](CC[C@H](C)[C@H]1CC[C@H]2[C@H]3CC(=O)C4=CC(=O)CC[C@]4(C)[C@H]3CC[C@]12C)C(C)C
REMARK SMILES IDX 4 1 3 2 2 3 1 4 29 5 30 6 31 7 5 8 6 9 7 10 8 11 9 12 27 13
REMARK SMILES IDX 10 14 11 15 26 16 28 17 12 18 25 19 24 20 13 21 22 22 14 23
REMARK SMILES IDX 16 24 21 25 23 26 15 27 17 28 20 29 18 30 19 31
REMARK H PARENT
REMARK Flexibility Score: inf
ROOT
ATOM      1  C   UNL     1      -8.369 -12.297  35.451  1.00  0.00     0.004 C 
ENDROOT
BRANCH   1   2
ATOM      2  C   UNL     1      -7.879 -11.374  36.611  1.00  0.00    -0.009 C 
BRANCH   2   3
ATOM      3  C   UNL     1      -7.802 -12.188  37.931  1.00  0.00     0.000 C 
ATOM      4  C   UNL     1      -8.787 -13.355  37.994  1.00  0.00     0.004 C 
ENDBRANCH   2   3
BRANCH   2   5
ATOM      5  C   UNL     1      -8.708 -10.052  36.749  1.00  0.00    -0.014 C 
ATOM      6  C   UNL     1      -9.747  -9.894  35.631  1.00  0.00     0.007 C 
ATOM      7  C   UNL     1      -9.375  -9.877  38.125  1.00  0.00     0.007 C 
ENDBRANCH   2   5
ENDBRANCH   1   2
BRANCH   1   8
ATOM      8  C   UNL     1      -7.345 -13.370  35.020  1.00  0.00     0.004 C 
BRANCH   8   9
ATOM      9  C   UNL     1      -5.871 -12.845  34.979  1.00  0.00    -0.011 C 
ATOM     10  C   UNL     1      -5.837 -11.292  34.889  1.00  0.00     0.008 C 
BRANCH   9  11
ATOM     11  C   UNL     1      -5.035 -13.594  33.880  1.00  0.00    -0.002 C 
ATOM     12  C   UNL     1      -5.369 -15.097  33.670  1.00  0.00     0.005 C 
ATOM     13  C   UNL     1      -4.954 -12.969  32.449  1.00  0.00    -0.026 C 
ATOM     14  C   UNL     1      -5.140 -15.389  32.177  1.00  0.00     0.005 C 
ATOM     15  C   UNL     1      -4.372 -14.169  31.685  1.00  0.00    -0.001 C 
ATOM     16  C   UNL     1      -3.987 -11.748  32.331  1.00  0.00     0.007 C 
ATOM     17  C   UNL     1      -6.357 -12.539  31.952  1.00  0.00     0.012 C 
ATOM     18  C   UNL     1      -4.121 -13.971  30.172  1.00  0.00     0.004 C 
ATOM     19  C   UNL     1      -2.924 -11.848  31.202  1.00  0.00     0.005 C 
ATOM     20  C   UNL     1      -3.302 -12.651  29.902  1.00  0.00     0.003 C 
ATOM     21  C   UNL     1      -5.334 -14.201  29.252  1.00  0.00     0.085 C 
ATOM     22  C   UNL     1      -3.723 -11.783  28.639  1.00  0.00    -0.000 C 
ATOM     23  C   UNL     1      -4.978 -13.904  27.829  1.00  0.00     0.159 C 
ATOM     24  C   UNL     1      -4.131 -12.730  27.499  1.00  0.00     0.005 C 
ATOM     25  C   UNL     1      -2.497 -10.904  28.201  1.00  0.00     0.020 C 
ATOM     26  C   UNL     1      -4.922 -10.851  28.937  1.00  0.00     0.017 C 
ATOM     27  O   UNL     1      -5.452 -14.638  26.915  1.00  0.00    -0.295 OA
ATOM     28  C   UNL     1      -3.808 -12.488  26.212  1.00  0.00     0.055 C 
ATOM     29  C   UNL     1      -2.634 -10.281  26.808  1.00  0.00     0.081 C 
ATOM     30  C   UNL     1      -3.032 -11.312  25.807  1.00  0.00     0.156 C 
ATOM     31  O   UNL     1      -2.753 -11.142  24.589  1.00  0.00    -0.295 OA
ENDBRANCH   9  11
ENDBRANCH   8   9
ENDBRANCH   1   8
TORSDOF 6
ENDMDL
MODEL 2
REMARK VINA RESULT:    -0.409      1.365      1.967
REMARK INTER + INTRA:           0.172
REMARK INTER:                  -0.693
REMARK INTRA:                   0.865
REMARK UNBOUND:                 0.724
REMARK SMILES CC[C@@H](CC[C@H](C)[C@H]1CC[C@H]2[C@H]3CC(=O)C4=CC(=O)CC[C@]4(C)[C@H]3CC[C@]12C)C(C)C
REMARK SMILES IDX 4 1 3 2 2 3 1 4 29 5 30 6 31 7 5 8 6 9 7 10 8 11 9 12 27 13
REMARK SMILES IDX 10 14 11 15 26 16 28 17 12 18 25 19 24 20 13 21 22 22 14 23
REMARK SMILES IDX 16 24 21 25 23 26 15 27 17 28 20 29 18 30 19 31
REMARK H PARENT
REMARK Flexibility Score: inf
ROOT
ATOM      1  C   UNL     1      -7.166  -9.894  37.197  1.00  0.00     0.004 C 
ENDROOT
BRANCH   1   2
ATOM      2  C   UNL     1      -8.119 -10.947  37.848  1.00  0.00    -0.009 C 
BRANCH   2   3
ATOM      3  C   UNL     1      -7.340 -12.262  38.118  1.00  0.00     0.000 C 
ATOM      4  C   UNL     1      -8.053 -13.516  37.614  1.00  0.00     0.004 C 
ENDBRANCH   2   3
BRANCH   2   5
ATOM      5  C   UNL     1      -9.445 -11.169  37.045  1.00  0.00    -0.014 C 
ATOM      6  C   UNL     1      -9.966  -9.875  36.405  1.00  0.00     0.007 C 
ATOM      7  C   UNL     1      -9.354 -12.286  35.990  1.00  0.00     0.007 C 
ENDBRANCH   2   5
ENDBRANCH   1   2
BRANCH   1   8
ATOM      8  C   UNL     1      -5.885 -10.496  36.579  1.00  0.00     0.004 C 
BRANCH   8   9
ATOM      9  C   UNL     1      -5.858 -10.430  35.016  1.00  0.00    -0.011 C 
ATOM     10  C   UNL     1      -7.200  -9.875  34.459  1.00  0.00     0.008 C 
BRANCH   9  11
ATOM     11  C   UNL     1      -5.398 -11.801  34.402  1.00  0.00    -0.002 C 
ATOM     12  C   UNL     1      -6.221 -13.051  34.820  1.00  0.00     0.005 C 
ATOM     13  C   UNL     1      -5.223 -11.902  32.851  1.00  0.00    -0.026 C 
ATOM     14  C   UNL     1      -6.212 -14.002  33.612  1.00  0.00     0.005 C 
ATOM     15  C   UNL     1      -5.126 -13.430  32.710  1.00  0.00    -0.001 C 
ATOM     16  C   UNL     1      -3.921 -11.237  32.302  1.00  0.00     0.007 C 
ATOM     17  C   UNL     1      -6.441 -11.289  32.116  1.00  0.00     0.012 C 
ATOM     18  C   UNL     1      -4.938 -13.983  31.279  1.00  0.00     0.004 C 
ATOM     19  C   UNL     1      -3.037 -12.146  31.404  1.00  0.00     0.005 C 
ATOM     20  C   UNL     1      -3.754 -13.249  30.539  1.00  0.00     0.003 C 
ATOM     21  C   UNL     1      -6.225 -14.167  30.453  1.00  0.00     0.085 C 
ATOM     22  C   UNL     1      -3.960 -12.910  29.000  1.00  0.00    -0.000 C 
ATOM     23  C   UNL     1      -5.898 -14.634  29.068  1.00  0.00     0.159 C 
ATOM     24  C   UNL     1      -4.741 -14.058  28.339  1.00  0.00     0.005 C 
ATOM     25  C   UNL     1      -2.550 -12.753  28.326  1.00  0.00     0.020 C 
ATOM     26  C   UNL     1      -4.761 -11.603  28.787  1.00  0.00     0.017 C 
ATOM     27  O   UNL     1      -6.653 -15.484  28.516  1.00  0.00    -0.295 OA
ATOM     28  C   UNL     1      -4.453 -14.501  27.098  1.00  0.00     0.055 C 
ATOM     29  C   UNL     1      -2.579 -12.769  26.794  1.00  0.00     0.081 C 
ATOM     30  C   UNL     1      -3.367 -13.932  26.294  1.00  0.00     0.156 C 
ATOM     31  O   UNL     1      -3.139 -14.393  25.143  1.00  0.00    -0.295 OA
ENDBRANCH   9  11
ENDBRANCH   8   9
ENDBRANCH   1   8
TORSDOF 6
ENDMDL
MODEL 3
REMARK VINA RESULT:     0.102      1.775      3.293
REMARK INTER + INTRA:           0.862
REMARK INTER:                   1.808
REMARK INTRA:                  -0.947
REMARK UNBOUND:                 0.724
REMARK SMILES CC[C@@H](CC[C@H](C)[C@H]1CC[C@H]2[C@H]3CC(=O)C4=CC(=O)CC[C@]4(C)[C@H]3CC[C@]12C)C(C)C
REMARK SMILES IDX 4 1 3 2 2 3 1 4 29 5 30 6 31 7 5 8 6 9 7 10 8 11 9 12 27 13
REMARK SMILES IDX 10 14 11 15 26 16 28 17 12 18 25 19 24 20 13 21 22 22 14 23
REMARK SMILES IDX 16 24 21 25 23 26 15 27 17 28 20 29 18 30 19 31
REMARK H PARENT
REMARK Flexibility Score: inf
ROOT
ATOM      1  C   UNL     1      -7.777 -10.425  35.312  1.00  0.00     0.004 C 
ENDROOT
BRANCH   1   2
ATOM      2  C   UNL     1      -7.292 -11.667  36.124  1.00  0.00    -0.009 C 
BRANCH   2   3
ATOM      3  C   UNL     1      -7.788 -12.968  35.437  1.00  0.00     0.000 C 
ATOM      4  C   UNL     1      -6.725 -13.655  34.579  1.00  0.00     0.004 C 
ENDBRANCH   2   3
BRANCH   2   5
ATOM      5  C   UNL     1      -7.652 -11.598  37.647  1.00  0.00    -0.014 C 
ATOM      6  C   UNL     1      -8.193 -10.221  38.058  1.00  0.00     0.007 C 
ATOM      7  C   UNL     1      -8.613 -12.707  38.110  1.00  0.00     0.007 C 
ENDBRANCH   2   5
ENDBRANCH   1   2
BRANCH   1   8
ATOM      8  C   UNL     1      -6.752  -9.899  34.284  1.00  0.00     0.004 C 
BRANCH   8   9
ATOM      9  C   UNL     1      -5.300 -10.429  34.526  1.00  0.00    -0.011 C 
ATOM     10  C   UNL     1      -4.723  -9.879  35.862  1.00  0.00     0.008 C 
BRANCH   9  11
ATOM     11  C   UNL     1      -4.395 -10.193  33.264  1.00  0.00    -0.002 C 
ATOM     12  C   UNL     1      -2.899  -9.875  33.541  1.00  0.00     0.005 C 
ATOM     13  C   UNL     1      -4.401 -11.269  32.130  1.00  0.00    -0.026 C 
ATOM     14  C   UNL     1      -2.101 -10.483  32.376  1.00  0.00     0.005 C 
ATOM     15  C   UNL     1      -3.169 -10.804  31.337  1.00  0.00    -0.001 C 
ATOM     16  C   UNL     1      -5.664 -11.235  31.211  1.00  0.00     0.007 C 
ATOM     17  C   UNL     1      -4.256 -12.695  32.719  1.00  0.00     0.012 C 
ATOM     18  C   UNL     1      -2.802 -11.627  30.081  1.00  0.00     0.004 C 
ATOM     19  C   UNL     1      -5.376 -11.153  29.687  1.00  0.00     0.005 C 
ATOM     20  C   UNL     1      -4.059 -11.825  29.148  1.00  0.00     0.003 C 
ATOM     21  C   UNL     1      -1.949 -12.886  30.323  1.00  0.00     0.085 C 
ATOM     22  C   UNL     1      -4.229 -13.246  28.455  1.00  0.00    -0.000 C 
ATOM     23  C   UNL     1      -1.731 -13.628  29.042  1.00  0.00     0.159 C 
ATOM     24  C   UNL     1      -2.840 -13.779  28.067  1.00  0.00     0.005 C 
ATOM     25  C   UNL     1      -5.123 -13.076  27.174  1.00  0.00     0.020 C 
ATOM     26  C   UNL     1      -4.894 -14.283  29.391  1.00  0.00     0.017 C 
ATOM     27  O   UNL     1      -0.606 -14.164  28.831  1.00  0.00    -0.295 OA
ATOM     28  C   UNL     1      -2.620 -14.438  26.911  1.00  0.00     0.055 C 
ATOM     29  C   UNL     1      -5.090 -14.276  26.221  1.00  0.00     0.081 C 
ATOM     30  C   UNL     1      -3.684 -14.682  25.933  1.00  0.00     0.156 C 
ATOM     31  O   UNL     1      -3.418 -15.297  24.865  1.00  0.00    -0.295 OA
ENDBRANCH   9  11
ENDBRANCH   8   9
ENDBRANCH   1   8
TORSDOF 6
ENDMDL
MODEL 4
REMARK VINA RESULT:     0.820      2.990      7.945
REMARK INTER + INTRA:           1.833
REMARK INTER:                  -0.393
REMARK INTRA:                   2.226
REMARK UNBOUND:                 0.724
REMARK SMILES CC[C@@H](CC[C@H](C)[C@H]1CC[C@H]2[C@H]3CC(=O)C4=CC(=O)CC[C@]4(C)[C@H]3CC[C@]12C)C(C)C
REMARK SMILES IDX 4 1 3 2 2 3 1 4 29 5 30 6 31 7 5 8 6 9 7 10 8 11 9 12 27 13
REMARK SMILES IDX 10 14 11 15 26 16 28 17 12 18 25 19 24 20 13 21 22 22 14 23
REMARK SMILES IDX 16 24 21 25 23 26 15 27 17 28 20 29 18 30 19 31
REMARK H PARENT
REMARK Flexibility Score: inf
ROOT
ATOM      1  C   UNL     1      -1.376 -12.368  28.056  1.00  0.00     0.004 C 
ENDROOT
BRANCH   1   2
ATOM      2  C   UNL     1      -0.357 -12.796  29.159  1.00  0.00    -0.009 C 
BRANCH   2   3
ATOM      3  C   UNL     1      -0.105 -14.325  29.073  1.00  0.00     0.000 C 
ATOM      4  C   UNL     1       0.898 -14.725  27.991  1.00  0.00     0.004 C 
ENDBRANCH   2   3
BRANCH   2   5
ATOM      5  C   UNL     1      -0.753 -12.315  30.595  1.00  0.00    -0.014 C 
ATOM      6  C   UNL     1       0.366 -12.548  31.620  1.00  0.00     0.007 C 
ATOM      7  C   UNL     1      -1.231 -10.853  30.653  1.00  0.00     0.007 C 
ENDBRANCH   2   5
ENDBRANCH   1   2
BRANCH   1   8
ATOM      8  C   UNL     1      -2.024 -13.548  27.298  1.00  0.00     0.004 C 
BRANCH   8   9
ATOM      9  C   UNL     1      -3.283 -13.139  26.465  1.00  0.00    -0.011 C 
ATOM     10  C   UNL     1      -3.053 -11.780  25.742  1.00  0.00     0.008 C 
BRANCH   9  11
ATOM     11  C   UNL     1      -4.587 -13.216  27.337  1.00  0.00    -0.002 C 
ATOM     12  C   UNL     1      -5.378 -14.552  27.270  1.00  0.00     0.005 C 
ATOM     13  C   UNL     1      -4.493 -12.849  28.854  1.00  0.00    -0.026 C 
ATOM     14  C   UNL     1      -6.010 -14.754  28.657  1.00  0.00     0.005 C 
ATOM     15  C   UNL     1      -5.850 -13.395  29.327  1.00  0.00    -0.001 C 
ATOM     16  C   UNL     1      -4.409 -11.317  29.145  1.00  0.00     0.007 C 
ATOM     17  C   UNL     1      -3.280 -13.547  29.519  1.00  0.00     0.012 C 
ATOM     18  C   UNL     1      -6.178 -13.229  30.829  1.00  0.00     0.004 C 
ATOM     19  C   UNL     1      -5.454 -10.774  30.158  1.00  0.00     0.005 C 
ATOM     20  C   UNL     1      -5.948 -11.741  31.297  1.00  0.00     0.003 C 
ATOM     21  C   UNL     1      -5.617 -14.316  31.765  1.00  0.00     0.085 C 
ATOM     22  C   UNL     1      -5.298 -11.526  32.732  1.00  0.00    -0.000 C 
ATOM     23  C   UNL     1      -5.939 -13.997  33.192  1.00  0.00     0.159 C 
ATOM     24  C   UNL     1      -5.837 -12.602  33.688  1.00  0.00     0.005 C 
ATOM     25  C   UNL     1      -5.687 -10.095  33.251  1.00  0.00     0.020 C 
ATOM     26  C   UNL     1      -3.755 -11.642  32.704  1.00  0.00     0.017 C 
ATOM     27  O   UNL     1      -6.248 -14.942  33.973  1.00  0.00    -0.295 OA
ATOM     28  C   UNL     1      -6.147 -12.333  34.973  1.00  0.00     0.055 C 
ATOM     29  C   UNL     1      -5.430  -9.875  34.745  1.00  0.00     0.081 C 
ATOM     30  C   UNL     1      -6.006 -10.991  35.548  1.00  0.00     0.156 C 
ATOM     31  O   UNL     1      -6.319 -10.797  36.754  1.00  0.00    -0.295 OA
ENDBRANCH   9  11
ENDBRANCH   8   9
ENDBRANCH   1   8
TORSDOF 6
ENDMDL
