MODEL 1
REMARK VINA RESULT:    -2.965      0.000      0.000
REMARK INTER + INTRA:          -3.581
REMARK INTER:                  -3.485
REMARK INTRA:                  -0.096
REMARK UNBOUND:                -0.096
REMARK SMILES O=C([O-])CCC(=O)[O-]
REMARK SMILES IDX 4 1 2 2 1 3 3 4 5 5 6 6 7 7 8 8
REMARK H PARENT
REMARK Flexibility Score: inf
ROOT
ATOM      1  C   UNL     1     -22.975  26.280   9.958  1.00  0.00     0.059 C 
ENDROOT
BRANCH   1   2
ATOM      2  C   UNL     1     -22.018  25.133   9.892  1.00  0.00     0.042 C 
ATOM      3  O   UNL     1     -21.675  24.533  10.944  1.00  0.00    -0.550 OA
ATOM      4  O   UNL     1     -21.466  24.757   8.674  1.00  0.00    -0.550 OA
ENDBRANCH   1   2
BRANCH   1   5
ATOM      5  C   UNL     1     -24.121  26.079   8.964  1.00  0.00     0.059 C 
BRANCH   5   6
ATOM      6  C   UNL     1     -23.999  27.038   7.822  1.00  0.00     0.042 C 
ATOM      7  O   UNL     1     -23.898  26.610   6.642  1.00  0.00    -0.550 OA
ATOM      8  O   UNL     1     -23.947  28.405   8.065  1.00  0.00    -0.550 OA
ENDBRANCH   5   6
ENDBRANCH   1   5
TORSDOF 3
ENDMDL
MODEL 2
REMARK VINA RESULT:    -2.951      2.277      2.857
REMARK INTER + INTRA:          -3.564
REMARK INTER:                  -3.385
REMARK INTRA:                  -0.179
REMARK UNBOUND:                -0.096
REMARK SMILES O=C([O-])CCC(=O)[O-]
REMARK SMILES IDX 4 1 2 2 1 3 3 4 5 5 6 6 7 7 8 8
REMARK H PARENT
REMARK Flexibility Score: inf
ROOT
ATOM      1  C   UNL     1     -22.835  26.101  10.862  1.00  0.00     0.059 C 
ENDROOT
BRANCH   1   2
ATOM      2  C   UNL     1     -22.987  24.905  11.747  1.00  0.00     0.042 C 
ATOM      3  O   UNL     1     -24.123  24.573  12.174  1.00  0.00    -0.550 OA
ATOM      4  O   UNL     1     -21.866  24.184  12.141  1.00  0.00    -0.550 OA
ENDBRANCH   1   2
BRANCH   1   5
ATOM      5  C   UNL     1     -23.551  25.875   9.530  1.00  0.00     0.059 C 
BRANCH   5   6
ATOM      6  C   UNL     1     -22.977  24.690   8.820  1.00  0.00     0.042 C 
ATOM      7  O   UNL     1     -23.717  23.721   8.504  1.00  0.00    -0.550 OA
ATOM      8  O   UNL     1     -21.615  24.631   8.553  1.00  0.00    -0.550 OA
ENDBRANCH   5   6
ENDBRANCH   1   5
TORSDOF 3
ENDMDL
MODEL 3
REMARK VINA RESULT:    -2.927      2.239      3.693
REMARK INTER + INTRA:          -3.536
REMARK INTER:                  -3.378
REMARK INTRA:                  -0.158
REMARK UNBOUND:                -0.096
REMARK SMILES O=C([O-])CCC(=O)[O-]
REMARK SMILES IDX 4 1 2 2 1 3 3 4 5 5 6 6 7 7 8 8
REMARK H PARENT
REMARK Flexibility Score: inf
ROOT
ATOM      1  C   UNL     1     -23.617  25.851   9.374  1.00  0.00     0.059 C 
ENDROOT
BRANCH   1   2
ATOM      2  C   UNL     1     -23.096  24.575   8.793  1.00  0.00     0.042 C 
ATOM      3  O   UNL     1     -21.897  24.492   8.420  1.00  0.00    -0.550 OA
ATOM      4  O   UNL     1     -23.948  23.492   8.617  1.00  0.00    -0.550 OA
ENDBRANCH   1   2
BRANCH   1   5
ATOM      5  C   UNL     1     -22.816  26.237  10.619  1.00  0.00     0.059 C 
BRANCH   5   6
ATOM      6  C   UNL     1     -22.892  25.154  11.648  1.00  0.00     0.042 C 
ATOM      7  O   UNL     1     -21.845  24.569  12.031  1.00  0.00    -0.550 OA
ATOM      8  O   UNL     1     -24.125  24.755  12.148  1.00  0.00    -0.550 OA
ENDBRANCH   5   6
ENDBRANCH   1   5
TORSDOF 3
ENDMDL
MODEL 4
REMARK VINA RESULT:    -2.863      1.460      2.296
REMARK INTER + INTRA:          -3.461
REMARK INTER:                  -3.351
REMARK INTRA:                  -0.110
REMARK UNBOUND:                -0.096
REMARK SMILES O=C([O-])CCC(=O)[O-]
REMARK SMILES IDX 4 1 2 2 1 3 3 4 5 5 6 6 7 7 8 8
REMARK H PARENT
REMARK Flexibility Score: inf
ROOT
ATOM      1  C   UNL     1     -22.921  25.974  10.882  1.00  0.00     0.059 C 
ENDROOT
BRANCH   1   2
ATOM      2  C   UNL     1     -22.689  24.793  11.771  1.00  0.00     0.042 C 
ATOM      3  O   UNL     1     -23.584  24.418  12.572  1.00  0.00    -0.550 OA
ATOM      4  O   UNL     1     -21.465  24.137  11.750  1.00  0.00    -0.550 OA
ENDBRANCH   1   2
BRANCH   1   5
ATOM      5  C   UNL     1     -23.634  25.545   9.599  1.00  0.00     0.059 C 
BRANCH   5   6
ATOM      6  C   UNL     1     -22.709  25.641   8.428  1.00  0.00     0.042 C 
ATOM      7  O   UNL     1     -21.618  25.011   8.429  1.00  0.00    -0.550 OA
ATOM      8  O   UNL     1     -23.026  26.465   7.356  1.00  0.00    -0.550 OA
ENDBRANCH   5   6
ENDBRANCH   1   5
TORSDOF 3
ENDMDL
MODEL 5
REMARK VINA RESULT:    -2.850      0.671      3.880
REMARK INTER + INTRA:          -3.445
REMARK INTER:                  -3.326
REMARK INTRA:                  -0.119
REMARK UNBOUND:                -0.096
REMARK SMILES O=C([O-])CCC(=O)[O-]
REMARK SMILES IDX 4 1 2 2 1 3 3 4 5 5 6 6 7 7 8 8
REMARK H PARENT
REMARK Flexibility Score: inf
ROOT
ATOM      1  C   UNL     1     -23.660  26.942   9.204  1.00  0.00     0.059 C 
ENDROOT
BRANCH   1   2
ATOM      2  C   UNL     1     -23.983  27.455   7.837  1.00  0.00     0.042 C 
ATOM      3  O   UNL     1     -24.084  26.657   6.869  1.00  0.00    -0.550 OA
ATOM      4  O   UNL     1     -24.124  28.820   7.622  1.00  0.00    -0.550 OA
ENDBRANCH   1   2
BRANCH   1   5
ATOM      5  C   UNL     1     -23.735  25.415   9.234  1.00  0.00     0.059 C 
BRANCH   5   6
ATOM      6  C   UNL     1     -22.374  24.827   9.440  1.00  0.00     0.042 C 
ATOM      7  O   UNL     1     -22.039  24.387  10.571  1.00  0.00    -0.550 OA
ATOM      8  O   UNL     1     -21.458  24.809   8.396  1.00  0.00    -0.550 OA
ENDBRANCH   5   6
ENDBRANCH   1   5
TORSDOF 3
ENDMDL
MODEL 6
REMARK VINA RESULT:    -2.726      1.462      4.066
REMARK INTER + INTRA:          -3.300
REMARK INTER:                  -3.204
REMARK INTRA:                  -0.096
REMARK UNBOUND:                -0.096
REMARK SMILES O=C([O-])CCC(=O)[O-]
REMARK SMILES IDX 4 1 2 2 1 3 3 4 5 5 6 6 7 7 8 8
REMARK H PARENT
REMARK Flexibility Score: inf
ROOT
ATOM      1  C   UNL     1     -23.035  26.126   9.651  1.00  0.00     0.059 C 
ENDROOT
BRANCH   1   2
ATOM      2  C   UNL     1     -23.519  25.785   8.277  1.00  0.00     0.042 C 
ATOM      3  O   UNL     1     -24.058  24.670   8.054  1.00  0.00    -0.550 OA
ATOM      4  O   UNL     1     -23.330  26.680   7.231  1.00  0.00    -0.550 OA
ENDBRANCH   1   2
BRANCH   1   5
ATOM      5  C   UNL     1     -21.988  25.114  10.116  1.00  0.00     0.059 C 
BRANCH   5   6
ATOM      6  C   UNL     1     -22.337  24.583  11.471  1.00  0.00     0.042 C 
ATOM      7  O   UNL     1     -23.534  24.583  11.862  1.00  0.00    -0.550 OA
ATOM      8  O   UNL     1     -21.335  24.133  12.321  1.00  0.00    -0.550 OA
ENDBRANCH   5   6
ENDBRANCH   1   5
TORSDOF 3
ENDMDL
MODEL 7
REMARK VINA RESULT:    -2.719      2.177      4.643
REMARK INTER + INTRA:          -3.291
REMARK INTER:                  -3.170
REMARK INTRA:                  -0.122
REMARK UNBOUND:                -0.096
REMARK SMILES O=C([O-])CCC(=O)[O-]
REMARK SMILES IDX 4 1 2 2 1 3 3 4 5 5 6 6 7 7 8 8
REMARK H PARENT
REMARK Flexibility Score: inf
ROOT
ATOM      1  C   UNL     1     -22.985  25.857  11.362  1.00  0.00     0.059 C 
ENDROOT
BRANCH   1   2
ATOM      2  C   UNL     1     -22.715  25.876   9.891  1.00  0.00     0.042 C 
ATOM      3  O   UNL     1     -23.487  26.495   9.113  1.00  0.00    -0.550 OA
ATOM      4  O   UNL     1     -21.637  25.169   9.373  1.00  0.00    -0.550 OA
ENDBRANCH   1   2
BRANCH   1   5
ATOM      5  C   UNL     1     -23.435  24.464  11.806  1.00  0.00     0.059 C 
BRANCH   5   6
ATOM      6  C   UNL     1     -22.429  23.859  12.733  1.00  0.00     0.042 C 
ATOM      7  O   UNL     1     -22.808  23.236  13.760  1.00  0.00    -0.550 OA
ATOM      8  O   UNL     1     -21.071  24.025  12.492  1.00  0.00    -0.550 OA
ENDBRANCH   5   6
ENDBRANCH   1   5
TORSDOF 3
ENDMDL
MODEL 8
REMARK VINA RESULT:    -2.704      2.542      3.758
REMARK INTER + INTRA:          -3.274
REMARK INTER:                  -3.114
REMARK INTRA:                  -0.161
REMARK UNBOUND:                -0.096
REMARK SMILES O=C([O-])CCC(=O)[O-]
REMARK SMILES IDX 4 1 2 2 1 3 3 4 5 5 6 6 7 7 8 8
REMARK H PARENT
REMARK Flexibility Score: inf
ROOT
ATOM      1  C   UNL     1     -22.020  23.026  11.457  1.00  0.00     0.059 C 
ENDROOT
BRANCH   1   2
ATOM      2  C   UNL     1     -21.524  23.512  12.781  1.00  0.00     0.042 C 
ATOM      3  O   UNL     1     -22.308  23.585  13.763  1.00  0.00    -0.550 OA
ATOM      4  O   UNL     1     -20.207  23.930  12.920  1.00  0.00    -0.550 OA
ENDBRANCH   1   2
BRANCH   1   5
ATOM      5  C   UNL     1     -23.076  23.981  10.898  1.00  0.00     0.059 C 
BRANCH   5   6
ATOM      6  C   UNL     1     -22.432  25.221  10.365  1.00  0.00     0.042 C 
ATOM      7  O   UNL     1     -22.769  26.351  10.808  1.00  0.00    -0.550 OA
ATOM      8  O   UNL     1     -21.495  25.135   9.344  1.00  0.00    -0.550 OA
ENDBRANCH   5   6
ENDBRANCH   1   5
TORSDOF 3
ENDMDL
MODEL 9
REMARK VINA RESULT:    -2.683      2.448      4.910
REMARK INTER + INTRA:          -3.250
REMARK INTER:                  -3.102
REMARK INTRA:                  -0.148
REMARK UNBOUND:                -0.096
REMARK SMILES O=C([O-])CCC(=O)[O-]
REMARK SMILES IDX 4 1 2 2 1 3 3 4 5 5 6 6 7 7 8 8
REMARK H PARENT
REMARK Flexibility Score: inf
ROOT
ATOM      1  C   UNL     1     -23.177  24.124  10.797  1.00  0.00     0.059 C 
ENDROOT
BRANCH   1   2
ATOM      2  C   UNL     1     -22.442  25.291  10.217  1.00  0.00     0.042 C 
ATOM      3  O   UNL     1     -21.437  25.104   9.484  1.00  0.00    -0.550 OA
ATOM      4  O   UNL     1     -22.839  26.586  10.525  1.00  0.00    -0.550 OA
ENDBRANCH   1   2
BRANCH   1   5
ATOM      5  C   UNL     1     -22.195  23.126  11.413  1.00  0.00     0.059 C 
BRANCH   5   6
ATOM      6  C   UNL     1     -21.749  23.593  12.762  1.00  0.00     0.042 C 
ATOM      7  O   UNL     1     -20.561  23.971  12.941  1.00  0.00    -0.550 OA
ATOM      8  O   UNL     1     -22.631  23.565  13.835  1.00  0.00    -0.550 OA
ENDBRANCH   5   6
ENDBRANCH   1   5
TORSDOF 3
ENDMDL
