MODEL 1
REMARK VINA RESULT:    -2.987      0.000      0.000
REMARK INTER + INTRA:          -3.769
REMARK INTER:                  -3.424
REMARK INTRA:                  -0.345
REMARK UNBOUND:                -0.345
REMARK SMILES COc1ccc(C(C)=O)c(O)c1
REMARK SMILES IDX 6 1 10 2 12 3 3 4 4 5 5 6 7 7 8 8 9 9 11 10 2 12 1 13
REMARK H PARENT 11 11
REMARK Flexibility Score: inf
ROOT
ATOM      1  C   UNL     1      -2.957   9.761   9.714  1.00  0.00     0.059 A 
ATOM      2  C   UNL     1      -3.700  10.496  10.669  1.00  0.00     0.130 A 
ATOM      3  C   UNL     1      -4.061  11.822  10.397  1.00  0.00     0.093 A 
ATOM      4  C   UNL     1      -3.728  12.426   9.181  1.00  0.00     0.122 A 
ATOM      5  C   UNL     1      -3.016  11.686   8.222  1.00  0.00     0.047 A 
ATOM      6  C   UNL     1      -2.636  10.370   8.488  1.00  0.00     0.019 A 
ENDROOT
BRANCH   1   7
ATOM      7  C   UNL     1      -2.475   8.385   9.983  1.00  0.00     0.163 C 
ATOM      8  C   UNL     1      -1.019   8.044   9.894  1.00  0.00     0.093 C 
ATOM      9  O   UNL     1      -3.284   7.500  10.371  1.00  0.00    -0.294 OA
ENDBRANCH   1   7
BRANCH   2  10
ATOM     10  O   UNL     1      -4.123   9.941  11.879  1.00  0.00    -0.507 OA
ATOM     11  H   UNL     1      -3.938  10.364  12.778  1.00  0.00     0.293 HD
ENDBRANCH   2  10
BRANCH   4  12
ATOM     12  O   UNL     1      -4.125  13.754   8.966  1.00  0.00    -0.497 OA
ATOM     13  C   UNL     1      -4.051  14.421   7.710  1.00  0.00     0.278 C 
ENDBRANCH   4  12
TORSDOF 3
ENDMDL
MODEL 2
REMARK VINA RESULT:    -2.235      1.865      5.591
REMARK INTER + INTRA:          -2.907
REMARK INTER:                  -2.734
REMARK INTRA:                  -0.173
REMARK UNBOUND:                -0.345
REMARK SMILES COc1ccc(C(C)=O)c(O)c1
REMARK SMILES IDX 6 1 10 2 12 3 3 4 4 5 5 6 7 7 8 8 9 9 11 10 2 12 1 13
REMARK H PARENT 11 11
REMARK Flexibility Score: inf
ROOT
ATOM      1  C   UNL     1      -3.202  14.424   7.729  1.00  0.00     0.059 A 
ATOM      2  C   UNL     1      -3.822  14.604   8.989  1.00  0.00     0.130 A 
ATOM      3  C   UNL     1      -4.124  13.488   9.780  1.00  0.00     0.093 A 
ATOM      4  C   UNL     1      -3.794  12.196   9.362  1.00  0.00     0.122 A 
ATOM      5  C   UNL     1      -3.152  12.020   8.125  1.00  0.00     0.047 A 
ATOM      6  C   UNL     1      -2.861  13.123   7.320  1.00  0.00     0.019 A 
ENDROOT
BRANCH   1   7
ATOM      7  C   UNL     1      -2.937  15.560   6.814  1.00  0.00     0.163 C 
ATOM      8  C   UNL     1      -4.021  16.125   5.949  1.00  0.00     0.093 C 
ATOM      9  O   UNL     1      -1.807  16.117   6.815  1.00  0.00    -0.294 OA
ENDBRANCH   1   7
BRANCH   2  10
ATOM     10  O   UNL     1      -4.125  15.867   9.502  1.00  0.00    -0.507 OA
ATOM     11  H   UNL     1      -3.591  16.310  10.238  1.00  0.00     0.293 HD
ENDBRANCH   2  10
BRANCH   4  12
ATOM     12  O   UNL     1      -4.116  11.120  10.203  1.00  0.00    -0.497 OA
ATOM     13  C   UNL     1      -3.437   9.869  10.203  1.00  0.00     0.278 C 
ENDBRANCH   4  12
TORSDOF 3
ENDMDL
MODEL 3
REMARK VINA RESULT:    -2.016      1.265      5.018
REMARK INTER + INTRA:          -2.656
REMARK INTER:                  -2.346
REMARK INTRA:                  -0.310
REMARK UNBOUND:                -0.345
REMARK SMILES COc1ccc(C(C)=O)c(O)c1
REMARK SMILES IDX 6 1 10 2 12 3 3 4 4 5 5 6 7 7 8 8 9 9 11 10 2 12 1 13
REMARK H PARENT 11 11
REMARK Flexibility Score: inf
ROOT
ATOM      1  C   UNL     1      -3.716  12.247   9.486  1.00  0.00     0.059 A 
ATOM      2  C   UNL     1      -3.001  11.486   8.530  1.00  0.00     0.130 A 
ATOM      3  C   UNL     1      -2.675  10.153   8.806  1.00  0.00     0.093 A 
ATOM      4  C   UNL     1      -3.073   9.544   9.999  1.00  0.00     0.122 A 
ATOM      5  C   UNL     1      -3.809  10.290  10.936  1.00  0.00     0.047 A 
ATOM      6  C   UNL     1      -4.125  11.626  10.680  1.00  0.00     0.019 A 
ENDROOT
BRANCH   1   7
ATOM      7  C   UNL     1      -4.013  13.685   9.285  1.00  0.00     0.163 C 
ATOM      8  C   UNL     1      -4.125  14.622  10.447  1.00  0.00     0.093 C 
ATOM      9  O   UNL     1      -4.095  14.152   8.117  1.00  0.00    -0.294 OA
ENDBRANCH   1   7
BRANCH   2  10
ATOM     10  O   UNL     1      -2.624  12.006   7.289  1.00  0.00    -0.507 OA
ATOM     11  H   UNL     1      -2.917  12.914   6.955  1.00  0.00     0.293 HD
ENDBRANCH   2  10
BRANCH   4  12
ATOM     12  O   UNL     1      -2.723   8.203  10.214  1.00  0.00    -0.497 OA
ATOM     13  C   UNL     1      -1.401   7.688  10.094  1.00  0.00     0.278 C 
ENDBRANCH   4  12
TORSDOF 3
ENDMDL
MODEL 4
REMARK VINA RESULT:    -1.810      1.062      4.723
REMARK INTER + INTRA:          -2.420
REMARK INTER:                  -2.111
REMARK INTRA:                  -0.309
REMARK UNBOUND:                -0.345
REMARK SMILES COc1ccc(C(C)=O)c(O)c1
REMARK SMILES IDX 6 1 10 2 12 3 3 4 4 5 5 6 7 7 8 8 9 9 11 10 2 12 1 13
REMARK H PARENT 11 11
REMARK Flexibility Score: inf
ROOT
ATOM      1  C   UNL     1      -3.382  12.750   8.593  1.00  0.00     0.059 A 
ATOM      2  C   UNL     1      -3.788  12.605   9.942  1.00  0.00     0.130 A 
ATOM      3  C   UNL     1      -3.833  11.331  10.521  1.00  0.00     0.093 A 
ATOM      4  C   UNL     1      -3.450  10.196   9.801  1.00  0.00     0.122 A 
ATOM      5  C   UNL     1      -3.019  10.343   8.472  1.00  0.00     0.047 A 
ATOM      6  C   UNL     1      -2.986  11.606   7.877  1.00  0.00     0.019 A 
ENDROOT
BRANCH   1   7
ATOM      7  C   UNL     1      -3.398  14.061   7.903  1.00  0.00     0.163 C 
ATOM      8  C   UNL     1      -2.644  14.273   6.627  1.00  0.00     0.093 C 
ATOM      9  O   UNL     1      -4.118  14.996   8.347  1.00  0.00    -0.294 OA
ENDBRANCH   1   7
BRANCH   2  10
ATOM     10  O   UNL     1      -4.125  13.698  10.744  1.00  0.00    -0.507 OA
ATOM     11  H   UNL     1      -4.277  14.629  10.379  1.00  0.00     0.293 HD
ENDBRANCH   2  10
BRANCH   4  12
ATOM     12  O   UNL     1      -3.509   8.949  10.440  1.00  0.00    -0.497 OA
ATOM     13  C   UNL     1      -2.577   7.893  10.230  1.00  0.00     0.278 C 
ENDBRANCH   4  12
TORSDOF 3
ENDMDL
MODEL 5
REMARK VINA RESULT:    -1.540      1.970      3.135
REMARK INTER + INTRA:          -2.110
REMARK INTER:                  -1.824
REMARK INTRA:                  -0.286
REMARK UNBOUND:                -0.345
REMARK SMILES COc1ccc(C(C)=O)c(O)c1
REMARK SMILES IDX 6 1 10 2 12 3 3 4 4 5 5 6 7 7 8 8 9 9 11 10 2 12 1 13
REMARK H PARENT 11 11
REMARK Flexibility Score: inf
ROOT
ATOM      1  C   UNL     1      -3.626  11.881   9.322  1.00  0.00     0.059 A 
ATOM      2  C   UNL     1      -3.094  12.162   8.040  1.00  0.00     0.130 A 
ATOM      3  C   UNL     1      -3.116  13.474   7.551  1.00  0.00     0.093 A 
ATOM      4  C   UNL     1      -3.625  14.523   8.321  1.00  0.00     0.122 A 
ATOM      5  C   UNL     1      -4.125  14.250   9.605  1.00  0.00     0.047 A 
ATOM      6  C   UNL     1      -4.125  12.944  10.098  1.00  0.00     0.019 A 
ENDROOT
BRANCH   1   7
ATOM      7  C   UNL     1      -3.707  10.501   9.855  1.00  0.00     0.163 C 
ATOM      8  C   UNL     1      -4.084  10.243  11.281  1.00  0.00     0.093 C 
ATOM      9  O   UNL     1      -3.536   9.519   9.084  1.00  0.00    -0.294 OA
ENDBRANCH   1   7
BRANCH   2  10
ATOM     10  O   UNL     1      -2.512  11.177   7.239  1.00  0.00    -0.507 OA
ATOM     11  H   UNL     1      -1.513  11.087   7.108  1.00  0.00     0.293 HD
ENDBRANCH   2  10
BRANCH   4  12
ATOM     12  O   UNL     1      -3.611  15.817   7.778  1.00  0.00    -0.497 OA
ATOM     13  C   UNL     1      -3.218  16.125   6.444  1.00  0.00     0.278 C 
ENDBRANCH   4  12
TORSDOF 3
ENDMDL
