MODEL 1
REMARK VINA RESULT:    -6.692      0.000      0.000
REMARK INTER + INTRA:          -8.612
REMARK INTER:                  -8.257
REMARK INTRA:                  -0.355
REMARK UNBOUND:                -0.355
REMARK SMILES O=c1c(O)c(-c2cc(O)c(O)c(O)c2)oc2cc(O)cc(O)c12
REMARK SMILES IDX 5 1 3 2 2 3 1 4 23 5 21 6 20 7 18 8 17 9 16 10 15 11 6 12
REMARK SMILES IDX 7 13 8 14 14 15 10 16 12 17 9 18 11 20 13 22 4 24 22 26
REMARK SMILES IDX 19 28
REMARK H PARENT 9 19 11 21 13 23 4 25 22 27 19 29
REMARK Flexibility Score: inf
ROOT
ATOM      1  C   UNL     1      31.795 -35.220  35.736  1.00  0.00     0.180 A 
ATOM      2  C   UNL     1      32.676 -35.177  34.641  1.00  0.00     0.208 A 
ATOM      3  C   UNL     1      32.763 -36.291  33.792  1.00  0.00     0.238 A 
ATOM      4  O   UNL     1      33.593 -36.268  32.846  1.00  0.00    -0.285 OA
ATOM      5  C   UNL     1      31.954 -37.427  34.037  1.00  0.00     0.111 A 
ATOM      6  C   UNL     1      31.930 -38.597  33.218  1.00  0.00     0.134 A 
ATOM      7  C   UNL     1      31.190 -39.712  33.628  1.00  0.00     0.093 A 
ATOM      8  C   UNL     1      30.421 -39.678  34.791  1.00  0.00     0.123 A 
ATOM      9  C   UNL     1      30.391 -38.520  35.569  1.00  0.00     0.094 A 
ATOM     10  C   UNL     1      31.147 -37.403  35.205  1.00  0.00     0.146 A 
ATOM     11  O   UNL     1      31.099 -36.325  35.977  1.00  0.00    -0.452 OA
ENDROOT
BRANCH   1  12
ATOM     12  C   UNL     1      31.632 -34.075  36.661  1.00  0.00     0.029 A 
ATOM     13  C   UNL     1      32.479 -33.959  37.773  1.00  0.00     0.062 A 
ATOM     14  C   UNL     1      32.332 -32.896  38.676  1.00  0.00     0.162 A 
ATOM     15  C   UNL     1      30.607 -33.130  36.481  1.00  0.00     0.062 A 
ATOM     16  C   UNL     1      31.317 -31.945  38.476  1.00  0.00     0.200 A 
ATOM     17  C   UNL     1      30.454 -32.067  37.380  1.00  0.00     0.162 A 
BRANCH  14  18
ATOM     18  O   UNL     1      33.189 -32.784  39.769  1.00  0.00    -0.504 OA
ATOM     19  H   UNL     1      33.890 -32.054  39.823  1.00  0.00     0.293 HD
ENDBRANCH  14  18
BRANCH  16  20
ATOM     20  O   UNL     1      31.152 -30.878  39.359  1.00  0.00    -0.502 OA
ATOM     21  H   UNL     1      30.240 -30.496  39.579  1.00  0.00     0.293 HD
ENDBRANCH  16  20
BRANCH  17  22
ATOM     22  O   UNL     1      29.440 -31.128  37.195  1.00  0.00    -0.504 OA
ATOM     23  H   UNL     1      29.127 -30.529  37.949  1.00  0.00     0.293 HD
ENDBRANCH  17  22
ENDBRANCH   1  12
BRANCH   2  24
ATOM     24  O   UNL     1      33.482 -34.053  34.431  1.00  0.00    -0.502 OA
ATOM     25  H   UNL     1      33.096 -33.133  34.258  1.00  0.00     0.293 HD
ENDBRANCH   2  24
BRANCH   6  26
ATOM     26  O   UNL     1      32.589 -38.702  31.990  1.00  0.00    -0.507 OA
ATOM     27  H   UNL     1      32.235 -38.346  31.115  1.00  0.00     0.293 HD
ENDBRANCH   6  26
BRANCH   8  28
ATOM     28  O   UNL     1      29.684 -40.801  35.161  1.00  0.00    -0.508 OA
ATOM     29  H   UNL     1      28.804 -40.718  35.655  1.00  0.00     0.293 HD
ENDBRANCH   8  28
TORSDOF 7
ENDMDL
MODEL 2
REMARK VINA RESULT:    -6.467      0.173      1.758
REMARK INTER + INTRA:          -8.334
REMARK INTER:                  -7.990
REMARK INTRA:                  -0.344
REMARK UNBOUND:                -0.355
REMARK SMILES O=c1c(O)c(-c2cc(O)c(O)c(O)c2)oc2cc(O)cc(O)c12
REMARK SMILES IDX 5 1 3 2 2 3 1 4 23 5 21 6 20 7 18 8 17 9 16 10 15 11 6 12
REMARK SMILES IDX 7 13 8 14 14 15 10 16 12 17 9 18 11 20 13 22 4 24 22 26
REMARK SMILES IDX 19 28
REMARK H PARENT 9 19 11 21 13 23 4 25 22 27 19 29
REMARK Flexibility Score: inf
ROOT
ATOM      1  C   UNL     1      31.749 -35.187  35.834  1.00  0.00     0.180 A 
ATOM      2  C   UNL     1      32.635 -35.121  34.744  1.00  0.00     0.208 A 
ATOM      3  C   UNL     1      32.689 -36.198  33.844  1.00  0.00     0.238 A 
ATOM      4  O   UNL     1      33.523 -36.157  32.902  1.00  0.00    -0.285 OA
ATOM      5  C   UNL     1      31.846 -37.318  34.035  1.00  0.00     0.111 A 
ATOM      6  C   UNL     1      31.788 -38.447  33.164  1.00  0.00     0.134 A 
ATOM      7  C   UNL     1      31.013 -39.557  33.521  1.00  0.00     0.093 A 
ATOM      8  C   UNL     1      30.242 -39.553  34.683  1.00  0.00     0.123 A 
ATOM      9  C   UNL     1      30.245 -38.431  35.513  1.00  0.00     0.094 A 
ATOM     10  C   UNL     1      31.036 -37.323  35.202  1.00  0.00     0.146 A 
ATOM     11  O   UNL     1      31.019 -36.280  36.022  1.00  0.00    -0.452 OA
ENDROOT
BRANCH   1  12
ATOM     12  C   UNL     1      31.618 -34.081  36.810  1.00  0.00     0.029 A 
ATOM     13  C   UNL     1      30.628 -33.105  36.618  1.00  0.00     0.062 A 
ATOM     14  C   UNL     1      30.496 -32.036  37.516  1.00  0.00     0.162 A 
ATOM     15  C   UNL     1      32.502 -33.955  37.895  1.00  0.00     0.062 A 
ATOM     16  C   UNL     1      31.371 -31.929  38.610  1.00  0.00     0.200 A 
ATOM     17  C   UNL     1      32.375 -32.888  38.795  1.00  0.00     0.162 A 
BRANCH  14  18
ATOM     18  O   UNL     1      29.500 -31.080  37.323  1.00  0.00    -0.504 OA
ATOM     19  H   UNL     1      28.772 -31.204  36.629  1.00  0.00     0.293 HD
ENDBRANCH  14  18
BRANCH  16  20
ATOM     20  O   UNL     1      31.258 -30.877  39.518  1.00  0.00    -0.502 OA
ATOM     21  H   UNL     1      31.652 -30.924  40.451  1.00  0.00     0.293 HD
ENDBRANCH  16  20
BRANCH  17  22
ATOM     22  O   UNL     1      33.250 -32.771  39.875  1.00  0.00    -0.504 OA
ATOM     23  H   UNL     1      33.842 -33.540  40.164  1.00  0.00     0.293 HD
ENDBRANCH  17  22
ENDBRANCH   1  12
BRANCH   2  24
ATOM     24  O   UNL     1      33.475 -34.014  34.586  1.00  0.00    -0.502 OA
ATOM     25  H   UNL     1      33.173 -33.069  34.790  1.00  0.00     0.293 HD
ENDBRANCH   2  24
BRANCH   6  26
ATOM     26  O   UNL     1      32.447 -38.517  31.933  1.00  0.00    -0.507 OA
ATOM     27  H   UNL     1      33.278 -37.997  31.695  1.00  0.00     0.293 HD
ENDBRANCH   6  26
BRANCH   8  28
ATOM     28  O   UNL     1      29.469 -40.668  35.000  1.00  0.00    -0.508 OA
ATOM     29  H   UNL     1      29.201 -41.344  34.295  1.00  0.00     0.293 HD
ENDBRANCH   8  28
TORSDOF 7
ENDMDL
MODEL 3
REMARK VINA RESULT:    -6.467      1.996      3.368
REMARK INTER + INTRA:          -8.333
REMARK INTER:                  -7.970
REMARK INTRA:                  -0.363
REMARK UNBOUND:                -0.355
REMARK SMILES O=c1c(O)c(-c2cc(O)c(O)c(O)c2)oc2cc(O)cc(O)c12
REMARK SMILES IDX 5 1 3 2 2 3 1 4 23 5 21 6 20 7 18 8 17 9 16 10 15 11 6 12
REMARK SMILES IDX 7 13 8 14 14 15 10 16 12 17 9 18 11 20 13 22 4 24 22 26
REMARK SMILES IDX 19 28
REMARK H PARENT 9 19 11 21 13 23 4 25 22 27 19 29
REMARK Flexibility Score: inf
ROOT
ATOM      1  C   UNL     1      32.516 -35.779  35.868  1.00  0.00     0.180 A 
ATOM      2  C   UNL     1      31.386 -36.578  35.622  1.00  0.00     0.208 A 
ATOM      3  C   UNL     1      31.541 -37.781  34.915  1.00  0.00     0.238 A 
ATOM      4  O   UNL     1      30.518 -38.464  34.651  1.00  0.00    -0.285 OA
ATOM      5  C   UNL     1      32.828 -38.179  34.478  1.00  0.00     0.111 A 
ATOM      6  C   UNL     1      33.109 -39.397  33.788  1.00  0.00     0.134 A 
ATOM      7  C   UNL     1      34.396 -39.626  33.288  1.00  0.00     0.093 A 
ATOM      8  C   UNL     1      35.427 -38.715  33.508  1.00  0.00     0.123 A 
ATOM      9  C   UNL     1      35.178 -37.548  34.231  1.00  0.00     0.094 A 
ATOM     10  C   UNL     1      33.896 -37.274  34.712  1.00  0.00     0.146 A 
ATOM     11  O   UNL     1      33.698 -36.148  35.387  1.00  0.00    -0.452 OA
ENDROOT
BRANCH   1  12
ATOM     12  C   UNL     1      32.434 -34.511  36.627  1.00  0.00     0.029 A 
ATOM     13  C   UNL     1      32.358 -33.294  35.932  1.00  0.00     0.062 A 
ATOM     14  C   UNL     1      32.301 -32.078  36.627  1.00  0.00     0.162 A 
ATOM     15  C   UNL     1      32.490 -34.494  38.031  1.00  0.00     0.062 A 
ATOM     16  C   UNL     1      32.336 -32.072  38.032  1.00  0.00     0.200 A 
ATOM     17  C   UNL     1      32.435 -33.282  38.731  1.00  0.00     0.162 A 
BRANCH  14  18
ATOM     18  O   UNL     1      32.211 -30.876  35.926  1.00  0.00    -0.504 OA
ATOM     19  H   UNL     1      32.050 -30.855  34.925  1.00  0.00     0.293 HD
ENDBRANCH  14  18
BRANCH  16  20
ATOM     20  O   UNL     1      32.278 -30.875  38.745  1.00  0.00    -0.502 OA
ATOM     21  H   UNL     1      32.665 -30.783  39.677  1.00  0.00     0.293 HD
ENDBRANCH  16  20
BRANCH  17  22
ATOM     22  O   UNL     1      32.483 -33.270  40.125  1.00  0.00    -0.504 OA
ATOM     23  H   UNL     1      33.359 -33.177  40.624  1.00  0.00     0.293 HD
ENDBRANCH  17  22
ENDBRANCH   1  12
BRANCH   2  24
ATOM     24  O   UNL     1      30.121 -36.155  36.044  1.00  0.00    -0.502 OA
ATOM     25  H   UNL     1      29.541 -35.539  35.488  1.00  0.00     0.293 HD
ENDBRANCH   2  24
BRANCH   6  26
ATOM     26  O   UNL     1      32.173 -40.417  33.595  1.00  0.00    -0.507 OA
ATOM     27  H   UNL     1      31.754 -40.653  32.707  1.00  0.00     0.293 HD
ENDBRANCH   6  26
BRANCH   8  28
ATOM     28  O   UNL     1      36.700 -38.982  33.009  1.00  0.00    -0.508 OA
ATOM     29  H   UNL     1      37.385 -38.247  32.880  1.00  0.00     0.293 HD
ENDBRANCH   8  28
TORSDOF 7
ENDMDL
MODEL 4
REMARK VINA RESULT:    -6.255      4.351      6.423
REMARK INTER + INTRA:          -8.073
REMARK INTER:                  -7.741
REMARK INTRA:                  -0.331
REMARK UNBOUND:                -0.355
REMARK SMILES O=c1c(O)c(-c2cc(O)c(O)c(O)c2)oc2cc(O)cc(O)c12
REMARK SMILES IDX 5 1 3 2 2 3 1 4 23 5 21 6 20 7 18 8 17 9 16 10 15 11 6 12
REMARK SMILES IDX 7 13 8 14 14 15 10 16 12 17 9 18 11 20 13 22 4 24 22 26
REMARK SMILES IDX 19 28
REMARK H PARENT 9 19 11 21 13 23 4 25 22 27 19 29
REMARK Flexibility Score: inf
ROOT
ATOM      1  C   UNL     1      32.212 -38.367  33.578  1.00  0.00     0.180 A 
ATOM      2  C   UNL     1      33.064 -38.020  34.642  1.00  0.00     0.208 A 
ATOM      3  C   UNL     1      34.442 -37.905  34.401  1.00  0.00     0.238 A 
ATOM      4  O   UNL     1      35.205 -37.648  35.368  1.00  0.00    -0.285 OA
ATOM      5  C   UNL     1      34.949 -38.119  33.097  1.00  0.00     0.111 A 
ATOM      6  C   UNL     1      36.323 -37.988  32.730  1.00  0.00     0.134 A 
ATOM      7  C   UNL     1      36.731 -38.352  31.441  1.00  0.00     0.093 A 
ATOM      8  C   UNL     1      35.808 -38.777  30.487  1.00  0.00     0.123 A 
ATOM      9  C   UNL     1      34.455 -38.852  30.816  1.00  0.00     0.094 A 
ATOM     10  C   UNL     1      34.021 -38.531  32.105  1.00  0.00     0.146 A 
ATOM     11  O   UNL     1      32.727 -38.625  32.381  1.00  0.00    -0.452 OA
ENDROOT
BRANCH   1  12
ATOM     12  C   UNL     1      30.746 -38.484  33.749  1.00  0.00     0.029 A 
ATOM     13  C   UNL     1      30.204 -39.668  34.272  1.00  0.00     0.062 A 
ATOM     14  C   UNL     1      28.818 -39.812  34.425  1.00  0.00     0.162 A 
ATOM     15  C   UNL     1      29.878 -37.455  33.344  1.00  0.00     0.062 A 
ATOM     16  C   UNL     1      27.959 -38.770  34.036  1.00  0.00     0.200 A 
ATOM     17  C   UNL     1      28.492 -37.594  33.493  1.00  0.00     0.162 A 
BRANCH  14  18
ATOM     18  O   UNL     1      28.292 -40.987  34.959  1.00  0.00    -0.504 OA
ATOM     19  H   UNL     1      27.293 -41.159  34.986  1.00  0.00     0.293 HD
ENDBRANCH  14  18
BRANCH  16  20
ATOM     20  O   UNL     1      26.577 -38.889  34.180  1.00  0.00    -0.502 OA
ATOM     21  H   UNL     1      26.084 -39.747  33.961  1.00  0.00     0.293 HD
ENDBRANCH  16  20
BRANCH  17  22
ATOM     22  O   UNL     1      27.635 -36.568  33.097  1.00  0.00    -0.504 OA
ATOM     23  H   UNL     1      26.652 -36.737  32.918  1.00  0.00     0.293 HD
ENDBRANCH  17  22
ENDBRANCH   1  12
BRANCH   2  24
ATOM     24  O   UNL     1      32.544 -37.835  35.927  1.00  0.00    -0.502 OA
ATOM     25  H   UNL     1      33.066 -37.377  36.664  1.00  0.00     0.293 HD
ENDBRANCH   2  24
BRANCH   6  26
ATOM     26  O   UNL     1      37.313 -37.485  33.580  1.00  0.00    -0.507 OA
ATOM     27  H   UNL     1      38.251 -37.251  33.294  1.00  0.00     0.293 HD
ENDBRANCH   6  26
BRANCH   8  28
ATOM     28  O   UNL     1      36.247 -39.116  29.209  1.00  0.00    -0.508 OA
ATOM     29  H   UNL     1      36.307 -40.081  28.907  1.00  0.00     0.293 HD
ENDBRANCH   8  28
TORSDOF 7
ENDMDL
MODEL 5
REMARK VINA RESULT:    -6.238      1.424      2.807
REMARK INTER + INTRA:          -8.051
REMARK INTER:                  -8.087
REMARK INTRA:                   0.035
REMARK UNBOUND:                -0.355
REMARK SMILES O=c1c(O)c(-c2cc(O)c(O)c(O)c2)oc2cc(O)cc(O)c12
REMARK SMILES IDX 5 1 3 2 2 3 1 4 23 5 21 6 20 7 18 8 17 9 16 10 15 11 6 12
REMARK SMILES IDX 7 13 8 14 14 15 10 16 12 17 9 18 11 20 13 22 4 24 22 26
REMARK SMILES IDX 19 28
REMARK H PARENT 9 19 11 21 13 23 4 25 22 27 19 29
REMARK Flexibility Score: inf
ROOT
ATOM      1  C   UNL     1      30.789 -35.778  36.484  1.00  0.00     0.180 A 
ATOM      2  C   UNL     1      29.504 -36.347  36.513  1.00  0.00     0.208 A 
ATOM      3  C   UNL     1      29.290 -37.582  35.880  1.00  0.00     0.238 A 
ATOM      4  O   UNL     1      28.126 -38.059  35.862  1.00  0.00    -0.285 OA
ATOM      5  C   UNL     1      30.368 -38.240  35.240  1.00  0.00     0.111 A 
ATOM      6  C   UNL     1      30.275 -39.514  34.601  1.00  0.00     0.134 A 
ATOM      7  C   UNL     1      31.372 -40.009  33.887  1.00  0.00     0.093 A 
ATOM      8  C   UNL     1      32.578 -39.311  33.844  1.00  0.00     0.123 A 
ATOM      9  C   UNL     1      32.699 -38.093  34.513  1.00  0.00     0.094 A 
ATOM     10  C   UNL     1      31.611 -37.555  35.204  1.00  0.00     0.146 A 
ATOM     11  O   UNL     1      31.763 -36.389  35.819  1.00  0.00    -0.452 OA
ENDROOT
BRANCH   1  12
ATOM     12  C   UNL     1      31.096 -34.492  37.151  1.00  0.00     0.029 A 
ATOM     13  C   UNL     1      32.210 -34.403  37.999  1.00  0.00     0.062 A 
ATOM     14  C   UNL     1      32.512 -33.204  38.659  1.00  0.00     0.162 A 
ATOM     15  C   UNL     1      30.263 -33.371  36.997  1.00  0.00     0.062 A 
ATOM     16  C   UNL     1      31.684 -32.082  38.483  1.00  0.00     0.200 A 
ATOM     17  C   UNL     1      30.558 -32.170  37.655  1.00  0.00     0.162 A 
BRANCH  14  18
ATOM     18  O   UNL     1      33.629 -33.124  39.488  1.00  0.00    -0.504 OA
ATOM     19  H   UNL     1      34.031 -33.948  39.921  1.00  0.00     0.293 HD
ENDBRANCH  14  18
BRANCH  16  20
ATOM     20  O   UNL     1      31.965 -30.877  39.127  1.00  0.00    -0.502 OA
ATOM     21  H   UNL     1      31.250 -30.180  39.302  1.00  0.00     0.293 HD
ENDBRANCH  16  20
BRANCH  17  22
ATOM     22  O   UNL     1      29.732 -31.058  37.494  1.00  0.00    -0.504 OA
ATOM     23  H   UNL     1      30.023 -30.256  36.947  1.00  0.00     0.293 HD
ENDBRANCH  17  22
ENDBRANCH   1  12
BRANCH   2  24
ATOM     24  O   UNL     1      28.449 -35.669  37.132  1.00  0.00    -0.502 OA
ATOM     25  H   UNL     1      28.549 -35.212  38.030  1.00  0.00     0.293 HD
ENDBRANCH   2  24
BRANCH   6  26
ATOM     26  O   UNL     1      29.146 -40.336  34.661  1.00  0.00    -0.507 OA
ATOM     27  H   UNL     1      28.195 -40.015  34.557  1.00  0.00     0.293 HD
ENDBRANCH   6  26
BRANCH   8  28
ATOM     28  O   UNL     1      33.655 -39.842  33.137  1.00  0.00    -0.508 OA
ATOM     29  H   UNL     1      33.894 -40.825  33.193  1.00  0.00     0.293 HD
ENDBRANCH   8  28
TORSDOF 7
ENDMDL
MODEL 6
REMARK VINA RESULT:    -6.203      3.640      6.415
REMARK INTER + INTRA:          -8.009
REMARK INTER:                  -7.680
REMARK INTRA:                  -0.329
REMARK UNBOUND:                -0.355
REMARK SMILES O=c1c(O)c(-c2cc(O)c(O)c(O)c2)oc2cc(O)cc(O)c12
REMARK SMILES IDX 5 1 3 2 2 3 1 4 23 5 21 6 20 7 18 8 17 9 16 10 15 11 6 12
REMARK SMILES IDX 7 13 8 14 14 15 10 16 12 17 9 18 11 20 13 22 4 24 22 26
REMARK SMILES IDX 19 28
REMARK H PARENT 9 19 11 21 13 23 4 25 22 27 19 29
REMARK Flexibility Score: inf
ROOT
ATOM      1  C   UNL     1      33.500 -39.125  33.055  1.00  0.00     0.180 A 
ATOM      2  C   UNL     1      33.566 -38.498  31.798  1.00  0.00     0.208 A 
ATOM      3  C   UNL     1      34.641 -38.792  30.945  1.00  0.00     0.238 A 
ATOM      4  O   UNL     1      34.723 -38.186  29.845  1.00  0.00    -0.285 OA
ATOM      5  C   UNL     1      35.627 -39.723  31.350  1.00  0.00     0.111 A 
ATOM      6  C   UNL     1      36.738 -40.127  30.550  1.00  0.00     0.134 A 
ATOM      7  C   UNL     1      37.723 -40.954  31.103  1.00  0.00     0.093 A 
ATOM      8  C   UNL     1      37.605 -41.445  32.402  1.00  0.00     0.123 A 
ATOM      9  C   UNL     1      36.494 -41.104  33.174  1.00  0.00     0.094 A 
ATOM     10  C   UNL     1      35.512 -40.251  32.663  1.00  0.00     0.146 A 
ATOM     11  O   UNL     1      34.476 -39.943  33.432  1.00  0.00    -0.452 OA
ENDROOT
BRANCH   1  12
ATOM     12  C   UNL     1      32.385 -38.884  33.998  1.00  0.00     0.029 A 
ATOM     13  C   UNL     1      31.307 -39.782  34.038  1.00  0.00     0.062 A 
ATOM     14  C   UNL     1      30.229 -39.566  34.907  1.00  0.00     0.162 A 
ATOM     15  C   UNL     1      32.353 -37.742  34.817  1.00  0.00     0.062 A 
ATOM     16  C   UNL     1      30.216 -38.432  35.737  1.00  0.00     0.200 A 
ATOM     17  C   UNL     1      31.278 -37.520  35.687  1.00  0.00     0.162 A 
BRANCH  14  18
ATOM     18  O   UNL     1      29.171 -40.473  34.947  1.00  0.00    -0.504 OA
ATOM     19  H   UNL     1      28.211 -40.177  34.812  1.00  0.00     0.293 HD
ENDBRANCH  14  18
BRANCH  16  20
ATOM     20  O   UNL     1      29.155 -38.197  36.612  1.00  0.00    -0.502 OA
ATOM     21  H   UNL     1      28.196 -38.137  36.292  1.00  0.00     0.293 HD
ENDBRANCH  16  20
BRANCH  17  22
ATOM     22  O   UNL     1      31.253 -36.390  36.503  1.00  0.00    -0.504 OA
ATOM     23  H   UNL     1      31.064 -35.468  36.127  1.00  0.00     0.293 HD
ENDBRANCH  17  22
ENDBRANCH   1  12
BRANCH   2  24
ATOM     24  O   UNL     1      32.592 -37.565  31.427  1.00  0.00    -0.502 OA
ATOM     25  H   UNL     1      32.722 -36.567  31.545  1.00  0.00     0.293 HD
ENDBRANCH   2  24
BRANCH   6  26
ATOM     26  O   UNL     1      36.905 -39.768  29.209  1.00  0.00    -0.507 OA
ATOM     27  H   UNL     1      36.197 -39.331  28.638  1.00  0.00     0.293 HD
ENDBRANCH   6  26
BRANCH   8  28
ATOM     28  O   UNL     1      38.596 -42.279  32.915  1.00  0.00    -0.508 OA
ATOM     29  H   UNL     1      39.228 -41.967  33.642  1.00  0.00     0.293 HD
ENDBRANCH   8  28
TORSDOF 7
ENDMDL
MODEL 7
REMARK VINA RESULT:    -6.173      1.913      7.103
REMARK INTER + INTRA:          -7.971
REMARK INTER:                  -7.757
REMARK INTRA:                  -0.214
REMARK UNBOUND:                -0.355
REMARK SMILES O=c1c(O)c(-c2cc(O)c(O)c(O)c2)oc2cc(O)cc(O)c12
REMARK SMILES IDX 5 1 3 2 2 3 1 4 23 5 21 6 20 7 18 8 17 9 16 10 15 11 6 12
REMARK SMILES IDX 7 13 8 14 14 15 10 16 12 17 9 18 11 20 13 22 4 24 22 26
REMARK SMILES IDX 19 28
REMARK H PARENT 9 19 11 21 13 23 4 25 22 27 19 29
REMARK Flexibility Score: inf
ROOT
ATOM      1  C   UNL     1      32.630 -35.680  35.111  1.00  0.00     0.180 A 
ATOM      2  C   UNL     1      31.973 -34.773  34.262  1.00  0.00     0.208 A 
ATOM      3  C   UNL     1      31.549 -33.539  34.780  1.00  0.00     0.238 A 
ATOM      4  O   UNL     1      30.913 -32.754  34.029  1.00  0.00    -0.285 OA
ATOM      5  C   UNL     1      31.804 -33.220  36.135  1.00  0.00     0.111 A 
ATOM      6  C   UNL     1      31.456 -31.982  36.756  1.00  0.00     0.134 A 
ATOM      7  C   UNL     1      31.638 -31.826  38.135  1.00  0.00     0.093 A 
ATOM      8  C   UNL     1      32.216 -32.835  38.904  1.00  0.00     0.123 A 
ATOM      9  C   UNL     1      32.614 -34.027  38.298  1.00  0.00     0.094 A 
ATOM     10  C   UNL     1      32.413 -34.227  36.930  1.00  0.00     0.146 A 
ATOM     11  O   UNL     1      32.796 -35.378  36.394  1.00  0.00    -0.452 OA
ENDROOT
BRANCH   1  12
ATOM     12  C   UNL     1      33.128 -36.990  34.631  1.00  0.00     0.029 A 
ATOM     13  C   UNL     1      32.209 -37.988  34.271  1.00  0.00     0.062 A 
ATOM     14  C   UNL     1      32.653 -39.243  33.833  1.00  0.00     0.162 A 
ATOM     15  C   UNL     1      34.502 -37.277  34.582  1.00  0.00     0.062 A 
ATOM     16  C   UNL     1      34.030 -39.514  33.768  1.00  0.00     0.200 A 
ATOM     17  C   UNL     1      34.952 -38.530  34.147  1.00  0.00     0.162 A 
BRANCH  14  18
ATOM     18  O   UNL     1      31.731 -40.221  33.465  1.00  0.00    -0.504 OA
ATOM     19  H   UNL     1      30.992 -40.519  34.093  1.00  0.00     0.293 HD
ENDBRANCH  14  18
BRANCH  16  20
ATOM     20  O   UNL     1      34.496 -40.755  33.334  1.00  0.00    -0.502 OA
ATOM     21  H   UNL     1      34.031 -41.621  33.578  1.00  0.00     0.293 HD
ENDBRANCH  16  20
BRANCH  17  22
ATOM     22  O   UNL     1      36.318 -38.809  34.093  1.00  0.00    -0.504 OA
ATOM     23  H   UNL     1      36.941 -38.552  34.848  1.00  0.00     0.293 HD
ENDBRANCH  17  22
ENDBRANCH   1  12
BRANCH   2  24
ATOM     24  O   UNL     1      31.712 -35.118  32.932  1.00  0.00    -0.502 OA
ATOM     25  H   UNL     1      32.449 -35.257  32.252  1.00  0.00     0.293 HD
ENDBRANCH   2  24
BRANCH   6  26
ATOM     26  O   UNL     1      30.958 -30.875  36.063  1.00  0.00    -0.507 OA
ATOM     27  H   UNL     1      30.076 -30.424  36.257  1.00  0.00     0.293 HD
ENDBRANCH   6  26
BRANCH   8  28
ATOM     28  O   UNL     1      32.397 -32.639  40.272  1.00  0.00    -0.508 OA
ATOM     29  H   UNL     1      31.938 -33.227  40.957  1.00  0.00     0.293 HD
ENDBRANCH   8  28
TORSDOF 7
ENDMDL
MODEL 8
REMARK VINA RESULT:    -6.079      1.799      6.620
REMARK INTER + INTRA:          -7.856
REMARK INTER:                  -7.650
REMARK INTRA:                  -0.206
REMARK UNBOUND:                -0.355
REMARK SMILES O=c1c(O)c(-c2cc(O)c(O)c(O)c2)oc2cc(O)cc(O)c12
REMARK SMILES IDX 5 1 3 2 2 3 1 4 23 5 21 6 20 7 18 8 17 9 16 10 15 11 6 12
REMARK SMILES IDX 7 13 8 14 14 15 10 16 12 17 9 18 11 20 13 22 4 24 22 26
REMARK SMILES IDX 19 28
REMARK H PARENT 9 19 11 21 13 23 4 25 22 27 19 29
REMARK Flexibility Score: inf
ROOT
ATOM      1  C   UNL     1      30.840 -36.163  34.842  1.00  0.00     0.180 A 
ATOM      2  C   UNL     1      32.011 -36.004  34.080  1.00  0.00     0.208 A 
ATOM      3  C   UNL     1      32.794 -34.853  34.266  1.00  0.00     0.238 A 
ATOM      4  O   UNL     1      33.811 -34.691  33.543  1.00  0.00    -0.285 OA
ATOM      5  C   UNL     1      32.406 -33.885  35.223  1.00  0.00     0.111 A 
ATOM      6  C   UNL     1      33.146 -32.701  35.523  1.00  0.00     0.134 A 
ATOM      7  C   UNL     1      32.601 -31.749  36.393  1.00  0.00     0.093 A 
ATOM      8  C   UNL     1      31.377 -31.967  37.025  1.00  0.00     0.123 A 
ATOM      9  C   UNL     1      30.674 -33.147  36.784  1.00  0.00     0.094 A 
ATOM     10  C   UNL     1      31.174 -34.100  35.893  1.00  0.00     0.146 A 
ATOM     11  O   UNL     1      30.469 -35.205  35.684  1.00  0.00    -0.452 OA
ENDROOT
BRANCH   1  12
ATOM     12  C   UNL     1      29.977 -37.360  34.719  1.00  0.00     0.029 A 
ATOM     13  C   UNL     1      30.479 -38.614  35.098  1.00  0.00     0.062 A 
ATOM     14  C   UNL     1      29.690 -39.766  34.973  1.00  0.00     0.162 A 
ATOM     15  C   UNL     1      28.684 -37.276  34.177  1.00  0.00     0.062 A 
ATOM     16  C   UNL     1      28.390 -39.670  34.449  1.00  0.00     0.200 A 
ATOM     17  C   UNL     1      27.891 -38.424  34.048  1.00  0.00     0.162 A 
BRANCH  14  18
ATOM     18  O   UNL     1      30.194 -41.005  35.366  1.00  0.00    -0.504 OA
ATOM     19  H   UNL     1      29.712 -41.870  35.147  1.00  0.00     0.293 HD
ENDBRANCH  14  18
BRANCH  16  20
ATOM     20  O   UNL     1      27.585 -40.802  34.316  1.00  0.00    -0.502 OA
ATOM     21  H   UNL     1      26.618 -40.744  34.021  1.00  0.00     0.293 HD
ENDBRANCH  16  20
BRANCH  17  22
ATOM     22  O   UNL     1      26.605 -38.336  33.515  1.00  0.00    -0.504 OA
ATOM     23  H   UNL     1      25.955 -37.621  33.816  1.00  0.00     0.293 HD
ENDBRANCH  17  22
ENDBRANCH   1  12
BRANCH   2  24
ATOM     24  O   UNL     1      32.364 -36.962  33.125  1.00  0.00    -0.502 OA
ATOM     25  H   UNL     1      33.260 -37.434  33.133  1.00  0.00     0.293 HD
ENDBRANCH   2  24
BRANCH   6  26
ATOM     26  O   UNL     1      34.420 -32.428  35.018  1.00  0.00    -0.507 OA
ATOM     27  H   UNL     1      34.726 -32.645  34.082  1.00  0.00     0.293 HD
ENDBRANCH   6  26
BRANCH   8  28
ATOM     28  O   UNL     1      30.872 -31.005  37.897  1.00  0.00    -0.508 OA
ATOM     29  H   UNL     1      30.923 -31.122  38.902  1.00  0.00     0.293 HD
ENDBRANCH   8  28
TORSDOF 7
ENDMDL
MODEL 9
REMARK VINA RESULT:    -5.990      2.392      7.240
REMARK INTER + INTRA:          -7.746
REMARK INTER:                  -7.471
REMARK INTRA:                  -0.275
REMARK UNBOUND:                -0.355
REMARK SMILES O=c1c(O)c(-c2cc(O)c(O)c(O)c2)oc2cc(O)cc(O)c12
REMARK SMILES IDX 5 1 3 2 2 3 1 4 23 5 21 6 20 7 18 8 17 9 16 10 15 11 6 12
REMARK SMILES IDX 7 13 8 14 14 15 10 16 12 17 9 18 11 20 13 22 4 24 22 26
REMARK SMILES IDX 19 28
REMARK H PARENT 9 19 11 21 13 23 4 25 22 27 19 29
REMARK Flexibility Score: inf
ROOT
ATOM      1  C   UNL     1      32.842 -36.831  35.169  1.00  0.00     0.180 A 
ATOM      2  C   UNL     1      31.681 -37.361  35.760  1.00  0.00     0.208 A 
ATOM      3  C   UNL     1      30.911 -36.543  36.602  1.00  0.00     0.238 A 
ATOM      4  O   UNL     1      29.904 -37.040  37.171  1.00  0.00    -0.285 OA
ATOM      5  C   UNL     1      31.300 -35.202  36.829  1.00  0.00     0.111 A 
ATOM      6  C   UNL     1      30.572 -34.271  37.631  1.00  0.00     0.134 A 
ATOM      7  C   UNL     1      31.119 -33.009  37.893  1.00  0.00     0.093 A 
ATOM      8  C   UNL     1      32.333 -32.619  37.328  1.00  0.00     0.123 A 
ATOM      9  C   UNL     1      33.025 -33.499  36.495  1.00  0.00     0.094 A 
ATOM     10  C   UNL     1      32.523 -34.778  36.244  1.00  0.00     0.146 A 
ATOM     11  O   UNL     1      33.216 -35.589  35.454  1.00  0.00    -0.452 OA
ENDROOT
BRANCH   1  12
ATOM     12  C   UNL     1      33.691 -37.624  34.251  1.00  0.00     0.029 A 
ATOM     13  C   UNL     1      34.989 -37.982  34.648  1.00  0.00     0.062 A 
ATOM     14  C   UNL     1      35.821 -38.715  33.789  1.00  0.00     0.162 A 
ATOM     15  C   UNL     1      33.247 -37.977  32.966  1.00  0.00     0.062 A 
ATOM     16  C   UNL     1      35.360 -39.082  32.513  1.00  0.00     0.200 A 
ATOM     17  C   UNL     1      34.074 -38.708  32.103  1.00  0.00     0.162 A 
BRANCH  14  18
ATOM     18  O   UNL     1      37.103 -39.077  34.200  1.00  0.00    -0.504 OA
ATOM     19  H   UNL     1      37.904 -38.984  33.586  1.00  0.00     0.293 HD
ENDBRANCH  14  18
BRANCH  16  20
ATOM     20  O   UNL     1      36.169 -39.812  31.643  1.00  0.00    -0.502 OA
ATOM     21  H   UNL     1      36.028 -39.801  30.639  1.00  0.00     0.293 HD
ENDBRANCH  16  20
BRANCH  17  22
ATOM     22  O   UNL     1      33.627 -39.062  30.831  1.00  0.00    -0.504 OA
ATOM     23  H   UNL     1      33.950 -39.905  30.371  1.00  0.00     0.293 HD
ENDBRANCH  17  22
ENDBRANCH   1  12
BRANCH   2  24
ATOM     24  O   UNL     1      31.328 -38.696  35.540  1.00  0.00    -0.502 OA
ATOM     25  H   UNL     1      30.874 -39.262  36.247  1.00  0.00     0.293 HD
ENDBRANCH   2  24
BRANCH   6  26
ATOM     26  O   UNL     1      29.307 -34.526  38.168  1.00  0.00    -0.507 OA
ATOM     27  H   UNL     1      28.722 -35.308  37.915  1.00  0.00     0.293 HD
ENDBRANCH   6  26
BRANCH   8  28
ATOM     28  O   UNL     1      32.840 -31.350  37.597  1.00  0.00    -0.508 OA
ATOM     29  H   UNL     1      32.389 -30.514  37.246  1.00  0.00     0.293 HD
ENDBRANCH   8  28
TORSDOF 7
ENDMDL
