MODEL 1
REMARK VINA RESULT:    -4.508      0.000      0.000
REMARK INTER + INTRA:          -4.639
REMARK INTER:                  -4.639
REMARK INTRA:                   0.000
REMARK UNBOUND:                 0.000
REMARK SMILES Oc1ccc2[nH]ccc2c1
REMARK SMILES IDX 3 1 4 2 5 3 9 4 8 5 7 6 6 7 10 8 2 9 1 11
REMARK H PARENT 6 10 1 12
REMARK Flexibility Score: inf
ROOT
ATOM      1  C   UNL     1      26.849  38.368  18.971  1.00  0.00     0.048 A 
ATOM      2  C   UNL     1      26.127  38.692  20.134  1.00  0.00     0.030 A 
ATOM      3  C   UNL     1      26.207  40.001  20.607  1.00  0.00     0.046 A 
ATOM      4  C   UNL     1      26.959  40.951  19.969  1.00  0.00     0.003 A 
ATOM      5  C   UNL     1      26.828  42.125  20.679  1.00  0.00     0.028 A 
ATOM      6  C   UNL     1      25.980  41.816  21.738  1.00  0.00     0.083 A 
ATOM      7  N   UNL     1      25.603  40.517  21.689  1.00  0.00    -0.361 N 
ATOM      8  C   UNL     1      27.686  40.664  18.815  1.00  0.00     0.056 A 
ATOM      9  C   UNL     1      27.627  39.347  18.311  1.00  0.00     0.116 A 
ATOM     10  H   UNL     1      24.972  40.023  22.358  1.00  0.00     0.166 HD
ENDROOT
BRANCH   9  11
ATOM     11  O   UNL     1      28.332  39.001  17.161  1.00  0.00    -0.508 OA
ATOM     12  H   UNL     1      28.293  39.571  16.325  1.00  0.00     0.293 HD
ENDBRANCH   9  11
TORSDOF 1
ENDMDL
MODEL 2
REMARK VINA RESULT:    -4.454      6.112      7.392
REMARK INTER + INTRA:          -4.584
REMARK INTER:                  -4.584
REMARK INTRA:                   0.000
REMARK UNBOUND:                 0.000
REMARK SMILES Oc1ccc2[nH]ccc2c1
REMARK SMILES IDX 3 1 4 2 5 3 9 4 8 5 7 6 6 7 10 8 2 9 1 11
REMARK H PARENT 6 10 1 12
REMARK Flexibility Score: inf
ROOT
ATOM      1  C   UNL     1      28.039  35.628  20.852  1.00  0.00     0.048 A 
ATOM      2  C   UNL     1      28.539  34.332  20.631  1.00  0.00     0.030 A 
ATOM      3  C   UNL     1      28.648  33.480  21.729  1.00  0.00     0.046 A 
ATOM      4  C   UNL     1      28.283  33.879  22.988  1.00  0.00     0.003 A 
ATOM      5  C   UNL     1      28.510  32.818  23.837  1.00  0.00     0.028 A 
ATOM      6  C   UNL     1      29.014  31.805  23.027  1.00  0.00     0.083 A 
ATOM      7  N   UNL     1      29.096  32.214  21.740  1.00  0.00    -0.361 N 
ATOM      8  C   UNL     1      27.784  35.154  23.241  1.00  0.00     0.056 A 
ATOM      9  C   UNL     1      27.662  36.042  22.151  1.00  0.00     0.116 A 
ATOM     10  H   UNL     1      29.438  31.657  20.926  1.00  0.00     0.166 HD
ENDROOT
BRANCH   9  11
ATOM     11  O   UNL     1      27.169  37.331  22.344  1.00  0.00    -0.508 OA
ATOM     12  H   UNL     1      26.333  37.501  22.888  1.00  0.00     0.293 HD
ENDBRANCH   9  11
TORSDOF 1
ENDMDL
MODEL 3
REMARK VINA RESULT:    -4.325      5.127      6.063
REMARK INTER + INTRA:          -4.452
REMARK INTER:                  -4.452
REMARK INTRA:                   0.000
REMARK UNBOUND:                 0.000
REMARK SMILES Oc1ccc2[nH]ccc2c1
REMARK SMILES IDX 3 1 4 2 5 3 9 4 8 5 7 6 6 7 10 8 2 9 1 11
REMARK H PARENT 6 10 1 12
REMARK Flexibility Score: inf
ROOT
ATOM      1  C   UNL     1      28.400  33.575  23.295  1.00  0.00     0.048 A 
ATOM      2  C   UNL     1      27.925  34.854  23.642  1.00  0.00     0.030 A 
ATOM      3  C   UNL     1      27.719  35.773  22.614  1.00  0.00     0.046 A 
ATOM      4  C   UNL     1      27.966  35.455  21.305  1.00  0.00     0.003 A 
ATOM      5  C   UNL     1      27.666  36.566  20.548  1.00  0.00     0.028 A 
ATOM      6  C   UNL     1      27.242  37.525  21.462  1.00  0.00     0.083 A 
ATOM      7  N   UNL     1      27.276  37.035  22.724  1.00  0.00    -0.361 N 
ATOM      8  C   UNL     1      28.436  34.199  20.928  1.00  0.00     0.056 A 
ATOM      9  C   UNL     1      28.655  33.245  21.944  1.00  0.00     0.116 A 
ATOM     10  H   UNL     1      27.011  37.539  23.599  1.00  0.00     0.166 HD
ENDROOT
BRANCH   9  11
ATOM     11  O   UNL     1      29.124  31.972  21.627  1.00  0.00    -0.508 OA
ATOM     12  H   UNL     1      30.097  31.809  21.397  1.00  0.00     0.293 HD
ENDBRANCH   9  11
TORSDOF 1
ENDMDL
MODEL 4
REMARK VINA RESULT:    -4.256      2.612      4.074
REMARK INTER + INTRA:          -4.380
REMARK INTER:                  -4.380
REMARK INTRA:                   0.000
REMARK UNBOUND:                 0.000
REMARK SMILES Oc1ccc2[nH]ccc2c1
REMARK SMILES IDX 3 1 4 2 5 3 9 4 8 5 7 6 6 7 10 8 2 9 1 11
REMARK H PARENT 6 10 1 12
REMARK Flexibility Score: inf
ROOT
ATOM      1  C   UNL     1      27.021  42.195  20.418  1.00  0.00     0.048 A 
ATOM      2  C   UNL     1      27.580  41.772  19.198  1.00  0.00     0.030 A 
ATOM      3  C   UNL     1      27.492  40.418  18.876  1.00  0.00     0.046 A 
ATOM      4  C   UNL     1      26.883  39.519  19.710  1.00  0.00     0.003 A 
ATOM      5  C   UNL     1      26.964  38.281  19.110  1.00  0.00     0.028 A 
ATOM      6  C   UNL     1      27.634  38.502  17.911  1.00  0.00     0.083 A 
ATOM      7  N   UNL     1      27.954  39.809  17.772  1.00  0.00    -0.361 N 
ATOM      8  C   UNL     1      26.320  39.904  20.925  1.00  0.00     0.056 A 
ATOM      9  C   UNL     1      26.392  41.267  21.281  1.00  0.00     0.116 A 
ATOM     10  H   UNL     1      28.458  40.250  16.971  1.00  0.00     0.166 HD
ENDROOT
BRANCH   9  11
ATOM     11  O   UNL     1      25.847  41.711  22.483  1.00  0.00    -0.508 OA
ATOM     12  H   UNL     1      24.881  41.527  22.726  1.00  0.00     0.293 HD
ENDBRANCH   9  11
TORSDOF 1
ENDMDL
MODEL 5
REMARK VINA RESULT:    -4.159      6.066      7.305
REMARK INTER + INTRA:          -4.281
REMARK INTER:                  -4.281
REMARK INTRA:                   0.000
REMARK UNBOUND:                 0.000
REMARK SMILES Oc1ccc2[nH]ccc2c1
REMARK SMILES IDX 3 1 4 2 5 3 9 4 8 5 7 6 6 7 10 8 2 9 1 11
REMARK H PARENT 6 10 1 12
REMARK Flexibility Score: inf
ROOT
ATOM      1  C   UNL     1      27.925  34.057  24.094  1.00  0.00     0.048 A 
ATOM      2  C   UNL     1      28.466  33.145  23.168  1.00  0.00     0.030 A 
ATOM      3  C   UNL     1      28.632  33.575  21.853  1.00  0.00     0.046 A 
ATOM      4  C   UNL     1      28.286  34.841  21.460  1.00  0.00     0.003 A 
ATOM      5  C   UNL     1      28.572  34.947  20.116  1.00  0.00     0.028 A 
ATOM      6  C   UNL     1      29.090  33.707  19.756  1.00  0.00     0.083 A 
ATOM      7  N   UNL     1      29.125  32.872  20.820  1.00  0.00    -0.361 N 
ATOM      8  C   UNL     1      27.750  35.768  22.351  1.00  0.00     0.056 A 
ATOM      9  C   UNL     1      27.568  35.365  23.691  1.00  0.00     0.116 A 
ATOM     10  H   UNL     1      29.465  31.885  20.831  1.00  0.00     0.166 HD
ENDROOT
BRANCH   9  11
ATOM     11  O   UNL     1      27.035  36.249  24.626  1.00  0.00    -0.508 OA
ATOM     12  H   UNL     1      27.448  37.159  24.789  1.00  0.00     0.293 HD
ENDBRANCH   9  11
TORSDOF 1
ENDMDL
MODEL 6
REMARK VINA RESULT:    -4.050      1.985      3.305
REMARK INTER + INTRA:          -4.168
REMARK INTER:                  -4.168
REMARK INTRA:                   0.000
REMARK UNBOUND:                 0.000
REMARK SMILES Oc1ccc2[nH]ccc2c1
REMARK SMILES IDX 3 1 4 2 5 3 9 4 8 5 7 6 6 7 10 8 2 9 1 11
REMARK H PARENT 6 10 1 12
REMARK Flexibility Score: inf
ROOT
ATOM      1  C   UNL     1      26.898  43.645  20.393  1.00  0.00     0.048 A 
ATOM      2  C   UNL     1      26.249  42.728  21.241  1.00  0.00     0.030 A 
ATOM      3  C   UNL     1      26.303  41.377  20.902  1.00  0.00     0.046 A 
ATOM      4  C   UNL     1      26.963  40.942  19.784  1.00  0.00     0.003 A 
ATOM      5  C   UNL     1      26.831  39.571  19.735  1.00  0.00     0.028 A 
ATOM      6  C   UNL     1      26.077  39.239  20.856  1.00  0.00     0.083 A 
ATOM      7  N   UNL     1      25.758  40.346  21.567  1.00  0.00    -0.361 N 
ATOM      8  C   UNL     1      27.615  41.822  18.924  1.00  0.00     0.056 A 
ATOM      9  C   UNL     1      27.580  43.197  19.237  1.00  0.00     0.116 A 
ATOM     10  H   UNL     1      25.201  40.385  22.449  1.00  0.00     0.166 HD
ENDROOT
BRANCH   9  11
ATOM     11  O   UNL     1      28.214  44.125  18.414  1.00  0.00    -0.508 OA
ATOM     12  H   UNL     1      27.687  44.805  17.879  1.00  0.00     0.293 HD
ENDBRANCH   9  11
TORSDOF 1
ENDMDL
MODEL 7
REMARK VINA RESULT:    -4.041      9.595     10.657
REMARK INTER + INTRA:          -4.159
REMARK INTER:                  -4.159
REMARK INTRA:                   0.000
REMARK UNBOUND:                 0.000
REMARK SMILES Oc1ccc2[nH]ccc2c1
REMARK SMILES IDX 3 1 4 2 5 3 9 4 8 5 7 6 6 7 10 8 2 9 1 11
REMARK H PARENT 6 10 1 12
REMARK Flexibility Score: inf
ROOT
ATOM      1  C   UNL     1      28.925  28.944  23.890  1.00  0.00     0.048 A 
ATOM      2  C   UNL     1      29.125  29.685  22.710  1.00  0.00     0.030 A 
ATOM      3  C   UNL     1      28.971  31.068  22.776  1.00  0.00     0.046 A 
ATOM      4  C   UNL     1      28.637  31.700  23.944  1.00  0.00     0.003 A 
ATOM      5  C   UNL     1      28.563  33.050  23.676  1.00  0.00     0.028 A 
ATOM      6  C   UNL     1      28.865  33.168  22.323  1.00  0.00     0.083 A 
ATOM      7  N   UNL     1      29.114  31.954  21.777  1.00  0.00    -0.361 N 
ATOM      8  C   UNL     1      28.432  30.998  25.129  1.00  0.00     0.056 A 
ATOM      9  C   UNL     1      28.580  29.595  25.098  1.00  0.00     0.116 A 
ATOM     10  H   UNL     1      29.364  31.753  20.784  1.00  0.00     0.166 HD
ENDROOT
BRANCH   9  11
ATOM     11  O   UNL     1      28.388  28.839  26.252  1.00  0.00    -0.508 OA
ATOM     12  H   UNL     1      29.155  28.354  26.701  1.00  0.00     0.293 HD
ENDBRANCH   9  11
TORSDOF 1
ENDMDL
MODEL 8
REMARK VINA RESULT:    -3.865      2.267      3.446
REMARK INTER + INTRA:          -3.978
REMARK INTER:                  -3.978
REMARK INTRA:                   0.000
REMARK UNBOUND:                 0.000
REMARK SMILES Oc1ccc2[nH]ccc2c1
REMARK SMILES IDX 3 1 4 2 5 3 9 4 8 5 7 6 6 7 10 8 2 9 1 11
REMARK H PARENT 6 10 1 12
REMARK Flexibility Score: inf
ROOT
ATOM      1  C   UNL     1      26.887  39.149  18.809  1.00  0.00     0.048 A 
ATOM      2  C   UNL     1      26.512  38.800  20.120  1.00  0.00     0.030 A 
ATOM      3  C   UNL     1      27.256  37.817  20.769  1.00  0.00     0.046 A 
ATOM      4  C   UNL     1      28.319  37.202  20.163  1.00  0.00     0.003 A 
ATOM      5  C   UNL     1      28.833  36.290  21.060  1.00  0.00     0.028 A 
ATOM      6  C   UNL     1      28.033  36.404  22.192  1.00  0.00     0.083 A 
ATOM      7  N   UNL     1      27.071  37.338  22.010  1.00  0.00    -0.361 N 
ATOM      8  C   UNL     1      28.716  37.523  18.868  1.00  0.00     0.056 A 
ATOM      9  C   UNL     1      27.984  38.516  18.182  1.00  0.00     0.116 A 
ATOM     10  H   UNL     1      26.337  37.624  22.696  1.00  0.00     0.166 HD
ENDROOT
BRANCH   9  11
ATOM     11  O   UNL     1      28.335  38.879  16.884  1.00  0.00    -0.508 OA
ATOM     12  H   UNL     1      29.303  38.921  16.589  1.00  0.00     0.293 HD
ENDBRANCH   9  11
TORSDOF 1
ENDMDL
MODEL 9
REMARK VINA RESULT:    -3.783      5.718      6.698
REMARK INTER + INTRA:          -3.893
REMARK INTER:                  -3.893
REMARK INTRA:                   0.000
REMARK UNBOUND:                 0.000
REMARK SMILES Oc1ccc2[nH]ccc2c1
REMARK SMILES IDX 3 1 4 2 5 3 9 4 8 5 7 6 6 7 10 8 2 9 1 11
REMARK H PARENT 6 10 1 12
REMARK Flexibility Score: inf
ROOT
ATOM      1  C   UNL     1      28.832  32.843  22.009  1.00  0.00     0.048 A 
ATOM      2  C   UNL     1      28.780  33.746  20.931  1.00  0.00     0.030 A 
ATOM      3  C   UNL     1      28.262  35.017  21.171  1.00  0.00     0.046 A 
ATOM      4  C   UNL     1      27.815  35.389  22.411  1.00  0.00     0.003 A 
ATOM      5  C   UNL     1      27.372  36.690  22.315  1.00  0.00     0.028 A 
ATOM      6  C   UNL     1      27.578  37.047  20.987  1.00  0.00     0.083 A 
ATOM      7  N   UNL     1      28.122  36.022  20.291  1.00  0.00    -0.361 N 
ATOM      8  C   UNL     1      27.853  34.521  23.500  1.00  0.00     0.056 A 
ATOM      9  C   UNL     1      28.372  33.225  23.291  1.00  0.00     0.116 A 
ATOM     10  H   UNL     1      28.379  36.017  19.279  1.00  0.00     0.166 HD
ENDROOT
BRANCH   9  11
ATOM     11  O   UNL     1      28.435  32.313  24.341  1.00  0.00    -0.508 OA
ATOM     12  H   UNL     1      28.700  31.348  24.189  1.00  0.00     0.293 HD
ENDBRANCH   9  11
TORSDOF 1
ENDMDL
