MODEL 1
REMARK VINA RESULT:    -3.304      0.000      0.000
REMARK INTER + INTRA:          -3.593
REMARK INTER:                  -3.593
REMARK INTRA:                   0.000
REMARK UNBOUND:                 0.000
REMARK SMILES [NH3+]CC(=O)[O-]
REMARK SMILES IDX 2 1 1 2 3 6 4 7 5 8
REMARK H PARENT 1 3 1 4 1 5
REMARK Flexibility Score: inf
ROOT
ATOM      1  C   UNL     1      64.578   7.373  -4.812  1.00  0.00     0.312 C 
ENDROOT
BRANCH   1   2
ATOM      2  N   UNL     1      65.349   6.446  -3.986  1.00  0.00    -0.353 N 
ATOM      3  H   UNL     1      65.347   5.493  -4.419  1.00  0.00     0.344 HD
ATOM      4  H   UNL     1      64.941   6.398  -3.024  1.00  0.00     0.344 HD
ATOM      5  H   UNL     1      66.335   6.786  -3.919  1.00  0.00     0.344 HD
ENDBRANCH   1   2
BRANCH   1   6
ATOM      6  C   UNL     1      63.120   7.286  -4.482  1.00  0.00     0.096 C 
ATOM      7  O   UNL     1      62.316   8.144  -4.932  1.00  0.00    -0.544 OA
ATOM      8  O   UNL     1      62.641   6.228  -3.719  1.00  0.00    -0.544 OA
ENDBRANCH   1   6
TORSDOF 2
ENDMDL
MODEL 2
REMARK VINA RESULT:    -3.223     13.900     14.460
REMARK INTER + INTRA:          -3.506
REMARK INTER:                  -3.506
REMARK INTRA:                   0.000
REMARK UNBOUND:                 0.000
REMARK SMILES [NH3+]CC(=O)[O-]
REMARK SMILES IDX 2 1 1 2 3 6 4 7 5 8
REMARK H PARENT 1 3 1 4 1 5
REMARK Flexibility Score: inf
ROOT
ATOM      1  C   UNL     1      61.240  -0.869   7.926  1.00  0.00     0.312 C 
ENDROOT
BRANCH   1   2
ATOM      2  N   UNL     1      60.042  -1.643   8.249  1.00  0.00    -0.353 N 
ATOM      3  H   UNL     1      59.818  -2.300   7.467  1.00  0.00     0.344 HD
ATOM      4  H   UNL     1      59.233  -1.001   8.415  1.00  0.00     0.344 HD
ATOM      5  H   UNL     1      60.218  -2.198   9.118  1.00  0.00     0.344 HD
ENDBRANCH   1   2
BRANCH   1   6
ATOM      6  C   UNL     1      61.731  -1.205   6.552  1.00  0.00     0.096 C 
ATOM      7  O   UNL     1      61.955  -2.403   6.236  1.00  0.00    -0.544 OA
ATOM      8  O   UNL     1      61.892  -0.201   5.606  1.00  0.00    -0.544 OA
ENDBRANCH   1   6
TORSDOF 2
ENDMDL
MODEL 3
REMARK VINA RESULT:    -3.211      1.806      1.806
REMARK INTER + INTRA:          -3.493
REMARK INTER:                  -3.493
REMARK INTRA:                   0.000
REMARK UNBOUND:                 0.000
REMARK SMILES [NH3+]CC(=O)[O-]
REMARK SMILES IDX 2 1 1 2 3 6 4 7 5 8
REMARK H PARENT 1 3 1 4 1 5
REMARK Flexibility Score: inf
ROOT
ATOM      1  C   UNL     1      63.472   7.631  -5.280  1.00  0.00     0.312 C 
ENDROOT
BRANCH   1   2
ATOM      2  N   UNL     1      63.018   6.676  -6.290  1.00  0.00    -0.353 N 
ATOM      3  H   UNL     1      63.050   5.704  -5.904  1.00  0.00     0.344 HD
ATOM      4  H   UNL     1      63.621   6.739  -7.141  1.00  0.00     0.344 HD
ATOM      5  H   UNL     1      62.032   6.902  -6.555  1.00  0.00     0.344 HD
ENDBRANCH   1   2
BRANCH   1   6
ATOM      6  C   UNL     1      63.028   7.206  -3.915  1.00  0.00     0.096 C 
ATOM      7  O   UNL     1      62.312   7.970  -3.215  1.00  0.00    -0.544 OA
ATOM      8  O   UNL     1      63.363   5.946  -3.435  1.00  0.00    -0.544 OA
ENDBRANCH   1   6
TORSDOF 2
ENDMDL
MODEL 4
REMARK VINA RESULT:    -3.182     10.545     11.002
REMARK INTER + INTRA:          -3.461
REMARK INTER:                  -3.461
REMARK INTRA:                   0.000
REMARK UNBOUND:                 0.000
REMARK SMILES [NH3+]CC(=O)[O-]
REMARK SMILES IDX 2 1 1 2 3 6 4 7 5 8
REMARK H PARENT 1 3 1 4 1 5
REMARK Flexibility Score: inf
ROOT
ATOM      1  C   UNL     1      62.686   2.365   5.347  1.00  0.00     0.312 C 
ENDROOT
BRANCH   1   2
ATOM      2  N   UNL     1      63.385   3.116   4.305  1.00  0.00    -0.353 N 
ATOM      3  H   UNL     1      63.809   3.983   4.710  1.00  0.00     0.344 HD
ATOM      4  H   UNL     1      62.720   3.373   3.540  1.00  0.00     0.344 HD
ATOM      5  H   UNL     1      64.147   2.521   3.907  1.00  0.00     0.344 HD
ENDBRANCH   1   2
BRANCH   1   6
ATOM      6  C   UNL     1      62.417   0.963   4.896  1.00  0.00     0.096 C 
ATOM      7  O   UNL     1      62.734   0.600   3.734  1.00  0.00    -0.544 OA
ATOM      8  O   UNL     1      61.861   0.044   5.777  1.00  0.00    -0.544 OA
ENDBRANCH   1   6
TORSDOF 2
ENDMDL
MODEL 5
REMARK VINA RESULT:    -3.147     15.473     15.649
REMARK INTER + INTRA:          -3.423
REMARK INTER:                  -3.423
REMARK INTRA:                   0.000
REMARK UNBOUND:                 0.000
REMARK SMILES [NH3+]CC(=O)[O-]
REMARK SMILES IDX 2 1 1 2 3 6 4 7 5 8
REMARK H PARENT 1 3 1 4 1 5
REMARK Flexibility Score: inf
ROOT
ATOM      1  C   UNL     1      60.969  -0.574   8.266  1.00  0.00     0.312 C 
ENDROOT
BRANCH   1   2
ATOM      2  N   UNL     1      60.312  -1.858   8.029  1.00  0.00    -0.353 N 
ATOM      3  H   UNL     1      59.479  -1.726   7.409  1.00  0.00     0.344 HD
ATOM      4  H   UNL     1      60.013  -2.282   8.937  1.00  0.00     0.344 HD
ATOM      5  H   UNL     1      60.985  -2.505   7.558  1.00  0.00     0.344 HD
ENDBRANCH   1   2
BRANCH   1   6
ATOM      6  C   UNL     1      60.164   0.264   9.210  1.00  0.00     0.096 C 
ATOM      7  O   UNL     1      60.710   1.202   9.848  1.00  0.00    -0.544 OA
ATOM      8  O   UNL     1      58.800   0.041   9.348  1.00  0.00    -0.544 OA
ENDBRANCH   1   6
TORSDOF 2
ENDMDL
MODEL 6
REMARK VINA RESULT:    -3.137      2.023      2.147
REMARK INTER + INTRA:          -3.412
REMARK INTER:                  -3.412
REMARK INTRA:                   0.000
REMARK UNBOUND:                 0.000
REMARK SMILES [NH3+]CC(=O)[O-]
REMARK SMILES IDX 2 1 1 2 3 6 4 7 5 8
REMARK H PARENT 1 3 1 4 1 5
REMARK Flexibility Score: inf
ROOT
ATOM      1  C   UNL     1      63.018   8.664  -3.961  1.00  0.00     0.312 C 
ENDROOT
BRANCH   1   2
ATOM      2  N   UNL     1      62.703   8.730  -2.534  1.00  0.00    -0.353 N 
ATOM      3  H   UNL     1      62.888   9.693  -2.170  1.00  0.00     0.344 HD
ATOM      4  H   UNL     1      63.279   8.035  -2.007  1.00  0.00     0.344 HD
ATOM      5  H   UNL     1      61.691   8.505  -2.397  1.00  0.00     0.344 HD
ENDBRANCH   1   2
BRANCH   1   6
ATOM      6  C   UNL     1      63.143   7.240  -4.408  1.00  0.00     0.096 C 
ATOM      7  O   UNL     1      63.805   6.957  -5.440  1.00  0.00    -0.544 OA
ATOM      8  O   UNL     1      62.569   6.222  -3.657  1.00  0.00    -0.544 OA
ENDBRANCH   1   6
TORSDOF 2
ENDMDL
MODEL 7
REMARK VINA RESULT:    -3.099     14.916     15.259
REMARK INTER + INTRA:          -3.371
REMARK INTER:                  -3.371
REMARK INTRA:                   0.000
REMARK UNBOUND:                 0.000
REMARK SMILES [NH3+]CC(=O)[O-]
REMARK SMILES IDX 2 1 1 2 3 6 4 7 5 8
REMARK H PARENT 1 3 1 4 1 5
REMARK Flexibility Score: inf
ROOT
ATOM      1  C   UNL     1      51.106   6.749   4.903  1.00  0.00     0.312 C 
ENDROOT
BRANCH   1   2
ATOM      2  N   UNL     1      50.535   5.448   4.559  1.00  0.00    -0.353 N 
ATOM      3  H   UNL     1      50.849   5.160   3.603  1.00  0.00     0.344 HD
ATOM      4  H   UNL     1      49.490   5.495   4.589  1.00  0.00     0.344 HD
ATOM      5  H   UNL     1      50.862   4.736   5.251  1.00  0.00     0.344 HD
ENDBRANCH   1   2
BRANCH   1   6
ATOM      6  C   UNL     1      51.089   7.663   3.717  1.00  0.00     0.096 C 
ATOM      7  O   UNL     1      52.168   8.089   3.230  1.00  0.00    -0.544 OA
ATOM      8  O   UNL     1      49.882   8.005   3.120  1.00  0.00    -0.544 OA
ENDBRANCH   1   6
TORSDOF 2
ENDMDL
MODEL 8
REMARK VINA RESULT:    -3.015     12.844     13.192
REMARK INTER + INTRA:          -3.279
REMARK INTER:                  -3.279
REMARK INTRA:                   0.000
REMARK UNBOUND:                 0.000
REMARK SMILES [NH3+]CC(=O)[O-]
REMARK SMILES IDX 2 1 1 2 3 6 4 7 5 8
REMARK H PARENT 1 3 1 4 1 5
REMARK Flexibility Score: inf
ROOT
ATOM      1  C   UNL     1      53.107   7.641   4.330  1.00  0.00     0.312 C 
ENDROOT
BRANCH   1   2
ATOM      2  N   UNL     1      52.366   7.581   3.071  1.00  0.00    -0.353 N 
ATOM      3  H   UNL     1      51.767   8.432   2.966  1.00  0.00     0.344 HD
ATOM      4  H   UNL     1      51.768   6.723   3.046  1.00  0.00     0.344 HD
ATOM      5  H   UNL     1      53.044   7.544   2.276  1.00  0.00     0.344 HD
ENDBRANCH   1   2
BRANCH   1   6
ATOM      6  C   UNL     1      54.244   8.610   4.226  1.00  0.00     0.096 C 
ATOM      7  O   UNL     1      55.169   8.594   5.080  1.00  0.00    -0.544 OA
ATOM      8  O   UNL     1      54.308   9.497   3.159  1.00  0.00    -0.544 OA
ENDBRANCH   1   6
TORSDOF 2
ENDMDL
MODEL 9
REMARK VINA RESULT:    -2.948     14.872     15.266
REMARK INTER + INTRA:          -3.207
REMARK INTER:                  -3.207
REMARK INTRA:                   0.000
REMARK UNBOUND:                 0.000
REMARK SMILES [NH3+]CC(=O)[O-]
REMARK SMILES IDX 2 1 1 2 3 6 4 7 5 8
REMARK H PARENT 1 3 1 4 1 5
REMARK Flexibility Score: inf
ROOT
ATOM      1  C   UNL     1      52.854  -4.290  -2.521  1.00  0.00     0.312 C 
ENDROOT
BRANCH   1   2
ATOM      2  N   UNL     1      52.191  -4.375  -1.220  1.00  0.00    -0.353 N 
ATOM      3  H   UNL     1      52.875  -4.173  -0.455  1.00  0.00     0.344 HD
ATOM      4  H   UNL     1      51.783  -5.329  -1.087  1.00  0.00     0.344 HD
ATOM      5  H   UNL     1      51.421  -3.669  -1.182  1.00  0.00     0.344 HD
ENDBRANCH   1   2
BRANCH   1   6
ATOM      6  C   UNL     1      54.331  -4.115  -2.350  1.00  0.00     0.096 C 
ATOM      7  O   UNL     1      55.133  -4.749  -3.084  1.00  0.00    -0.544 OA
ATOM      8  O   UNL     1      54.821  -3.214  -1.413  1.00  0.00    -0.544 OA
ENDBRANCH   1   6
TORSDOF 2
ENDMDL
