MODEL 1
REMARK VINA RESULT:    -5.234      0.000      0.000
REMARK INTER + INTRA:          -8.892
REMARK INTER:                  -8.141
REMARK INTRA:                  -0.751
REMARK UNBOUND:                -0.751
REMARK SMILES COc1cc(CNC(=O)CCCCC=CC(C)C)ccc1O
REMARK SMILES IDX 11 1 12 2 13 3 14 4 15 5 16 6 17 7 18 8 10 9 8 10 9 11 7 12
REMARK SMILES IDX 6 14 5 15 4 16 19 17 3 18 20 19 21 20 2 21 1 22 22 23
REMARK H PARENT 7 13 22 24
REMARK Flexibility Score: inf
ROOT
ATOM      1  C   UNL     1      23.561 -53.698 157.040  1.00  0.00     0.010 C 
ENDROOT
BRANCH   1   2
ATOM      2  C   UNL     1      22.138 -53.165 157.266  1.00  0.00     0.005 C 
BRANCH   2   3
ATOM      3  C   UNL     1      21.958 -51.729 156.752  1.00  0.00     0.027 C 
BRANCH   3   4
ATOM      4  C   UNL     1      22.075 -50.736 157.875  1.00  0.00    -0.031 C 
ATOM      5  C   UNL     1      23.238 -50.126 158.154  1.00  0.00    -0.028 C 
BRANCH   5   6
ATOM      6  C   UNL     1      23.346 -49.118 159.275  1.00  0.00     0.005 C 
ATOM      7  C   UNL     1      23.505 -47.702 158.710  1.00  0.00     0.012 C 
ATOM      8  C   UNL     1      22.115 -49.194 160.184  1.00  0.00     0.012 C 
ENDBRANCH   5   6
ENDBRANCH   3   4
ENDBRANCH   2   3
ENDBRANCH   1   2
BRANCH   1   9
ATOM      9  C   UNL     1      23.820 -54.083 155.576  1.00  0.00     0.100 C 
BRANCH   9  10
ATOM     10  C   UNL     1      24.701 -53.062 154.923  1.00  0.00     0.220 C 
ATOM     11  O   UNL     1      25.266 -52.186 155.632  1.00  0.00    -0.275 OA
ATOM     12  N   UNL     1      24.938 -53.118 153.509  1.00  0.00    -0.352 N 
ATOM     13  H   UNL     1      24.453 -53.851 152.944  1.00  0.00     0.163 HD
BRANCH  12  14
ATOM     14  C   UNL     1      25.980 -52.328 152.858  1.00  0.00     0.151 C 
BRANCH  14  15
ATOM     15  C   UNL     1      25.570 -52.011 151.447  1.00  0.00    -0.025 A 
ATOM     16  C   UNL     1      24.663 -52.840 150.768  1.00  0.00     0.056 A 
ATOM     17  C   UNL     1      26.036 -50.844 150.826  1.00  0.00     0.009 A 
ATOM     18  C   UNL     1      24.235 -52.517 149.464  1.00  0.00     0.160 A 
ATOM     19  C   UNL     1      25.624 -50.523 149.531  1.00  0.00     0.050 A 
ATOM     20  C   UNL     1      24.730 -51.352 148.847  1.00  0.00     0.157 A 
BRANCH  18  21
ATOM     21  O   UNL     1      23.325 -53.322 148.760  1.00  0.00    -0.493 OA
ATOM     22  C   UNL     1      21.908 -53.206 148.847  1.00  0.00     0.278 C 
ENDBRANCH  18  21
BRANCH  20  23
ATOM     23  O   UNL     1      24.341 -51.001 147.554  1.00  0.00    -0.504 OA
ATOM     24  H   UNL     1      23.994 -50.077 147.326  1.00  0.00     0.293 HD
ENDBRANCH  20  23
ENDBRANCH  14  15
ENDBRANCH  12  14
ENDBRANCH   9  10
ENDBRANCH   1   9
TORSDOF 10
ENDMDL
MODEL 2
REMARK VINA RESULT:    -5.176      1.058      2.136
REMARK INTER + INTRA:          -8.801
REMARK INTER:                  -8.045
REMARK INTRA:                  -0.756
REMARK UNBOUND:                -0.751
REMARK SMILES COc1cc(CNC(=O)CCCCC=CC(C)C)ccc1O
REMARK SMILES IDX 11 1 12 2 13 3 14 4 15 5 16 6 17 7 18 8 10 9 8 10 9 11 7 12
REMARK SMILES IDX 6 14 5 15 4 16 19 17 3 18 20 19 21 20 2 21 1 22 22 23
REMARK H PARENT 7 13 22 24
REMARK Flexibility Score: inf
ROOT
ATOM      1  C   UNL     1      23.676 -52.688 156.898  1.00  0.00     0.010 C 
ENDROOT
BRANCH   1   2
ATOM      2  C   UNL     1      22.160 -52.617 156.658  1.00  0.00     0.005 C 
BRANCH   2   3
ATOM      3  C   UNL     1      21.626 -51.177 156.689  1.00  0.00     0.027 C 
BRANCH   3   4
ATOM      4  C   UNL     1      22.475 -50.307 157.574  1.00  0.00    -0.031 C 
ATOM      5  C   UNL     1      22.035 -49.880 158.769  1.00  0.00    -0.028 C 
BRANCH   5   6
ATOM      6  C   UNL     1      22.898 -49.018 159.660  1.00  0.00     0.005 C 
ATOM      7  C   UNL     1      23.970 -49.866 160.354  1.00  0.00     0.012 C 
ATOM      8  C   UNL     1      23.550 -47.894 158.848  1.00  0.00     0.012 C 
ENDBRANCH   5   6
ENDBRANCH   3   4
ENDBRANCH   2   3
ENDBRANCH   1   2
BRANCH   1   9
ATOM      9  C   UNL     1      24.368 -53.717 155.994  1.00  0.00     0.100 C 
BRANCH   9  10
ATOM     10  C   UNL     1      24.960 -53.037 154.797  1.00  0.00     0.220 C 
ATOM     11  O   UNL     1      25.703 -52.031 154.960  1.00  0.00    -0.275 OA
ATOM     12  N   UNL     1      24.723 -53.561 153.483  1.00  0.00    -0.352 N 
ATOM     13  H   UNL     1      24.099 -54.391 153.375  1.00  0.00     0.163 HD
BRANCH  12  14
ATOM     14  C   UNL     1      25.475 -53.111 152.314  1.00  0.00     0.151 C 
BRANCH  14  15
ATOM     15  C   UNL     1      24.559 -53.029 151.124  1.00  0.00    -0.025 A 
ATOM     16  C   UNL     1      24.991 -52.416 149.937  1.00  0.00     0.056 A 
ATOM     17  C   UNL     1      23.293 -53.628 151.170  1.00  0.00     0.009 A 
ATOM     18  C   UNL     1      24.155 -52.384 148.802  1.00  0.00     0.160 A 
ATOM     19  C   UNL     1      22.456 -53.592 150.053  1.00  0.00     0.050 A 
ATOM     20  C   UNL     1      22.877 -52.973 148.872  1.00  0.00     0.157 A 
BRANCH  18  21
ATOM     21  O   UNL     1      24.559 -51.784 147.598  1.00  0.00    -0.493 OA
ATOM     22  C   UNL     1      25.342 -50.598 147.510  1.00  0.00     0.278 C 
ENDBRANCH  18  21
BRANCH  20  23
ATOM     23  O   UNL     1      22.013 -52.954 147.777  1.00  0.00    -0.504 OA
ATOM     24  H   UNL     1      21.548 -53.788 147.441  1.00  0.00     0.293 HD
ENDBRANCH  20  23
ENDBRANCH  14  15
ENDBRANCH  12  14
ENDBRANCH   9  10
ENDBRANCH   1   9
TORSDOF 10
ENDMDL
MODEL 3
REMARK VINA RESULT:    -5.047     15.093     17.992
REMARK INTER + INTRA:          -8.601
REMARK INTER:                  -7.725
REMARK INTRA:                  -0.876
REMARK UNBOUND:                -0.751
REMARK SMILES COc1cc(CNC(=O)CCCCC=CC(C)C)ccc1O
REMARK SMILES IDX 11 1 12 2 13 3 14 4 15 5 16 6 17 7 18 8 10 9 8 10 9 11 7 12
REMARK SMILES IDX 6 14 5 15 4 16 19 17 3 18 20 19 21 20 2 21 1 22 22 23
REMARK H PARENT 7 13 22 24
REMARK Flexibility Score: inf
ROOT
ATOM      1  C   UNL     1      22.497 -34.966 151.519  1.00  0.00     0.010 C 
ENDROOT
BRANCH   1   2
ATOM      2  C   UNL     1      22.895 -34.444 150.130  1.00  0.00     0.005 C 
BRANCH   2   3
ATOM      3  C   UNL     1      21.853 -34.781 149.053  1.00  0.00     0.027 C 
BRANCH   3   4
ATOM      4  C   UNL     1      20.643 -35.435 149.661  1.00  0.00    -0.031 C 
ATOM      5  C   UNL     1      19.588 -35.793 148.911  1.00  0.00    -0.028 C 
BRANCH   5   6
ATOM      6  C   UNL     1      18.381 -36.464 149.525  1.00  0.00     0.005 C 
ATOM      7  C   UNL     1      18.398 -37.969 149.235  1.00  0.00     0.012 C 
ATOM      8  C   UNL     1      18.339 -36.213 151.036  1.00  0.00     0.012 C 
ENDBRANCH   5   6
ENDBRANCH   3   4
ENDBRANCH   2   3
ENDBRANCH   1   2
BRANCH   1   9
ATOM      9  C   UNL     1      22.583 -33.881 152.603  1.00  0.00     0.100 C 
BRANCH   9  10
ATOM     10  C   UNL     1      21.399 -33.971 153.516  1.00  0.00     0.220 C 
ATOM     11  O   UNL     1      20.237 -33.979 153.027  1.00  0.00    -0.275 OA
ATOM     12  N   UNL     1      21.593 -34.098 154.932  1.00  0.00    -0.352 N 
ATOM     13  H   UNL     1      22.565 -34.083 155.312  1.00  0.00     0.163 HD
BRANCH  12  14
ATOM     14  C   UNL     1      20.506 -34.452 155.842  1.00  0.00     0.151 C 
BRANCH  14  15
ATOM     15  C   UNL     1      20.945 -35.574 156.743  1.00  0.00    -0.025 A 
ATOM     16  C   UNL     1      20.040 -36.580 157.116  1.00  0.00     0.056 A 
ATOM     17  C   UNL     1      22.281 -35.659 157.157  1.00  0.00     0.009 A 
ATOM     18  C   UNL     1      20.461 -37.662 157.917  1.00  0.00     0.160 A 
ATOM     19  C   UNL     1      22.703 -36.722 157.958  1.00  0.00     0.050 A 
ATOM     20  C   UNL     1      21.802 -37.721 158.341  1.00  0.00     0.157 A 
BRANCH  18  21
ATOM     21  O   UNL     1      19.583 -38.687 158.302  1.00  0.00    -0.493 OA
ATOM     22  C   UNL     1      18.464 -38.511 159.167  1.00  0.00     0.278 C 
ENDBRANCH  18  21
BRANCH  20  23
ATOM     23  O   UNL     1      22.259 -38.767 159.144  1.00  0.00    -0.504 OA
ATOM     24  H   UNL     1      23.228 -39.061 159.150  1.00  0.00     0.293 HD
ENDBRANCH  20  23
ENDBRANCH  14  15
ENDBRANCH  12  14
ENDBRANCH   9  10
ENDBRANCH   1   9
TORSDOF 10
ENDMDL
MODEL 4
REMARK VINA RESULT:    -5.043      2.370      8.712
REMARK INTER + INTRA:          -8.595
REMARK INTER:                  -7.964
REMARK INTRA:                  -0.631
REMARK UNBOUND:                -0.751
REMARK SMILES COc1cc(CNC(=O)CCCCC=CC(C)C)ccc1O
REMARK SMILES IDX 11 1 12 2 13 3 14 4 15 5 16 6 17 7 18 8 10 9 8 10 9 11 7 12
REMARK SMILES IDX 6 14 5 15 4 16 19 17 3 18 20 19 21 20 2 21 1 22 22 23
REMARK H PARENT 7 13 22 24
REMARK Flexibility Score: inf
ROOT
ATOM      1  C   UNL     1      26.083 -52.235 152.629  1.00  0.00     0.010 C 
ENDROOT
BRANCH   1   2
ATOM      2  C   UNL     1      26.253 -50.973 151.770  1.00  0.00     0.005 C 
BRANCH   2   3
ATOM      3  C   UNL     1      25.734 -51.161 150.337  1.00  0.00     0.027 C 
BRANCH   3   4
ATOM      4  C   UNL     1      24.755 -52.300 150.265  1.00  0.00    -0.031 C 
ATOM      5  C   UNL     1      23.775 -52.325 149.347  1.00  0.00    -0.028 C 
BRANCH   5   6
ATOM      6  C   UNL     1      22.802 -53.479 149.269  1.00  0.00     0.005 C 
ATOM      7  C   UNL     1      21.996 -53.590 150.568  1.00  0.00     0.012 C 
ATOM      8  C   UNL     1      21.862 -53.307 148.071  1.00  0.00     0.012 C 
ENDBRANCH   5   6
ENDBRANCH   3   4
ENDBRANCH   2   3
ENDBRANCH   1   2
BRANCH   1   9
ATOM      9  C   UNL     1      26.149 -51.936 154.134  1.00  0.00     0.100 C 
BRANCH   9  10
ATOM     10  C   UNL     1      25.011 -52.605 154.843  1.00  0.00     0.220 C 
ATOM     11  O   UNL     1      24.695 -53.785 154.531  1.00  0.00    -0.275 OA
ATOM     12  N   UNL     1      24.325 -51.923 155.902  1.00  0.00    -0.352 N 
ATOM     13  H   UNL     1      24.603 -50.944 156.136  1.00  0.00     0.163 HD
BRANCH  12  14
ATOM     14  C   UNL     1      23.396 -52.606 156.800  1.00  0.00     0.151 C 
BRANCH  14  15
ATOM     15  C   UNL     1      22.637 -51.592 157.610  1.00  0.00    -0.025 A 
ATOM     16  C   UNL     1      23.302 -50.490 158.171  1.00  0.00     0.056 A 
ATOM     17  C   UNL     1      21.247 -51.704 157.751  1.00  0.00     0.009 A 
ATOM     18  C   UNL     1      22.585 -49.509 158.888  1.00  0.00     0.160 A 
ATOM     19  C   UNL     1      20.532 -50.742 158.466  1.00  0.00     0.050 A 
ATOM     20  C   UNL     1      21.192 -49.649 159.036  1.00  0.00     0.157 A 
BRANCH  18  21
ATOM     21  O   UNL     1      23.219 -48.393 159.456  1.00  0.00    -0.493 OA
ATOM     22  C   UNL     1      23.509 -47.186 158.757  1.00  0.00     0.278 C 
ENDBRANCH  18  21
BRANCH  20  23
ATOM     23  O   UNL     1      20.445 -48.708 159.747  1.00  0.00    -0.504 OA
ATOM     24  H   UNL     1      20.019 -48.920 160.641  1.00  0.00     0.293 HD
ENDBRANCH  20  23
ENDBRANCH  14  15
ENDBRANCH  12  14
ENDBRANCH   9  10
ENDBRANCH   1   9
TORSDOF 10
ENDMDL
MODEL 5
REMARK VINA RESULT:    -4.988     13.630     17.366
REMARK INTER + INTRA:          -8.509
REMARK INTER:                  -6.214
REMARK INTRA:                  -2.295
REMARK UNBOUND:                -0.751
REMARK SMILES COc1cc(CNC(=O)CCCCC=CC(C)C)ccc1O
REMARK SMILES IDX 11 1 12 2 13 3 14 4 15 5 16 6 17 7 18 8 10 9 8 10 9 11 7 12
REMARK SMILES IDX 6 14 5 15 4 16 19 17 3 18 20 19 21 20 2 21 1 22 22 23
REMARK H PARENT 7 13 22 24
REMARK Flexibility Score: inf
ROOT
ATOM      1  C   UNL     1      15.430 -37.473 160.495  1.00  0.00     0.010 C 
ENDROOT
BRANCH   1   2
ATOM      2  C   UNL     1      16.136 -37.910 161.788  1.00  0.00     0.005 C 
BRANCH   2   3
ATOM      3  C   UNL     1      17.630 -38.192 161.577  1.00  0.00     0.027 C 
BRANCH   3   4
ATOM      4  C   UNL     1      17.885 -38.744 160.201  1.00  0.00    -0.031 C 
ATOM      5  C   UNL     1      18.715 -39.781 160.004  1.00  0.00    -0.028 C 
BRANCH   5   6
ATOM      6  C   UNL     1      18.956 -40.341 158.621  1.00  0.00     0.005 C 
ATOM      7  C   UNL     1      18.696 -41.851 158.601  1.00  0.00     0.012 C 
ATOM      8  C   UNL     1      18.066 -39.633 157.594  1.00  0.00     0.012 C 
ENDBRANCH   5   6
ENDBRANCH   3   4
ENDBRANCH   2   3
ENDBRANCH   1   2
BRANCH   1   9
ATOM      9  C   UNL     1      14.923 -36.025 160.560  1.00  0.00     0.100 C 
BRANCH   9  10
ATOM     10  C   UNL     1      16.013 -35.079 160.159  1.00  0.00     0.220 C 
ATOM     11  O   UNL     1      16.205 -34.033 160.836  1.00  0.00    -0.275 OA
ATOM     12  N   UNL     1      16.861 -35.391 159.045  1.00  0.00    -0.352 N 
ATOM     13  H   UNL     1      16.677 -36.262 158.499  1.00  0.00     0.163 HD
BRANCH  12  14
ATOM     14  C   UNL     1      18.092 -34.655 158.769  1.00  0.00     0.151 C 
BRANCH  14  15
ATOM     15  C   UNL     1      19.257 -35.606 158.748  1.00  0.00    -0.025 A 
ATOM     16  C   UNL     1      19.973 -35.877 159.924  1.00  0.00     0.056 A 
ATOM     17  C   UNL     1      19.590 -36.282 157.565  1.00  0.00     0.009 A 
ATOM     18  C   UNL     1      21.033 -36.808 159.919  1.00  0.00     0.160 A 
ATOM     19  C   UNL     1      20.644 -37.198 157.551  1.00  0.00     0.050 A 
ATOM     20  C   UNL     1      21.367 -37.462 158.718  1.00  0.00     0.157 A 
BRANCH  18  21
ATOM     21  O   UNL     1      21.765 -37.106 161.080  1.00  0.00    -0.493 OA
ATOM     22  C   UNL     1      21.363 -38.049 162.069  1.00  0.00     0.278 C 
ENDBRANCH  18  21
BRANCH  20  23
ATOM     23  O   UNL     1      22.415 -38.382 158.666  1.00  0.00    -0.504 OA
ATOM     24  H   UNL     1      23.209 -38.262 158.049  1.00  0.00     0.293 HD
ENDBRANCH  20  23
ENDBRANCH  14  15
ENDBRANCH  12  14
ENDBRANCH   9  10
ENDBRANCH   1   9
TORSDOF 10
ENDMDL
MODEL 6
REMARK VINA RESULT:    -4.976     14.154     16.332
REMARK INTER + INTRA:          -8.491
REMARK INTER:                  -7.825
REMARK INTRA:                  -0.666
REMARK UNBOUND:                -0.751
REMARK SMILES COc1cc(CNC(=O)CCCCC=CC(C)C)ccc1O
REMARK SMILES IDX 11 1 12 2 13 3 14 4 15 5 16 6 17 7 18 8 10 9 8 10 9 11 7 12
REMARK SMILES IDX 6 14 5 15 4 16 19 17 3 18 20 19 21 20 2 21 1 22 22 23
REMARK H PARENT 7 13 22 24
REMARK Flexibility Score: inf
ROOT
ATOM      1  C   UNL     1      19.178 -35.901 156.379  1.00  0.00     0.010 C 
ENDROOT
BRANCH   1   2
ATOM      2  C   UNL     1      20.141 -35.969 157.575  1.00  0.00     0.005 C 
BRANCH   2   3
ATOM      3  C   UNL     1      21.223 -37.045 157.399  1.00  0.00     0.027 C 
BRANCH   3   4
ATOM      4  C   UNL     1      20.956 -38.227 158.291  1.00  0.00    -0.031 C 
ATOM      5  C   UNL     1      19.706 -38.641 158.552  1.00  0.00    -0.028 C 
BRANCH   5   6
ATOM      6  C   UNL     1      19.445 -39.838 159.437  1.00  0.00     0.005 C 
ATOM      7  C   UNL     1      18.649 -39.424 160.680  1.00  0.00     0.012 C 
ATOM      8  C   UNL     1      18.693 -40.924 158.660  1.00  0.00     0.012 C 
ENDBRANCH   5   6
ENDBRANCH   3   4
ENDBRANCH   2   3
ENDBRANCH   1   2
BRANCH   1   9
ATOM      9  C   UNL     1      18.944 -34.464 155.893  1.00  0.00     0.100 C 
BRANCH   9  10
ATOM     10  C   UNL     1      19.766 -34.193 154.669  1.00  0.00     0.220 C 
ATOM     11  O   UNL     1      20.991 -33.921 154.793  1.00  0.00    -0.275 OA
ATOM     12  N   UNL     1      19.171 -34.296 153.368  1.00  0.00    -0.352 N 
ATOM     13  H   UNL     1      18.153 -34.518 153.294  1.00  0.00     0.163 HD
BRANCH  12  14
ATOM     14  C   UNL     1      19.967 -34.307 152.143  1.00  0.00     0.151 C 
BRANCH  14  15
ATOM     15  C   UNL     1      19.352 -35.252 151.148  1.00  0.00    -0.025 A 
ATOM     16  C   UNL     1      18.210 -35.995 151.485  1.00  0.00     0.056 A 
ATOM     17  C   UNL     1      19.876 -35.343 149.850  1.00  0.00     0.009 A 
ATOM     18  C   UNL     1      17.600 -36.842 150.537  1.00  0.00     0.160 A 
ATOM     19  C   UNL     1      19.282 -36.187 148.909  1.00  0.00     0.050 A 
ATOM     20  C   UNL     1      18.151 -36.937 149.245  1.00  0.00     0.157 A 
BRANCH  18  21
ATOM     21  O   UNL     1      16.453 -37.594 150.842  1.00  0.00    -0.493 OA
ATOM     22  C   UNL     1      15.120 -37.095 150.778  1.00  0.00     0.278 C 
ENDBRANCH  18  21
BRANCH  20  23
ATOM     23  O   UNL     1      17.586 -37.772 148.280  1.00  0.00    -0.504 OA
ATOM     24  H   UNL     1      17.601 -37.545 147.294  1.00  0.00     0.293 HD
ENDBRANCH  20  23
ENDBRANCH  14  15
ENDBRANCH  12  14
ENDBRANCH   9  10
ENDBRANCH   1   9
TORSDOF 10
ENDMDL
MODEL 7
REMARK VINA RESULT:    -4.972      2.180      8.524
REMARK INTER + INTRA:          -8.485
REMARK INTER:                  -7.636
REMARK INTRA:                  -0.849
REMARK UNBOUND:                -0.751
REMARK SMILES COc1cc(CNC(=O)CCCCC=CC(C)C)ccc1O
REMARK SMILES IDX 11 1 12 2 13 3 14 4 15 5 16 6 17 7 18 8 10 9 8 10 9 11 7 12
REMARK SMILES IDX 6 14 5 15 4 16 19 17 3 18 20 19 21 20 2 21 1 22 22 23
REMARK H PARENT 7 13 22 24
REMARK Flexibility Score: inf
ROOT
ATOM      1  C   UNL     1      28.305 -51.482 152.572  1.00  0.00     0.010 C 
ENDROOT
BRANCH   1   2
ATOM      2  C   UNL     1      28.493 -50.815 151.200  1.00  0.00     0.005 C 
BRANCH   2   3
ATOM      3  C   UNL     1      28.496 -51.829 150.047  1.00  0.00     0.027 C 
BRANCH   3   4
ATOM      4  C   UNL     1      27.254 -51.693 149.209  1.00  0.00    -0.031 C 
ATOM      5  C   UNL     1      26.166 -51.053 149.664  1.00  0.00    -0.028 C 
BRANCH   5   6
ATOM      6  C   UNL     1      24.926 -50.907 148.812  1.00  0.00     0.005 C 
ATOM      7  C   UNL     1      25.308 -50.662 147.347  1.00  0.00     0.012 C 
ATOM      8  C   UNL     1      24.045 -52.155 148.932  1.00  0.00     0.012 C 
ENDBRANCH   5   6
ENDBRANCH   3   4
ENDBRANCH   2   3
ENDBRANCH   1   2
BRANCH   1   9
ATOM      9  C   UNL     1      27.126 -50.890 153.358  1.00  0.00     0.100 C 
BRANCH   9  10
ATOM     10  C   UNL     1      26.058 -51.924 153.540  1.00  0.00     0.220 C 
ATOM     11  O   UNL     1      25.681 -52.608 152.550  1.00  0.00    -0.275 OA
ATOM     12  N   UNL     1      25.507 -52.166 154.843  1.00  0.00    -0.352 N 
ATOM     13  H   UNL     1      25.833 -51.582 155.645  1.00  0.00     0.163 HD
BRANCH  12  14
ATOM     14  C   UNL     1      24.667 -53.325 155.134  1.00  0.00     0.151 C 
BRANCH  14  15
ATOM     15  C   UNL     1      23.729 -52.999 156.263  1.00  0.00    -0.025 A 
ATOM     16  C   UNL     1      23.599 -51.678 156.721  1.00  0.00     0.056 A 
ATOM     17  C   UNL     1      22.923 -54.003 156.819  1.00  0.00     0.009 A 
ATOM     18  C   UNL     1      22.682 -51.360 157.744  1.00  0.00     0.160 A 
ATOM     19  C   UNL     1      22.019 -53.697 157.838  1.00  0.00     0.050 A 
ATOM     20  C   UNL     1      21.896 -52.385 158.304  1.00  0.00     0.157 A 
BRANCH  18  21
ATOM     21  O   UNL     1      22.525 -50.048 158.219  1.00  0.00    -0.493 OA
ATOM     22  C   UNL     1      23.601 -49.172 158.542  1.00  0.00     0.278 C 
ENDBRANCH  18  21
BRANCH  20  23
ATOM     23  O   UNL     1      20.984 -52.117 159.326  1.00  0.00    -0.504 OA
ATOM     24  H   UNL     1      21.223 -51.545 160.127  1.00  0.00     0.293 HD
ENDBRANCH  20  23
ENDBRANCH  14  15
ENDBRANCH  12  14
ENDBRANCH   9  10
ENDBRANCH   1   9
TORSDOF 10
ENDMDL
MODEL 8
REMARK VINA RESULT:    -4.902      3.620      8.896
REMARK INTER + INTRA:          -8.375
REMARK INTER:                  -7.620
REMARK INTRA:                  -0.754
REMARK UNBOUND:                -0.751
REMARK SMILES COc1cc(CNC(=O)CCCCC=CC(C)C)ccc1O
REMARK SMILES IDX 11 1 12 2 13 3 14 4 15 5 16 6 17 7 18 8 10 9 8 10 9 11 7 12
REMARK SMILES IDX 6 14 5 15 4 16 19 17 3 18 20 19 21 20 2 21 1 22 22 23
REMARK H PARENT 7 13 22 24
REMARK Flexibility Score: inf
ROOT
ATOM      1  C   UNL     1      24.184 -54.112 154.307  1.00  0.00     0.010 C 
ENDROOT
BRANCH   1   2
ATOM      2  C   UNL     1      24.930 -53.251 153.275  1.00  0.00     0.005 C 
BRANCH   2   3
ATOM      3  C   UNL     1      25.874 -52.233 153.930  1.00  0.00     0.027 C 
BRANCH   3   4
ATOM      4  C   UNL     1      26.732 -51.553 152.898  1.00  0.00    -0.031 C 
ATOM      5  C   UNL     1      28.065 -51.470 153.037  1.00  0.00    -0.028 C 
BRANCH   5   6
ATOM      6  C   UNL     1      28.923 -50.799 151.990  1.00  0.00     0.005 C 
ATOM      7  C   UNL     1      28.482 -51.220 150.584  1.00  0.00     0.012 C 
ATOM      8  C   UNL     1      28.853 -49.275 152.137  1.00  0.00     0.012 C 
ENDBRANCH   5   6
ENDBRANCH   3   4
ENDBRANCH   2   3
ENDBRANCH   1   2
BRANCH   1   9
ATOM      9  C   UNL     1      24.345 -53.585 155.740  1.00  0.00     0.100 C 
BRANCH   9  10
ATOM     10  C   UNL     1      23.041 -53.040 156.238  1.00  0.00     0.220 C 
ATOM     11  O   UNL     1      22.145 -53.837 156.627  1.00  0.00    -0.275 OA
ATOM     12  N   UNL     1      22.839 -51.622 156.318  1.00  0.00    -0.352 N 
ATOM     13  H   UNL     1      23.595 -50.984 155.983  1.00  0.00     0.163 HD
BRANCH  12  14
ATOM     14  C   UNL     1      21.710 -51.032 157.033  1.00  0.00     0.151 C 
BRANCH  14  15
ATOM     15  C   UNL     1      22.175 -50.492 158.357  1.00  0.00    -0.025 A 
ATOM     16  C   UNL     1      21.267 -50.323 159.414  1.00  0.00     0.056 A 
ATOM     17  C   UNL     1      23.535 -50.221 158.565  1.00  0.00     0.009 A 
ATOM     18  C   UNL     1      21.709 -49.867 160.673  1.00  0.00     0.160 A 
ATOM     19  C   UNL     1      23.978 -49.760 159.807  1.00  0.00     0.050 A 
ATOM     20  C   UNL     1      23.075 -49.580 160.858  1.00  0.00     0.157 A 
BRANCH  18  21
ATOM     21  O   UNL     1      20.827 -49.694 161.751  1.00  0.00    -0.493 OA
ATOM     22  C   UNL     1      20.200 -50.758 162.461  1.00  0.00     0.278 C 
ENDBRANCH  18  21
BRANCH  20  23
ATOM     23  O   UNL     1      23.553 -49.116 162.085  1.00  0.00    -0.504 OA
ATOM     24  H   UNL     1      24.543 -49.052 162.289  1.00  0.00     0.293 HD
ENDBRANCH  20  23
ENDBRANCH  14  15
ENDBRANCH  12  14
ENDBRANCH   9  10
ENDBRANCH   1   9
TORSDOF 10
ENDMDL
MODEL 9
REMARK VINA RESULT:    -4.871     14.938     16.638
REMARK INTER + INTRA:          -8.327
REMARK INTER:                  -7.594
REMARK INTRA:                  -0.733
REMARK UNBOUND:                -0.751
REMARK SMILES COc1cc(CNC(=O)CCCCC=CC(C)C)ccc1O
REMARK SMILES IDX 11 1 12 2 13 3 14 4 15 5 16 6 17 7 18 8 10 9 8 10 9 11 7 12
REMARK SMILES IDX 6 14 5 15 4 16 19 17 3 18 20 19 21 20 2 21 1 22 22 23
REMARK H PARENT 7 13 22 24
REMARK Flexibility Score: inf
ROOT
ATOM      1  C   UNL     1      21.940 -34.404 157.310  1.00  0.00     0.010 C 
ENDROOT
BRANCH   1   2
ATOM      2  C   UNL     1      22.972 -35.369 157.912  1.00  0.00     0.005 C 
BRANCH   2   3
ATOM      3  C   UNL     1      22.515 -36.834 157.851  1.00  0.00     0.027 C 
BRANCH   3   4
ATOM      4  C   UNL     1      21.036 -36.947 158.102  1.00  0.00    -0.031 C 
ATOM      5  C   UNL     1      20.414 -38.137 158.108  1.00  0.00    -0.028 C 
BRANCH   5   6
ATOM      6  C   UNL     1      18.930 -38.246 158.374  1.00  0.00     0.005 C 
ATOM      7  C   UNL     1      18.379 -39.561 157.812  1.00  0.00     0.012 C 
ATOM      8  C   UNL     1      18.648 -38.149 159.878  1.00  0.00     0.012 C 
ENDBRANCH   5   6
ENDBRANCH   3   4
ENDBRANCH   2   3
ENDBRANCH   1   2
BRANCH   1   9
ATOM      9  C   UNL     1      22.129 -34.208 155.799  1.00  0.00     0.100 C 
BRANCH   9  10
ATOM     10  C   UNL     1      20.805 -34.268 155.101  1.00  0.00     0.220 C 
ATOM     11  O   UNL     1      19.746 -34.321 155.784  1.00  0.00    -0.275 OA
ATOM     12  N   UNL     1      20.744 -34.213 153.669  1.00  0.00    -0.352 N 
ATOM     13  H   UNL     1      21.636 -34.175 153.127  1.00  0.00     0.163 HD
BRANCH  12  14
ATOM     14  C   UNL     1      19.492 -34.002 152.946  1.00  0.00     0.151 C 
BRANCH  14  15
ATOM     15  C   UNL     1      19.502 -34.801 151.672  1.00  0.00    -0.025 A 
ATOM     16  C   UNL     1      18.417 -35.629 151.344  1.00  0.00     0.056 A 
ATOM     17  C   UNL     1      20.566 -34.669 150.769  1.00  0.00     0.009 A 
ATOM     18  C   UNL     1      18.399 -36.339 150.126  1.00  0.00     0.160 A 
ATOM     19  C   UNL     1      20.559 -35.375 149.564  1.00  0.00     0.050 A 
ATOM     20  C   UNL     1      19.485 -36.210 149.240  1.00  0.00     0.157 A 
BRANCH  18  21
ATOM     21  O   UNL     1      17.325 -37.170 149.767  1.00  0.00    -0.493 OA
ATOM     22  C   UNL     1      16.014 -36.708 149.456  1.00  0.00     0.278 C 
ENDBRANCH  18  21
BRANCH  20  23
ATOM     23  O   UNL     1      19.513 -36.903 148.029  1.00  0.00    -0.504 OA
ATOM     24  H   UNL     1      18.675 -37.083 147.489  1.00  0.00     0.293 HD
ENDBRANCH  20  23
ENDBRANCH  14  15
ENDBRANCH  12  14
ENDBRANCH   9  10
ENDBRANCH   1   9
TORSDOF 10
ENDMDL
