MODEL 1
REMARK VINA RESULT:    -4.229      0.000      0.000
REMARK INTER + INTRA:          -5.173
REMARK INTER:                  -5.095
REMARK INTRA:                  -0.078
REMARK UNBOUND:                -0.078
REMARK SMILES CC[C@@H](C)[C@@H]([NH3+])C(=O)[O-]
REMARK SMILES IDX 3 1 4 2 5 3 6 4 7 8 8 9 9 10 2 11 1 12
REMARK H PARENT 6 5 6 6 6 7
REMARK Flexibility Score: inf
ROOT
ATOM      1  C   UNL     1     185.464 208.677  93.284  1.00  0.00     0.050 C 
ATOM      2  C   UNL     1     184.700 209.625  92.334  1.00  0.00     0.014 C 
ENDROOT
BRANCH   1   3
ATOM      3  C   UNL     1     184.537 207.505  93.744  1.00  0.00     0.230 C 
BRANCH   3   4
ATOM      4  N   UNL     1     184.595 206.355  92.827  1.00  0.00    -0.350 N 
ATOM      5  H   UNL     1     184.517 205.462  93.362  1.00  0.00     0.345 HD
ATOM      6  H   UNL     1     185.517 206.332  92.333  1.00  0.00     0.345 HD
ATOM      7  H   UNL     1     183.830 206.411  92.115  1.00  0.00     0.345 HD
ENDBRANCH   3   4
BRANCH   3   8
ATOM      8  C   UNL     1     184.896 207.048  95.137  1.00  0.00     0.099 C 
ATOM      9  O   UNL     1     185.107 207.890  96.051  1.00  0.00    -0.544 OA
ATOM     10  O   UNL     1     184.995 205.692  95.419  1.00  0.00    -0.544 OA
ENDBRANCH   3   8
ENDBRANCH   1   3
BRANCH   1  11
ATOM     11  C   UNL     1     186.756 208.150  92.605  1.00  0.00     0.006 C 
ATOM     12  C   UNL     1     187.872 209.193  92.518  1.00  0.00     0.004 C 
ENDBRANCH   1  11
TORSDOF 4
ENDMDL
MODEL 2
REMARK VINA RESULT:    -4.181      2.940      3.943
REMARK INTER + INTRA:          -5.115
REMARK INTER:                  -5.012
REMARK INTRA:                  -0.103
REMARK UNBOUND:                -0.078
REMARK SMILES CC[C@@H](C)[C@@H]([NH3+])C(=O)[O-]
REMARK SMILES IDX 3 1 4 2 5 3 6 4 7 8 8 9 9 10 2 11 1 12
REMARK H PARENT 6 5 6 6 6 7
REMARK Flexibility Score: inf
ROOT
ATOM      1  C   UNL     1     185.832 207.040  93.853  1.00  0.00     0.050 C 
ATOM      2  C   UNL     1     184.478 206.762  93.164  1.00  0.00     0.014 C 
ENDROOT
BRANCH   1   3
ATOM      3  C   UNL     1     186.152 208.570  93.824  1.00  0.00     0.230 C 
BRANCH   3   4
ATOM      4  N   UNL     1     186.980 208.989  94.967  1.00  0.00    -0.350 N 
ATOM      5  H   UNL     1     187.596 208.204  95.274  1.00  0.00     0.345 HD
ATOM      6  H   UNL     1     186.373 209.234  95.783  1.00  0.00     0.345 HD
ATOM      7  H   UNL     1     187.562 209.821  94.716  1.00  0.00     0.345 HD
ENDBRANCH   3   4
BRANCH   3   8
ATOM      8  C   UNL     1     186.849 208.951  92.540  1.00  0.00     0.099 C 
ATOM      9  O   UNL     1     186.294 209.732  91.720  1.00  0.00    -0.544 OA
ATOM     10  O   UNL     1     188.109 208.441  92.255  1.00  0.00    -0.544 OA
ENDBRANCH   3   8
ENDBRANCH   1   3
BRANCH   1  11
ATOM     11  C   UNL     1     185.831 206.485  95.302  1.00  0.00     0.006 C 
ATOM     12  C   UNL     1     184.445 206.469  95.951  1.00  0.00     0.004 C 
ENDBRANCH   1  11
TORSDOF 4
ENDMDL
MODEL 3
REMARK VINA RESULT:    -4.151      2.223      2.980
REMARK INTER + INTRA:          -5.079
REMARK INTER:                  -4.975
REMARK INTRA:                  -0.104
REMARK UNBOUND:                -0.078
REMARK SMILES CC[C@@H](C)[C@@H]([NH3+])C(=O)[O-]
REMARK SMILES IDX 3 1 4 2 5 3 6 4 7 8 8 9 9 10 2 11 1 12
REMARK H PARENT 6 5 6 6 6 7
REMARK Flexibility Score: inf
ROOT
ATOM      1  C   UNL     1     185.972 207.655  93.409  1.00  0.00     0.050 C 
ATOM      2  C   UNL     1     186.758 208.502  92.383  1.00  0.00     0.014 C 
ENDROOT
BRANCH   1   3
ATOM      3  C   UNL     1     186.358 208.071  94.866  1.00  0.00     0.230 C 
BRANCH   3   4
ATOM      4  N   UNL     1     185.249 207.876  95.814  1.00  0.00    -0.350 N 
ATOM      5  H   UNL     1     185.192 206.874  96.104  1.00  0.00     0.345 HD
ATOM      6  H   UNL     1     184.337 208.110  95.358  1.00  0.00     0.345 HD
ATOM      7  H   UNL     1     185.372 208.483  96.657  1.00  0.00     0.345 HD
ENDBRANCH   3   4
BRANCH   3   8
ATOM      8  C   UNL     1     187.563 207.299  95.346  1.00  0.00     0.099 C 
ATOM      9  O   UNL     1     187.544 206.040  95.377  1.00  0.00    -0.544 OA
ATOM     10  O   UNL     1     188.703 207.977  95.758  1.00  0.00    -0.544 OA
ENDBRANCH   3   8
ENDBRANCH   1   3
BRANCH   1  11
ATOM     11  C   UNL     1     184.444 207.782  93.165  1.00  0.00     0.006 C 
ATOM     12  C   UNL     1     184.052 209.033  92.376  1.00  0.00     0.004 C 
ENDBRANCH   1  11
TORSDOF 4
ENDMDL
MODEL 4
REMARK VINA RESULT:    -4.123      1.771      2.616
REMARK INTER + INTRA:          -5.044
REMARK INTER:                  -4.894
REMARK INTRA:                  -0.150
REMARK UNBOUND:                -0.078
REMARK SMILES CC[C@@H](C)[C@@H]([NH3+])C(=O)[O-]
REMARK SMILES IDX 3 1 4 2 5 3 6 4 7 8 8 9 9 10 2 11 1 12
REMARK H PARENT 6 5 6 6 6 7
REMARK Flexibility Score: inf
ROOT
ATOM      1  C   UNL     1     186.449 208.512  92.699  1.00  0.00     0.050 C 
ATOM      2  C   UNL     1     187.928 208.465  92.257  1.00  0.00     0.014 C 
ENDROOT
BRANCH   1   3
ATOM      3  C   UNL     1     186.284 207.871  94.116  1.00  0.00     0.230 C 
BRANCH   3   4
ATOM      4  N   UNL     1     186.551 208.833  95.198  1.00  0.00    -0.350 N 
ATOM      5  H   UNL     1     186.910 208.336  96.043  1.00  0.00     0.345 HD
ATOM      6  H   UNL     1     185.665 209.312  95.483  1.00  0.00     0.345 HD
ATOM      7  H   UNL     1     187.242 209.554  94.889  1.00  0.00     0.345 HD
ENDBRANCH   3   4
BRANCH   3   8
ATOM      8  C   UNL     1     184.898 207.299  94.291  1.00  0.00     0.099 C 
ATOM      9  O   UNL     1     184.315 206.733  93.328  1.00  0.00    -0.544 OA
ATOM     10  O   UNL     1     184.258 207.393  95.520  1.00  0.00    -0.544 OA
ENDBRANCH   3   8
ENDBRANCH   1   3
BRANCH   1  11
ATOM     11  C   UNL     1     185.916 209.970  92.667  1.00  0.00     0.006 C 
ATOM     12  C   UNL     1     184.600 210.125  91.902  1.00  0.00     0.004 C 
ENDBRANCH   1  11
TORSDOF 4
ENDMDL
MODEL 5
REMARK VINA RESULT:    -4.050      1.649      1.835
REMARK INTER + INTRA:          -4.957
REMARK INTER:                  -4.902
REMARK INTRA:                  -0.056
REMARK UNBOUND:                -0.078
REMARK SMILES CC[C@@H](C)[C@@H]([NH3+])C(=O)[O-]
REMARK SMILES IDX 3 1 4 2 5 3 6 4 7 8 8 9 9 10 2 11 1 12
REMARK H PARENT 6 5 6 6 6 7
REMARK Flexibility Score: inf
ROOT
ATOM      1  C   UNL     1     185.068 208.369  93.571  1.00  0.00     0.050 C 
ATOM      2  C   UNL     1     184.375 207.333  92.658  1.00  0.00     0.014 C 
ENDROOT
BRANCH   1   3
ATOM      3  C   UNL     1     185.751 207.656  94.783  1.00  0.00     0.230 C 
BRANCH   3   4
ATOM      4  N   UNL     1     186.289 208.613  95.763  1.00  0.00    -0.350 N 
ATOM      5  H   UNL     1     186.234 209.586  95.387  1.00  0.00     0.345 HD
ATOM      6  H   UNL     1     187.300 208.416  95.944  1.00  0.00     0.345 HD
ATOM      7  H   UNL     1     185.765 208.551  96.666  1.00  0.00     0.345 HD
ENDBRANCH   3   4
BRANCH   3   8
ATOM      8  C   UNL     1     184.785 206.725  95.476  1.00  0.00     0.099 C 
ATOM      9  O   UNL     1     183.702 207.165  95.947  1.00  0.00    -0.544 OA
ATOM     10  O   UNL     1     185.087 205.376  95.598  1.00  0.00    -0.544 OA
ENDBRANCH   3   8
ENDBRANCH   1   3
BRANCH   1  11
ATOM     11  C   UNL     1     186.085 209.216  92.760  1.00  0.00     0.006 C 
ATOM     12  C   UNL     1     187.348 208.445  92.367  1.00  0.00     0.004 C 
ENDBRANCH   1  11
TORSDOF 4
ENDMDL
MODEL 6
REMARK VINA RESULT:    -4.037      2.434      3.950
REMARK INTER + INTRA:          -4.941
REMARK INTER:                  -4.839
REMARK INTRA:                  -0.102
REMARK UNBOUND:                -0.078
REMARK SMILES CC[C@@H](C)[C@@H]([NH3+])C(=O)[O-]
REMARK SMILES IDX 3 1 4 2 5 3 6 4 7 8 8 9 9 10 2 11 1 12
REMARK H PARENT 6 5 6 6 6 7
REMARK Flexibility Score: inf
ROOT
ATOM      1  C   UNL     1     185.966 207.775  94.849  1.00  0.00     0.050 C 
ATOM      2  C   UNL     1     187.025 206.690  95.143  1.00  0.00     0.014 C 
ENDROOT
BRANCH   1   3
ATOM      3  C   UNL     1     185.828 207.996  93.307  1.00  0.00     0.230 C 
BRANCH   3   4
ATOM      4  N   UNL     1     184.423 208.018  92.869  1.00  0.00    -0.350 N 
ATOM      5  H   UNL     1     184.241 207.239  92.198  1.00  0.00     0.345 HD
ATOM      6  H   UNL     1     184.215 208.909  92.361  1.00  0.00     0.345 HD
ATOM      7  H   UNL     1     183.779 207.939  93.690  1.00  0.00     0.345 HD
ENDBRANCH   3   4
BRANCH   3   8
ATOM      8  C   UNL     1     186.500 209.281  92.884  1.00  0.00     0.099 C 
ATOM      9  O   UNL     1     186.398 209.693  91.698  1.00  0.00    -0.544 OA
ATOM     10  O   UNL     1     187.235 210.016  93.805  1.00  0.00    -0.544 OA
ENDBRANCH   3   8
ENDBRANCH   1   3
BRANCH   1  11
ATOM     11  C   UNL     1     184.605 207.398  95.494  1.00  0.00     0.006 C 
ATOM     12  C   UNL     1     184.561 205.969  96.040  1.00  0.00     0.004 C 
ENDBRANCH   1  11
TORSDOF 4
ENDMDL
MODEL 7
REMARK VINA RESULT:    -3.995     17.779     18.467
REMARK INTER + INTRA:          -4.891
REMARK INTER:                  -4.755
REMARK INTRA:                  -0.136
REMARK UNBOUND:                -0.078
REMARK SMILES CC[C@@H](C)[C@@H]([NH3+])C(=O)[O-]
REMARK SMILES IDX 3 1 4 2 5 3 6 4 7 8 8 9 9 10 2 11 1 12
REMARK H PARENT 6 5 6 6 6 7
REMARK Flexibility Score: inf
ROOT
ATOM      1  C   UNL     1     190.422 193.631  82.555  1.00  0.00     0.050 C 
ATOM      2  C   UNL     1     189.118 193.020  81.997  1.00  0.00     0.014 C 
ENDROOT
BRANCH   1   3
ATOM      3  C   UNL     1     190.521 195.144  82.173  1.00  0.00     0.230 C 
BRANCH   3   4
ATOM      4  N   UNL     1     189.943 196.020  83.206  1.00  0.00    -0.350 N 
ATOM      5  H   UNL     1     188.951 195.752  83.394  1.00  0.00     0.345 HD
ATOM      6  H   UNL     1     189.930 197.012  82.874  1.00  0.00     0.345 HD
ATOM      7  H   UNL     1     190.500 195.966  84.090  1.00  0.00     0.345 HD
ENDBRANCH   3   4
BRANCH   3   8
ATOM      8  C   UNL     1     191.955 195.546  81.927  1.00  0.00     0.099 C 
ATOM      9  O   UNL     1     192.415 196.608  82.428  1.00  0.00    -0.544 OA
ATOM     10  O   UNL     1     192.777 194.746  81.145  1.00  0.00    -0.544 OA
ENDBRANCH   3   8
ENDBRANCH   1   3
BRANCH   1  11
ATOM     11  C   UNL     1     190.508 193.424  84.092  1.00  0.00     0.006 C 
ATOM     12  C   UNL     1     191.907 193.041  84.581  1.00  0.00     0.004 C 
ENDBRANCH   1  11
TORSDOF 4
ENDMDL
MODEL 8
REMARK VINA RESULT:    -3.901     18.583     19.443
REMARK INTER + INTRA:          -4.777
REMARK INTER:                  -4.625
REMARK INTRA:                  -0.152
REMARK UNBOUND:                -0.078
REMARK SMILES CC[C@@H](C)[C@@H]([NH3+])C(=O)[O-]
REMARK SMILES IDX 3 1 4 2 5 3 6 4 7 8 8 9 9 10 2 11 1 12
REMARK H PARENT 6 5 6 6 6 7
REMARK Flexibility Score: inf
ROOT
ATOM      1  C   UNL     1     191.305 194.773  82.693  1.00  0.00     0.050 C 
ATOM      2  C   UNL     1     191.691 196.238  82.993  1.00  0.00     0.014 C 
ENDROOT
BRANCH   1   3
ATOM      3  C   UNL     1     191.707 194.393  81.231  1.00  0.00     0.230 C 
BRANCH   3   4
ATOM      4  N   UNL     1     193.125 194.012  81.123  1.00  0.00    -0.350 N 
ATOM      5  H   UNL     1     193.576 194.518  80.328  1.00  0.00     0.345 HD
ATOM      6  H   UNL     1     193.211 192.990  80.918  1.00  0.00     0.345 HD
ATOM      7  H   UNL     1     193.633 194.223  82.013  1.00  0.00     0.345 HD
ENDBRANCH   3   4
BRANCH   3   8
ATOM      8  C   UNL     1     190.849 193.264  80.711  1.00  0.00     0.099 C 
ATOM      9  O   UNL     1     191.349 192.368  79.980  1.00  0.00    -0.544 OA
ATOM     10  O   UNL     1     189.501 193.210  81.038  1.00  0.00    -0.544 OA
ENDBRANCH   3   8
ENDBRANCH   1   3
BRANCH   1  11
ATOM     11  C   UNL     1     191.952 193.815  83.730  1.00  0.00     0.006 C 
ATOM     12  C   UNL     1     190.942 192.915  84.446  1.00  0.00     0.004 C 
ENDBRANCH   1  11
TORSDOF 4
ENDMDL
MODEL 9
REMARK VINA RESULT:    -2.962      2.202      3.444
REMARK INTER + INTRA:          -3.647
REMARK INTER:                  -3.549
REMARK INTRA:                  -0.098
REMARK UNBOUND:                -0.078
REMARK SMILES CC[C@@H](C)[C@@H]([NH3+])C(=O)[O-]
REMARK SMILES IDX 3 1 4 2 5 3 6 4 7 8 8 9 9 10 2 11 1 12
REMARK H PARENT 6 5 6 6 6 7
REMARK Flexibility Score: inf
ROOT
ATOM      1  C   UNL     1     185.123 207.219  93.986  1.00  0.00     0.050 C 
ATOM      2  C   UNL     1     184.140 207.780  92.934  1.00  0.00     0.014 C 
ENDROOT
BRANCH   1   3
ATOM      3  C   UNL     1     186.505 207.941  93.878  1.00  0.00     0.230 C 
BRANCH   3   4
ATOM      4  N   UNL     1     186.371 209.407  93.872  1.00  0.00    -0.350 N 
ATOM      5  H   UNL     1     186.254 209.756  92.895  1.00  0.00     0.345 HD
ATOM      6  H   UNL     1     187.240 209.852  94.250  1.00  0.00     0.345 HD
ATOM      7  H   UNL     1     185.557 209.706  94.456  1.00  0.00     0.345 HD
ENDBRANCH   3   4
BRANCH   3   8
ATOM      8  C   UNL     1     187.419 207.530  95.007  1.00  0.00     0.099 C 
ATOM      9  O   UNL     1     187.884 206.360  95.058  1.00  0.00    -0.544 OA
ATOM     10  O   UNL     1     187.751 208.443  95.999  1.00  0.00    -0.544 OA
ENDBRANCH   3   8
ENDBRANCH   1   3
BRANCH   1  11
ATOM     11  C   UNL     1     184.524 207.345  95.413  1.00  0.00     0.006 C 
ATOM     12  C   UNL     1     184.351 206.001  96.125  1.00  0.00     0.004 C 
ENDBRANCH   1  11
TORSDOF 4
ENDMDL
