MODEL 1
REMARK VINA RESULT:    -3.742      0.000      0.000
REMARK INTER + INTRA:          -5.742
REMARK INTER:                  -5.274
REMARK INTRA:                  -0.468
REMARK UNBOUND:                -0.468
REMARK SMILES CCCCCCCCC(=O)[O-]
REMARK SMILES IDX 6 1 7 2 8 3 9 4 10 5 11 6 5 7 4 8 3 9 2 10 1 11
REMARK H PARENT
REMARK Flexibility Score: inf
ROOT
ATOM      1  C   UNL     1      -5.543   5.800  -3.425  1.00  0.00     0.000 C 
ENDROOT
BRANCH   1   2
ATOM      2  C   UNL     1      -7.075   5.898  -3.484  1.00  0.00     0.006 C 
BRANCH   2   3
ATOM      3  C   UNL     1      -7.553   7.274  -3.014  1.00  0.00     0.053 C 
BRANCH   3   4
ATOM      4  C   UNL     1      -8.357   7.943  -4.085  1.00  0.00     0.041 C 
ATOM      5  O   UNL     1      -8.232   7.588  -5.286  1.00  0.00    -0.550 OA
ATOM      6  O   UNL     1      -9.208   8.992  -3.761  1.00  0.00    -0.550 OA
ENDBRANCH   3   4
ENDBRANCH   2   3
ENDBRANCH   1   2
BRANCH   1   7
ATOM      7  C   UNL     1      -4.859   7.175  -3.329  1.00  0.00     0.000 C 
BRANCH   7   8
ATOM      8  C   UNL     1      -4.480   7.812  -4.682  1.00  0.00    -0.000 C 
BRANCH   8   9
ATOM      9  C   UNL     1      -4.942   9.268  -4.871  1.00  0.00    -0.000 C 
BRANCH   9  10
ATOM     10  C   UNL     1      -4.953   9.703  -6.343  1.00  0.00    -0.003 C 
ATOM     11  C   UNL     1      -3.534   9.851  -6.884  1.00  0.00     0.004 C 
ENDBRANCH   9  10
ENDBRANCH   8   9
ENDBRANCH   7   8
ENDBRANCH   1   7
TORSDOF 7
ENDMDL
MODEL 2
REMARK VINA RESULT:    -3.671     12.374     13.684
REMARK INTER + INTRA:          -5.642
REMARK INTER:                  -5.364
REMARK INTRA:                  -0.278
REMARK UNBOUND:                -0.468
REMARK SMILES CCCCCCCCC(=O)[O-]
REMARK SMILES IDX 6 1 7 2 8 3 9 4 10 5 11 6 5 7 4 8 3 9 2 10 1 11
REMARK H PARENT
REMARK Flexibility Score: inf
ROOT
ATOM      1  C   UNL     1       2.163   7.523   7.189  1.00  0.00     0.000 C 
ENDROOT
BRANCH   1   2
ATOM      2  C   UNL     1       0.940   8.449   7.119  1.00  0.00     0.006 C 
BRANCH   2   3
ATOM      3  C   UNL     1      -0.325   7.721   7.584  1.00  0.00     0.053 C 
BRANCH   3   4
ATOM      4  C   UNL     1      -1.529   8.258   6.875  1.00  0.00     0.041 C 
ATOM      5  O   UNL     1      -1.821   9.480   6.960  1.00  0.00    -0.550 OA
ATOM      6  O   UNL     1      -2.356   7.399   6.163  1.00  0.00    -0.550 OA
ENDBRANCH   3   4
ENDBRANCH   2   3
ENDBRANCH   1   2
BRANCH   1   7
ATOM      7  C   UNL     1       3.305   7.971   6.260  1.00  0.00     0.000 C 
BRANCH   7   8
ATOM      8  C   UNL     1       4.513   7.013   6.201  1.00  0.00    -0.000 C 
BRANCH   8   9
ATOM      9  C   UNL     1       4.160   5.515   6.225  1.00  0.00    -0.000 C 
BRANCH   9  10
ATOM     10  C   UNL     1       3.855   4.952   4.830  1.00  0.00    -0.003 C 
ATOM     11  C   UNL     1       3.147   3.603   4.924  1.00  0.00     0.004 C 
ENDBRANCH   9  10
ENDBRANCH   8   9
ENDBRANCH   7   8
ENDBRANCH   1   7
TORSDOF 7
ENDMDL
MODEL 3
REMARK VINA RESULT:    -3.570      2.352      4.475
REMARK INTER + INTRA:          -5.499
REMARK INTER:                  -4.938
REMARK INTRA:                  -0.561
REMARK UNBOUND:                -0.468
REMARK SMILES CCCCCCCCC(=O)[O-]
REMARK SMILES IDX 6 1 7 2 8 3 9 4 10 5 11 6 5 7 4 8 3 9 2 10 1 11
REMARK H PARENT
REMARK Flexibility Score: inf
ROOT
ATOM      1  C   UNL     1      -7.269   8.573  -4.665  1.00  0.00     0.000 C 
ENDROOT
BRANCH   1   2
ATOM      2  C   UNL     1      -6.272   9.722  -4.873  1.00  0.00     0.006 C 
BRANCH   2   3
ATOM      3  C   UNL     1      -4.880   9.183  -5.214  1.00  0.00     0.053 C 
BRANCH   3   4
ATOM      4  C   UNL     1      -4.492   9.577  -6.606  1.00  0.00     0.041 C 
ATOM      5  O   UNL     1      -5.369   9.673  -7.504  1.00  0.00    -0.550 OA
ATOM      6  O   UNL     1      -3.155   9.788  -6.921  1.00  0.00    -0.550 OA
ENDBRANCH   3   4
ENDBRANCH   2   3
ENDBRANCH   1   2
BRANCH   1   7
ATOM      7  C   UNL     1      -7.297   8.062  -3.213  1.00  0.00     0.000 C 
BRANCH   7   8
ATOM      8  C   UNL     1      -7.507   6.542  -3.059  1.00  0.00    -0.000 C 
BRANCH   8   9
ATOM      9  C   UNL     1      -6.299   5.672  -3.452  1.00  0.00    -0.000 C 
BRANCH   9  10
ATOM     10  C   UNL     1      -4.958   6.291  -3.033  1.00  0.00    -0.003 C 
ATOM     11  C   UNL     1      -3.800   5.672  -3.810  1.00  0.00     0.004 C 
ENDBRANCH   9  10
ENDBRANCH   8   9
ENDBRANCH   7   8
ENDBRANCH   1   7
TORSDOF 7
ENDMDL
MODEL 4
REMARK VINA RESULT:    -3.550      2.245      3.869
REMARK INTER + INTRA:          -5.470
REMARK INTER:                  -4.784
REMARK INTRA:                  -0.687
REMARK UNBOUND:                -0.468
REMARK SMILES CCCCCCCCC(=O)[O-]
REMARK SMILES IDX 6 1 7 2 8 3 9 4 10 5 11 6 5 7 4 8 3 9 2 10 1 11
REMARK H PARENT
REMARK Flexibility Score: inf
ROOT
ATOM      1  C   UNL     1      -5.571   9.120  -1.482  1.00  0.00     0.000 C 
ENDROOT
BRANCH   1   2
ATOM      2  C   UNL     1      -6.918   9.642  -0.962  1.00  0.00     0.006 C 
BRANCH   2   3
ATOM      3  C   UNL     1      -8.053   9.279  -1.923  1.00  0.00     0.053 C 
BRANCH   3   4
ATOM      4  C   UNL     1      -9.058   8.403  -1.242  1.00  0.00     0.041 C 
ATOM      5  O   UNL     1      -9.180   8.436   0.010  1.00  0.00    -0.550 OA
ATOM      6  O   UNL     1      -9.823   7.515  -1.988  1.00  0.00    -0.550 OA
ENDBRANCH   3   4
ENDBRANCH   2   3
ENDBRANCH   1   2
BRANCH   1   7
ATOM      7  C   UNL     1      -5.370   9.377  -2.986  1.00  0.00     0.000 C 
BRANCH   7   8
ATOM      8  C   UNL     1      -4.910   8.153  -3.803  1.00  0.00    -0.000 C 
BRANCH   8   9
ATOM      9  C   UNL     1      -4.674   6.871  -2.983  1.00  0.00    -0.000 C 
BRANCH   9  10
ATOM     10  C   UNL     1      -5.494   5.678  -3.493  1.00  0.00    -0.003 C 
ATOM     11  C   UNL     1      -6.991   5.947  -3.372  1.00  0.00     0.004 C 
ENDBRANCH   9  10
ENDBRANCH   8   9
ENDBRANCH   7   8
ENDBRANCH   1   7
TORSDOF 7
ENDMDL
MODEL 5
REMARK VINA RESULT:    -3.500     19.033     20.051
REMARK INTER + INTRA:          -5.400
REMARK INTER:                  -5.055
REMARK INTRA:                  -0.345
REMARK UNBOUND:                -0.468
REMARK SMILES CCCCCCCCC(=O)[O-]
REMARK SMILES IDX 6 1 7 2 8 3 9 4 10 5 11 6 5 7 4 8 3 9 2 10 1 11
REMARK H PARENT
REMARK Flexibility Score: inf
ROOT
ATOM      1  C   UNL     1       1.859  -7.423   4.671  1.00  0.00     0.000 C 
ENDROOT
BRANCH   1   2
ATOM      2  C   UNL     1       1.111  -8.652   4.136  1.00  0.00     0.006 C 
BRANCH   2   3
ATOM      3  C   UNL     1      -0.139  -8.938   4.972  1.00  0.00     0.053 C 
BRANCH   3   4
ATOM      4  C   UNL     1      -1.225  -7.962   4.644  1.00  0.00     0.041 C 
ATOM      5  O   UNL     1      -1.671  -7.883   3.469  1.00  0.00    -0.550 OA
ATOM      6  O   UNL     1      -1.708  -7.105   5.624  1.00  0.00    -0.550 OA
ENDBRANCH   3   4
ENDBRANCH   2   3
ENDBRANCH   1   2
BRANCH   1   7
ATOM      7  C   UNL     1       3.370  -7.667   4.837  1.00  0.00     0.000 C 
BRANCH   7   8
ATOM      8  C   UNL     1       3.987  -8.659   3.829  1.00  0.00    -0.000 C 
BRANCH   8   9
ATOM      9  C   UNL     1       5.479  -8.436   3.524  1.00  0.00    -0.000 C 
BRANCH   9  10
ATOM     10  C   UNL     1       6.057  -7.207   4.241  1.00  0.00    -0.003 C 
ATOM     11  C   UNL     1       7.075  -6.486   3.362  1.00  0.00     0.004 C 
ENDBRANCH   9  10
ENDBRANCH   8   9
ENDBRANCH   7   8
ENDBRANCH   1   7
TORSDOF 7
ENDMDL
MODEL 6
REMARK VINA RESULT:    -3.442      2.925      4.429
REMARK INTER + INTRA:          -5.318
REMARK INTER:                  -4.733
REMARK INTRA:                  -0.586
REMARK UNBOUND:                -0.468
REMARK SMILES CCCCCCCCC(=O)[O-]
REMARK SMILES IDX 6 1 7 2 8 3 9 4 10 5 11 6 5 7 4 8 3 9 2 10 1 11
REMARK H PARENT
REMARK Flexibility Score: inf
ROOT
ATOM      1  C   UNL     1      -8.564   8.822  -1.417  1.00  0.00     0.000 C 
ENDROOT
BRANCH   1   2
ATOM      2  C   UNL     1      -7.769  10.125  -1.588  1.00  0.00     0.006 C 
BRANCH   2   3
ATOM      3  C   UNL     1      -6.458  10.072  -0.799  1.00  0.00     0.053 C 
BRANCH   3   4
ATOM      4  C   UNL     1      -5.381   9.428  -1.615  1.00  0.00     0.041 C 
ATOM      5  O   UNL     1      -5.304   9.652  -2.852  1.00  0.00    -0.550 OA
ATOM      6  O   UNL     1      -4.494   8.541  -1.018  1.00  0.00    -0.550 OA
ENDBRANCH   3   4
ENDBRANCH   2   3
ENDBRANCH   1   2
BRANCH   1   7
ATOM      7  C   UNL     1      -8.676   8.015  -2.723  1.00  0.00     0.000 C 
BRANCH   7   8
ATOM      8  C   UNL     1      -7.876   6.696  -2.747  1.00  0.00    -0.000 C 
BRANCH   8   9
ATOM      9  C   UNL     1      -6.833   6.586  -3.874  1.00  0.00    -0.000 C 
BRANCH   9  10
ATOM     10  C   UNL     1      -5.657   5.669  -3.509  1.00  0.00    -0.003 C 
ATOM     11  C   UNL     1      -4.324   6.397  -3.660  1.00  0.00     0.004 C 
ENDBRANCH   9  10
ENDBRANCH   8   9
ENDBRANCH   7   8
ENDBRANCH   1   7
TORSDOF 7
ENDMDL
MODEL 7
REMARK VINA RESULT:    -3.428      2.122      3.119
REMARK INTER + INTRA:          -5.299
REMARK INTER:                  -4.752
REMARK INTRA:                  -0.547
REMARK UNBOUND:                -0.468
REMARK SMILES CCCCCCCCC(=O)[O-]
REMARK SMILES IDX 6 1 7 2 8 3 9 4 10 5 11 6 5 7 4 8 3 9 2 10 1 11
REMARK H PARENT
REMARK Flexibility Score: inf
ROOT
ATOM      1  C   UNL     1      -6.870   9.921  -2.694  1.00  0.00     0.000 C 
ENDROOT
BRANCH   1   2
ATOM      2  C   UNL     1      -8.083   8.987  -2.584  1.00  0.00     0.006 C 
BRANCH   2   3
ATOM      3  C   UNL     1      -8.937   9.048  -3.853  1.00  0.00     0.053 C 
BRANCH   3   4
ATOM      4  C   UNL     1      -8.263   8.322  -4.975  1.00  0.00     0.041 C 
ATOM      5  O   UNL     1      -8.142   7.070  -4.936  1.00  0.00    -0.550 OA
ATOM      6  O   UNL     1      -7.724   9.035  -6.039  1.00  0.00    -0.550 OA
ENDBRANCH   3   4
ENDBRANCH   2   3
ENDBRANCH   1   2
BRANCH   1   7
ATOM      7  C   UNL     1      -5.634   9.386  -1.949  1.00  0.00     0.000 C 
BRANCH   7   8
ATOM      8  C   UNL     1      -5.120   8.015  -2.435  1.00  0.00    -0.000 C 
BRANCH   8   9
ATOM      9  C   UNL     1      -4.789   7.936  -3.937  1.00  0.00    -0.000 C 
BRANCH   9  10
ATOM     10  C   UNL     1      -4.181   6.586  -4.342  1.00  0.00    -0.003 C 
ATOM     11  C   UNL     1      -4.080   5.646  -3.144  1.00  0.00     0.004 C 
ENDBRANCH   9  10
ENDBRANCH   8   9
ENDBRANCH   7   8
ENDBRANCH   1   7
TORSDOF 7
ENDMDL
MODEL 8
REMARK VINA RESULT:    -3.421      2.230      4.308
REMARK INTER + INTRA:          -5.289
REMARK INTER:                  -4.701
REMARK INTRA:                  -0.589
REMARK UNBOUND:                -0.468
REMARK SMILES CCCCCCCCC(=O)[O-]
REMARK SMILES IDX 6 1 7 2 8 3 9 4 10 5 11 6 5 7 4 8 3 9 2 10 1 11
REMARK H PARENT
REMARK Flexibility Score: inf
ROOT
ATOM      1  C   UNL     1      -4.893   7.840  -2.196  1.00  0.00     0.000 C 
ENDROOT
BRANCH   1   2
ATOM      2  C   UNL     1      -5.077   7.238  -3.596  1.00  0.00     0.006 C 
BRANCH   2   3
ATOM      3  C   UNL     1      -5.921   5.962  -3.536  1.00  0.00     0.053 C 
BRANCH   3   4
ATOM      4  C   UNL     1      -7.377   6.291  -3.640  1.00  0.00     0.041 C 
ATOM      5  O   UNL     1      -8.183   5.885  -2.762  1.00  0.00    -0.550 OA
ATOM      6  O   UNL     1      -7.851   7.004  -4.734  1.00  0.00    -0.550 OA
ENDBRANCH   3   4
ENDBRANCH   2   3
ENDBRANCH   1   2
BRANCH   1   7
ATOM      7  C   UNL     1      -5.296   9.324  -2.126  1.00  0.00     0.000 C 
BRANCH   7   8
ATOM      8  C   UNL     1      -6.800   9.604  -2.323  1.00  0.00    -0.000 C 
BRANCH   8   9
ATOM      9  C   UNL     1      -7.678   9.353  -1.083  1.00  0.00    -0.000 C 
BRANCH   9  10
ATOM     10  C   UNL     1      -9.122   8.978  -1.443  1.00  0.00    -0.003 C 
ATOM     11  C   UNL     1      -9.718   8.026  -0.409  1.00  0.00     0.004 C 
ENDBRANCH   9  10
ENDBRANCH   8   9
ENDBRANCH   7   8
ENDBRANCH   1   7
TORSDOF 7
ENDMDL
MODEL 9
REMARK VINA RESULT:    -3.405     19.435     20.485
REMARK INTER + INTRA:          -5.267
REMARK INTER:                  -4.827
REMARK INTRA:                  -0.440
REMARK UNBOUND:                -0.468
REMARK SMILES CCCCCCCCC(=O)[O-]
REMARK SMILES IDX 6 1 7 2 8 3 9 4 10 5 11 6 5 7 4 8 3 9 2 10 1 11
REMARK H PARENT
REMARK Flexibility Score: inf
ROOT
ATOM      1  C   UNL     1       1.630  -7.287   5.127  1.00  0.00     0.000 C 
ENDROOT
BRANCH   1   2
ATOM      2  C   UNL     1       1.025  -8.471   4.359  1.00  0.00     0.006 C 
BRANCH   2   3
ATOM      3  C   UNL     1      -0.055  -9.167   5.191  1.00  0.00     0.053 C 
BRANCH   3   4
ATOM      4  C   UNL     1      -1.414  -8.672   4.806  1.00  0.00     0.041 C 
ATOM      5  O   UNL     1      -2.427  -9.023   5.467  1.00  0.00    -0.550 OA
ATOM      6  O   UNL     1      -1.567  -7.863   3.687  1.00  0.00    -0.550 OA
ENDBRANCH   3   4
ENDBRANCH   2   3
ENDBRANCH   1   2
BRANCH   1   7
ATOM      7  C   UNL     1       3.140  -7.122   4.879  1.00  0.00     0.000 C 
BRANCH   7   8
ATOM      8  C   UNL     1       3.962  -8.426   4.958  1.00  0.00    -0.000 C 
BRANCH   8   9
ATOM      9  C   UNL     1       5.256  -8.434   4.124  1.00  0.00    -0.000 C 
BRANCH   9  10
ATOM     10  C   UNL     1       5.201  -9.421   2.950  1.00  0.00    -0.003 C 
ATOM     11  C   UNL     1       3.849 -10.125   2.886  1.00  0.00     0.004 C 
ENDBRANCH   9  10
ENDBRANCH   8   9
ENDBRANCH   7   8
ENDBRANCH   1   7
TORSDOF 7
ENDMDL
