MODEL 1
REMARK VINA RESULT:    -5.814      0.000      0.000
REMARK INTER + INTRA:         -10.987
REMARK INTER:                  -9.893
REMARK INTRA:                  -1.095
REMARK UNBOUND:                -1.095
REMARK SMILES CCCCCCCCCCCCCC(=O)[O-]
REMARK SMILES IDX 8 1 9 2 10 3 11 4 12 5 13 6 14 7 15 8 16 9 7 10 6 11 5 12
REMARK SMILES IDX 4 13 3 14 2 15 1 16
REMARK H PARENT
REMARK Flexibility Score: inf
ROOT
ATOM      1  C   UNL     1      25.906   1.207  62.735  1.00  0.00     0.000 C 
ENDROOT
BRANCH   1   2
ATOM      2  C   UNL     1      25.033   0.067  62.189  1.00  0.00     0.000 C 
BRANCH   2   3
ATOM      3  C   UNL     1      25.900  -1.066  61.622  1.00  0.00     0.000 C 
BRANCH   3   4
ATOM      4  C   UNL     1      25.343  -2.439  62.027  1.00  0.00     0.000 C 
BRANCH   4   5
ATOM      5  C   UNL     1      23.887  -2.643  61.580  1.00  0.00     0.006 C 
BRANCH   5   6
ATOM      6  C   UNL     1      23.743  -3.739  60.517  1.00  0.00     0.053 C 
BRANCH   6   7
ATOM      7  C   UNL     1      23.875  -3.156  59.146  1.00  0.00     0.041 C 
ATOM      8  O   UNL     1      22.866  -2.684  58.558  1.00  0.00    -0.550 OA
ATOM      9  O   UNL     1      25.122  -3.085  58.536  1.00  0.00    -0.550 OA
ENDBRANCH   6   7
ENDBRANCH   5   6
ENDBRANCH   4   5
ENDBRANCH   3   4
ENDBRANCH   2   3
ENDBRANCH   1   2
BRANCH   1  10
ATOM     10  C   UNL     1      25.462   2.588  62.227  1.00  0.00     0.000 C 
BRANCH  10  11
ATOM     11  C   UNL     1      25.462   3.654  63.333  1.00  0.00    -0.000 C 
BRANCH  11  12
ATOM     12  C   UNL     1      25.347   3.005  64.721  1.00  0.00    -0.000 C 
BRANCH  12  13
ATOM     13  C   UNL     1      23.902   2.981  65.245  1.00  0.00    -0.000 C 
BRANCH  13  14
ATOM     14  C   UNL     1      22.931   3.759  64.342  1.00  0.00    -0.000 C 
BRANCH  14  15
ATOM     15  C   UNL     1      21.654   2.965  64.028  1.00  0.00    -0.003 C 
ATOM     16  C   UNL     1      21.886   1.854  63.006  1.00  0.00     0.004 C 
ENDBRANCH  14  15
ENDBRANCH  13  14
ENDBRANCH  12  13
ENDBRANCH  11  12
ENDBRANCH  10  11
ENDBRANCH   1  10
TORSDOF 12
ENDMDL
MODEL 2
REMARK VINA RESULT:    -5.806      3.458      6.667
REMARK INTER + INTRA:         -10.973
REMARK INTER:                  -9.772
REMARK INTRA:                  -1.200
REMARK UNBOUND:                -1.095
REMARK SMILES CCCCCCCCCCCCCC(=O)[O-]
REMARK SMILES IDX 8 1 9 2 10 3 11 4 12 5 13 6 14 7 15 8 16 9 7 10 6 11 5 12
REMARK SMILES IDX 4 13 3 14 2 15 1 16
REMARK H PARENT
REMARK Flexibility Score: inf
ROOT
ATOM      1  C   UNL     1      25.582  -2.552  62.011  1.00  0.00     0.000 C 
ENDROOT
BRANCH   1   2
ATOM      2  C   UNL     1      25.974  -1.153  61.511  1.00  0.00     0.000 C 
BRANCH   2   3
ATOM      3  C   UNL     1      24.998  -0.090  62.033  1.00  0.00     0.000 C 
BRANCH   3   4
ATOM      4  C   UNL     1      25.755   1.119  62.603  1.00  0.00     0.000 C 
BRANCH   4   5
ATOM      5  C   UNL     1      25.176   2.460  62.127  1.00  0.00     0.006 C 
BRANCH   5   6
ATOM      6  C   UNL     1      25.583   3.633  63.027  1.00  0.00     0.053 C 
BRANCH   6   7
ATOM      7  C   UNL     1      24.770   3.632  64.284  1.00  0.00     0.041 C 
ATOM      8  O   UNL     1      25.311   3.365  65.388  1.00  0.00    -0.550 OA
ATOM      9  O   UNL     1      23.425   3.976  64.242  1.00  0.00    -0.550 OA
ENDBRANCH   6   7
ENDBRANCH   5   6
ENDBRANCH   4   5
ENDBRANCH   3   4
ENDBRANCH   2   3
ENDBRANCH   1   2
BRANCH   1  10
ATOM     10  C   UNL     1      25.469  -3.577  60.872  1.00  0.00     0.000 C 
BRANCH  10  11
ATOM     11  C   UNL     1      25.417  -2.920  59.485  1.00  0.00    -0.000 C 
BRANCH  11  12
ATOM     12  C   UNL     1      24.005  -3.009  58.888  1.00  0.00    -0.000 C 
BRANCH  12  13
ATOM     13  C   UNL     1      22.974  -3.559  59.887  1.00  0.00    -0.000 C 
BRANCH  13  14
ATOM     14  C   UNL     1      21.841  -2.560  60.178  1.00  0.00    -0.000 C 
BRANCH  14  15
ATOM     15  C   UNL     1      21.933  -1.959  61.589  1.00  0.00    -0.003 C 
ATOM     16  C   UNL     1      21.369  -0.542  61.664  1.00  0.00     0.004 C 
ENDBRANCH  14  15
ENDBRANCH  13  14
ENDBRANCH  12  13
ENDBRANCH  11  12
ENDBRANCH  10  11
ENDBRANCH   1  10
TORSDOF 12
ENDMDL
MODEL 3
REMARK VINA RESULT:    -5.804      3.484      6.833
REMARK INTER + INTRA:         -10.971
REMARK INTER:                  -9.787
REMARK INTRA:                  -1.184
REMARK UNBOUND:                -1.095
REMARK SMILES CCCCCCCCCCCCCC(=O)[O-]
REMARK SMILES IDX 8 1 9 2 10 3 11 4 12 5 13 6 14 7 15 8 16 9 7 10 6 11 5 12
REMARK SMILES IDX 4 13 3 14 2 15 1 16
REMARK H PARENT
REMARK Flexibility Score: inf
ROOT
ATOM      1  C   UNL     1      25.903  -1.224  61.521  1.00  0.00     0.000 C 
ENDROOT
BRANCH   1   2
ATOM      2  C   UNL     1      25.040  -0.092  62.099  1.00  0.00     0.000 C 
BRANCH   2   3
ATOM      3  C   UNL     1      25.918   1.043  62.645  1.00  0.00     0.000 C 
BRANCH   3   4
ATOM      4  C   UNL     1      25.328   2.415  62.287  1.00  0.00     0.000 C 
BRANCH   4   5
ATOM      5  C   UNL     1      23.879   2.582  62.772  1.00  0.00     0.006 C 
BRANCH   5   6
ATOM      6  C   UNL     1      23.735   3.677  63.836  1.00  0.00     0.053 C 
BRANCH   6   7
ATOM      7  C   UNL     1      24.044   3.129  65.193  1.00  0.00     0.041 C 
ATOM      8  O   UNL     1      25.229   3.118  65.617  1.00  0.00    -0.550 OA
ATOM      9  O   UNL     1      23.016   2.677  66.011  1.00  0.00    -0.550 OA
ENDBRANCH   6   7
ENDBRANCH   5   6
ENDBRANCH   4   5
ENDBRANCH   3   4
ENDBRANCH   2   3
ENDBRANCH   1   2
BRANCH   1  10
ATOM     10  C   UNL     1      25.513  -2.605  62.072  1.00  0.00     0.000 C 
BRANCH  10  11
ATOM     11  C   UNL     1      25.208  -3.622  60.961  1.00  0.00    -0.000 C 
BRANCH  11  12
ATOM     12  C   UNL     1      25.174  -2.938  59.586  1.00  0.00    -0.000 C 
BRANCH  12  13
ATOM     13  C   UNL     1      23.817  -3.097  58.880  1.00  0.00    -0.000 C 
BRANCH  13  14
ATOM     14  C   UNL     1      22.691  -3.504  59.845  1.00  0.00    -0.000 C 
BRANCH  14  15
ATOM     15  C   UNL     1      21.692  -2.364  60.098  1.00  0.00    -0.003 C 
ATOM     16  C   UNL     1      21.826  -1.762  61.496  1.00  0.00     0.004 C 
ENDBRANCH  14  15
ENDBRANCH  13  14
ENDBRANCH  12  13
ENDBRANCH  11  12
ENDBRANCH  10  11
ENDBRANCH   1  10
TORSDOF 12
ENDMDL
MODEL 4
REMARK VINA RESULT:    -5.721      0.733      1.494
REMARK INTER + INTRA:         -10.829
REMARK INTER:                  -9.553
REMARK INTRA:                  -1.276
REMARK UNBOUND:                -1.095
REMARK SMILES CCCCCCCCCCCCCC(=O)[O-]
REMARK SMILES IDX 8 1 9 2 10 3 11 4 12 5 13 6 14 7 15 8 16 9 7 10 6 11 5 12
REMARK SMILES IDX 4 13 3 14 2 15 1 16
REMARK H PARENT
REMARK Flexibility Score: inf
ROOT
ATOM      1  C   UNL     1      25.571   2.560  62.196  1.00  0.00     0.000 C 
ENDROOT
BRANCH   1   2
ATOM      2  C   UNL     1      25.943   1.178  62.754  1.00  0.00     0.000 C 
BRANCH   2   3
ATOM      3  C   UNL     1      25.053   0.084  62.150  1.00  0.00     0.000 C 
BRANCH   3   4
ATOM      4  C   UNL     1      25.900  -1.076  61.606  1.00  0.00     0.000 C 
BRANCH   4   5
ATOM      5  C   UNL     1      25.377  -2.451  62.052  1.00  0.00     0.006 C 
BRANCH   5   6
ATOM      6  C   UNL     1      25.516  -3.519  60.959  1.00  0.00     0.053 C 
BRANCH   6   7
ATOM      7  C   UNL     1      24.523  -3.279  59.867  1.00  0.00     0.041 C 
ATOM      8  O   UNL     1      23.299  -3.165  60.137  1.00  0.00    -0.550 OA
ATOM      9  O   UNL     1      24.955  -3.131  58.554  1.00  0.00    -0.550 OA
ENDBRANCH   6   7
ENDBRANCH   5   6
ENDBRANCH   4   5
ENDBRANCH   3   4
ENDBRANCH   2   3
ENDBRANCH   1   2
BRANCH   1  10
ATOM     10  C   UNL     1      25.382   3.613  63.299  1.00  0.00     0.000 C 
BRANCH  10  11
ATOM     11  C   UNL     1      25.373   3.000  64.708  1.00  0.00    -0.000 C 
BRANCH  11  12
ATOM     12  C   UNL     1      23.952   2.981  65.289  1.00  0.00    -0.000 C 
BRANCH  12  13
ATOM     13  C   UNL     1      22.920   3.627  64.350  1.00  0.00    -0.000 C 
BRANCH  13  14
ATOM     14  C   UNL     1      21.757   2.681  64.007  1.00  0.00    -0.000 C 
BRANCH  14  15
ATOM     15  C   UNL     1      21.962   1.959  62.667  1.00  0.00    -0.003 C 
ATOM     16  C   UNL     1      21.405   0.536  62.672  1.00  0.00     0.004 C 
ENDBRANCH  14  15
ENDBRANCH  13  14
ENDBRANCH  12  13
ENDBRANCH  11  12
ENDBRANCH  10  11
ENDBRANCH   1  10
TORSDOF 12
ENDMDL
MODEL 5
REMARK VINA RESULT:    -5.721      0.946      1.755
REMARK INTER + INTRA:         -10.828
REMARK INTER:                  -9.656
REMARK INTRA:                  -1.173
REMARK UNBOUND:                -1.095
REMARK SMILES CCCCCCCCCCCCCC(=O)[O-]
REMARK SMILES IDX 8 1 9 2 10 3 11 4 12 5 13 6 14 7 15 8 16 9 7 10 6 11 5 12
REMARK SMILES IDX 4 13 3 14 2 15 1 16
REMARK H PARENT
REMARK Flexibility Score: inf
ROOT
ATOM      1  C   UNL     1      25.129  -0.113  62.288  1.00  0.00     0.000 C 
ENDROOT
BRANCH   1   2
ATOM      2  C   UNL     1      25.805  -1.223  61.470  1.00  0.00     0.000 C 
BRANCH   2   3
ATOM      3  C   UNL     1      25.406  -2.610  61.990  1.00  0.00     0.000 C 
BRANCH   3   4
ATOM      4  C   UNL     1      23.908  -2.661  62.327  1.00  0.00     0.000 C 
BRANCH   4   5
ATOM      5  C   UNL     1      23.024  -2.796  61.077  1.00  0.00     0.006 C 
BRANCH   5   6
ATOM      6  C   UNL     1      23.567  -3.824  60.077  1.00  0.00     0.053 C 
BRANCH   6   7
ATOM      7  C   UNL     1      24.005  -3.145  58.818  1.00  0.00     0.041 C 
ATOM      8  O   UNL     1      25.227  -3.091  58.519  1.00  0.00    -0.550 OA
ATOM      9  O   UNL     1      23.059  -2.617  57.948  1.00  0.00    -0.550 OA
ENDBRANCH   6   7
ENDBRANCH   5   6
ENDBRANCH   4   5
ENDBRANCH   3   4
ENDBRANCH   2   3
ENDBRANCH   1   2
BRANCH   1  10
ATOM     10  C   UNL     1      26.091   1.032  62.641  1.00  0.00     0.000 C 
BRANCH  10  11
ATOM     11  C   UNL     1      25.357   2.315  63.061  1.00  0.00    -0.000 C 
BRANCH  11  12
ATOM     12  C   UNL     1      24.724   3.008  61.845  1.00  0.00    -0.000 C 
BRANCH  12  13
ATOM     13  C   UNL     1      23.275   3.451  62.104  1.00  0.00    -0.000 C 
BRANCH  13  14
ATOM     14  C   UNL     1      22.779   3.066  63.508  1.00  0.00    -0.000 C 
BRANCH  14  15
ATOM     15  C   UNL     1      21.481   2.245  63.469  1.00  0.00    -0.003 C 
ATOM     16  C   UNL     1      21.594   1.005  62.583  1.00  0.00     0.004 C 
ENDBRANCH  14  15
ENDBRANCH  13  14
ENDBRANCH  12  13
ENDBRANCH  11  12
ENDBRANCH  10  11
ENDBRANCH   1  10
TORSDOF 12
ENDMDL
MODEL 6
REMARK VINA RESULT:    -5.704      2.718      6.383
REMARK INTER + INTRA:         -10.801
REMARK INTER:                  -9.584
REMARK INTRA:                  -1.217
REMARK UNBOUND:                -1.095
REMARK SMILES CCCCCCCCCCCCCC(=O)[O-]
REMARK SMILES IDX 8 1 9 2 10 3 11 4 12 5 13 6 14 7 15 8 16 9 7 10 6 11 5 12
REMARK SMILES IDX 4 13 3 14 2 15 1 16
REMARK H PARENT
REMARK Flexibility Score: inf
ROOT
ATOM      1  C   UNL     1      25.914  -0.969  61.609  1.00  0.00     0.000 C 
ENDROOT
BRANCH   1   2
ATOM      2  C   UNL     1      25.044   0.135  62.230  1.00  0.00     0.000 C 
BRANCH   2   3
ATOM      3  C   UNL     1      25.915   1.233  62.856  1.00  0.00     0.000 C 
BRANCH   3   4
ATOM      4  C   UNL     1      25.536   2.616  62.306  1.00  0.00     0.000 C 
BRANCH   4   5
ATOM      5  C   UNL     1      24.042   2.728  61.962  1.00  0.00     0.006 C 
BRANCH   5   6
ATOM      6  C   UNL     1      23.212   3.306  63.115  1.00  0.00     0.053 C 
BRANCH   6   7
ATOM      7  C   UNL     1      21.988   2.477  63.343  1.00  0.00     0.041 C 
ATOM      8  O   UNL     1      21.227   2.724  64.315  1.00  0.00    -0.550 OA
ATOM      9  O   UNL     1      21.660   1.462  62.452  1.00  0.00    -0.550 OA
ENDBRANCH   6   7
ENDBRANCH   5   6
ENDBRANCH   4   5
ENDBRANCH   3   4
ENDBRANCH   2   3
ENDBRANCH   1   2
BRANCH   1  10
ATOM     10  C   UNL     1      25.495  -2.377  62.060  1.00  0.00     0.000 C 
BRANCH  10  11
ATOM     11  C   UNL     1      25.585  -3.413  60.930  1.00  0.00    -0.000 C 
BRANCH  11  12
ATOM     12  C   UNL     1      25.388  -2.748  59.559  1.00  0.00    -0.000 C 
BRANCH  12  13
ATOM     13  C   UNL     1      24.025  -3.080  58.930  1.00  0.00    -0.000 C 
BRANCH  13  14
ATOM     14  C   UNL     1      23.077  -3.790  59.911  1.00  0.00    -0.000 C 
BRANCH  14  15
ATOM     15  C   UNL     1      21.774  -3.009  60.140  1.00  0.00    -0.003 C 
ATOM     16  C   UNL     1      21.911  -1.936  61.219  1.00  0.00     0.004 C 
ENDBRANCH  14  15
ENDBRANCH  13  14
ENDBRANCH  12  13
ENDBRANCH  11  12
ENDBRANCH  10  11
ENDBRANCH   1  10
TORSDOF 12
ENDMDL
MODEL 7
REMARK VINA RESULT:    -5.694      1.250      1.507
REMARK INTER + INTRA:         -10.784
REMARK INTER:                  -9.463
REMARK INTRA:                  -1.321
REMARK UNBOUND:                -1.095
REMARK SMILES CCCCCCCCCCCCCC(=O)[O-]
REMARK SMILES IDX 8 1 9 2 10 3 11 4 12 5 13 6 14 7 15 8 16 9 7 10 6 11 5 12
REMARK SMILES IDX 4 13 3 14 2 15 1 16
REMARK H PARENT
REMARK Flexibility Score: inf
ROOT
ATOM      1  C   UNL     1      25.919   1.014  62.718  1.00  0.00     0.000 C 
ENDROOT
BRANCH   1   2
ATOM      2  C   UNL     1      25.003  -0.132  62.261  1.00  0.00     0.000 C 
BRANCH   2   3
ATOM      3  C   UNL     1      25.795  -1.190  61.481  1.00  0.00     0.000 C 
BRANCH   3   4
ATOM      4  C   UNL     1      25.498  -2.601  62.012  1.00  0.00     0.000 C 
BRANCH   4   5
ATOM      5  C   UNL     1      24.018  -2.797  62.377  1.00  0.00     0.006 C 
BRANCH   5   6
ATOM      6  C   UNL     1      23.193  -3.364  61.215  1.00  0.00     0.053 C 
BRANCH   6   7
ATOM      7  C   UNL     1      22.105  -2.410  60.835  1.00  0.00     0.041 C 
ATOM      8  O   UNL     1      21.498  -2.544  59.740  1.00  0.00    -0.550 OA
ATOM      9  O   UNL     1      21.725  -1.402  61.713  1.00  0.00    -0.550 OA
ENDBRANCH   6   7
ENDBRANCH   5   6
ENDBRANCH   4   5
ENDBRANCH   3   4
ENDBRANCH   2   3
ENDBRANCH   1   2
BRANCH   1  10
ATOM     10  C   UNL     1      25.503   2.373  62.135  1.00  0.00     0.000 C 
BRANCH  10  11
ATOM     11  C   UNL     1      25.456   3.484  63.195  1.00  0.00    -0.000 C 
BRANCH  11  12
ATOM     12  C   UNL     1      25.451   2.890  64.612  1.00  0.00    -0.000 C 
BRANCH  12  13
ATOM     13  C   UNL     1      24.086   3.028  65.306  1.00  0.00    -0.000 C 
BRANCH  13  14
ATOM     14  C   UNL     1      23.045   3.746  64.430  1.00  0.00    -0.000 C 
BRANCH  14  15
ATOM     15  C   UNL     1      21.784   2.900  64.201  1.00  0.00    -0.003 C 
ATOM     16  C   UNL     1      21.928   1.933  63.027  1.00  0.00     0.004 C 
ENDBRANCH  14  15
ENDBRANCH  13  14
ENDBRANCH  12  13
ENDBRANCH  11  12
ENDBRANCH  10  11
ENDBRANCH   1  10
TORSDOF 12
ENDMDL
MODEL 8
REMARK VINA RESULT:    -5.638      3.598      6.698
REMARK INTER + INTRA:         -10.689
REMARK INTER:                  -9.640
REMARK INTRA:                  -1.049
REMARK UNBOUND:                -1.095
REMARK SMILES CCCCCCCCCCCCCC(=O)[O-]
REMARK SMILES IDX 8 1 9 2 10 3 11 4 12 5 13 6 14 7 15 8 16 9 7 10 6 11 5 12
REMARK SMILES IDX 4 13 3 14 2 15 1 16
REMARK H PARENT
REMARK Flexibility Score: inf
ROOT
ATOM      1  C   UNL     1      25.221  -0.296  62.156  1.00  0.00     0.000 C 
ENDROOT
BRANCH   1   2
ATOM      2  C   UNL     1      25.843   0.995  62.708  1.00  0.00     0.000 C 
BRANCH   2   3
ATOM      3  C   UNL     1      25.157   2.233  62.116  1.00  0.00     0.000 C 
BRANCH   3   4
ATOM      4  C   UNL     1      23.648   2.215  62.402  1.00  0.00     0.000 C 
BRANCH   4   5
ATOM      5  C   UNL     1      23.202   3.378  63.303  1.00  0.00     0.006 C 
BRANCH   5   6
ATOM      6  C   UNL     1      22.661   2.903  64.658  1.00  0.00     0.053 C 
BRANCH   6   7
ATOM      7  C   UNL     1      23.711   3.040  65.715  1.00  0.00     0.041 C 
ATOM      8  O   UNL     1      24.876   3.405  65.408  1.00  0.00    -0.550 OA
ATOM      9  O   UNL     1      23.388   2.815  67.048  1.00  0.00    -0.550 OA
ENDBRANCH   6   7
ENDBRANCH   5   6
ENDBRANCH   4   5
ENDBRANCH   3   4
ENDBRANCH   2   3
ENDBRANCH   1   2
BRANCH   1  10
ATOM     10  C   UNL     1      26.195  -1.093  61.275  1.00  0.00     0.000 C 
BRANCH  10  11
ATOM     11  C   UNL     1      25.851  -2.589  61.213  1.00  0.00    -0.000 C 
BRANCH  11  12
ATOM     12  C   UNL     1      24.813  -2.957  62.284  1.00  0.00    -0.000 C 
BRANCH  12  13
ATOM     13  C   UNL     1      23.553  -3.608  61.688  1.00  0.00    -0.000 C 
BRANCH  13  14
ATOM     14  C   UNL     1      22.441  -2.587  61.394  1.00  0.00    -0.000 C 
BRANCH  14  15
ATOM     15  C   UNL     1      21.979  -2.625  59.930  1.00  0.00    -0.003 C 
ATOM     16  C   UNL     1      23.119  -2.927  58.959  1.00  0.00     0.004 C 
ENDBRANCH  14  15
ENDBRANCH  13  14
ENDBRANCH  12  13
ENDBRANCH  11  12
ENDBRANCH  10  11
ENDBRANCH   1  10
TORSDOF 12
ENDMDL
MODEL 9
REMARK VINA RESULT:    -5.624      2.708      6.425
REMARK INTER + INTRA:         -10.663
REMARK INTER:                  -9.727
REMARK INTRA:                  -0.936
REMARK UNBOUND:                -1.095
REMARK SMILES CCCCCCCCCCCCCC(=O)[O-]
REMARK SMILES IDX 8 1 9 2 10 3 11 4 12 5 13 6 14 7 15 8 16 9 7 10 6 11 5 12
REMARK SMILES IDX 4 13 3 14 2 15 1 16
REMARK H PARENT
REMARK Flexibility Score: inf
ROOT
ATOM      1  C   UNL     1      25.912   1.006  62.701  1.00  0.00     0.000 C 
ENDROOT
BRANCH   1   2
ATOM      2  C   UNL     1      25.528   2.405  62.193  1.00  0.00     0.000 C 
BRANCH   2   3
ATOM      3  C   UNL     1      25.676   3.453  63.304  1.00  0.00     0.000 C 
BRANCH   3   4
ATOM      4  C   UNL     1      25.524   2.809  64.691  1.00  0.00     0.000 C 
BRANCH   4   5
ATOM      5  C   UNL     1      24.175   3.133  65.350  1.00  0.00     0.006 C 
BRANCH   5   6
ATOM      6  C   UNL     1      23.159   3.719  64.361  1.00  0.00     0.053 C 
BRANCH   6   7
ATOM      7  C   UNL     1      22.147   2.686  63.980  1.00  0.00     0.041 C 
ATOM      8  O   UNL     1      21.334   2.249  64.836  1.00  0.00    -0.550 OA
ATOM      9  O   UNL     1      22.068   2.241  62.666  1.00  0.00    -0.550 OA
ENDBRANCH   6   7
ENDBRANCH   5   6
ENDBRANCH   4   5
ENDBRANCH   3   4
ENDBRANCH   2   3
ENDBRANCH   1   2
BRANCH   1  10
ATOM     10  C   UNL     1      25.060  -0.107  62.072  1.00  0.00     0.000 C 
BRANCH  10  11
ATOM     11  C   UNL     1      25.907  -1.270  61.534  1.00  0.00    -0.000 C 
BRANCH  11  12
ATOM     12  C   UNL     1      25.408  -2.613  62.086  1.00  0.00    -0.000 C 
BRANCH  12  13
ATOM     13  C   UNL     1      25.450  -3.737  61.038  1.00  0.00    -0.000 C 
BRANCH  13  14
ATOM     14  C   UNL     1      24.223  -3.728  60.111  1.00  0.00    -0.000 C 
BRANCH  14  15
ATOM     15  C   UNL     1      22.907  -3.529  60.878  1.00  0.00    -0.003 C 
ATOM     16  C   UNL     1      21.897  -2.681  60.107  1.00  0.00     0.004 C 
ENDBRANCH  14  15
ENDBRANCH  13  14
ENDBRANCH  12  13
ENDBRANCH  11  12
ENDBRANCH  10  11
ENDBRANCH   1  10
TORSDOF 12
ENDMDL
