MODEL 1
REMARK VINA RESULT:    11.905      0.000      0.000
REMARK INTER + INTRA:          28.368
REMARK INTER:                  30.001
REMARK INTRA:                  -1.633
REMARK UNBOUND:                -1.633
REMARK SMILES CCCCCCCCCCCCCCCCCCCCCCCCCCCC(=O)[O-]
REMARK SMILES IDX 15 1 16 2 17 3 18 4 19 5 20 6 21 7 22 8 23 9 24 10 25 11
REMARK SMILES IDX 26 12 27 13 28 14 29 15 30 16 14 17 13 18 12 19 11 20 10 21
REMARK SMILES IDX 9 22 8 23 7 24 6 25 5 26 4 27 3 28 2 29 1 30
REMARK H PARENT
REMARK Flexibility Score: inf
ROOT
ATOM      1  C   UNL     1       7.496  44.679  10.553  1.00  0.00     0.000 C 
ENDROOT
BRANCH   1   2
ATOM      2  C   UNL     1       8.690  43.715  10.574  1.00  0.00     0.000 C 
BRANCH   2   3
ATOM      3  C   UNL     1       8.886  43.030  11.940  1.00  0.00     0.000 C 
BRANCH   3   4
ATOM      4  C   UNL     1       7.746  42.086  12.367  1.00  0.00     0.000 C 
BRANCH   4   5
ATOM      5  C   UNL     1       6.928  42.626  13.549  1.00  0.00     0.000 C 
BRANCH   5   6
ATOM      6  C   UNL     1       6.795  41.573  14.660  1.00  0.00     0.000 C 
BRANCH   6   7
ATOM      7  C   UNL     1       5.605  41.864  15.600  1.00  0.00     0.000 C 
BRANCH   7   8
ATOM      8  C   UNL     1       5.229  40.680  16.506  1.00  0.00     0.000 C 
BRANCH   8   9
ATOM      9  C   UNL     1       6.042  40.641  17.810  1.00  0.00     0.000 C 
BRANCH   9  10
ATOM     10  C   UNL     1       5.392  39.762  18.890  1.00  0.00     0.000 C 
BRANCH  10  11
ATOM     11  C   UNL     1       4.161  40.422  19.534  1.00  0.00     0.000 C 
BRANCH  11  12
ATOM     12  C   UNL     1       4.527  41.245  20.780  1.00  0.00     0.006 C 
BRANCH  12  13
ATOM     13  C   UNL     1       3.304  41.927  21.410  1.00  0.00     0.053 C 
BRANCH  13  14
ATOM     14  C   UNL     1       3.082  43.278  20.803  1.00  0.00     0.041 C 
ATOM     15  O   UNL     1       3.924  44.198  20.978  1.00  0.00    -0.550 OA
ATOM     16  O   UNL     1       1.947  43.519  20.037  1.00  0.00    -0.550 OA
ENDBRANCH  13  14
ENDBRANCH  12  13
ENDBRANCH  11  12
ENDBRANCH  10  11
ENDBRANCH   9  10
ENDBRANCH   8   9
ENDBRANCH   7   8
ENDBRANCH   6   7
ENDBRANCH   5   6
ENDBRANCH   4   5
ENDBRANCH   3   4
ENDBRANCH   2   3
ENDBRANCH   1   2
BRANCH   1  17
ATOM     17  C   UNL     1       6.279  44.032   9.875  1.00  0.00     0.000 C 
BRANCH  17  18
ATOM     18  C   UNL     1       4.958  44.743  10.222  1.00  0.00     0.000 C 
BRANCH  18  19
ATOM     19  C   UNL     1       4.615  44.774  11.725  1.00  0.00     0.000 C 
BRANCH  19  20
ATOM     20  C   UNL     1       4.076  43.448  12.301  1.00  0.00     0.000 C 
BRANCH  20  21
ATOM     21  C   UNL     1       2.680  43.040  11.795  1.00  0.00     0.000 C 
BRANCH  21  22
ATOM     22  C   UNL     1       1.667  44.193  11.846  1.00  0.00    -0.000 C 
BRANCH  22  23
ATOM     23  C   UNL     1       1.046  44.317  13.246  1.00  0.00    -0.000 C 
BRANCH  23  24
ATOM     24  C   UNL     1      -0.489  44.286  13.215  1.00  0.00    -0.000 C 
BRANCH  24  25
ATOM     25  C   UNL     1      -1.115  44.826  14.512  1.00  0.00    -0.000 C 
BRANCH  25  26
ATOM     26  C   UNL     1      -2.280  43.957  15.017  1.00  0.00    -0.000 C 
BRANCH  26  27
ATOM     27  C   UNL     1      -2.554  42.692  14.181  1.00  0.00    -0.000 C 
BRANCH  27  28
ATOM     28  C   UNL     1      -3.128  41.496  14.966  1.00  0.00    -0.000 C 
BRANCH  28  29
ATOM     29  C   UNL     1      -4.652  41.321  14.858  1.00  0.00    -0.003 C 
ATOM     30  C   UNL     1      -5.108  39.890  15.135  1.00  0.00     0.004 C 
ENDBRANCH  28  29
ENDBRANCH  27  28
ENDBRANCH  26  27
ENDBRANCH  25  26
ENDBRANCH  24  25
ENDBRANCH  23  24
ENDBRANCH  22  23
ENDBRANCH  21  22
ENDBRANCH  20  21
ENDBRANCH  19  20
ENDBRANCH  18  19
ENDBRANCH  17  18
ENDBRANCH   1  17
TORSDOF 26
ENDMDL
MODEL 2
REMARK VINA RESULT:    12.877      1.533      2.042
REMARK INTER + INTRA:          30.816
REMARK INTER:                  32.065
REMARK INTRA:                  -1.249
REMARK UNBOUND:                -1.633
REMARK SMILES CCCCCCCCCCCCCCCCCCCCCCCCCCCC(=O)[O-]
REMARK SMILES IDX 15 1 16 2 17 3 18 4 19 5 20 6 21 7 22 8 23 9 24 10 25 11
REMARK SMILES IDX 26 12 27 13 28 14 29 15 30 16 14 17 13 18 12 19 11 20 10 21
REMARK SMILES IDX 9 22 8 23 7 24 6 25 5 26 4 27 3 28 2 29 1 30
REMARK H PARENT
REMARK Flexibility Score: inf
ROOT
ATOM      1  C   UNL     1       7.269  45.116  10.579  1.00  0.00     0.000 C 
ENDROOT
BRANCH   1   2
ATOM      2  C   UNL     1       8.532  44.247  10.662  1.00  0.00     0.000 C 
BRANCH   2   3
ATOM      3  C   UNL     1       8.851  43.785  12.096  1.00  0.00     0.000 C 
BRANCH   3   4
ATOM      4  C   UNL     1       8.649  42.279  12.357  1.00  0.00     0.000 C 
BRANCH   4   5
ATOM      5  C   UNL     1       7.185  41.909  12.639  1.00  0.00     0.000 C 
BRANCH   5   6
ATOM      6  C   UNL     1       6.796  42.247  14.086  1.00  0.00     0.000 C 
BRANCH   6   7
ATOM      7  C   UNL     1       7.325  41.200  15.092  1.00  0.00     0.000 C 
BRANCH   7   8
ATOM      8  C   UNL     1       6.415  41.005  16.316  1.00  0.00     0.000 C 
BRANCH   8   9
ATOM      9  C   UNL     1       6.941  39.937  17.289  1.00  0.00     0.000 C 
BRANCH   9  10
ATOM     10  C   UNL     1       5.988  39.685  18.468  1.00  0.00     0.000 C 
BRANCH  10  11
ATOM     11  C   UNL     1       5.100  40.900  18.786  1.00  0.00     0.000 C 
BRANCH  11  12
ATOM     12  C   UNL     1       4.903  41.096  20.298  1.00  0.00     0.006 C 
BRANCH  12  13
ATOM     13  C   UNL     1       3.431  41.319  20.672  1.00  0.00     0.053 C 
BRANCH  13  14
ATOM     14  C   UNL     1       3.149  42.777  20.861  1.00  0.00     0.041 C 
ATOM     15  O   UNL     1       3.997  43.519  21.422  1.00  0.00    -0.550 OA
ATOM     16  O   UNL     1       1.950  43.318  20.412  1.00  0.00    -0.550 OA
ENDBRANCH  13  14
ENDBRANCH  12  13
ENDBRANCH  11  12
ENDBRANCH  10  11
ENDBRANCH   9  10
ENDBRANCH   8   9
ENDBRANCH   7   8
ENDBRANCH   6   7
ENDBRANCH   5   6
ENDBRANCH   4   5
ENDBRANCH   3   4
ENDBRANCH   2   3
ENDBRANCH   1   2
BRANCH   1  17
ATOM     17  C   UNL     1       6.122  44.353   9.899  1.00  0.00     0.000 C 
BRANCH  17  18
ATOM     18  C   UNL     1       4.734  44.891  10.294  1.00  0.00     0.000 C 
BRANCH  18  19
ATOM     19  C   UNL     1       4.538  45.125  11.806  1.00  0.00     0.000 C 
BRANCH  19  20
ATOM     20  C   UNL     1       4.415  43.844  12.657  1.00  0.00     0.000 C 
BRANCH  20  21
ATOM     21  C   UNL     1       3.586  42.716  12.014  1.00  0.00     0.000 C 
BRANCH  21  22
ATOM     22  C   UNL     1       2.468  43.242  11.103  1.00  0.00    -0.000 C 
BRANCH  22  23
ATOM     23  C   UNL     1       1.366  42.186  10.920  1.00  0.00    -0.000 C 
BRANCH  23  24
ATOM     24  C   UNL     1      -0.045  42.791  10.972  1.00  0.00    -0.000 C 
BRANCH  24  25
ATOM     25  C   UNL     1      -1.110  41.765  11.393  1.00  0.00    -0.000 C 
BRANCH  25  26
ATOM     26  C   UNL     1      -1.641  42.009  12.816  1.00  0.00    -0.000 C 
BRANCH  26  27
ATOM     27  C   UNL     1      -0.716  42.851  13.717  1.00  0.00    -0.000 C 
BRANCH  27  28
ATOM     28  C   UNL     1      -1.404  43.521  14.922  1.00  0.00    -0.000 C 
BRANCH  28  29
ATOM     29  C   UNL     1      -2.136  44.836  14.601  1.00  0.00    -0.003 C 
ATOM     30  C   UNL     1      -3.312  45.106  15.538  1.00  0.00     0.004 C 
ENDBRANCH  28  29
ENDBRANCH  27  28
ENDBRANCH  26  27
ENDBRANCH  25  26
ENDBRANCH  24  25
ENDBRANCH  23  24
ENDBRANCH  22  23
ENDBRANCH  21  22
ENDBRANCH  20  21
ENDBRANCH  19  20
ENDBRANCH  18  19
ENDBRANCH  17  18
ENDBRANCH   1  17
TORSDOF 26
ENDMDL
MODEL 3
REMARK VINA RESULT:    13.344      2.442      5.389
REMARK INTER + INTRA:          31.994
REMARK INTER:                  33.634
REMARK INTRA:                  -1.640
REMARK UNBOUND:                -1.633
REMARK SMILES CCCCCCCCCCCCCCCCCCCCCCCCCCCC(=O)[O-]
REMARK SMILES IDX 15 1 16 2 17 3 18 4 19 5 20 6 21 7 22 8 23 9 24 10 25 11
REMARK SMILES IDX 26 12 27 13 28 14 29 15 30 16 14 17 13 18 12 19 11 20 10 21
REMARK SMILES IDX 9 22 8 23 7 24 6 25 5 26 4 27 3 28 2 29 1 30
REMARK H PARENT
REMARK Flexibility Score: inf
ROOT
ATOM      1  C   UNL     1       5.726  41.558  15.493  1.00  0.00     0.000 C 
ENDROOT
BRANCH   1   2
ATOM      2  C   UNL     1       6.389  40.958  16.740  1.00  0.00     0.000 C 
BRANCH   2   3
ATOM      3  C   UNL     1       5.369  40.498  17.800  1.00  0.00     0.000 C 
BRANCH   3   4
ATOM      4  C   UNL     1       5.984  39.908  19.084  1.00  0.00     0.000 C 
BRANCH   4   5
ATOM      5  C   UNL     1       5.153  40.205  20.341  1.00  0.00     0.000 C 
BRANCH   5   6
ATOM      6  C   UNL     1       3.726  40.639  19.973  1.00  0.00     0.000 C 
BRANCH   6   7
ATOM      7  C   UNL     1       2.954  41.195  21.190  1.00  0.00     0.000 C 
BRANCH   7   8
ATOM      8  C   UNL     1       2.295  42.559  20.932  1.00  0.00     0.000 C 
BRANCH   8   9
ATOM      9  C   UNL     1       3.182  43.508  20.110  1.00  0.00     0.000 C 
BRANCH   9  10
ATOM     10  C   UNL     1       4.210  44.258  20.972  1.00  0.00     0.000 C 
BRANCH  10  11
ATOM     11  C   UNL     1       4.487  43.557  22.313  1.00  0.00     0.000 C 
BRANCH  11  12
ATOM     12  C   UNL     1       5.518  44.316  23.164  1.00  0.00     0.006 C 
BRANCH  12  13
ATOM     13  C   UNL     1       5.584  43.793  24.606  1.00  0.00     0.053 C 
BRANCH  13  14
ATOM     14  C   UNL     1       6.937  43.225  24.900  1.00  0.00     0.041 C 
ATOM     15  O   UNL     1       7.127  41.981  24.853  1.00  0.00    -0.550 OA
ATOM     16  O   UNL     1       7.993  44.071  25.221  1.00  0.00    -0.550 OA
ENDBRANCH  13  14
ENDBRANCH  12  13
ENDBRANCH  11  12
ENDBRANCH  10  11
ENDBRANCH   9  10
ENDBRANCH   8   9
ENDBRANCH   7   8
ENDBRANCH   6   7
ENDBRANCH   5   6
ENDBRANCH   4   5
ENDBRANCH   3   4
ENDBRANCH   2   3
ENDBRANCH   1   2
BRANCH   1  17
ATOM     17  C   UNL     1       6.756  41.776  14.374  1.00  0.00     0.000 C 
BRANCH  17  18
ATOM     18  C   UNL     1       6.349  42.899  13.403  1.00  0.00     0.000 C 
BRANCH  18  19
ATOM     19  C   UNL     1       7.314  43.111  12.219  1.00  0.00     0.000 C 
BRANCH  19  20
ATOM     20  C   UNL     1       7.021  42.252  10.972  1.00  0.00     0.000 C 
BRANCH  20  21
ATOM     21  C   UNL     1       6.152  42.938   9.900  1.00  0.00     0.000 C 
BRANCH  21  22
ATOM     22  C   UNL     1       5.822  44.398  10.245  1.00  0.00    -0.000 C 
BRANCH  22  23
ATOM     23  C   UNL     1       4.313  44.661  10.133  1.00  0.00    -0.000 C 
BRANCH  23  24
ATOM     24  C   UNL     1       3.637  44.812  11.504  1.00  0.00    -0.000 C 
BRANCH  24  25
ATOM     25  C   UNL     1       3.049  43.487  12.020  1.00  0.00    -0.000 C 
BRANCH  25  26
ATOM     26  C   UNL     1       1.529  43.389  11.809  1.00  0.00    -0.000 C 
BRANCH  26  27
ATOM     27  C   UNL     1       0.719  44.572  12.375  1.00  0.00    -0.000 C 
BRANCH  27  28
ATOM     28  C   UNL     1       0.390  44.485  13.878  1.00  0.00    -0.000 C 
BRANCH  28  29
ATOM     29  C   UNL     1      -1.016  43.953  14.204  1.00  0.00    -0.003 C 
ATOM     30  C   UNL     1      -1.979  45.052  14.648  1.00  0.00     0.004 C 
ENDBRANCH  28  29
ENDBRANCH  27  28
ENDBRANCH  26  27
ENDBRANCH  25  26
ENDBRANCH  24  25
ENDBRANCH  23  24
ENDBRANCH  22  23
ENDBRANCH  21  22
ENDBRANCH  20  21
ENDBRANCH  19  20
ENDBRANCH  18  19
ENDBRANCH  17  18
ENDBRANCH   1  17
TORSDOF 26
ENDMDL
MODEL 4
REMARK VINA RESULT:    13.513      1.294      3.190
REMARK INTER + INTRA:          32.421
REMARK INTER:                  32.577
REMARK INTRA:                  -0.157
REMARK UNBOUND:                -1.633
REMARK SMILES CCCCCCCCCCCCCCCCCCCCCCCCCCCC(=O)[O-]
REMARK SMILES IDX 15 1 16 2 17 3 18 4 19 5 20 6 21 7 22 8 23 9 24 10 25 11
REMARK SMILES IDX 26 12 27 13 28 14 29 15 30 16 14 17 13 18 12 19 11 20 10 21
REMARK SMILES IDX 9 22 8 23 7 24 6 25 5 26 4 27 3 28 2 29 1 30
REMARK H PARENT
REMARK Flexibility Score: inf
ROOT
ATOM      1  C   UNL     1       6.986  42.241  12.501  1.00  0.00     0.000 C 
ENDROOT
BRANCH   1   2
ATOM      2  C   UNL     1       6.130  43.343  13.140  1.00  0.00     0.000 C 
BRANCH   2   3
ATOM      3  C   UNL     1       6.008  43.200  14.669  1.00  0.00     0.000 C 
BRANCH   3   4
ATOM      4  C   UNL     1       5.005  42.132  15.147  1.00  0.00     0.000 C 
BRANCH   4   5
ATOM      5  C   UNL     1       5.675  40.968  15.893  1.00  0.00     0.000 C 
BRANCH   5   6
ATOM      6  C   UNL     1       5.230  40.922  17.362  1.00  0.00     0.000 C 
BRANCH   6   7
ATOM      7  C   UNL     1       6.002  39.857  18.172  1.00  0.00     0.000 C 
BRANCH   7   8
ATOM      8  C   UNL     1       5.190  39.250  19.328  1.00  0.00     0.000 C 
BRANCH   8   9
ATOM      9  C   UNL     1       5.166  40.144  20.578  1.00  0.00     0.000 C 
BRANCH   9  10
ATOM     10  C   UNL     1       4.549  41.526  20.310  1.00  0.00     0.000 C 
BRANCH  10  11
ATOM     11  C   UNL     1       5.106  42.617  21.240  1.00  0.00     0.000 C 
BRANCH  11  12
ATOM     12  C   UNL     1       4.009  43.569  21.744  1.00  0.00     0.006 C 
BRANCH  12  13
ATOM     13  C   UNL     1       2.604  43.115  21.323  1.00  0.00     0.053 C 
BRANCH  13  14
ATOM     14  C   UNL     1       2.004  44.085  20.354  1.00  0.00     0.041 C 
ATOM     15  O   UNL     1       0.852  44.551  20.554  1.00  0.00    -0.550 OA
ATOM     16  O   UNL     1       2.721  44.480  19.230  1.00  0.00    -0.550 OA
ENDBRANCH  13  14
ENDBRANCH  12  13
ENDBRANCH  11  12
ENDBRANCH  10  11
ENDBRANCH   9  10
ENDBRANCH   8   9
ENDBRANCH   7   8
ENDBRANCH   6   7
ENDBRANCH   5   6
ENDBRANCH   4   5
ENDBRANCH   3   4
ENDBRANCH   2   3
ENDBRANCH   1   2
BRANCH   1  17
ATOM     17  C   UNL     1       8.349  42.794  12.057  1.00  0.00     0.000 C 
BRANCH  17  18
ATOM     18  C   UNL     1       8.249  44.207  11.454  1.00  0.00     0.000 C 
BRANCH  18  19
ATOM     19  C   UNL     1       7.320  44.324  10.229  1.00  0.00     0.000 C 
BRANCH  19  20
ATOM     20  C   UNL     1       6.536  43.043   9.876  1.00  0.00     0.000 C 
BRANCH  20  21
ATOM     21  C   UNL     1       5.004  43.174   9.963  1.00  0.00     0.000 C 
BRANCH  21  22
ATOM     22  C   UNL     1       4.531  44.635   9.988  1.00  0.00    -0.000 C 
BRANCH  22  23
ATOM     23  C   UNL     1       3.877  44.977  11.335  1.00  0.00    -0.000 C 
BRANCH  23  24
ATOM     24  C   UNL     1       3.032  43.820  11.890  1.00  0.00    -0.000 C 
BRANCH  24  25
ATOM     25  C   UNL     1       1.523  44.122  11.851  1.00  0.00    -0.000 C 
BRANCH  25  26
ATOM     26  C   UNL     1       0.857  44.001  13.232  1.00  0.00    -0.000 C 
BRANCH  26  27
ATOM     27  C   UNL     1      -0.541  44.642  13.334  1.00  0.00    -0.000 C 
BRANCH  27  28
ATOM     28  C   UNL     1      -1.251  44.458  14.690  1.00  0.00    -0.000 C 
BRANCH  28  29
ATOM     29  C   UNL     1      -2.423  43.461  14.678  1.00  0.00    -0.003 C 
ATOM     30  C   UNL     1      -2.001  42.044  15.059  1.00  0.00     0.004 C 
ENDBRANCH  28  29
ENDBRANCH  27  28
ENDBRANCH  26  27
ENDBRANCH  25  26
ENDBRANCH  24  25
ENDBRANCH  23  24
ENDBRANCH  22  23
ENDBRANCH  21  22
ENDBRANCH  20  21
ENDBRANCH  19  20
ENDBRANCH  18  19
ENDBRANCH  17  18
ENDBRANCH   1  17
TORSDOF 26
ENDMDL
MODEL 5
REMARK VINA RESULT:    13.638      2.958      5.964
REMARK INTER + INTRA:          32.735
REMARK INTER:                  34.200
REMARK INTRA:                  -1.465
REMARK UNBOUND:                -1.633
REMARK SMILES CCCCCCCCCCCCCCCCCCCCCCCCCCCC(=O)[O-]
REMARK SMILES IDX 15 1 16 2 17 3 18 4 19 5 20 6 21 7 22 8 23 9 24 10 25 11
REMARK SMILES IDX 26 12 27 13 28 14 29 15 30 16 14 17 13 18 12 19 11 20 10 21
REMARK SMILES IDX 9 22 8 23 7 24 6 25 5 26 4 27 3 28 2 29 1 30
REMARK H PARENT
REMARK Flexibility Score: inf
ROOT
ATOM      1  C   UNL     1       5.849  41.734  15.432  1.00  0.00     0.000 C 
ENDROOT
BRANCH   1   2
ATOM      2  C   UNL     1       6.464  41.445  16.808  1.00  0.00     0.000 C 
BRANCH   2   3
ATOM      3  C   UNL     1       5.843  40.215  17.498  1.00  0.00     0.000 C 
BRANCH   3   4
ATOM      4  C   UNL     1       6.411  39.893  18.894  1.00  0.00     0.000 C 
BRANCH   4   5
ATOM      5  C   UNL     1       5.331  39.844  19.986  1.00  0.00     0.000 C 
BRANCH   5   6
ATOM      6  C   UNL     1       4.347  41.015  19.846  1.00  0.00     0.000 C 
BRANCH   6   7
ATOM      7  C   UNL     1       3.215  40.954  20.895  1.00  0.00     0.000 C 
BRANCH   7   8
ATOM      8  C   UNL     1       2.421  42.263  21.025  1.00  0.00     0.000 C 
BRANCH   8   9
ATOM      9  C   UNL     1       3.088  43.443  20.299  1.00  0.00     0.000 C 
BRANCH   9  10
ATOM     10  C   UNL     1       3.963  44.298  21.230  1.00  0.00     0.000 C 
BRANCH  10  11
ATOM     11  C   UNL     1       4.415  43.535  22.487  1.00  0.00     0.000 C 
BRANCH  11  12
ATOM     12  C   UNL     1       5.854  43.888  22.895  1.00  0.00     0.006 C 
BRANCH  12  13
ATOM     13  C   UNL     1       6.002  44.077  24.412  1.00  0.00     0.053 C 
BRANCH  13  14
ATOM     14  C   UNL     1       7.096  43.207  24.948  1.00  0.00     0.041 C 
ATOM     15  O   UNL     1       8.172  43.720  25.355  1.00  0.00    -0.550 OA
ATOM     16  O   UNL     1       6.925  41.829  25.005  1.00  0.00    -0.550 OA
ENDBRANCH  13  14
ENDBRANCH  12  13
ENDBRANCH  11  12
ENDBRANCH  10  11
ENDBRANCH   9  10
ENDBRANCH   8   9
ENDBRANCH   7   8
ENDBRANCH   6   7
ENDBRANCH   5   6
ENDBRANCH   4   5
ENDBRANCH   3   4
ENDBRANCH   2   3
ENDBRANCH   1   2
BRANCH   1  17
ATOM     17  C   UNL     1       6.809  41.326  14.305  1.00  0.00     0.000 C 
BRANCH  17  18
ATOM     18  C   UNL     1       7.379  42.537  13.543  1.00  0.00     0.000 C 
BRANCH  18  19
ATOM     19  C   UNL     1       8.239  42.182  12.314  1.00  0.00     0.000 C 
BRANCH  19  20
ATOM     20  C   UNL     1       7.457  41.627  11.105  1.00  0.00     0.000 C 
BRANCH  20  21
ATOM     21  C   UNL     1       7.300  42.607   9.928  1.00  0.00     0.000 C 
BRANCH  21  22
ATOM     22  C   UNL     1       8.022  43.942  10.163  1.00  0.00    -0.000 C 
BRANCH  22  23
ATOM     23  C   UNL     1       7.055  45.125   9.998  1.00  0.00    -0.000 C 
BRANCH  23  24
ATOM     24  C   UNL     1       5.783  44.968  10.845  1.00  0.00    -0.000 C 
BRANCH  24  25
ATOM     25  C   UNL     1       4.571  44.522  10.009  1.00  0.00    -0.000 C 
BRANCH  25  26
ATOM     26  C   UNL     1       3.599  43.630  10.800  1.00  0.00    -0.000 C 
BRANCH  26  27
ATOM     27  C   UNL     1       2.345  43.188  10.020  1.00  0.00    -0.000 C 
BRANCH  27  28
ATOM     28  C   UNL     1       1.088  42.947  10.879  1.00  0.00    -0.000 C 
BRANCH  28  29
ATOM     29  C   UNL     1       0.428  41.570  10.689  1.00  0.00    -0.003 C 
ATOM     30  C   UNL     1      -1.058  41.569  11.040  1.00  0.00     0.004 C 
ENDBRANCH  28  29
ENDBRANCH  27  28
ENDBRANCH  26  27
ENDBRANCH  25  26
ENDBRANCH  24  25
ENDBRANCH  23  24
ENDBRANCH  22  23
ENDBRANCH  21  22
ENDBRANCH  20  21
ENDBRANCH  19  20
ENDBRANCH  18  19
ENDBRANCH  17  18
ENDBRANCH   1  17
TORSDOF 26
ENDMDL
MODEL 6
REMARK VINA RESULT:    13.999      2.428      7.584
REMARK INTER + INTRA:          33.643
REMARK INTER:                  31.182
REMARK INTRA:                   2.461
REMARK UNBOUND:                -1.633
REMARK SMILES CCCCCCCCCCCCCCCCCCCCCCCCCCCC(=O)[O-]
REMARK SMILES IDX 15 1 16 2 17 3 18 4 19 5 20 6 21 7 22 8 23 9 24 10 25 11
REMARK SMILES IDX 26 12 27 13 28 14 29 15 30 16 14 17 13 18 12 19 11 20 10 21
REMARK SMILES IDX 9 22 8 23 7 24 6 25 5 26 4 27 3 28 2 29 1 30
REMARK H PARENT
REMARK Flexibility Score: inf
ROOT
ATOM      1  C   UNL     1       7.237  42.680  10.753  1.00  0.00     0.000 C 
ENDROOT
BRANCH   1   2
ATOM      2  C   UNL     1       8.181  43.848  10.437  1.00  0.00     0.000 C 
BRANCH   2   3
ATOM      3  C   UNL     1       7.435  45.124  10.000  1.00  0.00     0.000 C 
BRANCH   3   4
ATOM      4  C   UNL     1       5.899  45.047  10.099  1.00  0.00     0.000 C 
BRANCH   4   5
ATOM      5  C   UNL     1       5.413  44.032  11.144  1.00  0.00     0.000 C 
BRANCH   5   6
ATOM      6  C   UNL     1       4.185  44.559  11.902  1.00  0.00     0.000 C 
BRANCH   6   7
ATOM      7  C   UNL     1       2.864  44.226  11.174  1.00  0.00     0.000 C 
BRANCH   7   8
ATOM      8  C   UNL     1       1.998  43.190  11.907  1.00  0.00     0.000 C 
BRANCH   8   9
ATOM      9  C   UNL     1       0.588  43.707  12.230  1.00  0.00     0.000 C 
BRANCH   9  10
ATOM     10  C   UNL     1       0.574  44.719  13.387  1.00  0.00     0.000 C 
BRANCH  10  11
ATOM     11  C   UNL     1      -0.351  44.293  14.539  1.00  0.00     0.000 C 
BRANCH  11  12
ATOM     12  C   UNL     1      -1.783  44.827  14.363  1.00  0.00     0.006 C 
BRANCH  12  13
ATOM     13  C   UNL     1      -2.837  43.868  14.932  1.00  0.00     0.053 C 
BRANCH  13  14
ATOM     14  C   UNL     1      -2.530  42.454  14.546  1.00  0.00     0.041 C 
ATOM     15  O   UNL     1      -1.842  42.213  13.520  1.00  0.00    -0.550 OA
ATOM     16  O   UNL     1      -2.997  41.402  15.326  1.00  0.00    -0.550 OA
ENDBRANCH  13  14
ENDBRANCH  12  13
ENDBRANCH  11  12
ENDBRANCH  10  11
ENDBRANCH   9  10
ENDBRANCH   8   9
ENDBRANCH   7   8
ENDBRANCH   6   7
ENDBRANCH   5   6
ENDBRANCH   4   5
ENDBRANCH   3   4
ENDBRANCH   2   3
ENDBRANCH   1   2
BRANCH   1  17
ATOM     17  C   UNL     1       7.574  42.056  12.116  1.00  0.00     0.000 C 
BRANCH  17  18
ATOM     18  C   UNL     1       6.694  42.605  13.254  1.00  0.00     0.000 C 
BRANCH  18  19
ATOM     19  C   UNL     1       6.563  41.674  14.476  1.00  0.00     0.000 C 
BRANCH  19  20
ATOM     20  C   UNL     1       5.369  41.978  15.406  1.00  0.00     0.000 C 
BRANCH  20  21
ATOM     21  C   UNL     1       5.074  40.892  16.458  1.00  0.00     0.000 C 
BRANCH  21  22
ATOM     22  C   UNL     1       5.571  41.271  17.861  1.00  0.00    -0.000 C 
BRANCH  22  23
ATOM     23  C   UNL     1       4.879  40.419  18.936  1.00  0.00    -0.000 C 
BRANCH  23  24
ATOM     24  C   UNL     1       4.459  41.244  20.163  1.00  0.00    -0.000 C 
BRANCH  24  25
ATOM     25  C   UNL     1       2.938  41.461  20.233  1.00  0.00    -0.000 C 
BRANCH  25  26
ATOM     26  C   UNL     1       2.552  42.949  20.306  1.00  0.00    -0.000 C 
BRANCH  26  27
ATOM     27  C   UNL     1       3.604  43.858  20.971  1.00  0.00    -0.000 C 
BRANCH  27  28
ATOM     28  C   UNL     1       4.182  43.333  22.300  1.00  0.00    -0.000 C 
BRANCH  28  29
ATOM     29  C   UNL     1       5.174  44.281  22.995  1.00  0.00    -0.003 C 
ATOM     30  C   UNL     1       5.028  44.284  24.515  1.00  0.00     0.004 C 
ENDBRANCH  28  29
ENDBRANCH  27  28
ENDBRANCH  26  27
ENDBRANCH  25  26
ENDBRANCH  24  25
ENDBRANCH  23  24
ENDBRANCH  22  23
ENDBRANCH  21  22
ENDBRANCH  20  21
ENDBRANCH  19  20
ENDBRANCH  18  19
ENDBRANCH  17  18
ENDBRANCH   1  17
TORSDOF 26
ENDMDL
