MODEL 1
REMARK VINA RESULT:    -5.566      0.000      0.000
REMARK INTER + INTRA:          -5.891
REMARK INTER:                  -5.891
REMARK INTRA:                   0.000
REMARK UNBOUND:                 0.000
REMARK SMILES Cc1cc(O)c(C)c(C)c1O
REMARK SMILES IDX 1 1 2 2 3 3 4 4 6 5 8 6 10 7 9 8 7 9 11 10 5 12
REMARK H PARENT 11 11 5 13
REMARK Flexibility Score: inf
ROOT
ATOM      1  C   UNL     1      -6.437   9.294  35.891  1.00  0.00     0.048 C 
ATOM      2  C   UNL     1      -7.489   8.271  35.560  1.00  0.00    -0.005 A 
ATOM      3  C   UNL     1      -8.716   8.292  36.228  1.00  0.00     0.053 A 
ATOM      4  C   UNL     1      -9.720   7.378  35.914  1.00  0.00     0.119 A 
ATOM      5  C   UNL     1      -9.513   6.420  34.893  1.00  0.00    -0.003 A 
ATOM      6  C   UNL     1      -8.224   6.312  34.296  1.00  0.00    -0.002 A 
ATOM      7  C   UNL     1      -7.240   7.291  34.586  1.00  0.00     0.121 A 
ATOM      8  C   UNL     1      -7.897   5.177  33.350  1.00  0.00     0.049 C 
ATOM      9  C   UNL     1     -10.651   5.520  34.467  1.00  0.00     0.049 C 
ENDROOT
BRANCH   7  10
ATOM     10  O   UNL     1      -6.013   7.322  33.916  1.00  0.00    -0.507 OA
ATOM     11  H   UNL     1      -5.834   7.884  33.095  1.00  0.00     0.293 HD
ENDBRANCH   7  10
BRANCH   4  12
ATOM     12  O   UNL     1     -10.909   7.446  36.647  1.00  0.00    -0.508 OA
ATOM     13  H   UNL     1     -11.607   6.715  36.651  1.00  0.00     0.293 HD
ENDBRANCH   4  12
TORSDOF 2
ENDMDL
MODEL 2
REMARK VINA RESULT:    -5.559      2.411      4.986
REMARK INTER + INTRA:          -5.884
REMARK INTER:                  -5.884
REMARK INTRA:                   0.000
REMARK UNBOUND:                 0.000
REMARK SMILES Cc1cc(O)c(C)c(C)c1O
REMARK SMILES IDX 1 1 2 2 3 3 4 4 6 5 8 6 10 7 9 8 7 9 11 10 5 12
REMARK H PARENT 11 11 5 13
REMARK Flexibility Score: inf
ROOT
ATOM      1  C   UNL     1     -13.932   7.308  34.222  1.00  0.00     0.048 C 
ATOM      2  C   UNL     1     -12.564   7.493  34.820  1.00  0.00    -0.005 A 
ATOM      3  C   UNL     1     -11.684   6.411  34.897  1.00  0.00     0.053 A 
ATOM      4  C   UNL     1     -10.399   6.567  35.413  1.00  0.00     0.119 A 
ATOM      5  C   UNL     1      -9.961   7.838  35.854  1.00  0.00    -0.003 A 
ATOM      6  C   UNL     1     -10.891   8.915  35.896  1.00  0.00    -0.002 A 
ATOM      7  C   UNL     1     -12.171   8.750  35.308  1.00  0.00     0.121 A 
ATOM      8  C   UNL     1     -10.529  10.233  36.545  1.00  0.00     0.049 C 
ATOM      9  C   UNL     1      -8.524   8.027  36.288  1.00  0.00     0.049 C 
ENDROOT
BRANCH   7  10
ATOM     10  O   UNL     1     -13.068   9.817  35.185  1.00  0.00    -0.507 OA
ATOM     11  H   UNL     1     -13.858   9.961  35.799  1.00  0.00     0.293 HD
ENDBRANCH   7  10
BRANCH   4  12
ATOM     12  O   UNL     1      -9.588   5.429  35.482  1.00  0.00    -0.508 OA
ATOM     13  H   UNL     1      -9.203   4.966  34.670  1.00  0.00     0.293 HD
ENDBRANCH   4  12
TORSDOF 2
ENDMDL
MODEL 3
REMARK VINA RESULT:    -5.500      2.388      3.397
REMARK INTER + INTRA:          -5.821
REMARK INTER:                  -5.821
REMARK INTRA:                   0.000
REMARK UNBOUND:                 0.000
REMARK SMILES Cc1cc(O)c(C)c(C)c1O
REMARK SMILES IDX 1 1 2 2 3 3 4 4 6 5 8 6 10 7 9 8 7 9 11 10 5 12
REMARK H PARENT 11 11 5 13
REMARK Flexibility Score: inf
ROOT
ATOM      1  C   UNL     1      -8.671   8.374  36.210  1.00  0.00     0.048 C 
ATOM      2  C   UNL     1     -10.065   8.055  35.742  1.00  0.00    -0.005 A 
ATOM      3  C   UNL     1     -11.023   9.068  35.663  1.00  0.00     0.053 A 
ATOM      4  C   UNL     1     -12.310   8.803  35.198  1.00  0.00     0.119 A 
ATOM      5  C   UNL     1     -12.659   7.497  34.782  1.00  0.00    -0.003 A 
ATOM      6  C   UNL     1     -11.729   6.436  34.977  1.00  0.00    -0.002 A 
ATOM      7  C   UNL     1     -10.407   6.739  35.391  1.00  0.00     0.121 A 
ATOM      8  C   UNL     1     -12.128   4.996  34.735  1.00  0.00     0.049 C 
ATOM      9  C   UNL     1     -14.013   7.247  34.155  1.00  0.00     0.049 C 
ENDROOT
BRANCH   7  10
ATOM     10  O   UNL     1      -9.412   5.757  35.452  1.00  0.00    -0.507 OA
ATOM     11  H   UNL     1      -8.545   5.867  35.959  1.00  0.00     0.293 HD
ENDBRANCH   7  10
BRANCH   4  12
ATOM     12  O   UNL     1     -13.220   9.865  35.176  1.00  0.00    -0.508 OA
ATOM     13  H   UNL     1     -13.953   9.988  35.861  1.00  0.00     0.293 HD
ENDBRANCH   4  12
TORSDOF 2
ENDMDL
MODEL 4
REMARK VINA RESULT:    -5.479      3.414      5.023
REMARK INTER + INTRA:          -5.800
REMARK INTER:                  -5.800
REMARK INTRA:                   0.000
REMARK UNBOUND:                 0.000
REMARK SMILES Cc1cc(O)c(C)c(C)c1O
REMARK SMILES IDX 1 1 2 2 3 3 4 4 6 5 8 6 10 7 9 8 7 9 11 10 5 12
REMARK H PARENT 11 11 5 13
REMARK Flexibility Score: inf
ROOT
ATOM      1  C   UNL     1     -10.881   9.209  36.017  1.00  0.00     0.048 C 
ATOM      2  C   UNL     1     -11.638   8.079  35.375  1.00  0.00    -0.005 A 
ATOM      3  C   UNL     1     -10.998   6.861  35.130  1.00  0.00     0.053 A 
ATOM      4  C   UNL     1     -11.689   5.788  34.570  1.00  0.00     0.119 A 
ATOM      5  C   UNL     1     -13.063   5.915  34.254  1.00  0.00    -0.003 A 
ATOM      6  C   UNL     1     -13.688   7.189  34.383  1.00  0.00    -0.002 A 
ATOM      7  C   UNL     1     -12.984   8.246  35.014  1.00  0.00     0.121 A 
ATOM      8  C   UNL     1     -15.092   7.422  33.871  1.00  0.00     0.049 C 
ATOM      9  C   UNL     1     -13.836   4.709  33.771  1.00  0.00     0.049 C 
ENDROOT
BRANCH   7  10
ATOM     10  O   UNL     1     -13.599   9.469  35.304  1.00  0.00    -0.507 OA
ATOM     11  H   UNL     1     -13.182  10.369  35.110  1.00  0.00     0.293 HD
ENDBRANCH   7  10
BRANCH   4  12
ATOM     12  O   UNL     1     -10.971   4.612  34.330  1.00  0.00    -0.508 OA
ATOM     13  H   UNL     1     -11.400   3.699  34.260  1.00  0.00     0.293 HD
ENDBRANCH   4  12
TORSDOF 2
ENDMDL
MODEL 5
REMARK VINA RESULT:    -5.450      2.430      4.380
REMARK INTER + INTRA:          -5.768
REMARK INTER:                  -5.768
REMARK INTRA:                   0.000
REMARK UNBOUND:                 0.000
REMARK SMILES Cc1cc(O)c(C)c(C)c1O
REMARK SMILES IDX 1 1 2 2 3 3 4 4 6 5 8 6 10 7 9 8 7 9 11 10 5 12
REMARK H PARENT 11 11 5 13
REMARK Flexibility Score: inf
ROOT
ATOM      1  C   UNL     1     -12.379   5.206  34.394  1.00  0.00     0.048 C 
ATOM      2  C   UNL     1     -11.847   6.525  34.883  1.00  0.00    -0.005 A 
ATOM      3  C   UNL     1     -12.640   7.672  34.797  1.00  0.00     0.053 A 
ATOM      4  C   UNL     1     -12.183   8.898  35.278  1.00  0.00     0.119 A 
ATOM      5  C   UNL     1     -10.905   8.993  35.879  1.00  0.00    -0.003 A 
ATOM      6  C   UNL     1     -10.044   7.859  35.857  1.00  0.00    -0.002 A 
ATOM      7  C   UNL     1     -10.553   6.609  35.422  1.00  0.00     0.121 A 
ATOM      8  C   UNL     1      -8.603   7.967  36.305  1.00  0.00     0.049 C 
ATOM      9  C   UNL     1     -10.471  10.294  36.516  1.00  0.00     0.049 C 
ENDROOT
BRANCH   7  10
ATOM     10  O   UNL     1      -9.801   5.433  35.522  1.00  0.00    -0.507 OA
ATOM     11  H   UNL     1      -9.297   5.157  36.353  1.00  0.00     0.293 HD
ENDBRANCH   7  10
BRANCH   4  12
ATOM     12  O   UNL     1     -13.025  10.005  35.128  1.00  0.00    -0.508 OA
ATOM     13  H   UNL     1     -13.402  10.530  35.905  1.00  0.00     0.293 HD
ENDBRANCH   4  12
TORSDOF 2
ENDMDL
MODEL 6
REMARK VINA RESULT:    -5.440      3.048      5.117
REMARK INTER + INTRA:          -5.758
REMARK INTER:                  -5.758
REMARK INTRA:                   0.000
REMARK UNBOUND:                 0.000
REMARK SMILES Cc1cc(O)c(C)c(C)c1O
REMARK SMILES IDX 1 1 2 2 3 3 4 4 6 5 8 6 10 7 9 8 7 9 11 10 5 12
REMARK H PARENT 11 11 5 13
REMARK Flexibility Score: inf
ROOT
ATOM      1  C   UNL     1     -14.233   4.991  33.811  1.00  0.00     0.048 C 
ATOM      2  C   UNL     1     -13.361   6.100  34.332  1.00  0.00    -0.005 A 
ATOM      3  C   UNL     1     -13.914   7.356  34.596  1.00  0.00     0.053 A 
ATOM      4  C   UNL     1     -13.133   8.388  35.113  1.00  0.00     0.119 A 
ATOM      5  C   UNL     1     -11.764   8.170  35.395  1.00  0.00    -0.003 A 
ATOM      6  C   UNL     1     -11.166   6.935  35.013  1.00  0.00    -0.002 A 
ATOM      7  C   UNL     1     -11.991   5.880  34.548  1.00  0.00     0.121 A 
ATOM      8  C   UNL     1      -9.670   6.731  35.109  1.00  0.00     0.049 C 
ATOM      9  C   UNL     1     -10.958   9.252  36.080  1.00  0.00     0.049 C 
ENDROOT
BRANCH   7  10
ATOM     10  O   UNL     1     -11.481   4.600  34.302  1.00  0.00    -0.507 OA
ATOM     11  H   UNL     1     -12.043   3.760  34.306  1.00  0.00     0.293 HD
ENDBRANCH   7  10
BRANCH   4  12
ATOM     12  O   UNL     1     -13.754   9.624  35.323  1.00  0.00    -0.508 OA
ATOM     13  H   UNL     1     -13.369  10.351  35.911  1.00  0.00     0.293 HD
ENDBRANCH   4  12
TORSDOF 2
ENDMDL
MODEL 7
REMARK VINA RESULT:    -5.368      0.652      3.089
REMARK INTER + INTRA:          -5.681
REMARK INTER:                  -5.681
REMARK INTRA:                   0.000
REMARK UNBOUND:                 0.000
REMARK SMILES Cc1cc(O)c(C)c(C)c1O
REMARK SMILES IDX 1 1 2 2 3 3 4 4 6 5 8 6 10 7 9 8 7 9 11 10 5 12
REMARK H PARENT 11 11 5 13
REMARK Flexibility Score: inf
ROOT
ATOM      1  C   UNL     1      -8.216   5.296  33.497  1.00  0.00     0.048 C 
ATOM      2  C   UNL     1      -8.358   6.494  34.396  1.00  0.00    -0.005 A 
ATOM      3  C   UNL     1      -9.588   6.773  34.997  1.00  0.00     0.053 A 
ATOM      4  C   UNL     1      -9.734   7.855  35.862  1.00  0.00     0.119 A 
ATOM      5  C   UNL     1      -8.625   8.683  36.157  1.00  0.00    -0.003 A 
ATOM      6  C   UNL     1      -7.404   8.481  35.453  1.00  0.00    -0.002 A 
ATOM      7  C   UNL     1      -7.260   7.337  34.627  1.00  0.00     0.121 A 
ATOM      8  C   UNL     1      -6.258   9.460  35.585  1.00  0.00     0.049 C 
ATOM      9  C   UNL     1      -8.759   9.773  37.198  1.00  0.00     0.049 C 
ENDROOT
BRANCH   7  10
ATOM     10  O   UNL     1      -6.036   7.008  34.033  1.00  0.00    -0.507 OA
ATOM     11  H   UNL     1      -5.835   6.107  33.621  1.00  0.00     0.293 HD
ENDBRANCH   7  10
BRANCH   4  12
ATOM     12  O   UNL     1     -11.004   8.084  36.401  1.00  0.00    -0.508 OA
ATOM     13  H   UNL     1     -11.691   8.693  35.977  1.00  0.00     0.293 HD
ENDBRANCH   4  12
TORSDOF 2
ENDMDL
MODEL 8
REMARK VINA RESULT:    -5.255      2.911      5.708
REMARK INTER + INTRA:          -5.562
REMARK INTER:                  -5.562
REMARK INTRA:                   0.000
REMARK UNBOUND:                 0.000
REMARK SMILES Cc1cc(O)c(C)c(C)c1O
REMARK SMILES IDX 1 1 2 2 3 3 4 4 6 5 8 6 10 7 9 8 7 9 11 10 5 12
REMARK H PARENT 11 11 5 13
REMARK Flexibility Score: inf
ROOT
ATOM      1  C   UNL     1     -14.612   4.771  33.747  1.00  0.00     0.048 C 
ATOM      2  C   UNL     1     -13.437   5.520  34.314  1.00  0.00    -0.005 A 
ATOM      3  C   UNL     1     -12.332   4.818  34.802  1.00  0.00     0.053 A 
ATOM      4  C   UNL     1     -11.217   5.491  35.297  1.00  0.00     0.119 A 
ATOM      5  C   UNL     1     -11.183   6.906  35.297  1.00  0.00    -0.003 A 
ATOM      6  C   UNL     1     -12.353   7.626  34.919  1.00  0.00    -0.002 A 
ATOM      7  C   UNL     1     -13.450   6.924  34.359  1.00  0.00     0.121 A 
ATOM      8  C   UNL     1     -12.433   9.127  35.093  1.00  0.00     0.049 C 
ATOM      9  C   UNL     1      -9.920   7.626  35.712  1.00  0.00     0.049 C 
ENDROOT
BRANCH   7  10
ATOM     10  O   UNL     1     -14.560   7.592  33.832  1.00  0.00    -0.507 OA
ATOM     11  H   UNL     1     -14.874   7.495  32.876  1.00  0.00     0.293 HD
ENDBRANCH   7  10
BRANCH   4  12
ATOM     12  O   UNL     1     -10.163   4.717  35.794  1.00  0.00    -0.508 OA
ATOM     13  H   UNL     1      -9.633   4.957  36.620  1.00  0.00     0.293 HD
ENDBRANCH   4  12
TORSDOF 2
ENDMDL
MODEL 9
REMARK VINA RESULT:    -5.250      2.104      3.696
REMARK INTER + INTRA:          -5.557
REMARK INTER:                  -5.557
REMARK INTRA:                   0.000
REMARK UNBOUND:                 0.000
REMARK SMILES Cc1cc(O)c(C)c(C)c1O
REMARK SMILES IDX 1 1 2 2 3 3 4 4 6 5 8 6 10 7 9 8 7 9 11 10 5 12
REMARK H PARENT 11 11 5 13
REMARK Flexibility Score: inf
ROOT
ATOM      1  C   UNL     1      -8.197   8.558  36.505  1.00  0.00     0.048 C 
ATOM      2  C   UNL     1      -9.391   7.901  35.869  1.00  0.00    -0.005 A 
ATOM      3  C   UNL     1      -9.237   6.703  35.167  1.00  0.00     0.053 A 
ATOM      4  C   UNL     1     -10.334   6.058  34.600  1.00  0.00     0.119 A 
ATOM      5  C   UNL     1     -11.631   6.604  34.745  1.00  0.00    -0.003 A 
ATOM      6  C   UNL     1     -11.780   7.885  35.350  1.00  0.00    -0.002 A 
ATOM      7  C   UNL     1     -10.661   8.491  35.974  1.00  0.00     0.121 A 
ATOM      8  C   UNL     1     -13.115   8.597  35.347  1.00  0.00     0.049 C 
ATOM      9  C   UNL     1     -12.831   5.830  34.243  1.00  0.00     0.049 C 
ENDROOT
BRANCH   7  10
ATOM     10  O   UNL     1     -10.781   9.674  36.713  1.00  0.00    -0.507 OA
ATOM     11  H   UNL     1     -11.620  10.237  36.739  1.00  0.00     0.293 HD
ENDBRANCH   7  10
BRANCH   4  12
ATOM     12  O   UNL     1     -10.093   4.878  33.888  1.00  0.00    -0.508 OA
ATOM     13  H   UNL     1      -9.264   4.720  33.331  1.00  0.00     0.293 HD
ENDBRANCH   4  12
TORSDOF 2
ENDMDL
