MODEL 1
REMARK VINA RESULT:    -5.628      0.000      0.000
REMARK INTER + INTRA:         -11.995
REMARK INTER:                 -10.564
REMARK INTRA:                  -1.431
REMARK UNBOUND:                -1.431
REMARK SMILES O=C([O-])CCCCCCCCCCCCCCC(=O)[O-]
REMARK SMILES IDX 10 1 9 2 8 3 7 4 6 5 5 6 4 7 2 8 1 9 3 10 11 11 12 12 13 13
REMARK SMILES IDX 14 14 15 15 16 16 17 17 18 18 19 19 20 20
REMARK H PARENT
REMARK Flexibility Score: inf
ROOT
ATOM      1  C   UNL     1     135.693 133.210 133.031  1.00  0.00     0.000 C 
ENDROOT
BRANCH   1   2
ATOM      2  C   UNL     1     136.190 134.488 133.734  1.00  0.00     0.000 C 
BRANCH   2   3
ATOM      3  C   UNL     1     135.707 135.807 133.099  1.00  0.00     0.000 C 
BRANCH   3   4
ATOM      4  C   UNL     1     134.269 135.775 132.544  1.00  0.00     0.000 C 
BRANCH   4   5
ATOM      5  C   UNL     1     133.155 135.892 133.601  1.00  0.00     0.000 C 
BRANCH   5   6
ATOM      6  C   UNL     1     131.759 135.423 133.143  1.00  0.00     0.006 C 
BRANCH   6   7
ATOM      7  C   UNL     1     131.791 134.345 132.044  1.00  0.00     0.053 C 
BRANCH   7   8
ATOM      8  C   UNL     1     131.310 133.010 132.526  1.00  0.00     0.041 C 
ATOM      9  O   UNL     1     130.833 132.888 133.686  1.00  0.00    -0.550 OA
ATOM     10  O   UNL     1     131.419 131.893 131.709  1.00  0.00    -0.550 OA
ENDBRANCH   7   8
ENDBRANCH   6   7
ENDBRANCH   5   6
ENDBRANCH   4   5
ENDBRANCH   3   4
ENDBRANCH   2   3
ENDBRANCH   1   2
BRANCH   1  11
ATOM     11  C   UNL     1     134.580 132.448 133.778  1.00  0.00     0.000 C 
BRANCH  11  12
ATOM     12  C   UNL     1     134.480 130.947 133.442  1.00  0.00     0.000 C 
BRANCH  12  13
ATOM     13  C   UNL     1     135.813 130.273 133.059  1.00  0.00     0.000 C 
BRANCH  13  14
ATOM     14  C   UNL     1     135.856 129.686 131.636  1.00  0.00     0.000 C 
BRANCH  14  15
ATOM     15  C   UNL     1     135.237 130.623 130.587  1.00  0.00     0.000 C 
BRANCH  15  16
ATOM     16  C   UNL     1     134.759 129.872 129.334  1.00  0.00     0.006 C 
BRANCH  16  17
ATOM     17  C   UNL     1     135.722 128.755 128.915  1.00  0.00     0.053 C 
BRANCH  17  18
ATOM     18  C   UNL     1     134.963 127.515 128.562  1.00  0.00     0.041 C 
ATOM     19  O   UNL     1     133.708 127.498 128.639  1.00  0.00    -0.550 OA
ATOM     20  O   UNL     1     135.640 126.392 128.105  1.00  0.00    -0.550 OA
ENDBRANCH  17  18
ENDBRANCH  16  17
ENDBRANCH  15  16
ENDBRANCH  14  15
ENDBRANCH  13  14
ENDBRANCH  12  13
ENDBRANCH  11  12
ENDBRANCH   1  11
TORSDOF 15
ENDMDL
MODEL 2
REMARK VINA RESULT:    -5.534      4.299      5.720
REMARK INTER + INTRA:         -11.818
REMARK INTER:                  -9.982
REMARK INTRA:                  -1.836
REMARK UNBOUND:                -1.431
REMARK SMILES O=C([O-])CCCCCCCCCCCCCCC(=O)[O-]
REMARK SMILES IDX 10 1 9 2 8 3 7 4 6 5 5 6 4 7 2 8 1 9 3 10 11 11 12 12 13 13
REMARK SMILES IDX 14 14 15 15 16 16 17 17 18 18 19 19 20 20
REMARK H PARENT
REMARK Flexibility Score: inf
ROOT
ATOM      1  C   UNL     1     131.708 131.887 133.306  1.00  0.00     0.000 C 
ENDROOT
BRANCH   1   2
ATOM      2  C   UNL     1     131.151 133.325 133.302  1.00  0.00     0.000 C 
BRANCH   2   3
ATOM      3  C   UNL     1     132.194 134.425 133.581  1.00  0.00     0.000 C 
BRANCH   3   4
ATOM      4  C   UNL     1     132.420 135.418 132.423  1.00  0.00     0.000 C 
BRANCH   4   5
ATOM      5  C   UNL     1     132.148 134.856 131.015  1.00  0.00     0.000 C 
BRANCH   5   6
ATOM      6  C   UNL     1     131.399 135.807 130.059  1.00  0.00     0.006 C 
BRANCH   6   7
ATOM      7  C   UNL     1     131.564 137.298 130.405  1.00  0.00     0.053 C 
BRANCH   7   8
ATOM      8  C   UNL     1     132.302 138.061 129.347  1.00  0.00     0.041 C 
ATOM      9  O   UNL     1     132.006 139.261 129.106  1.00  0.00    -0.550 OA
ATOM     10  O   UNL     1     133.293 137.436 128.601  1.00  0.00    -0.550 OA
ENDBRANCH   7   8
ENDBRANCH   6   7
ENDBRANCH   5   6
ENDBRANCH   4   5
ENDBRANCH   3   4
ENDBRANCH   2   3
ENDBRANCH   1   2
BRANCH   1  11
ATOM     11  C   UNL     1     133.073 131.717 132.611  1.00  0.00     0.000 C 
BRANCH  11  12
ATOM     12  C   UNL     1     134.211 131.224 133.526  1.00  0.00     0.000 C 
BRANCH  12  13
ATOM     13  C   UNL     1     135.619 131.723 133.144  1.00  0.00     0.000 C 
BRANCH  13  14
ATOM     14  C   UNL     1     135.666 133.152 132.571  1.00  0.00     0.000 C 
BRANCH  14  15
ATOM     15  C   UNL     1     135.939 134.216 133.647  1.00  0.00     0.000 C 
BRANCH  15  16
ATOM     16  C   UNL     1     136.111 135.623 133.055  1.00  0.00     0.006 C 
BRANCH  16  17
ATOM     17  C   UNL     1     137.452 135.797 132.331  1.00  0.00     0.053 C 
BRANCH  17  18
ATOM     18  C   UNL     1     137.251 135.786 130.849  1.00  0.00     0.041 C 
ATOM     19  O   UNL     1     138.231 135.611 130.078  1.00  0.00    -0.550 OA
ATOM     20  O   UNL     1     135.975 135.925 130.319  1.00  0.00    -0.550 OA
ENDBRANCH  17  18
ENDBRANCH  16  17
ENDBRANCH  15  16
ENDBRANCH  14  15
ENDBRANCH  13  14
ENDBRANCH  12  13
ENDBRANCH  11  12
ENDBRANCH   1  11
TORSDOF 15
ENDMDL
MODEL 3
REMARK VINA RESULT:    -5.509      3.242      6.343
REMARK INTER + INTRA:         -11.771
REMARK INTER:                 -10.509
REMARK INTRA:                  -1.263
REMARK UNBOUND:                -1.431
REMARK SMILES O=C([O-])CCCCCCCCCCCCCCC(=O)[O-]
REMARK SMILES IDX 10 1 9 2 8 3 7 4 6 5 5 6 4 7 2 8 1 9 3 10 11 11 12 12 13 13
REMARK SMILES IDX 14 14 15 15 16 16 17 17 18 18 19 19 20 20
REMARK H PARENT
REMARK Flexibility Score: inf
ROOT
ATOM      1  C   UNL     1     134.172 131.370 133.709  1.00  0.00     0.000 C 
ENDROOT
BRANCH   1   2
ATOM      2  C   UNL     1     133.003 131.530 132.716  1.00  0.00     0.000 C 
BRANCH   2   3
ATOM      3  C   UNL     1     131.998 132.642 133.072  1.00  0.00     0.000 C 
BRANCH   3   4
ATOM      4  C   UNL     1     130.556 132.161 133.329  1.00  0.00     0.000 C 
BRANCH   4   5
ATOM      5  C   UNL     1     129.879 131.454 132.139  1.00  0.00     0.000 C 
BRANCH   5   6
ATOM      6  C   UNL     1     130.265 131.992 130.746  1.00  0.00     0.006 C 
BRANCH   6   7
ATOM      7  C   UNL     1     129.099 132.021 129.742  1.00  0.00     0.053 C 
BRANCH   7   8
ATOM      8  C   UNL     1     129.207 130.953 128.697  1.00  0.00     0.041 C 
ATOM      9  O   UNL     1     128.982 131.223 127.488  1.00  0.00    -0.550 OA
ATOM     10  O   UNL     1     129.522 129.651 129.062  1.00  0.00    -0.550 OA
ENDBRANCH   7   8
ENDBRANCH   6   7
ENDBRANCH   5   6
ENDBRANCH   4   5
ENDBRANCH   3   4
ENDBRANCH   2   3
ENDBRANCH   1   2
BRANCH   1  11
ATOM     11  C   UNL     1     135.555 131.762 133.154  1.00  0.00     0.000 C 
BRANCH  11  12
ATOM     12  C   UNL     1     135.637 133.179 132.553  1.00  0.00     0.000 C 
BRANCH  12  13
ATOM     13  C   UNL     1     136.162 134.266 133.512  1.00  0.00     0.000 C 
BRANCH  13  14
ATOM     14  C   UNL     1     135.591 135.675 133.267  1.00  0.00     0.000 C 
BRANCH  14  15
ATOM     15  C   UNL     1     134.183 135.647 132.651  1.00  0.00     0.000 C 
BRANCH  15  16
ATOM     16  C   UNL     1     133.148 136.393 133.509  1.00  0.00     0.006 C 
BRANCH  16  17
ATOM     17  C   UNL     1     131.712 136.184 133.013  1.00  0.00     0.053 C 
BRANCH  17  18
ATOM     18  C   UNL     1     131.591 136.586 131.577  1.00  0.00     0.041 C 
ATOM     19  O   UNL     1     131.630 137.801 131.254  1.00  0.00    -0.550 OA
ATOM     20  O   UNL     1     131.481 135.615 130.590  1.00  0.00    -0.550 OA
ENDBRANCH  17  18
ENDBRANCH  16  17
ENDBRANCH  15  16
ENDBRANCH  14  15
ENDBRANCH  13  14
ENDBRANCH  12  13
ENDBRANCH  11  12
ENDBRANCH   1  11
TORSDOF 15
ENDMDL
MODEL 4
REMARK VINA RESULT:    -5.509      3.160      6.257
REMARK INTER + INTRA:         -11.771
REMARK INTER:                  -9.918
REMARK INTRA:                  -1.853
REMARK UNBOUND:                -1.431
REMARK SMILES O=C([O-])CCCCCCCCCCCCCCC(=O)[O-]
REMARK SMILES IDX 10 1 9 2 8 3 7 4 6 5 5 6 4 7 2 8 1 9 3 10 11 11 12 12 13 13
REMARK SMILES IDX 14 14 15 15 16 16 17 17 18 18 19 19 20 20
REMARK H PARENT
REMARK Flexibility Score: inf
ROOT
ATOM      1  C   UNL     1     131.658 134.647 132.294  1.00  0.00     0.000 C 
ENDROOT
BRANCH   1   2
ATOM      2  C   UNL     1     131.197 133.469 133.173  1.00  0.00     0.000 C 
BRANCH   2   3
ATOM      3  C   UNL     1     132.334 132.689 133.861  1.00  0.00     0.000 C 
BRANCH   3   4
ATOM      4  C   UNL     1     133.131 131.746 132.937  1.00  0.00     0.000 C 
BRANCH   4   5
ATOM      5  C   UNL     1     134.313 131.018 133.604  1.00  0.00     0.000 C 
BRANCH   5   6
ATOM      6  C   UNL     1     135.593 130.919 132.750  1.00  0.00     0.006 C 
BRANCH   6   7
ATOM      7  C   UNL     1     135.426 131.439 131.310  1.00  0.00     0.053 C 
BRANCH   7   8
ATOM      8  C   UNL     1     135.846 130.435 130.280  1.00  0.00     0.041 C 
ATOM      9  O   UNL     1     135.487 129.232 130.381  1.00  0.00    -0.550 OA
ATOM     10  O   UNL     1     136.663 130.820 129.225  1.00  0.00    -0.550 OA
ENDBRANCH   7   8
ENDBRANCH   6   7
ENDBRANCH   5   6
ENDBRANCH   4   5
ENDBRANCH   3   4
ENDBRANCH   2   3
ENDBRANCH   1   2
BRANCH   1  11
ATOM     11  C   UNL     1     131.660 136.020 132.994  1.00  0.00     0.000 C 
BRANCH  11  12
ATOM     12  C   UNL     1     132.985 136.396 133.687  1.00  0.00     0.000 C 
BRANCH  12  13
ATOM     13  C   UNL     1     134.259 135.907 132.969  1.00  0.00     0.000 C 
BRANCH  13  14
ATOM     14  C   UNL     1     135.079 134.862 133.747  1.00  0.00     0.000 C 
BRANCH  14  15
ATOM     15  C   UNL     1     136.441 134.570 133.097  1.00  0.00     0.000 C 
BRANCH  15  16
ATOM     16  C   UNL     1     136.470 134.925 131.602  1.00  0.00     0.006 C 
BRANCH  16  17
ATOM     17  C   UNL     1     137.629 135.863 131.242  1.00  0.00     0.053 C 
BRANCH  17  18
ATOM     18  C   UNL     1     137.783 135.959 129.757  1.00  0.00     0.041 C 
ATOM     19  O   UNL     1     137.761 137.082 129.190  1.00  0.00    -0.550 OA
ATOM     20  O   UNL     1     137.997 134.811 129.005  1.00  0.00    -0.550 OA
ENDBRANCH  17  18
ENDBRANCH  16  17
ENDBRANCH  15  16
ENDBRANCH  14  15
ENDBRANCH  13  14
ENDBRANCH  12  13
ENDBRANCH  11  12
ENDBRANCH   1  11
TORSDOF 15
ENDMDL
MODEL 5
REMARK VINA RESULT:    -5.502      3.216      5.531
REMARK INTER + INTRA:         -11.758
REMARK INTER:                 -10.254
REMARK INTRA:                  -1.505
REMARK UNBOUND:                -1.431
REMARK SMILES O=C([O-])CCCCCCCCCCCCCCC(=O)[O-]
REMARK SMILES IDX 10 1 9 2 8 3 7 4 6 5 5 6 4 7 2 8 1 9 3 10 11 11 12 12 13 13
REMARK SMILES IDX 14 14 15 15 16 16 17 17 18 18 19 19 20 20
REMARK H PARENT
REMARK Flexibility Score: inf
ROOT
ATOM      1  C   UNL     1     131.830 134.508 132.615  1.00  0.00     0.000 C 
ENDROOT
BRANCH   1   2
ATOM      2  C   UNL     1     132.063 135.915 133.199  1.00  0.00     0.000 C 
BRANCH   2   3
ATOM      3  C   UNL     1     133.520 136.218 133.599  1.00  0.00     0.000 C 
BRANCH   3   4
ATOM      4  C   UNL     1     134.592 135.536 132.726  1.00  0.00     0.000 C 
BRANCH   4   5
ATOM      5  C   UNL     1     135.357 134.385 133.406  1.00  0.00     0.000 C 
BRANCH   5   6
ATOM      6  C   UNL     1     135.446 133.080 132.589  1.00  0.00     0.006 C 
BRANCH   6   7
ATOM      7  C   UNL     1     135.147 131.810 133.406  1.00  0.00     0.053 C 
BRANCH   7   8
ATOM      8  C   UNL     1     135.559 130.555 132.698  1.00  0.00     0.041 C 
ATOM      9  O   UNL     1     135.890 129.534 133.357  1.00  0.00    -0.550 OA
ATOM     10  O   UNL     1     135.610 130.522 131.311  1.00  0.00    -0.550 OA
ENDBRANCH   7   8
ENDBRANCH   6   7
ENDBRANCH   5   6
ENDBRANCH   4   5
ENDBRANCH   3   4
ENDBRANCH   2   3
ENDBRANCH   1   2
BRANCH   1  11
ATOM     11  C   UNL     1     131.716 133.381 133.660  1.00  0.00     0.000 C 
BRANCH  11  12
ATOM     12  C   UNL     1     131.444 131.979 133.078  1.00  0.00     0.000 C 
BRANCH  12  13
ATOM     13  C   UNL     1     129.954 131.631 132.882  1.00  0.00     0.000 C 
BRANCH  13  14
ATOM     14  C   UNL     1     129.556 131.285 131.436  1.00  0.00     0.000 C 
BRANCH  14  15
ATOM     15  C   UNL     1     130.475 131.941 130.393  1.00  0.00     0.000 C 
BRANCH  15  16
ATOM     16  C   UNL     1     129.690 132.612 129.254  1.00  0.00     0.006 C 
BRANCH  16  17
ATOM     17  C   UNL     1     128.184 132.334 129.335  1.00  0.00     0.053 C 
BRANCH  17  18
ATOM     18  C   UNL     1     127.742 131.504 128.172  1.00  0.00     0.041 C 
ATOM     19  O   UNL     1     128.519 130.651 127.671  1.00  0.00    -0.550 OA
ATOM     20  O   UNL     1     126.454 131.641 127.669  1.00  0.00    -0.550 OA
ENDBRANCH  17  18
ENDBRANCH  16  17
ENDBRANCH  15  16
ENDBRANCH  14  15
ENDBRANCH  13  14
ENDBRANCH  12  13
ENDBRANCH  11  12
ENDBRANCH   1  11
TORSDOF 15
ENDMDL
MODEL 6
REMARK VINA RESULT:    -5.485      4.210      5.673
REMARK INTER + INTRA:         -11.725
REMARK INTER:                 -10.066
REMARK INTRA:                  -1.660
REMARK UNBOUND:                -1.431
REMARK SMILES O=C([O-])CCCCCCCCCCCCCCC(=O)[O-]
REMARK SMILES IDX 10 1 9 2 8 3 7 4 6 5 5 6 4 7 2 8 1 9 3 10 11 11 12 12 13 13
REMARK SMILES IDX 14 14 15 15 16 16 17 17 18 18 19 19 20 20
REMARK H PARENT
REMARK Flexibility Score: inf
ROOT
ATOM      1  C   UNL     1     134.261 135.642 133.083  1.00  0.00     0.000 C 
ENDROOT
BRANCH   1   2
ATOM      2  C   UNL     1     132.900 135.956 133.737  1.00  0.00     0.000 C 
BRANCH   2   3
ATOM      3  C   UNL     1     131.670 135.541 132.906  1.00  0.00     0.000 C 
BRANCH   3   4
ATOM      4  C   UNL     1     131.687 134.086 132.397  1.00  0.00     0.000 C 
BRANCH   4   5
ATOM      5  C   UNL     1     131.623 133.006 133.494  1.00  0.00     0.000 C 
BRANCH   5   6
ATOM      6  C   UNL     1     132.684 131.892 133.386  1.00  0.00     0.006 C 
BRANCH   6   7
ATOM      7  C   UNL     1     133.437 131.874 132.043  1.00  0.00     0.053 C 
BRANCH   7   8
ATOM      8  C   UNL     1     134.783 131.224 132.141  1.00  0.00     0.041 C 
ATOM      9  O   UNL     1     135.238 130.873 133.262  1.00  0.00    -0.550 OA
ATOM     10  O   UNL     1     135.552 131.037 131.000  1.00  0.00    -0.550 OA
ENDBRANCH   7   8
ENDBRANCH   6   7
ENDBRANCH   5   6
ENDBRANCH   4   5
ENDBRANCH   3   4
ENDBRANCH   2   3
ENDBRANCH   1   2
BRANCH   1  11
ATOM     11  C   UNL     1     135.125 134.617 133.841  1.00  0.00     0.000 C 
BRANCH  11  12
ATOM     12  C   UNL     1     136.581 134.502 133.347  1.00  0.00     0.000 C 
BRANCH  12  13
ATOM     13  C   UNL     1     137.249 135.838 132.964  1.00  0.00     0.000 C 
BRANCH  13  14
ATOM     14  C   UNL     1     137.642 135.963 131.481  1.00  0.00     0.000 C 
BRANCH  14  15
ATOM     15  C   UNL     1     136.879 134.979 130.578  1.00  0.00     0.000 C 
BRANCH  15  16
ATOM     16  C   UNL     1     137.527 134.825 129.193  1.00  0.00     0.006 C 
BRANCH  16  17
ATOM     17  C   UNL     1     138.466 135.988 128.851  1.00  0.00     0.053 C 
BRANCH  17  18
ATOM     18  C   UNL     1     139.826 135.475 128.497  1.00  0.00     0.041 C 
ATOM     19  O   UNL     1     140.485 136.015 127.571  1.00  0.00    -0.550 OA
ATOM     20  O   UNL     1     140.385 134.430 129.221  1.00  0.00    -0.550 OA
ENDBRANCH  17  18
ENDBRANCH  16  17
ENDBRANCH  15  16
ENDBRANCH  14  15
ENDBRANCH  13  14
ENDBRANCH  12  13
ENDBRANCH  11  12
ENDBRANCH   1  11
TORSDOF 15
ENDMDL
MODEL 7
REMARK VINA RESULT:    -5.481      4.076      6.911
REMARK INTER + INTRA:         -11.719
REMARK INTER:                 -10.016
REMARK INTRA:                  -1.703
REMARK UNBOUND:                -1.431
REMARK SMILES O=C([O-])CCCCCCCCCCCCCCC(=O)[O-]
REMARK SMILES IDX 10 1 9 2 8 3 7 4 6 5 5 6 4 7 2 8 1 9 3 10 11 11 12 12 13 13
REMARK SMILES IDX 14 14 15 15 16 16 17 17 18 18 19 19 20 20
REMARK H PARENT
REMARK Flexibility Score: inf
ROOT
ATOM      1  C   UNL     1     133.852 131.386 132.542  1.00  0.00     0.000 C 
ENDROOT
BRANCH   1   2
ATOM      2  C   UNL     1     135.143 131.582 133.361  1.00  0.00     0.000 C 
BRANCH   2   3
ATOM      3  C   UNL     1     135.858 132.929 133.133  1.00  0.00     0.000 C 
BRANCH   3   4
ATOM      4  C   UNL     1     135.194 134.143 133.813  1.00  0.00     0.000 C 
BRANCH   4   5
ATOM      5  C   UNL     1     135.500 135.506 133.164  1.00  0.00     0.000 C 
BRANCH   5   6
ATOM      6  C   UNL     1     135.897 135.453 131.675  1.00  0.00     0.006 C 
BRANCH   6   7
ATOM      7  C   UNL     1     137.352 135.874 131.400  1.00  0.00     0.053 C 
BRANCH   7   8
ATOM      8  C   UNL     1     137.668 135.944 129.937  1.00  0.00     0.041 C 
ATOM      9  O   UNL     1     138.343 135.032 129.389  1.00  0.00    -0.550 OA
ATOM     10  O   UNL     1     137.248 137.032 129.184  1.00  0.00    -0.550 OA
ENDBRANCH   7   8
ENDBRANCH   6   7
ENDBRANCH   5   6
ENDBRANCH   4   5
ENDBRANCH   3   4
ENDBRANCH   2   3
ENDBRANCH   1   2
BRANCH   1  11
ATOM     11  C   UNL     1     132.551 131.392 133.368  1.00  0.00     0.000 C 
BRANCH  11  12
ATOM     12  C   UNL     1     131.421 132.270 132.796  1.00  0.00     0.000 C 
BRANCH  12  13
ATOM     13  C   UNL     1     131.307 133.677 133.416  1.00  0.00     0.000 C 
BRANCH  13  14
ATOM     14  C   UNL     1     131.872 134.814 132.547  1.00  0.00     0.000 C 
BRANCH  14  15
ATOM     15  C   UNL     1     131.700 136.199 133.193  1.00  0.00     0.000 C 
BRANCH  15  16
ATOM     16  C   UNL     1     131.670 137.334 132.157  1.00  0.00     0.006 C 
BRANCH  16  17
ATOM     17  C   UNL     1     131.468 136.819 130.726  1.00  0.00     0.053 C 
BRANCH  17  18
ATOM     18  C   UNL     1     132.426 137.486 129.791  1.00  0.00     0.041 C 
ATOM     19  O   UNL     1     133.494 136.908 129.460  1.00  0.00    -0.550 OA
ATOM     20  O   UNL     1     132.118 138.726 129.248  1.00  0.00    -0.550 OA
ENDBRANCH  17  18
ENDBRANCH  16  17
ENDBRANCH  15  16
ENDBRANCH  14  15
ENDBRANCH  13  14
ENDBRANCH  12  13
ENDBRANCH  11  12
ENDBRANCH   1  11
TORSDOF 15
ENDMDL
MODEL 8
REMARK VINA RESULT:    -5.455      3.543      4.423
REMARK INTER + INTRA:         -11.669
REMARK INTER:                 -10.260
REMARK INTRA:                  -1.409
REMARK UNBOUND:                -1.431
REMARK SMILES O=C([O-])CCCCCCCCCCCCCCC(=O)[O-]
REMARK SMILES IDX 10 1 9 2 8 3 7 4 6 5 5 6 4 7 2 8 1 9 3 10 11 11 12 12 13 13
REMARK SMILES IDX 14 14 15 15 16 16 17 17 18 18 19 19 20 20
REMARK H PARENT
REMARK Flexibility Score: inf
ROOT
ATOM      1  C   UNL     1     135.254 132.913 132.728  1.00  0.00     0.000 C 
ENDROOT
BRANCH   1   2
ATOM      2  C   UNL     1     136.197 133.972 133.332  1.00  0.00     0.000 C 
BRANCH   2   3
ATOM      3  C   UNL     1     135.679 135.422 133.251  1.00  0.00     0.000 C 
BRANCH   3   4
ATOM      4  C   UNL     1     134.267 135.578 132.653  1.00  0.00     0.000 C 
BRANCH   4   5
ATOM      5  C   UNL     1     133.142 135.811 133.679  1.00  0.00     0.000 C 
BRANCH   5   6
ATOM      6  C   UNL     1     131.745 136.068 133.079  1.00  0.00     0.006 C 
BRANCH   6   7
ATOM      7  C   UNL     1     131.642 137.374 132.271  1.00  0.00     0.053 C 
BRANCH   7   8
ATOM      8  C   UNL     1     131.561 137.137 130.794  1.00  0.00     0.041 C 
ATOM      9  O   UNL     1     131.589 138.108 129.992  1.00  0.00    -0.550 OA
ATOM     10  O   UNL     1     131.421 135.846 130.302  1.00  0.00    -0.550 OA
ENDBRANCH   7   8
ENDBRANCH   6   7
ENDBRANCH   5   6
ENDBRANCH   4   5
ENDBRANCH   3   4
ENDBRANCH   2   3
ENDBRANCH   1   2
BRANCH   1  11
ATOM     11  C   UNL     1     134.580 131.982 133.754  1.00  0.00     0.000 C 
BRANCH  11  12
ATOM     12  C   UNL     1     133.290 131.296 133.262  1.00  0.00     0.000 C 
BRANCH  12  13
ATOM     13  C   UNL     1     132.091 132.240 133.041  1.00  0.00     0.000 C 
BRANCH  13  14
ATOM     14  C   UNL     1     130.710 131.591 133.245  1.00  0.00     0.000 C 
BRANCH  14  15
ATOM     15  C   UNL     1     129.831 131.653 131.986  1.00  0.00     0.000 C 
BRANCH  15  16
ATOM     16  C   UNL     1     130.658 131.729 130.692  1.00  0.00     0.006 C 
BRANCH  16  17
ATOM     17  C   UNL     1     130.032 130.924 129.546  1.00  0.00     0.053 C 
BRANCH  17  18
ATOM     18  C   UNL     1     129.647 131.831 128.420  1.00  0.00     0.041 C 
ATOM     19  O   UNL     1     129.183 132.976 128.660  1.00  0.00    -0.550 OA
ATOM     20  O   UNL     1     129.843 131.430 127.106  1.00  0.00    -0.550 OA
ENDBRANCH  17  18
ENDBRANCH  16  17
ENDBRANCH  15  16
ENDBRANCH  14  15
ENDBRANCH  13  14
ENDBRANCH  12  13
ENDBRANCH  11  12
ENDBRANCH   1  11
TORSDOF 15
ENDMDL
MODEL 9
REMARK VINA RESULT:    -5.399      4.020      5.558
REMARK INTER + INTRA:         -11.564
REMARK INTER:                  -9.679
REMARK INTRA:                  -1.885
REMARK UNBOUND:                -1.431
REMARK SMILES O=C([O-])CCCCCCCCCCCCCCC(=O)[O-]
REMARK SMILES IDX 10 1 9 2 8 3 7 4 6 5 5 6 4 7 2 8 1 9 3 10 11 11 12 12 13 13
REMARK SMILES IDX 14 14 15 15 16 16 17 17 18 18 19 19 20 20
REMARK H PARENT
REMARK Flexibility Score: inf
ROOT
ATOM      1  C   UNL     1     133.636 131.891 133.750  1.00  0.00     0.000 C 
ENDROOT
BRANCH   1   2
ATOM      2  C   UNL     1     132.450 131.378 132.910  1.00  0.00     0.000 C 
BRANCH   2   3
ATOM      3  C   UNL     1     131.249 132.340 132.828  1.00  0.00     0.000 C 
BRANCH   3   4
ATOM      4  C   UNL     1     131.349 133.587 133.730  1.00  0.00     0.000 C 
BRANCH   4   5
ATOM      5  C   UNL     1     131.742 134.889 133.007  1.00  0.00     0.000 C 
BRANCH   5   6
ATOM      6  C   UNL     1     132.114 134.730 131.518  1.00  0.00     0.006 C 
BRANCH   6   7
ATOM      7  C   UNL     1     132.718 135.997 130.886  1.00  0.00     0.053 C 
BRANCH   7   8
ATOM      8  C   UNL     1     131.678 137.000 130.490  1.00  0.00     0.041 C 
ATOM      9  O   UNL     1     131.384 137.949 131.264  1.00  0.00    -0.550 OA
ATOM     10  O   UNL     1     131.008 136.869 129.282  1.00  0.00    -0.550 OA
ENDBRANCH   7   8
ENDBRANCH   6   7
ENDBRANCH   5   6
ENDBRANCH   4   5
ENDBRANCH   3   4
ENDBRANCH   2   3
ENDBRANCH   1   2
BRANCH   1  11
ATOM     11  C   UNL     1     134.995 131.893 133.023  1.00  0.00     0.000 C 
BRANCH  11  12
ATOM     12  C   UNL     1     135.916 133.079 133.370  1.00  0.00     0.000 C 
BRANCH  12  13
ATOM     13  C   UNL     1     135.188 134.379 133.763  1.00  0.00     0.000 C 
BRANCH  13  14
ATOM     14  C   UNL     1     135.662 135.638 133.014  1.00  0.00     0.000 C 
BRANCH  14  15
ATOM     15  C   UNL     1     137.193 135.773 132.986  1.00  0.00     0.000 C 
BRANCH  15  16
ATOM     16  C   UNL     1     137.750 135.884 131.558  1.00  0.00     0.006 C 
BRANCH  16  17
ATOM     17  C   UNL     1     136.789 135.316 130.507  1.00  0.00     0.053 C 
BRANCH  17  18
ATOM     18  C   UNL     1     137.312 135.571 129.128  1.00  0.00     0.041 C 
ATOM     19  O   UNL     1     138.083 134.741 128.581  1.00  0.00    -0.550 OA
ATOM     20  O   UNL     1     136.911 136.703 128.431  1.00  0.00    -0.550 OA
ENDBRANCH  17  18
ENDBRANCH  16  17
ENDBRANCH  15  16
ENDBRANCH  14  15
ENDBRANCH  13  14
ENDBRANCH  12  13
ENDBRANCH  11  12
ENDBRANCH   1  11
TORSDOF 15
ENDMDL
