MODEL 1
REMARK VINA RESULT:    -5.216      0.000      0.000
REMARK INTER + INTRA:          -7.101
REMARK INTER:                  -6.740
REMARK INTRA:                  -0.361
REMARK UNBOUND:                -0.361
REMARK SMILES CCO[C@@H]1O[C@H](CO)[C@@H](O)[C@@H](O)[C@H]1O
REMARK SMILES IDX 4 1 13 2 11 3 9 4 6 5 5 6 3 7 2 8 1 9 14 10 12 12 7 14 8 15
REMARK SMILES IDX 10 17
REMARK H PARENT 14 11 12 13 8 16 10 18
REMARK Flexibility Score: inf
ROOT
ATOM      1  C   UNL     1      38.139  27.374  10.079  1.00  0.00     0.281 C 
ATOM      2  C   UNL     1      38.221  27.792   8.574  1.00  0.00     0.202 C 
ATOM      3  C   UNL     1      39.452  28.683   8.291  1.00  0.00     0.179 C 
ATOM      4  C   UNL     1      40.750  28.087   8.886  1.00  0.00     0.177 C 
ATOM      5  C   UNL     1      40.465  27.369  10.234  1.00  0.00     0.178 C 
ATOM      6  O   UNL     1      39.262  27.843  10.812  1.00  0.00    -0.341 OA
ENDROOT
BRANCH   1   7
ATOM      7  O   UNL     1      36.982  27.943  10.668  1.00  0.00    -0.350 OA
BRANCH   7   8
ATOM      8  C   UNL     1      37.279  28.576  11.901  1.00  0.00     0.160 C 
ATOM      9  C   UNL     1      36.373  28.037  13.003  1.00  0.00     0.035 C 
ENDBRANCH   7   8
ENDBRANCH   1   7
BRANCH   2  10
ATOM     10  O   UNL     1      38.202  26.664   7.732  1.00  0.00    -0.385 OA
ATOM     11  H   UNL     1      37.342  26.664   7.239  1.00  0.00     0.211 HD
ENDBRANCH   2  10
BRANCH   3  12
ATOM     12  O   UNL     1      39.600  28.904   6.912  1.00  0.00    -0.387 OA
ATOM     13  H   UNL     1      38.711  28.745   6.498  1.00  0.00     0.211 HD
ENDBRANCH   3  12
BRANCH   5  14
ATOM     14  C   UNL     1      41.616  27.565  11.234  1.00  0.00     0.191 C 
BRANCH  14  15
ATOM     15  O   UNL     1      42.799  26.969  10.770  1.00  0.00    -0.394 OA
ATOM     16  H   UNL     1      42.530  26.253  10.138  1.00  0.00     0.210 HD
ENDBRANCH  14  15
ENDBRANCH   5  14
BRANCH   4  17
ATOM     17  O   UNL     1      41.334  27.170   7.993  1.00  0.00    -0.387 OA
ATOM     18  H   UNL     1      40.998  26.268   8.237  1.00  0.00     0.211 HD
ENDBRANCH   4  17
TORSDOF 7
ENDMDL
MODEL 2
REMARK VINA RESULT:    -5.107      9.597     10.964
REMARK INTER + INTRA:          -6.961
REMARK INTER:                  -6.596
REMARK INTRA:                  -0.365
REMARK UNBOUND:                -0.361
REMARK SMILES CCO[C@@H]1O[C@H](CO)[C@@H](O)[C@@H](O)[C@H]1O
REMARK SMILES IDX 4 1 13 2 11 3 9 4 6 5 5 6 3 7 2 8 1 9 14 10 12 12 7 14 8 15
REMARK SMILES IDX 10 17
REMARK H PARENT 14 11 12 13 8 16 10 18
REMARK Flexibility Score: inf
ROOT
ATOM      1  C   UNL     1      49.143  24.943   8.885  1.00  0.00     0.281 C 
ATOM      2  C   UNL     1      48.954  23.786   9.920  1.00  0.00     0.202 C 
ATOM      3  C   UNL     1      48.001  22.690   9.390  1.00  0.00     0.179 C 
ATOM      4  C   UNL     1      48.371  22.243   7.956  1.00  0.00     0.177 C 
ATOM      5  C   UNL     1      48.900  23.441   7.119  1.00  0.00     0.178 C 
ATOM      6  O   UNL     1      48.462  24.670   7.669  1.00  0.00    -0.341 OA
ENDROOT
BRANCH   1   7
ATOM      7  O   UNL     1      48.605  26.145   9.411  1.00  0.00    -0.350 OA
BRANCH   7   8
ATOM      8  C   UNL     1      49.327  26.589  10.546  1.00  0.00     0.160 C 
ATOM      9  C   UNL     1      48.373  27.157  11.591  1.00  0.00     0.035 C 
ENDBRANCH   7   8
ENDBRANCH   1   7
BRANCH   2  10
ATOM     10  O   UNL     1      50.193  23.242  10.307  1.00  0.00    -0.385 OA
ATOM     11  H   UNL     1      50.152  23.048  11.279  1.00  0.00     0.211 HD
ENDBRANCH   2  10
BRANCH   3  12
ATOM     12  O   UNL     1      47.980  21.586  10.259  1.00  0.00    -0.387 OA
ATOM     13  H   UNL     1      48.140  21.937  11.174  1.00  0.00     0.211 HD
ENDBRANCH   3  12
BRANCH   5  14
ATOM     14  C   UNL     1      48.443  23.352   5.654  1.00  0.00     0.191 C 
BRANCH  14  15
ATOM     15  O   UNL     1      48.458  22.026   5.197  1.00  0.00    -0.394 OA
ATOM     16  H   UNL     1      48.723  22.054   4.242  1.00  0.00     0.210 HD
ENDBRANCH  14  15
ENDBRANCH   5  14
BRANCH   4  17
ATOM     17  O   UNL     1      49.353  21.236   7.984  1.00  0.00    -0.387 OA
ATOM     18  H   UNL     1      50.005  21.480   8.691  1.00  0.00     0.211 HD
ENDBRANCH   4  17
TORSDOF 7
ENDMDL
MODEL 3
REMARK VINA RESULT:    -5.088      2.033      4.138
REMARK INTER + INTRA:          -6.935
REMARK INTER:                  -6.548
REMARK INTRA:                  -0.388
REMARK UNBOUND:                -0.361
REMARK SMILES CCO[C@@H]1O[C@H](CO)[C@@H](O)[C@@H](O)[C@H]1O
REMARK SMILES IDX 4 1 13 2 11 3 9 4 6 5 5 6 3 7 2 8 1 9 14 10 12 12 7 14 8 15
REMARK SMILES IDX 10 17
REMARK H PARENT 14 11 12 13 8 16 10 18
REMARK Flexibility Score: inf
ROOT
ATOM      1  C   UNL     1      36.768  28.128   8.152  1.00  0.00     0.281 C 
ATOM      2  C   UNL     1      35.938  27.911   9.459  1.00  0.00     0.202 C 
ATOM      3  C   UNL     1      36.652  26.955  10.441  1.00  0.00     0.179 C 
ATOM      4  C   UNL     1      38.135  27.341  10.654  1.00  0.00     0.177 C 
ATOM      5  C   UNL     1      38.758  27.895   9.343  1.00  0.00     0.178 C 
ATOM      6  O   UNL     1      38.021  27.462   8.214  1.00  0.00    -0.341 OA
ENDROOT
BRANCH   1   7
ATOM      7  O   UNL     1      36.060  27.596   7.045  1.00  0.00    -0.350 OA
BRANCH   7   8
ATOM      8  C   UNL     1      35.480  28.618   6.254  1.00  0.00     0.160 C 
ATOM      9  C   UNL     1      36.251  29.923   6.427  1.00  0.00     0.035 C 
ENDBRANCH   7   8
ENDBRANCH   1   7
BRANCH   2  10
ATOM     10  O   UNL     1      35.629  29.138  10.075  1.00  0.00    -0.385 OA
ATOM     11  H   UNL     1      35.695  29.851   9.388  1.00  0.00     0.211 HD
ENDBRANCH   2  10
BRANCH   3  12
ATOM     12  O   UNL     1      35.974  26.908  11.672  1.00  0.00    -0.387 OA
ATOM     13  H   UNL     1      36.591  27.283  12.354  1.00  0.00     0.211 HD
ENDBRANCH   3  12
BRANCH   5  14
ATOM     14  C   UNL     1      40.224  27.459   9.186  1.00  0.00     0.191 C 
BRANCH  14  15
ATOM     15  O   UNL     1      40.685  26.804  10.338  1.00  0.00    -0.394 OA
ATOM     16  H   UNL     1      41.362  26.142  10.041  1.00  0.00     0.210 HD
ENDBRANCH  14  15
ENDBRANCH   5  14
BRANCH   4  17
ATOM     17  O   UNL     1      38.259  28.311  11.666  1.00  0.00    -0.387 OA
ATOM     18  H   UNL     1      39.122  28.779  11.520  1.00  0.00     0.211 HD
ENDBRANCH   4  17
TORSDOF 7
ENDMDL
MODEL 4
REMARK VINA RESULT:    -5.056      2.168      3.802
REMARK INTER + INTRA:          -6.895
REMARK INTER:                  -6.657
REMARK INTRA:                  -0.238
REMARK UNBOUND:                -0.361
REMARK SMILES CCO[C@@H]1O[C@H](CO)[C@@H](O)[C@@H](O)[C@H]1O
REMARK SMILES IDX 4 1 13 2 11 3 9 4 6 5 5 6 3 7 2 8 1 9 14 10 12 12 7 14 8 15
REMARK SMILES IDX 10 17
REMARK H PARENT 14 11 12 13 8 16 10 18
REMARK Flexibility Score: inf
ROOT
ATOM      1  C   UNL     1      36.125  27.962   8.458  1.00  0.00     0.281 C 
ATOM      2  C   UNL     1      37.549  27.908   7.814  1.00  0.00     0.202 C 
ATOM      3  C   UNL     1      38.626  28.502   8.751  1.00  0.00     0.179 C 
ATOM      4  C   UNL     1      38.525  27.934  10.186  1.00  0.00     0.177 C 
ATOM      5  C   UNL     1      37.044  27.685  10.583  1.00  0.00     0.178 C 
ATOM      6  O   UNL     1      36.171  28.466   9.785  1.00  0.00    -0.341 OA
ENDROOT
BRANCH   1   7
ATOM      7  O   UNL     1      35.294  28.830   7.705  1.00  0.00    -0.350 OA
BRANCH   7   8
ATOM      8  C   UNL     1      35.317  30.151   8.216  1.00  0.00     0.160 C 
ATOM      9  C   UNL     1      35.794  31.125   7.144  1.00  0.00     0.035 C 
ENDBRANCH   7   8
ENDBRANCH   1   7
BRANCH   2  10
ATOM     10  O   UNL     1      37.880  26.598   7.421  1.00  0.00    -0.385 OA
ATOM     11  H   UNL     1      38.536  26.240   8.073  1.00  0.00     0.211 HD
ENDBRANCH   2  10
BRANCH   3  12
ATOM     12  O   UNL     1      39.912  28.290   8.227  1.00  0.00    -0.387 OA
ATOM     13  H   UNL     1      39.861  28.478   7.254  1.00  0.00     0.211 HD
ENDBRANCH   3  12
BRANCH   5  14
ATOM     14  C   UNL     1      36.794  28.005  12.065  1.00  0.00     0.191 C 
BRANCH  14  15
ATOM     15  O   UNL     1      35.921  27.072  12.646  1.00  0.00    -0.394 OA
ATOM     16  H   UNL     1      35.033  27.208  12.224  1.00  0.00     0.210 HD
ENDBRANCH  14  15
ENDBRANCH   5  14
BRANCH   4  17
ATOM     17  O   UNL     1      39.238  26.726  10.297  1.00  0.00    -0.387 OA
ATOM     18  H   UNL     1      38.627  25.997  10.013  1.00  0.00     0.211 HD
ENDBRANCH   4  17
TORSDOF 7
ENDMDL
MODEL 5
REMARK VINA RESULT:    -5.054      1.855      4.337
REMARK INTER + INTRA:          -6.892
REMARK INTER:                  -6.467
REMARK INTRA:                  -0.425
REMARK UNBOUND:                -0.361
REMARK SMILES CCO[C@@H]1O[C@H](CO)[C@@H](O)[C@@H](O)[C@H]1O
REMARK SMILES IDX 4 1 13 2 11 3 9 4 6 5 5 6 3 7 2 8 1 9 14 10 12 12 7 14 8 15
REMARK SMILES IDX 10 17
REMARK H PARENT 14 11 12 13 8 16 10 18
REMARK Flexibility Score: inf
ROOT
ATOM      1  C   UNL     1      38.665  29.204  10.334  1.00  0.00     0.281 C 
ATOM      2  C   UNL     1      38.100  28.485   9.066  1.00  0.00     0.202 C 
ATOM      3  C   UNL     1      37.348  27.184   9.430  1.00  0.00     0.179 C 
ATOM      4  C   UNL     1      36.334  27.400  10.578  1.00  0.00     0.177 C 
ATOM      5  C   UNL     1      36.871  28.433  11.607  1.00  0.00     0.178 C 
ATOM      6  O   UNL     1      38.282  28.535  11.527  1.00  0.00    -0.341 OA
ENDROOT
BRANCH   1   7
ATOM      7  O   UNL     1      40.082  29.206  10.287  1.00  0.00    -0.350 OA
BRANCH   7   8
ATOM      8  C   UNL     1      40.635  28.201  11.118  1.00  0.00     0.160 C 
ATOM      9  C   UNL     1      41.389  27.175  10.278  1.00  0.00     0.035 C 
ENDBRANCH   7   8
ENDBRANCH   1   7
BRANCH   2  10
ATOM     10  O   UNL     1      37.286  29.350   8.311  1.00  0.00    -0.385 OA
ATOM     11  H   UNL     1      37.812  29.663   7.531  1.00  0.00     0.211 HD
ENDBRANCH   2  10
BRANCH   3  12
ATOM     12  O   UNL     1      36.707  26.647   8.301  1.00  0.00    -0.387 OA
ATOM     13  H   UNL     1      37.411  26.478   7.622  1.00  0.00     0.211 HD
ENDBRANCH   3  12
BRANCH   5  14
ATOM     14  C   UNL     1      36.473  28.058  13.044  1.00  0.00     0.191 C 
BRANCH  14  15
ATOM     15  O   UNL     1      35.667  26.910  13.065  1.00  0.00    -0.394 OA
ATOM     16  H   UNL     1      34.910  27.080  12.448  1.00  0.00     0.210 HD
ENDBRANCH  14  15
ENDBRANCH   5  14
BRANCH   4  17
ATOM     17  O   UNL     1      35.100  27.853  10.076  1.00  0.00    -0.387 OA
ATOM     18  H   UNL     1      34.703  27.108   9.554  1.00  0.00     0.211 HD
ENDBRANCH   4  17
TORSDOF 7
ENDMDL
MODEL 6
REMARK VINA RESULT:    -5.052      2.682      4.308
REMARK INTER + INTRA:          -6.889
REMARK INTER:                  -6.521
REMARK INTRA:                  -0.369
REMARK UNBOUND:                -0.361
REMARK SMILES CCO[C@@H]1O[C@H](CO)[C@@H](O)[C@@H](O)[C@H]1O
REMARK SMILES IDX 4 1 13 2 11 3 9 4 6 5 5 6 3 7 2 8 1 9 14 10 12 12 7 14 8 15
REMARK SMILES IDX 10 17
REMARK H PARENT 14 11 12 13 8 16 10 18
REMARK Flexibility Score: inf
ROOT
ATOM      1  C   UNL     1      37.383  29.097  10.264  1.00  0.00     0.281 C 
ATOM      2  C   UNL     1      37.327  27.554  10.512  1.00  0.00     0.202 C 
ATOM      3  C   UNL     1      36.372  26.847   9.523  1.00  0.00     0.179 C 
ATOM      4  C   UNL     1      36.632  27.274   8.059  1.00  0.00     0.177 C 
ATOM      5  C   UNL     1      37.041  28.771   7.980  1.00  0.00     0.178 C 
ATOM      6  O   UNL     1      36.609  29.471   9.133  1.00  0.00    -0.341 OA
ENDROOT
BRANCH   1   7
ATOM      7  O   UNL     1      36.850  29.779  11.386  1.00  0.00    -0.350 OA
BRANCH   7   8
ATOM      8  C   UNL     1      37.490  29.391  12.588  1.00  0.00     0.160 C 
ATOM      9  C   UNL     1      38.849  30.074  12.709  1.00  0.00     0.035 C 
ENDBRANCH   7   8
ENDBRANCH   1   7
BRANCH   2  10
ATOM     10  O   UNL     1      38.614  26.986  10.474  1.00  0.00    -0.385 OA
ATOM     11  H   UNL     1      38.599  26.158  11.019  1.00  0.00     0.211 HD
ENDBRANCH   2  10
BRANCH   3  12
ATOM     12  O   UNL     1      36.467  25.451   9.652  1.00  0.00    -0.387 OA
ATOM     13  H   UNL     1      35.603  25.138  10.028  1.00  0.00     0.211 HD
ENDBRANCH   3  12
BRANCH   5  14
ATOM     14  C   UNL     1      36.463  29.451   6.730  1.00  0.00     0.191 C 
BRANCH  14  15
ATOM     15  O   UNL     1      36.310  28.535   5.678  1.00  0.00    -0.394 OA
ATOM     16  H   UNL     1      35.627  28.912   5.065  1.00  0.00     0.210 HD
ENDBRANCH  14  15
ENDBRANCH   5  14
BRANCH   4  17
ATOM     17  O   UNL     1      37.649  26.491   7.482  1.00  0.00    -0.387 OA
ATOM     18  H   UNL     1      38.377  27.108   7.210  1.00  0.00     0.211 HD
ENDBRANCH   4  17
TORSDOF 7
ENDMDL
MODEL 7
REMARK VINA RESULT:    -5.042      5.605      7.641
REMARK INTER + INTRA:          -6.877
REMARK INTER:                  -6.540
REMARK INTRA:                  -0.337
REMARK UNBOUND:                -0.361
REMARK SMILES CCO[C@@H]1O[C@H](CO)[C@@H](O)[C@@H](O)[C@H]1O
REMARK SMILES IDX 4 1 13 2 11 3 9 4 6 5 5 6 3 7 2 8 1 9 14 10 12 12 7 14 8 15
REMARK SMILES IDX 10 17
REMARK H PARENT 14 11 12 13 8 16 10 18
REMARK Flexibility Score: inf
ROOT
ATOM      1  C   UNL     1      45.000  28.571  13.139  1.00  0.00     0.281 C 
ATOM      2  C   UNL     1      44.623  27.321  14.000  1.00  0.00     0.202 C 
ATOM      3  C   UNL     1      45.158  26.011  13.377  1.00  0.00     0.179 C 
ATOM      4  C   UNL     1      46.650  26.121  12.985  1.00  0.00     0.177 C 
ATOM      5  C   UNL     1      46.988  27.549  12.474  1.00  0.00     0.178 C 
ATOM      6  O   UNL     1      45.818  28.214  12.033  1.00  0.00    -0.341 OA
ENDROOT
BRANCH   1   7
ATOM      7  O   UNL     1      43.822  29.165  12.620  1.00  0.00    -0.350 OA
BRANCH   7   8
ATOM      8  C   UNL     1      42.657  28.627  13.219  1.00  0.00     0.160 C 
ATOM      9  C   UNL     1      41.735  29.749  13.684  1.00  0.00     0.035 C 
ENDBRANCH   7   8
ENDBRANCH   1   7
BRANCH   2  10
ATOM     10  O   UNL     1      45.060  27.470  15.330  1.00  0.00    -0.385 OA
ATOM     11  H   UNL     1      45.302  28.422  15.468  1.00  0.00     0.211 HD
ENDBRANCH   2  10
BRANCH   3  12
ATOM     12  O   UNL     1      44.956  24.927  14.248  1.00  0.00    -0.387 OA
ATOM     13  H   UNL     1      44.085  24.519  14.003  1.00  0.00     0.211 HD
ENDBRANCH   3  12
BRANCH   5  14
ATOM     14  C   UNL     1      48.010  27.512  11.327  1.00  0.00     0.191 C 
BRANCH  14  15
ATOM     15  O   UNL     1      49.024  26.575  11.580  1.00  0.00    -0.394 OA
ATOM     16  H   UNL     1      49.137  26.534  12.565  1.00  0.00     0.210 HD
ENDBRANCH  14  15
ENDBRANCH   5  14
BRANCH   4  17
ATOM     17  O   UNL     1      47.479  25.819  14.082  1.00  0.00    -0.387 OA
ATOM     18  H   UNL     1      47.467  26.608  14.684  1.00  0.00     0.211 HD
ENDBRANCH   4  17
TORSDOF 7
ENDMDL
MODEL 8
REMARK VINA RESULT:    -4.955      1.617      3.497
REMARK INTER + INTRA:          -6.764
REMARK INTER:                  -6.387
REMARK INTRA:                  -0.377
REMARK UNBOUND:                -0.361
REMARK SMILES CCO[C@@H]1O[C@H](CO)[C@@H](O)[C@@H](O)[C@H]1O
REMARK SMILES IDX 4 1 13 2 11 3 9 4 6 5 5 6 3 7 2 8 1 9 14 10 12 12 7 14 8 15
REMARK SMILES IDX 10 17
REMARK H PARENT 14 11 12 13 8 16 10 18
REMARK Flexibility Score: inf
ROOT
ATOM      1  C   UNL     1      39.584  29.932  10.340  1.00  0.00     0.281 C 
ATOM      2  C   UNL     1      40.667  28.928  10.855  1.00  0.00     0.202 C 
ATOM      3  C   UNL     1      40.290  27.463  10.538  1.00  0.00     0.179 C 
ATOM      4  C   UNL     1      39.862  27.278   9.063  1.00  0.00     0.177 C 
ATOM      5  C   UNL     1      39.091  28.524   8.548  1.00  0.00     0.178 C 
ATOM      6  O   UNL     1      38.552  29.264   9.629  1.00  0.00    -0.341 OA
ENDROOT
BRANCH   1   7
ATOM      7  O   UNL     1      38.982  30.589  11.442  1.00  0.00    -0.350 OA
BRANCH   7   8
ATOM      8  C   UNL     1      37.663  30.125  11.672  1.00  0.00     0.160 C 
ATOM      9  C   UNL     1      37.614  29.277  12.938  1.00  0.00     0.035 C 
ENDBRANCH   7   8
ENDBRANCH   1   7
BRANCH   2  10
ATOM     10  O   UNL     1      41.940  29.248  10.346  1.00  0.00    -0.385 OA
ATOM     11  H   UNL     1      42.403  29.815  11.015  1.00  0.00     0.211 HD
ENDBRANCH   2  10
BRANCH   3  12
ATOM     12  O   UNL     1      41.349  26.596  10.856  1.00  0.00    -0.387 OA
ATOM     13  H   UNL     1      42.040  27.142  11.315  1.00  0.00     0.211 HD
ENDBRANCH   3  12
BRANCH   5  14
ATOM     14  C   UNL     1      37.955  28.130   7.590  1.00  0.00     0.191 C 
BRANCH  14  15
ATOM     15  O   UNL     1      37.860  26.736   7.460  1.00  0.00    -0.394 OA
ATOM     16  H   UNL     1      37.428  26.400   8.287  1.00  0.00     0.210 HD
ENDBRANCH  14  15
ENDBRANCH   5  14
BRANCH   4  17
ATOM     17  O   UNL     1      40.983  27.061   8.241  1.00  0.00    -0.387 OA
ATOM     18  H   UNL     1      40.681  26.511   7.472  1.00  0.00     0.211 HD
ENDBRANCH   4  17
TORSDOF 7
ENDMDL
MODEL 9
REMARK VINA RESULT:    -4.693      2.094      3.173
REMARK INTER + INTRA:          -6.426
REMARK INTER:                  -6.110
REMARK INTRA:                  -0.316
REMARK UNBOUND:                -0.361
REMARK SMILES CCO[C@@H]1O[C@H](CO)[C@@H](O)[C@@H](O)[C@H]1O
REMARK SMILES IDX 4 1 13 2 11 3 9 4 6 5 5 6 3 7 2 8 1 9 14 10 12 12 7 14 8 15
REMARK SMILES IDX 10 17
REMARK H PARENT 14 11 12 13 8 16 10 18
REMARK Flexibility Score: inf
ROOT
ATOM      1  C   UNL     1      40.043  28.061  10.866  1.00  0.00     0.281 C 
ATOM      2  C   UNL     1      41.074  27.440   9.868  1.00  0.00     0.202 C 
ATOM      3  C   UNL     1      42.189  28.444   9.495  1.00  0.00     0.179 C 
ATOM      4  C   UNL     1      42.800  29.126  10.742  1.00  0.00     0.177 C 
ATOM      5  C   UNL     1      41.718  29.366  11.830  1.00  0.00     0.178 C 
ATOM      6  O   UNL     1      40.422  29.373  11.258  1.00  0.00    -0.341 OA
ENDROOT
BRANCH   1   7
ATOM      7  O   UNL     1      38.774  28.157  10.241  1.00  0.00    -0.350 OA
BRANCH   7   8
ATOM      8  C   UNL     1      37.720  28.124  11.187  1.00  0.00     0.160 C 
ATOM      9  C   UNL     1      36.735  27.013  10.843  1.00  0.00     0.035 C 
ENDBRANCH   7   8
ENDBRANCH   1   7
BRANCH   2  10
ATOM     10  O   UNL     1      41.615  26.244  10.375  1.00  0.00    -0.385 OA
ATOM     11  H   UNL     1      41.332  25.503   9.779  1.00  0.00     0.211 HD
ENDBRANCH   2  10
BRANCH   3  12
ATOM     12  O   UNL     1      43.191  27.816   8.736  1.00  0.00    -0.387 OA
ATOM     13  H   UNL     1      43.004  26.841   8.764  1.00  0.00     0.211 HD
ENDBRANCH   3  12
BRANCH   5  14
ATOM     14  C   UNL     1      41.948  30.691  12.575  1.00  0.00     0.191 C 
BRANCH  14  15
ATOM     15  O   UNL     1      43.232  30.739  13.139  1.00  0.00    -0.394 OA
ATOM     16  H   UNL     1      43.438  29.824  13.463  1.00  0.00     0.210 HD
ENDBRANCH  14  15
ENDBRANCH   5  14
BRANCH   4  17
ATOM     17  O   UNL     1      43.831  28.339  11.287  1.00  0.00    -0.387 OA
ATOM     18  H   UNL     1      43.690  28.308  12.269  1.00  0.00     0.211 HD
ENDBRANCH   4  17
TORSDOF 7
ENDMDL
