MODEL 1
REMARK VINA RESULT:    -3.172      0.000      0.000
REMARK INTER + INTRA:          -3.781
REMARK INTER:                  -3.728
REMARK INTRA:                  -0.053
REMARK UNBOUND:                -0.053
REMARK SMILES CCCCC(=O)[O-]
REMARK SMILES IDX 4 1 5 2 6 3 7 4 3 5 2 6 1 7
REMARK H PARENT
REMARK Flexibility Score: inf
ROOT
ATOM      1  C   UNL     1       7.112   7.705  -2.618  1.00  0.00     0.053 C 
ENDROOT
BRANCH   1   2
ATOM      2  C   UNL     1       6.317   6.449  -2.434  1.00  0.00     0.041 C 
ATOM      3  O   UNL     1       6.648   5.396  -3.039  1.00  0.00    -0.550 OA
ATOM      4  O   UNL     1       5.229   6.433  -1.571  1.00  0.00    -0.550 OA
ENDBRANCH   1   2
BRANCH   1   5
ATOM      5  C   UNL     1       7.069   8.594  -1.368  1.00  0.00     0.006 C 
BRANCH   5   6
ATOM      6  C   UNL     1       8.473   8.989  -0.887  1.00  0.00    -0.003 C 
ATOM      7  C   UNL     1       9.531   8.631  -1.926  1.00  0.00     0.004 C 
ENDBRANCH   5   6
ENDBRANCH   1   5
TORSDOF 3
ENDMDL
MODEL 2
REMARK VINA RESULT:    -2.909     21.966     22.543
REMARK INTER + INTRA:          -3.472
REMARK INTER:                  -3.430
REMARK INTRA:                  -0.043
REMARK UNBOUND:                -0.053
REMARK SMILES CCCCC(=O)[O-]
REMARK SMILES IDX 4 1 5 2 6 3 7 4 3 5 2 6 1 7
REMARK H PARENT
REMARK Flexibility Score: inf
ROOT
ATOM      1  C   UNL     1      -8.994  -4.414   8.949  1.00  0.00     0.053 C 
ENDROOT
BRANCH   1   2
ATOM      2  C   UNL     1      -9.094  -2.972   8.560  1.00  0.00     0.041 C 
ATOM      3  O   UNL     1      -9.335  -2.653   7.366  1.00  0.00    -0.550 OA
ATOM      4  O   UNL     1      -8.954  -1.979   9.522  1.00  0.00    -0.550 OA
ENDBRANCH   1   2
BRANCH   1   5
ATOM      5  C   UNL     1      -7.706  -4.706   9.732  1.00  0.00     0.006 C 
BRANCH   5   6
ATOM      6  C   UNL     1      -7.137  -6.097   9.416  1.00  0.00    -0.003 C 
ATOM      7  C   UNL     1      -7.978  -6.809   8.359  1.00  0.00     0.004 C 
ENDBRANCH   5   6
ENDBRANCH   1   5
TORSDOF 3
ENDMDL
MODEL 3
REMARK VINA RESULT:    -2.882     11.344     12.655
REMARK INTER + INTRA:          -3.440
REMARK INTER:                  -3.409
REMARK INTRA:                  -0.031
REMARK UNBOUND:                -0.053
REMARK SMILES CCCCC(=O)[O-]
REMARK SMILES IDX 4 1 5 2 6 3 7 4 3 5 2 6 1 7
REMARK H PARENT
REMARK Flexibility Score: inf
ROOT
ATOM      1  C   UNL     1       7.816  -2.471  -9.338  1.00  0.00     0.053 C 
ENDROOT
BRANCH   1   2
ATOM      2  C   UNL     1       8.260  -3.825  -9.799  1.00  0.00     0.041 C 
ATOM      3  O   UNL     1       9.487  -4.100  -9.866  1.00  0.00    -0.550 OA
ATOM      4  O   UNL     1       7.319  -4.793 -10.125  1.00  0.00    -0.550 OA
ENDBRANCH   1   2
BRANCH   1   5
ATOM      5  C   UNL     1       8.508  -1.347 -10.122  1.00  0.00     0.006 C 
BRANCH   5   6
ATOM      6  C   UNL     1       7.927   0.036  -9.789  1.00  0.00    -0.003 C 
ATOM      7  C   UNL     1       7.175   0.012  -8.461  1.00  0.00     0.004 C 
ENDBRANCH   5   6
ENDBRANCH   1   5
TORSDOF 3
ENDMDL
MODEL 4
REMARK VINA RESULT:    -2.700     22.082     22.734
REMARK INTER + INTRA:          -3.226
REMARK INTER:                  -3.188
REMARK INTRA:                  -0.039
REMARK UNBOUND:                -0.053
REMARK SMILES CCCCC(=O)[O-]
REMARK SMILES IDX 4 1 5 2 6 3 7 4 3 5 2 6 1 7
REMARK H PARENT
REMARK Flexibility Score: inf
ROOT
ATOM      1  C   UNL     1      -8.873  -5.207   8.884  1.00  0.00     0.053 C 
ENDROOT
BRANCH   1   2
ATOM      2  C   UNL     1      -7.899  -6.341   8.791  1.00  0.00     0.041 C 
ATOM      3  O   UNL     1      -7.950  -7.142   7.820  1.00  0.00    -0.550 OA
ATOM      4  O   UNL     1      -6.915  -6.496   9.759  1.00  0.00    -0.550 OA
ENDBRANCH   1   2
BRANCH   1   5
ATOM      5  C   UNL     1      -8.194  -3.910   9.344  1.00  0.00     0.006 C 
BRANCH   5   6
ATOM      6  C   UNL     1      -8.714  -2.681   8.582  1.00  0.00    -0.003 C 
ATOM      7  C   UNL     1     -10.052  -2.975   7.911  1.00  0.00     0.004 C 
ENDBRANCH   5   6
ENDBRANCH   1   5
TORSDOF 3
ENDMDL
MODEL 5
REMARK VINA RESULT:    -2.616     16.333     17.377
REMARK INTER + INTRA:          -3.128
REMARK INTER:                  -3.092
REMARK INTRA:                  -0.036
REMARK UNBOUND:                -0.053
REMARK SMILES CCCCC(=O)[O-]
REMARK SMILES IDX 4 1 5 2 6 3 7 4 3 5 2 6 1 7
REMARK H PARENT
REMARK Flexibility Score: inf
ROOT
ATOM      1  C   UNL     1      -5.728   5.932   9.403  1.00  0.00     0.053 C 
ENDROOT
BRANCH   1   2
ATOM      2  C   UNL     1      -4.616   6.933   9.340  1.00  0.00     0.041 C 
ATOM      3  O   UNL     1      -3.636   6.841  10.125  1.00  0.00    -0.550 OA
ATOM      4  O   UNL     1      -4.646   7.949   8.393  1.00  0.00    -0.550 OA
ENDBRANCH   1   2
BRANCH   1   5
ATOM      5  C   UNL     1      -7.055   6.522   8.906  1.00  0.00     0.006 C 
BRANCH   5   6
ATOM      6  C   UNL     1      -7.842   5.531   8.037  1.00  0.00    -0.003 C 
ATOM      7  C   UNL     1      -8.218   6.154   6.695  1.00  0.00     0.004 C 
ENDBRANCH   5   6
ENDBRANCH   1   5
TORSDOF 3
ENDMDL
MODEL 6
REMARK VINA RESULT:    -2.610     16.498     17.528
REMARK INTER + INTRA:          -3.121
REMARK INTER:                  -3.015
REMARK INTRA:                  -0.106
REMARK UNBOUND:                -0.053
REMARK SMILES CCCCC(=O)[O-]
REMARK SMILES IDX 4 1 5 2 6 3 7 4 3 5 2 6 1 7
REMARK H PARENT
REMARK Flexibility Score: inf
ROOT
ATOM      1  C   UNL     1      -6.638   7.061   8.864  1.00  0.00     0.053 C 
ENDROOT
BRANCH   1   2
ATOM      2  C   UNL     1      -5.175   7.287   8.643  1.00  0.00     0.041 C 
ATOM      3  O   UNL     1      -4.359   6.338   8.783  1.00  0.00    -0.550 OA
ATOM      4  O   UNL     1      -4.714   8.539   8.252  1.00  0.00    -0.550 OA
ENDBRANCH   1   2
BRANCH   1   5
ATOM      5  C   UNL     1      -7.154   5.852   8.071  1.00  0.00     0.006 C 
BRANCH   5   6
ATOM      6  C   UNL     1      -7.897   4.846   8.963  1.00  0.00    -0.003 C 
ATOM      7  C   UNL     1      -6.932   4.119   9.895  1.00  0.00     0.004 C 
ENDBRANCH   5   6
ENDBRANCH   1   5
TORSDOF 3
ENDMDL
MODEL 7
REMARK VINA RESULT:    -2.556     19.548     21.010
REMARK INTER + INTRA:          -3.057
REMARK INTER:                  -2.973
REMARK INTRA:                  -0.084
REMARK UNBOUND:                -0.053
REMARK SMILES CCCCC(=O)[O-]
REMARK SMILES IDX 4 1 5 2 6 3 7 4 3 5 2 6 1 7
REMARK H PARENT
REMARK Flexibility Score: inf
ROOT
ATOM      1  C   UNL     1      -5.805  -6.730  -7.897  1.00  0.00     0.053 C 
ENDROOT
BRANCH   1   2
ATOM      2  C   UNL     1      -5.172  -6.066  -9.081  1.00  0.00     0.041 C 
ATOM      3  O   UNL     1      -3.920  -5.950  -9.148  1.00  0.00    -0.550 OA
ATOM      4  O   UNL     1      -5.963  -5.602 -10.125  1.00  0.00    -0.550 OA
ENDBRANCH   1   2
BRANCH   1   5
ATOM      5  C   UNL     1      -7.153  -7.371  -8.256  1.00  0.00     0.006 C 
BRANCH   5   6
ATOM      6  C   UNL     1      -7.002  -8.834  -8.698  1.00  0.00    -0.003 C 
ATOM      7  C   UNL     1      -6.086  -9.603  -7.750  1.00  0.00     0.004 C 
ENDBRANCH   5   6
ENDBRANCH   1   5
TORSDOF 3
ENDMDL
MODEL 8
REMARK VINA RESULT:    -2.540     12.154     13.532
REMARK INTER + INTRA:          -3.038
REMARK INTER:                  -3.021
REMARK INTRA:                  -0.017
REMARK UNBOUND:                -0.053
REMARK SMILES CCCCC(=O)[O-]
REMARK SMILES IDX 4 1 5 2 6 3 7 4 3 5 2 6 1 7
REMARK H PARENT
REMARK Flexibility Score: inf
ROOT
ATOM      1  C   UNL     1       9.807  -5.518  -4.563  1.00  0.00     0.053 C 
ENDROOT
BRANCH   1   2
ATOM      2  C   UNL     1       9.244  -4.487  -3.634  1.00  0.00     0.041 C 
ATOM      3  O   UNL     1       8.661  -4.841  -2.574  1.00  0.00    -0.550 OA
ATOM      4  O   UNL     1       9.390  -3.136  -3.921  1.00  0.00    -0.550 OA
ENDBRANCH   1   2
BRANCH   1   5
ATOM      5  C   UNL     1       9.403  -5.253  -6.020  1.00  0.00     0.006 C 
BRANCH   5   6
ATOM      6  C   UNL     1      10.124  -6.189  -7.001  1.00  0.00    -0.003 C 
ATOM      7  C   UNL     1       9.715  -5.896  -8.442  1.00  0.00     0.004 C 
ENDBRANCH   5   6
ENDBRANCH   1   5
TORSDOF 3
ENDMDL
