MODEL 1
REMARK VINA RESULT:    -5.999      0.000      0.000
REMARK INTER + INTRA:         -11.395
REMARK INTER:                  -8.278
REMARK INTRA:                  -3.117
REMARK UNBOUND:                -3.117
REMARK SMILES C=C(CC[C@H](C(=O)[O-])[C@H]1CC[C@]2(C)C3=C(CC[C@]12C)[C@@]1(C)CC[C@H](O)C(C)(C)[C@@H]1CC3)C(C)C
REMARK SMILES IDX 4 1 5 2 6 3 7 4 8 5 9 6 10 7 18 8 11 9 12 10 17 11 19 12
REMARK SMILES IDX 13 13 14 14 16 15 15 16 31 17 20 18 30 19 29 20 22 21 21 22
REMARK SMILES IDX 26 23 23 24 24 25 27 26 28 27 25 28 3 30 2 31 1 32 32 33
REMARK SMILES IDX 33 34 34 35
REMARK H PARENT 25 29
REMARK Flexibility Score: inf
ROOT
ATOM      1  C   UNL     1       4.308 -14.092  -2.879  1.00  0.00     0.014 C 
ENDROOT
BRANCH   1   2
ATOM      2  C   UNL     1       3.219 -15.088  -2.377  1.00  0.00     0.039 C 
BRANCH   2   3
ATOM      3  C   UNL     1       3.031 -15.038  -0.878  1.00  0.00     0.045 C 
ATOM      4  O   UNL     1       1.867 -15.061  -0.396  1.00  0.00    -0.550 OA
ATOM      5  O   UNL     1       4.119 -14.968  -0.011  1.00  0.00    -0.550 OA
ENDBRANCH   2   3
BRANCH   2   6
ATOM      6  C   UNL     1       3.343 -16.567  -2.886  1.00  0.00     0.004 C 
ATOM      7  C   UNL     1       3.686 -17.562  -1.765  1.00  0.00     0.006 C 
ATOM      8  C   UNL     1       2.211 -17.217  -3.777  1.00  0.00    -0.020 C 
ATOM      9  C   UNL     1       2.764 -18.745  -1.953  1.00  0.00     0.012 C 
ATOM     10  C   UNL     1       2.358 -18.762  -3.448  1.00  0.00    -0.006 C 
ATOM     11  C   UNL     1       2.451 -16.861  -5.290  1.00  0.00     0.012 C 
ATOM     12  C   UNL     1       0.791 -16.712  -3.402  1.00  0.00     0.012 C 
ATOM     13  C   UNL     1       1.060 -19.610  -3.571  1.00  0.00     0.017 C 
ATOM     14  C   UNL     1       3.429 -19.431  -4.353  1.00  0.00    -0.064 C 
ATOM     15  C   UNL     1       2.506 -18.078  -6.198  1.00  0.00     0.032 C 
ATOM     16  C   UNL     1       3.525 -19.074  -5.675  1.00  0.00    -0.064 C 
ATOM     17  C   UNL     1       4.314 -20.523  -3.750  1.00  0.00     0.032 C 
ATOM     18  C   UNL     1       4.443 -19.834  -6.669  1.00  0.00    -0.008 C 
ATOM     19  C   UNL     1       5.105 -21.359  -4.753  1.00  0.00     0.009 C 
ATOM     20  C   UNL     1       5.647 -20.457  -5.872  1.00  0.00     0.007 C 
ATOM     21  C   UNL     1       5.034 -18.874  -7.744  1.00  0.00     0.014 C 
ATOM     22  C   UNL     1       3.523 -20.877  -7.360  1.00  0.00     0.016 C 
ATOM     23  C   UNL     1       6.848 -21.073  -6.705  1.00  0.00    -0.006 C 
ATOM     24  C   UNL     1       6.087 -19.544  -8.632  1.00  0.00     0.033 C 
ATOM     25  C   UNL     1       7.275 -20.057  -7.810  1.00  0.00     0.120 C 
ATOM     26  C   UNL     1       8.078 -21.260  -5.768  1.00  0.00     0.014 C 
ATOM     27  C   UNL     1       6.538 -22.466  -7.326  1.00  0.00     0.014 C 
BRANCH  25  28
ATOM     28  O   UNL     1       8.219 -20.643  -8.676  1.00  0.00    -0.393 OA
ATOM     29  H   UNL     1       8.614 -19.909  -9.215  1.00  0.00     0.210 HD
ENDBRANCH  25  28
ENDBRANCH   2   6
ENDBRANCH   1   2
BRANCH   1  30
ATOM     30  C   UNL     1       5.620 -14.805  -3.253  1.00  0.00     0.031 C 
BRANCH  30  31
ATOM     31  C   UNL     1       5.653 -15.119  -4.734  1.00  0.00    -0.075 C 
ATOM     32  C   UNL     1       5.218 -14.197  -5.612  1.00  0.00     0.008 C 
BRANCH  31  33
ATOM     33  C   UNL     1       6.153 -16.479  -5.207  1.00  0.00     0.008 C 
ATOM     34  C   UNL     1       6.637 -17.339  -4.033  1.00  0.00     0.012 C 
ATOM     35  C   UNL     1       7.250 -16.326  -6.268  1.00  0.00     0.012 C 
ENDBRANCH  31  33
ENDBRANCH  30  31
ENDBRANCH   1  30
TORSDOF 7
ENDMDL
MODEL 2
REMARK VINA RESULT:    -5.507      2.705      6.420
REMARK INTER + INTRA:         -10.716
REMARK INTER:                  -8.112
REMARK INTRA:                  -2.605
REMARK UNBOUND:                -3.117
REMARK SMILES C=C(CC[C@H](C(=O)[O-])[C@H]1CC[C@]2(C)C3=C(CC[C@]12C)[C@@]1(C)CC[C@H](O)C(C)(C)[C@@H]1CC3)C(C)C
REMARK SMILES IDX 4 1 5 2 6 3 7 4 8 5 9 6 10 7 18 8 11 9 12 10 17 11 19 12
REMARK SMILES IDX 13 13 14 14 16 15 15 16 31 17 20 18 30 19 29 20 22 21 21 22
REMARK SMILES IDX 26 23 23 24 24 25 27 26 28 27 25 28 3 30 2 31 1 32 32 33
REMARK SMILES IDX 33 34 34 35
REMARK H PARENT 25 29
REMARK Flexibility Score: inf
ROOT
ATOM      1  C   UNL     1       0.132 -21.086  -4.695  1.00  0.00     0.014 C 
ENDROOT
BRANCH   1   2
ATOM      2  C   UNL     1       1.009 -21.125  -5.983  1.00  0.00     0.039 C 
BRANCH   2   3
ATOM      3  C   UNL     1       0.869 -22.423  -6.744  1.00  0.00     0.045 C 
ATOM      4  O   UNL     1       1.115 -22.449  -7.979  1.00  0.00    -0.550 OA
ATOM      5  O   UNL     1       0.473 -23.598  -6.110  1.00  0.00    -0.550 OA
ENDBRANCH   2   3
BRANCH   2   6
ATOM      6  C   UNL     1       2.517 -20.728  -5.807  1.00  0.00     0.004 C 
ATOM      7  C   UNL     1       3.451 -21.945  -5.697  1.00  0.00     0.006 C 
ATOM      8  C   UNL     1       3.200 -19.685  -6.778  1.00  0.00    -0.020 C 
ATOM      9  C   UNL     1       4.628 -21.659  -6.600  1.00  0.00     0.012 C 
ATOM     10  C   UNL     1       4.726 -20.118  -6.733  1.00  0.00    -0.006 C 
ATOM     11  C   UNL     1       2.938 -18.222  -6.262  1.00  0.00     0.012 C 
ATOM     12  C   UNL     1       2.653 -19.768  -8.229  1.00  0.00     0.012 C 
ATOM     13  C   UNL     1       5.560 -19.810  -8.008  1.00  0.00     0.017 C 
ATOM     14  C   UNL     1       5.463 -19.460  -5.533  1.00  0.00    -0.064 C 
ATOM     15  C   UNL     1       4.206 -17.407  -6.076  1.00  0.00     0.032 C 
ATOM     16  C   UNL     1       5.186 -18.159  -5.193  1.00  0.00    -0.064 C 
ATOM     17  C   UNL     1       6.531 -20.272  -4.800  1.00  0.00     0.032 C 
ATOM     18  C   UNL     1       6.016 -17.390  -4.131  1.00  0.00    -0.008 C 
ATOM     19  C   UNL     1       7.437 -19.475  -3.863  1.00  0.00     0.009 C 
ATOM     20  C   UNL     1       6.610 -18.425  -3.107  1.00  0.00     0.007 C 
ATOM     21  C   UNL     1       5.130 -16.389  -3.333  1.00  0.00     0.014 C 
ATOM     22  C   UNL     1       7.084 -16.603  -4.940  1.00  0.00     0.016 C 
ATOM     23  C   UNL     1       7.293 -17.856  -1.792  1.00  0.00    -0.006 C 
ATOM     24  C   UNL     1       5.867 -15.743  -2.156  1.00  0.00     0.033 C 
ATOM     25  C   UNL     1       6.350 -16.793  -1.148  1.00  0.00     0.120 C 
ATOM     26  C   UNL     1       7.444 -19.009  -0.755  1.00  0.00     0.014 C 
ATOM     27  C   UNL     1       8.714 -17.267  -2.022  1.00  0.00     0.014 C 
BRANCH  25  28
ATOM     28  O   UNL     1       6.999 -16.146  -0.079  1.00  0.00    -0.393 OA
ATOM     29  H   UNL     1       7.962 -16.380  -0.139  1.00  0.00     0.210 HD
ENDBRANCH  25  28
ENDBRANCH   2   6
ENDBRANCH   1   2
BRANCH   1  30
ATOM     30  C   UNL     1       0.449 -19.866  -3.812  1.00  0.00     0.031 C 
BRANCH  30  31
ATOM     31  C   UNL     1       1.169 -20.293  -2.550  1.00  0.00    -0.075 C 
ATOM     32  C   UNL     1       0.692 -21.334  -1.841  1.00  0.00     0.008 C 
BRANCH  31  33
ATOM     33  C   UNL     1       2.402 -19.527  -2.085  1.00  0.00     0.008 C 
ATOM     34  C   UNL     1       2.406 -18.091  -2.625  1.00  0.00     0.012 C 
ATOM     35  C   UNL     1       3.689 -20.266  -2.472  1.00  0.00     0.012 C 
ENDBRANCH  31  33
ENDBRANCH  30  31
ENDBRANCH   1  30
TORSDOF 7
ENDMDL
MODEL 3
REMARK VINA RESULT:    -5.247     11.784     14.958
REMARK INTER + INTRA:         -10.358
REMARK INTER:                  -7.769
REMARK INTRA:                  -2.589
REMARK UNBOUND:                -3.117
REMARK SMILES C=C(CC[C@H](C(=O)[O-])[C@H]1CC[C@]2(C)C3=C(CC[C@]12C)[C@@]1(C)CC[C@H](O)C(C)(C)[C@@H]1CC3)C(C)C
REMARK SMILES IDX 4 1 5 2 6 3 7 4 8 5 9 6 10 7 18 8 11 9 12 10 17 11 19 12
REMARK SMILES IDX 13 13 14 14 16 15 15 16 31 17 20 18 30 19 29 20 22 21 21 22
REMARK SMILES IDX 26 23 23 24 24 25 27 26 28 27 25 28 3 30 2 31 1 32 32 33
REMARK SMILES IDX 33 34 34 35
REMARK H PARENT 25 29
REMARK Flexibility Score: inf
ROOT
ATOM      1  C   UNL     1       7.883 -26.204   1.892  1.00  0.00     0.014 C 
ENDROOT
BRANCH   1   2
ATOM      2  C   UNL     1       8.157 -27.638   1.345  1.00  0.00     0.039 C 
BRANCH   2   3
ATOM      3  C   UNL     1       8.461 -27.649  -0.135  1.00  0.00     0.045 C 
ATOM      4  O   UNL     1       9.125 -28.600  -0.626  1.00  0.00    -0.550 OA
ATOM      5  O   UNL     1       8.022 -26.629  -0.974  1.00  0.00    -0.550 OA
ENDBRANCH   2   3
BRANCH   2   6
ATOM      6  C   UNL     1       7.099 -28.736   1.718  1.00  0.00     0.004 C 
ATOM      7  C   UNL     1       6.469 -29.406   0.486  1.00  0.00     0.006 C 
ATOM      8  C   UNL     1       7.443 -29.873   2.761  1.00  0.00    -0.020 C 
ATOM      9  C   UNL     1       6.473 -30.892   0.763  1.00  0.00     0.012 C 
ATOM     10  C   UNL     1       6.493 -31.059   2.304  1.00  0.00    -0.006 C 
ATOM     11  C   UNL     1       7.165 -29.361   4.222  1.00  0.00     0.012 C 
ATOM     12  C   UNL     1       8.931 -30.312   2.699  1.00  0.00     0.012 C 
ATOM     13  C   UNL     1       7.001 -32.496   2.611  1.00  0.00     0.017 C 
ATOM     14  C   UNL     1       5.081 -30.926   2.939  1.00  0.00    -0.064 C 
ATOM     15  C   UNL     1       6.238 -30.265   5.016  1.00  0.00     0.032 C 
ATOM     16  C   UNL     1       4.955 -30.508   4.240  1.00  0.00    -0.064 C 
ATOM     17  C   UNL     1       3.866 -31.330   2.104  1.00  0.00     0.032 C 
ATOM     18  C   UNL     1       3.595 -30.533   4.986  1.00  0.00    -0.008 C 
ATOM     19  C   UNL     1       2.558 -31.491   2.877  1.00  0.00     0.009 C 
ATOM     20  C   UNL     1       2.437 -30.381   3.932  1.00  0.00     0.007 C 
ATOM     21  C   UNL     1       3.476 -29.351   5.993  1.00  0.00     0.014 C 
ATOM     22  C   UNL     1       3.581 -31.877   5.765  1.00  0.00     0.016 C 
ATOM     23  C   UNL     1       0.968 -30.135   4.477  1.00  0.00    -0.006 C 
ATOM     24  C   UNL     1       2.082 -29.231   6.615  1.00  0.00     0.033 C 
ATOM     25  C   UNL     1       1.005 -29.001   5.548  1.00  0.00     0.120 C 
ATOM     26  C   UNL     1       0.069 -29.622   3.312  1.00  0.00     0.014 C 
ATOM     27  C   UNL     1       0.282 -31.410   5.048  1.00  0.00     0.014 C 
BRANCH  25  28
ATOM     28  O   UNL     1      -0.250 -28.877   6.175  1.00  0.00    -0.393 OA
ATOM     29  H   UNL     1      -0.261 -29.517   6.933  1.00  0.00     0.210 HD
ENDBRANCH  25  28
ENDBRANCH   2   6
ENDBRANCH   1   2
BRANCH   1  30
ATOM     30  C   UNL     1       6.378 -25.918   2.044  1.00  0.00     0.031 C 
BRANCH  30  31
ATOM     31  C   UNL     1       6.042 -25.574   3.480  1.00  0.00    -0.075 C 
ATOM     32  C   UNL     1       6.597 -24.484   4.042  1.00  0.00     0.008 C 
BRANCH  31  33
ATOM     33  C   UNL     1       5.105 -26.476   4.275  1.00  0.00     0.008 C 
ATOM     34  C   UNL     1       4.029 -27.098   3.375  1.00  0.00     0.012 C 
ATOM     35  C   UNL     1       4.473 -25.718   5.448  1.00  0.00     0.012 C 
ENDBRANCH  31  33
ENDBRANCH  30  31
ENDBRANCH   1  30
TORSDOF 7
ENDMDL
MODEL 4
REMARK VINA RESULT:    -5.129     13.523     15.675
REMARK INTER + INTRA:         -10.195
REMARK INTER:                  -7.408
REMARK INTRA:                  -2.787
REMARK UNBOUND:                -3.117
REMARK SMILES C=C(CC[C@H](C(=O)[O-])[C@H]1CC[C@]2(C)C3=C(CC[C@]12C)[C@@]1(C)CC[C@H](O)C(C)(C)[C@@H]1CC3)C(C)C
REMARK SMILES IDX 4 1 5 2 6 3 7 4 8 5 9 6 10 7 18 8 11 9 12 10 17 11 19 12
REMARK SMILES IDX 13 13 14 14 16 15 15 16 31 17 20 18 30 19 29 20 22 21 21 22
REMARK SMILES IDX 26 23 23 24 24 25 27 26 28 27 25 28 3 30 2 31 1 32 32 33
REMARK SMILES IDX 33 34 34 35
REMARK H PARENT 25 29
REMARK Flexibility Score: inf
ROOT
ATOM      1  C   UNL     1       2.079 -28.544   7.339  1.00  0.00     0.014 C 
ENDROOT
BRANCH   1   2
ATOM      2  C   UNL     1       1.704 -30.048   7.179  1.00  0.00     0.039 C 
BRANCH   2   3
ATOM      3  C   UNL     1       1.487 -30.738   8.506  1.00  0.00     0.045 C 
ATOM      4  O   UNL     1       2.109 -30.334   9.525  1.00  0.00    -0.550 OA
ATOM      5  O   UNL     1       0.612 -31.813   8.633  1.00  0.00    -0.550 OA
ENDBRANCH   2   3
BRANCH   2   6
ATOM      6  C   UNL     1       2.631 -30.898   6.240  1.00  0.00     0.004 C 
ATOM      7  C   UNL     1       3.499 -31.909   7.007  1.00  0.00     0.006 C 
ATOM      8  C   UNL     1       2.044 -31.634   4.970  1.00  0.00    -0.020 C 
ATOM      9  C   UNL     1       3.402 -33.212   6.248  1.00  0.00     0.012 C 
ATOM     10  C   UNL     1       3.044 -32.851   4.784  1.00  0.00    -0.006 C 
ATOM     11  C   UNL     1       2.009 -30.645   3.748  1.00  0.00     0.012 C 
ATOM     12  C   UNL     1       0.595 -32.147   5.192  1.00  0.00     0.012 C 
ATOM     13  C   UNL     1       2.449 -34.125   4.120  1.00  0.00     0.017 C 
ATOM     14  C   UNL     1       4.286 -32.436   3.949  1.00  0.00    -0.064 C 
ATOM     15  C   UNL     1       2.721 -31.176   2.516  1.00  0.00     0.032 C 
ATOM     16  C   UNL     1       4.136 -31.597   2.872  1.00  0.00    -0.064 C 
ATOM     17  C   UNL     1       5.645 -33.032   4.318  1.00  0.00     0.032 C 
ATOM     18  C   UNL     1       5.301 -31.296   1.893  1.00  0.00    -0.008 C 
ATOM     19  C   UNL     1       6.749 -32.853   3.279  1.00  0.00     0.009 C 
ATOM     20  C   UNL     1       6.663 -31.447   2.664  1.00  0.00     0.007 C 
ATOM     21  C   UNL     1       5.224 -29.839   1.348  1.00  0.00     0.014 C 
ATOM     22  C   UNL     1       5.116 -32.296   0.718  1.00  0.00     0.016 C 
ATOM     23  C   UNL     1       7.984 -30.953   1.938  1.00  0.00    -0.006 C 
ATOM     24  C   UNL     1       6.452 -29.442   0.524  1.00  0.00     0.033 C 
ATOM     25  C   UNL     1       7.740 -29.528   1.351  1.00  0.00     0.120 C 
ATOM     26  C   UNL     1       9.125 -30.816   2.990  1.00  0.00     0.014 C 
ATOM     27  C   UNL     1       8.501 -31.922   0.836  1.00  0.00     0.014 C 
BRANCH  25  28
ATOM     28  O   UNL     1       8.831 -29.132   0.554  1.00  0.00    -0.393 OA
ATOM     29  H   UNL     1       9.015 -28.180   0.764  1.00  0.00     0.210 HD
ENDBRANCH  25  28
ENDBRANCH   2   6
ENDBRANCH   1   2
BRANCH   1  30
ATOM     30  C   UNL     1       2.010 -27.783   6.003  1.00  0.00     0.031 C 
BRANCH  30  31
ATOM     31  C   UNL     1       3.385 -27.301   5.591  1.00  0.00    -0.075 C 
ATOM     32  C   UNL     1       3.955 -26.283   6.265  1.00  0.00     0.008 C 
BRANCH  31  33
ATOM     33  C   UNL     1       4.093 -27.953   4.409  1.00  0.00     0.008 C 
ATOM     34  C   UNL     1       5.345 -28.718   4.859  1.00  0.00     0.012 C 
ATOM     35  C   UNL     1       4.436 -26.918   3.332  1.00  0.00     0.012 C 
ENDBRANCH  31  33
ENDBRANCH  30  31
ENDBRANCH   1  30
TORSDOF 7
ENDMDL
MODEL 5
REMARK VINA RESULT:    -4.982      2.409      6.329
REMARK INTER + INTRA:          -9.992
REMARK INTER:                  -7.183
REMARK INTRA:                  -2.809
REMARK UNBOUND:                -3.117
REMARK SMILES C=C(CC[C@H](C(=O)[O-])[C@H]1CC[C@]2(C)C3=C(CC[C@]12C)[C@@]1(C)CC[C@H](O)C(C)(C)[C@@H]1CC3)C(C)C
REMARK SMILES IDX 4 1 5 2 6 3 7 4 8 5 9 6 10 7 18 8 11 9 12 10 17 11 19 12
REMARK SMILES IDX 13 13 14 14 16 15 15 16 31 17 20 18 30 19 29 20 22 21 21 22
REMARK SMILES IDX 26 23 23 24 24 25 27 26 28 27 25 28 3 30 2 31 1 32 32 33
REMARK SMILES IDX 33 34 34 35
REMARK H PARENT 25 29
REMARK Flexibility Score: inf
ROOT
ATOM      1  C   UNL     1       4.132 -21.755  -6.572  1.00  0.00     0.014 C 
ENDROOT
BRANCH   1   2
ATOM      2  C   UNL     1       2.789 -21.027  -6.263  1.00  0.00     0.039 C 
BRANCH   2   3
ATOM      3  C   UNL     1       1.887 -20.932  -7.471  1.00  0.00     0.045 C 
ATOM      4  O   UNL     1       2.393 -20.749  -8.611  1.00  0.00    -0.550 OA
ATOM      5  O   UNL     1       0.504 -21.044  -7.357  1.00  0.00    -0.550 OA
ENDBRANCH   2   3
BRANCH   2   6
ATOM      6  C   UNL     1       2.901 -19.646  -5.525  1.00  0.00     0.004 C 
ATOM      7  C   UNL     1       2.586 -18.450  -6.438  1.00  0.00     0.006 C 
ATOM      8  C   UNL     1       2.173 -19.402  -4.144  1.00  0.00    -0.020 C 
ATOM      9  C   UNL     1       1.670 -17.544  -5.648  1.00  0.00     0.012 C 
ATOM     10  C   UNL     1       1.940 -17.833  -4.150  1.00  0.00    -0.006 C 
ATOM     11  C   UNL     1       3.083 -19.906  -2.964  1.00  0.00     0.012 C 
ATOM     12  C   UNL     1       0.819 -20.155  -4.039  1.00  0.00     0.012 C 
ATOM     13  C   UNL     1       0.709 -17.325  -3.346  1.00  0.00     0.017 C 
ATOM     14  C   UNL     1       3.184 -17.076  -3.609  1.00  0.00    -0.064 C 
ATOM     15  C   UNL     1       3.341 -18.851  -1.902  1.00  0.00     0.032 C 
ATOM     16  C   UNL     1       3.884 -17.587  -2.544  1.00  0.00    -0.064 C 
ATOM     17  C   UNL     1       3.558 -15.738  -4.248  1.00  0.00     0.032 C 
ATOM     18  C   UNL     1       5.016 -16.790  -1.843  1.00  0.00    -0.008 C 
ATOM     19  C   UNL     1       4.570 -14.897  -3.473  1.00  0.00     0.009 C 
ATOM     20  C   UNL     1       5.661 -15.804  -2.885  1.00  0.00     0.007 C 
ATOM     21  C   UNL     1       6.141 -17.735  -1.326  1.00  0.00     0.014 C 
ATOM     22  C   UNL     1       4.335 -16.090  -0.634  1.00  0.00     0.016 C 
ATOM     23  C   UNL     1       6.998 -15.059  -2.469  1.00  0.00    -0.006 C 
ATOM     24  C   UNL     1       7.361 -16.979  -0.793  1.00  0.00     0.033 C 
ATOM     25  C   UNL     1       7.998 -16.099  -1.875  1.00  0.00     0.120 C 
ATOM     26  C   UNL     1       7.671 -14.468  -3.744  1.00  0.00     0.014 C 
ATOM     27  C   UNL     1       6.782 -13.875  -1.483  1.00  0.00     0.014 C 
BRANCH  25  28
ATOM     28  O   UNL     1       9.124 -15.446  -1.338  1.00  0.00    -0.393 OA
ATOM     29  H   UNL     1       8.993 -15.400  -0.356  1.00  0.00     0.210 HD
ENDBRANCH  25  28
ENDBRANCH   2   6
ENDBRANCH   1   2
BRANCH   1  30
ATOM     30  C   UNL     1       5.121 -21.674  -5.395  1.00  0.00     0.031 C 
BRANCH  30  31
ATOM     31  C   UNL     1       6.264 -20.735  -5.721  1.00  0.00    -0.075 C 
ATOM     32  C   UNL     1       7.072 -21.019  -6.760  1.00  0.00     0.008 C 
BRANCH  31  33
ATOM     33  C   UNL     1       6.500 -19.501  -4.859  1.00  0.00     0.008 C 
ATOM     34  C   UNL     1       6.068 -18.220  -5.583  1.00  0.00     0.012 C 
ATOM     35  C   UNL     1       7.963 -19.414  -4.408  1.00  0.00     0.012 C 
ENDBRANCH  31  33
ENDBRANCH  30  31
ENDBRANCH   1  30
TORSDOF 7
ENDMDL
MODEL 6
REMARK VINA RESULT:    -4.938      1.469      2.096
REMARK INTER + INTRA:          -9.932
REMARK INTER:                  -7.068
REMARK INTRA:                  -2.864
REMARK UNBOUND:                -3.117
REMARK SMILES C=C(CC[C@H](C(=O)[O-])[C@H]1CC[C@]2(C)C3=C(CC[C@]12C)[C@@]1(C)CC[C@H](O)C(C)(C)[C@@H]1CC3)C(C)C
REMARK SMILES IDX 4 1 5 2 6 3 7 4 8 5 9 6 10 7 18 8 11 9 12 10 17 11 19 12
REMARK SMILES IDX 13 13 14 14 16 15 15 16 31 17 20 18 30 19 29 20 22 21 21 22
REMARK SMILES IDX 26 23 23 24 24 25 27 26 28 27 25 28 3 30 2 31 1 32 32 33
REMARK SMILES IDX 33 34 34 35
REMARK H PARENT 25 29
REMARK Flexibility Score: inf
ROOT
ATOM      1  C   UNL     1       1.466 -14.869  -5.041  1.00  0.00     0.014 C 
ENDROOT
BRANCH   1   2
ATOM      2  C   UNL     1       1.206 -15.776  -3.800  1.00  0.00     0.039 C 
BRANCH   2   3
ATOM      3  C   UNL     1       0.986 -14.982  -2.534  1.00  0.00     0.045 C 
ATOM      4  O   UNL     1       0.059 -15.311  -1.747  1.00  0.00    -0.550 OA
ATOM      5  O   UNL     1       1.788 -13.890  -2.213  1.00  0.00    -0.550 OA
ENDBRANCH   2   3
BRANCH   2   6
ATOM      6  C   UNL     1       2.226 -16.946  -3.570  1.00  0.00     0.004 C 
ATOM      7  C   UNL     1       2.982 -16.830  -2.236  1.00  0.00     0.006 C 
ATOM      8  C   UNL     1       1.785 -18.454  -3.744  1.00  0.00    -0.020 C 
ATOM      9  C   UNL     1       2.959 -18.208  -1.615  1.00  0.00     0.012 C 
ATOM     10  C   UNL     1       2.784 -19.219  -2.777  1.00  0.00    -0.006 C 
ATOM     11  C   UNL     1       1.911 -18.877  -5.254  1.00  0.00     0.012 C 
ATOM     12  C   UNL     1       0.314 -18.701  -3.315  1.00  0.00     0.012 C 
ATOM     13  C   UNL     1       2.256 -20.547  -2.165  1.00  0.00     0.017 C 
ATOM     14  C   UNL     1       4.123 -19.545  -3.493  1.00  0.00    -0.064 C 
ATOM     15  C   UNL     1       2.759 -20.119  -5.467  1.00  0.00     0.032 C 
ATOM     16  C   UNL     1       4.115 -19.946  -4.806  1.00  0.00    -0.064 C 
ATOM     17  C   UNL     1       5.420 -19.467  -2.686  1.00  0.00     0.032 C 
ATOM     18  C   UNL     1       5.393 -20.462  -5.518  1.00  0.00    -0.008 C 
ATOM     19  C   UNL     1       6.643 -20.107  -3.339  1.00  0.00     0.009 C 
ATOM     20  C   UNL     1       6.650 -19.801  -4.845  1.00  0.00     0.007 C 
ATOM     21  C   UNL     1       5.402 -20.069  -7.025  1.00  0.00     0.014 C 
ATOM     22  C   UNL     1       5.336 -22.010  -5.390  1.00  0.00     0.016 C 
ATOM     23  C   UNL     1       8.055 -19.986  -5.557  1.00  0.00    -0.006 C 
ATOM     24  C   UNL     1       6.725 -20.398  -7.723  1.00  0.00     0.033 C 
ATOM     25  C   UNL     1       7.903 -19.660  -7.076  1.00  0.00     0.120 C 
ATOM     26  C   UNL     1       9.064 -18.951  -4.975  1.00  0.00     0.014 C 
ATOM     27  C   UNL     1       8.687 -21.393  -5.355  1.00  0.00     0.014 C 
BRANCH  25  28
ATOM     28  O   UNL     1       9.088 -19.981  -7.767  1.00  0.00    -0.393 OA
ATOM     29  H   UNL     1       8.897 -20.787  -8.312  1.00  0.00     0.210 HD
ENDBRANCH  25  28
ENDBRANCH   2   6
ENDBRANCH   1   2
BRANCH   1  30
ATOM     30  C   UNL     1       2.515 -15.471  -5.992  1.00  0.00     0.031 C 
BRANCH  30  31
ATOM     31  C   UNL     1       3.916 -15.178  -5.496  1.00  0.00    -0.075 C 
ATOM     32  C   UNL     1       4.239 -13.919  -5.144  1.00  0.00     0.008 C 
BRANCH  31  33
ATOM     33  C   UNL     1       4.945 -16.300  -5.426  1.00  0.00     0.008 C 
ATOM     34  C   UNL     1       5.859 -16.148  -4.204  1.00  0.00     0.012 C 
ATOM     35  C   UNL     1       5.763 -16.381  -6.720  1.00  0.00     0.012 C 
ENDBRANCH  31  33
ENDBRANCH  30  31
ENDBRANCH   1  30
TORSDOF 7
ENDMDL
MODEL 7
REMARK VINA RESULT:    -4.804     13.485     16.305
REMARK INTER + INTRA:          -9.746
REMARK INTER:                  -7.243
REMARK INTRA:                  -2.503
REMARK UNBOUND:                -3.117
REMARK SMILES C=C(CC[C@H](C(=O)[O-])[C@H]1CC[C@]2(C)C3=C(CC[C@]12C)[C@@]1(C)CC[C@H](O)C(C)(C)[C@@H]1CC3)C(C)C
REMARK SMILES IDX 4 1 5 2 6 3 7 4 8 5 9 6 10 7 18 8 11 9 12 10 17 11 19 12
REMARK SMILES IDX 13 13 14 14 16 15 15 16 31 17 20 18 30 19 29 20 22 21 21 22
REMARK SMILES IDX 26 23 23 24 24 25 27 26 28 27 25 28 3 30 2 31 1 32 32 33
REMARK SMILES IDX 33 34 34 35
REMARK H PARENT 25 29
REMARK Flexibility Score: inf
ROOT
ATOM      1  C   UNL     1       0.844 -31.257   8.512  1.00  0.00     0.014 C 
ENDROOT
BRANCH   1   2
ATOM      2  C   UNL     1       1.427 -31.908   7.221  1.00  0.00     0.039 C 
BRANCH   2   3
ATOM      3  C   UNL     1       1.926 -33.315   7.454  1.00  0.00     0.045 C 
ATOM      4  O   UNL     1       1.990 -34.120   6.487  1.00  0.00    -0.550 OA
ATOM      5  O   UNL     1       2.321 -33.747   8.718  1.00  0.00    -0.550 OA
ENDBRANCH   2   3
BRANCH   2   6
ATOM      6  C   UNL     1       2.477 -31.055   6.427  1.00  0.00     0.004 C 
ATOM      7  C   UNL     1       3.890 -31.661   6.455  1.00  0.00     0.006 C 
ATOM      8  C   UNL     1       2.187 -30.582   4.947  1.00  0.00    -0.020 C 
ATOM      9  C   UNL     1       4.409 -31.592   5.038  1.00  0.00     0.012 C 
ATOM     10  C   UNL     1       3.645 -30.441   4.337  1.00  0.00    -0.006 C 
ATOM     11  C   UNL     1       1.371 -29.237   4.965  1.00  0.00     0.012 C 
ATOM     12  C   UNL     1       1.356 -31.616   4.140  1.00  0.00     0.012 C 
ATOM     13  C   UNL     1       3.766 -30.664   2.803  1.00  0.00     0.017 C 
ATOM     14  C   UNL     1       4.251 -29.044   4.646  1.00  0.00    -0.064 C 
ATOM     15  C   UNL     1       2.015 -28.125   4.156  1.00  0.00     0.032 C 
ATOM     16  C   UNL     1       3.455 -27.927   4.594  1.00  0.00    -0.064 C 
ATOM     17  C   UNL     1       5.749 -28.950   4.943  1.00  0.00     0.032 C 
ATOM     18  C   UNL     1       4.038 -26.494   4.708  1.00  0.00    -0.008 C 
ATOM     19  C   UNL     1       6.340 -27.542   4.911  1.00  0.00     0.009 C 
ATOM     20  C   UNL     1       5.360 -26.551   5.558  1.00  0.00     0.007 C 
ATOM     21  C   UNL     1       3.049 -25.535   5.435  1.00  0.00     0.014 C 
ATOM     22  C   UNL     1       4.236 -26.015   3.244  1.00  0.00     0.016 C 
ATOM     23  C   UNL     1       6.005 -25.176   6.017  1.00  0.00    -0.006 C 
ATOM     24  C   UNL     1       3.656 -24.161   5.732  1.00  0.00     0.033 C 
ATOM     25  C   UNL     1       4.892 -24.272   6.632  1.00  0.00     0.120 C 
ATOM     26  C   UNL     1       7.039 -25.449   7.150  1.00  0.00     0.014 C 
ATOM     27  C   UNL     1       6.764 -24.424   4.886  1.00  0.00     0.014 C 
BRANCH  25  28
ATOM     28  O   UNL     1       5.396 -22.982   6.890  1.00  0.00    -0.393 OA
ATOM     29  H   UNL     1       5.586 -22.933   7.863  1.00  0.00     0.210 HD
ENDBRANCH  25  28
ENDBRANCH   2   6
ENDBRANCH   1   2
BRANCH   1  30
ATOM     30  C   UNL     1       1.865 -30.342   9.213  1.00  0.00     0.031 C 
BRANCH  30  31
ATOM     31  C   UNL     1       1.372 -28.910   9.234  1.00  0.00    -0.075 C 
ATOM     32  C   UNL     1       0.427 -28.553  10.125  1.00  0.00     0.008 C 
BRANCH  31  33
ATOM     33  C   UNL     1       1.930 -27.902   8.235  1.00  0.00     0.008 C 
ATOM     34  C   UNL     1       3.086 -27.096   8.839  1.00  0.00     0.012 C 
ATOM     35  C   UNL     1       0.826 -26.977   7.710  1.00  0.00     0.012 C 
ENDBRANCH  31  33
ENDBRANCH  30  31
ENDBRANCH   1  30
TORSDOF 7
ENDMDL
MODEL 8
REMARK VINA RESULT:    -4.674      1.535      7.344
REMARK INTER + INTRA:          -9.567
REMARK INTER:                  -6.916
REMARK INTRA:                  -2.651
REMARK UNBOUND:                -3.117
REMARK SMILES C=C(CC[C@H](C(=O)[O-])[C@H]1CC[C@]2(C)C3=C(CC[C@]12C)[C@@]1(C)CC[C@H](O)C(C)(C)[C@@H]1CC3)C(C)C
REMARK SMILES IDX 4 1 5 2 6 3 7 4 8 5 9 6 10 7 18 8 11 9 12 10 17 11 19 12
REMARK SMILES IDX 13 13 14 14 16 15 15 16 31 17 20 18 30 19 29 20 22 21 21 22
REMARK SMILES IDX 26 23 23 24 24 25 27 26 28 27 25 28 3 30 2 31 1 32 32 33
REMARK SMILES IDX 33 34 34 35
REMARK H PARENT 25 29
REMARK Flexibility Score: inf
ROOT
ATOM      1  C   UNL     1       5.689 -22.108  -6.280  1.00  0.00     0.014 C 
ENDROOT
BRANCH   1   2
ATOM      2  C   UNL     1       6.538 -21.107  -7.121  1.00  0.00     0.039 C 
BRANCH   2   3
ATOM      3  C   UNL     1       7.845 -21.701  -7.590  1.00  0.00     0.045 C 
ATOM      4  O   UNL     1       8.075 -21.802  -8.825  1.00  0.00    -0.550 OA
ATOM      5  O   UNL     1       8.808 -22.142  -6.686  1.00  0.00    -0.550 OA
ENDBRANCH   2   3
BRANCH   2   6
ATOM      6  C   UNL     1       6.751 -19.683  -6.496  1.00  0.00     0.004 C 
ATOM      7  C   UNL     1       8.204 -19.428  -6.062  1.00  0.00     0.006 C 
ATOM      8  C   UNL     1       6.236 -18.386  -7.237  1.00  0.00    -0.020 C 
ATOM      9  C   UNL     1       8.559 -18.047  -6.561  1.00  0.00     0.012 C 
ATOM     10  C   UNL     1       7.227 -17.267  -6.705  1.00  0.00    -0.006 C 
ATOM     11  C   UNL     1       4.727 -18.126  -6.875  1.00  0.00     0.012 C 
ATOM     12  C   UNL     1       6.326 -18.503  -8.783  1.00  0.00     0.012 C 
ATOM     13  C   UNL     1       7.485 -16.073  -7.665  1.00  0.00     0.017 C 
ATOM     14  C   UNL     1       6.733 -16.673  -5.357  1.00  0.00    -0.064 C 
ATOM     15  C   UNL     1       4.466 -16.733  -6.328  1.00  0.00     0.032 C 
ATOM     16  C   UNL     1       5.393 -16.447  -5.160  1.00  0.00    -0.064 C 
ATOM     17  C   UNL     1       7.774 -16.296  -4.301  1.00  0.00     0.032 C 
ATOM     18  C   UNL     1       4.859 -15.688  -3.917  1.00  0.00    -0.008 C 
ATOM     19  C   UNL     1       7.265 -15.426  -3.154  1.00  0.00     0.009 C 
ATOM     20  C   UNL     1       5.865 -15.894  -2.727  1.00  0.00     0.007 C 
ATOM     21  C   UNL     1       3.474 -16.239  -3.467  1.00  0.00     0.014 C 
ATOM     22  C   UNL     1       4.702 -14.212  -4.376  1.00  0.00     0.016 C 
ATOM     23  C   UNL     1       5.413 -15.416  -1.283  1.00  0.00    -0.006 C 
ATOM     24  C   UNL     1       2.995 -15.644  -2.139  1.00  0.00     0.033 C 
ATOM     25  C   UNL     1       3.974 -15.948  -0.998  1.00  0.00     0.120 C 
ATOM     26  C   UNL     1       6.348 -16.058  -0.215  1.00  0.00     0.014 C 
ATOM     27  C   UNL     1       5.483 -13.876  -1.076  1.00  0.00     0.014 C 
BRANCH  25  28
ATOM     28  O   UNL     1       3.476 -15.399   0.199  1.00  0.00    -0.393 OA
ATOM     29  H   UNL     1       3.545 -16.104   0.893  1.00  0.00     0.210 HD
ENDBRANCH  25  28
ENDBRANCH   2   6
ENDBRANCH   1   2
BRANCH   1  30
ATOM     30  C   UNL     1       5.498 -21.633  -4.829  1.00  0.00     0.031 C 
BRANCH  30  31
ATOM     31  C   UNL     1       4.208 -20.852  -4.688  1.00  0.00    -0.075 C 
ATOM     32  C   UNL     1       3.159 -21.168  -5.470  1.00  0.00     0.008 C 
BRANCH  31  33
ATOM     33  C   UNL     1       4.123 -19.706  -3.686  1.00  0.00     0.008 C 
ATOM     34  C   UNL     1       5.463 -19.484  -2.973  1.00  0.00     0.012 C 
ATOM     35  C   UNL     1       2.993 -19.939  -2.677  1.00  0.00     0.012 C 
ENDBRANCH  31  33
ENDBRANCH  30  31
ENDBRANCH   1  30
TORSDOF 7
ENDMDL
MODEL 9
REMARK VINA RESULT:    -4.498     11.898     15.044
REMARK INTER + INTRA:          -9.324
REMARK INTER:                  -6.727
REMARK INTRA:                  -2.597
REMARK UNBOUND:                -3.117
REMARK SMILES C=C(CC[C@H](C(=O)[O-])[C@H]1CC[C@]2(C)C3=C(CC[C@]12C)[C@@]1(C)CC[C@H](O)C(C)(C)[C@@H]1CC3)C(C)C
REMARK SMILES IDX 4 1 5 2 6 3 7 4 8 5 9 6 10 7 18 8 11 9 12 10 17 11 19 12
REMARK SMILES IDX 13 13 14 14 16 15 15 16 31 17 20 18 30 19 29 20 22 21 21 22
REMARK SMILES IDX 26 23 23 24 24 25 27 26 28 27 25 28 3 30 2 31 1 32 32 33
REMARK SMILES IDX 33 34 34 35
REMARK H PARENT 25 29
REMARK Flexibility Score: inf
ROOT
ATOM      1  C   UNL     1       2.041 -31.516   3.035  1.00  0.00     0.014 C 
ENDROOT
BRANCH   1   2
ATOM      2  C   UNL     1       3.543 -31.867   3.258  1.00  0.00     0.039 C 
BRANCH   2   3
ATOM      3  C   UNL     1       3.732 -33.087   4.130  1.00  0.00     0.045 C 
ATOM      4  O   UNL     1       2.862 -33.372   4.997  1.00  0.00    -0.550 OA
ATOM      5  O   UNL     1       4.848 -33.908   4.000  1.00  0.00    -0.550 OA
ENDBRANCH   2   3
BRANCH   2   6
ATOM      6  C   UNL     1       4.471 -30.688   3.718  1.00  0.00     0.004 C 
ATOM      7  C   UNL     1       4.882 -30.788   5.196  1.00  0.00     0.006 C 
ATOM      8  C   UNL     1       5.757 -30.295   2.887  1.00  0.00    -0.020 C 
ATOM      9  C   UNL     1       6.366 -30.507   5.243  1.00  0.00     0.012 C 
ATOM     10  C   UNL     1       6.700 -29.656   3.991  1.00  0.00    -0.006 C 
ATOM     11  C   UNL     1       5.364 -29.302   1.732  1.00  0.00     0.012 C 
ATOM     12  C   UNL     1       6.443 -31.523   2.228  1.00  0.00     0.012 C 
ATOM     13  C   UNL     1       8.228 -29.780   3.735  1.00  0.00     0.017 C 
ATOM     14  C   UNL     1       6.389 -28.147   4.192  1.00  0.00    -0.064 C 
ATOM     15  C   UNL     1       6.170 -28.015   1.738  1.00  0.00     0.032 C 
ATOM     16  C   UNL     1       6.097 -27.360   3.106  1.00  0.00    -0.064 C 
ATOM     17  C   UNL     1       6.479 -27.567   5.604  1.00  0.00     0.032 C 
ATOM     18  C   UNL     1       5.962 -25.818   3.218  1.00  0.00    -0.008 C 
ATOM     19  C   UNL     1       6.489 -26.042   5.690  1.00  0.00     0.009 C 
ATOM     20  C   UNL     1       5.496 -25.456   4.675  1.00  0.00     0.007 C 
ATOM     21  C   UNL     1       4.893 -25.268   2.228  1.00  0.00     0.014 C 
ATOM     22  C   UNL     1       7.359 -25.256   2.833  1.00  0.00     0.016 C 
ATOM     23  C   UNL     1       5.054 -23.959   4.961  1.00  0.00    -0.006 C 
ATOM     24  C   UNL     1       4.597 -23.779   2.433  1.00  0.00     0.033 C 
ATOM     25  C   UNL     1       4.066 -23.498   3.844  1.00  0.00     0.120 C 
ATOM     26  C   UNL     1       4.268 -23.905   6.305  1.00  0.00     0.014 C 
ATOM     27  C   UNL     1       6.242 -22.963   5.093  1.00  0.00     0.014 C 
BRANCH  25  28
ATOM     28  O   UNL     1       3.791 -22.122   3.970  1.00  0.00    -0.393 OA
ATOM     29  H   UNL     1       3.949 -21.880   4.919  1.00  0.00     0.210 HD
ENDBRANCH  25  28
ENDBRANCH   2   6
ENDBRANCH   1   2
BRANCH   1  30
ATOM     30  C   UNL     1       1.739 -30.038   3.341  1.00  0.00     0.031 C 
BRANCH  30  31
ATOM     31  C   UNL     1       1.232 -29.880   4.760  1.00  0.00    -0.075 C 
ATOM     32  C   UNL     1       0.430 -30.827   5.282  1.00  0.00     0.008 C 
BRANCH  31  33
ATOM     33  C   UNL     1       1.613 -28.643   5.566  1.00  0.00     0.008 C 
ATOM     34  C   UNL     1       2.651 -27.790   4.826  1.00  0.00     0.012 C 
ATOM     35  C   UNL     1       2.110 -29.027   6.965  1.00  0.00     0.012 C 
ENDBRANCH  31  33
ENDBRANCH  30  31
ENDBRANCH   1  30
TORSDOF 7
ENDMDL
