MODEL 1
REMARK VINA RESULT:    -3.124      0.000      0.000
REMARK INTER + INTRA:          -5.788
REMARK INTER:                  -5.498
REMARK INTRA:                  -0.291
REMARK UNBOUND:                -0.291
REMARK SMILES CCCCCCCCCCCCCCC(=O)[O-]
REMARK SMILES IDX 9 1 10 2 11 3 12 4 13 5 14 6 15 7 16 8 17 9 8 10 7 11 6 12
REMARK SMILES IDX 5 13 4 14 3 15 2 16 1 17
REMARK H PARENT
REMARK Flexibility Score: inf
ROOT
ATOM      1  C   UNL     1      23.149  21.824 -10.165  1.00  0.00     0.000 C 
ENDROOT
BRANCH   1   2
ATOM      2  C   UNL     1      24.544  21.691 -10.802  1.00  0.00     0.000 C 
BRANCH   2   3
ATOM      3  C   UNL     1      25.224  23.050 -11.037  1.00  0.00     0.000 C 
BRANCH   3   4
ATOM      4  C   UNL     1      26.761  22.958 -11.045  1.00  0.00     0.000 C 
BRANCH   4   5
ATOM      5  C   UNL     1      27.501  24.310 -11.125  1.00  0.00     0.006 C 
BRANCH   5   6
ATOM      6  C   UNL     1      28.832  24.355 -10.360  1.00  0.00     0.053 C 
BRANCH   6   7
ATOM      7  C   UNL     1      28.700  25.066  -9.048  1.00  0.00     0.041 C 
ATOM      8  O   UNL     1      28.413  24.423  -8.005  1.00  0.00    -0.550 OA
ATOM      9  O   UNL     1      28.928  26.434  -8.973  1.00  0.00    -0.550 OA
ENDBRANCH   6   7
ENDBRANCH   5   6
ENDBRANCH   4   5
ENDBRANCH   3   4
ENDBRANCH   2   3
ENDBRANCH   1   2
BRANCH   1  10
ATOM     10  C   UNL     1      21.965  21.586 -11.124  1.00  0.00     0.000 C 
BRANCH  10  11
ATOM     11  C   UNL     1      21.205  20.260 -10.917  1.00  0.00    -0.000 C 
BRANCH  11  12
ATOM     12  C   UNL     1      19.682  20.340 -11.120  1.00  0.00    -0.000 C 
BRANCH  12  13
ATOM     13  C   UNL     1      18.983  18.983 -10.939  1.00  0.00    -0.000 C 
BRANCH  13  14
ATOM     14  C   UNL     1      17.456  19.071 -11.107  1.00  0.00    -0.000 C 
BRANCH  14  15
ATOM     15  C   UNL     1      16.692  17.913 -10.429  1.00  0.00    -0.000 C 
BRANCH  15  16
ATOM     16  C   UNL     1      15.610  18.421  -9.463  1.00  0.00    -0.003 C 
ATOM     17  C   UNL     1      15.237  17.351  -8.441  1.00  0.00     0.004 C 
ENDBRANCH  15  16
ENDBRANCH  14  15
ENDBRANCH  13  14
ENDBRANCH  12  13
ENDBRANCH  11  12
ENDBRANCH  10  11
ENDBRANCH   1  10
TORSDOF 13
ENDMDL
MODEL 2
REMARK VINA RESULT:    -3.076      5.430     10.559
REMARK INTER + INTRA:          -5.705
REMARK INTER:                  -5.192
REMARK INTRA:                  -0.513
REMARK UNBOUND:                -0.291
REMARK SMILES CCCCCCCCCCCCCCC(=O)[O-]
REMARK SMILES IDX 9 1 10 2 11 3 12 4 13 5 14 6 15 7 16 8 17 9 8 10 7 11 6 12
REMARK SMILES IDX 5 13 4 14 3 15 2 16 1 17
REMARK H PARENT
REMARK Flexibility Score: inf
ROOT
ATOM      1  C   UNL     1      21.271  19.586 -10.667  1.00  0.00     0.000 C 
ENDROOT
BRANCH   1   2
ATOM      2  C   UNL     1      20.401  18.398 -11.117  1.00  0.00     0.000 C 
BRANCH   2   3
ATOM      3  C   UNL     1      18.902  18.629 -10.867  1.00  0.00     0.000 C 
BRANCH   3   4
ATOM      4  C   UNL     1      18.098  17.318 -10.793  1.00  0.00     0.000 C 
BRANCH   4   5
ATOM      5  C   UNL     1      16.626  17.472 -10.357  1.00  0.00     0.006 C 
BRANCH   5   6
ATOM      6  C   UNL     1      16.336  18.725  -9.516  1.00  0.00     0.053 C 
BRANCH   6   7
ATOM      7  C   UNL     1      14.926  19.202  -9.691  1.00  0.00     0.041 C 
ATOM      8  O   UNL     1      14.087  19.050  -8.766  1.00  0.00    -0.550 OA
ATOM      9  O   UNL     1      14.550  19.845 -10.864  1.00  0.00    -0.550 OA
ENDBRANCH   6   7
ENDBRANCH   5   6
ENDBRANCH   4   5
ENDBRANCH   3   4
ENDBRANCH   2   3
ENDBRANCH   1   2
BRANCH   1  10
ATOM     10  C   UNL     1      20.644  20.978 -10.883  1.00  0.00     0.000 C 
BRANCH  10  11
ATOM     11  C   UNL     1      21.647  22.124 -11.118  1.00  0.00    -0.000 C 
BRANCH  11  12
ATOM     12  C   UNL     1      23.032  21.923 -10.477  1.00  0.00    -0.000 C 
BRANCH  12  13
ATOM     13  C   UNL     1      24.121  22.796 -11.122  1.00  0.00    -0.000 C 
BRANCH  13  14
ATOM     14  C   UNL     1      25.533  22.208 -10.954  1.00  0.00    -0.000 C 
BRANCH  14  15
ATOM     15  C   UNL     1      26.616  23.270 -10.669  1.00  0.00    -0.000 C 
BRANCH  15  16
ATOM     16  C   UNL     1      27.977  22.637 -10.342  1.00  0.00    -0.003 C 
ATOM     17  C   UNL     1      28.171  21.326 -11.097  1.00  0.00     0.004 C 
ENDBRANCH  15  16
ENDBRANCH  14  15
ENDBRANCH  13  14
ENDBRANCH  12  13
ENDBRANCH  11  12
ENDBRANCH  10  11
ENDBRANCH   1  10
TORSDOF 13
ENDMDL
MODEL 3
REMARK VINA RESULT:    -3.056     11.451     14.251
REMARK INTER + INTRA:          -5.668
REMARK INTER:                  -5.218
REMARK INTRA:                  -0.451
REMARK UNBOUND:                -0.291
REMARK SMILES CCCCCCCCCCCCCCC(=O)[O-]
REMARK SMILES IDX 9 1 10 2 11 3 12 4 13 5 14 6 15 7 16 8 17 9 8 10 7 11 6 12
REMARK SMILES IDX 5 13 4 14 3 15 2 16 1 17
REMARK H PARENT
REMARK Flexibility Score: inf
ROOT
ATOM      1  C   UNL     1      28.029  25.473   0.620  1.00  0.00     0.000 C 
ENDROOT
BRANCH   1   2
ATOM      2  C   UNL     1      28.114  25.132   2.119  1.00  0.00     0.000 C 
BRANCH   2   3
ATOM      3  C   UNL     1      29.123  26.012   2.875  1.00  0.00     0.000 C 
BRANCH   3   4
ATOM      4  C   UNL     1      28.835  27.517   2.727  1.00  0.00     0.000 C 
BRANCH   4   5
ATOM      5  C   UNL     1      29.120  28.369   3.982  1.00  0.00     0.006 C 
BRANCH   5   6
ATOM      6  C   UNL     1      28.126  29.517   4.215  1.00  0.00     0.053 C 
BRANCH   6   7
ATOM      7  C   UNL     1      28.140  29.989   5.636  1.00  0.00     0.041 C 
ATOM      8  O   UNL     1      28.344  31.203   5.898  1.00  0.00    -0.550 OA
ATOM      9  O   UNL     1      27.895  29.093   6.669  1.00  0.00    -0.550 OA
ENDBRANCH   6   7
ENDBRANCH   5   6
ENDBRANCH   4   5
ENDBRANCH   3   4
ENDBRANCH   2   3
ENDBRANCH   1   2
BRANCH   1  10
ATOM     10  C   UNL     1      27.084  24.577  -0.205  1.00  0.00     0.000 C 
BRANCH  10  11
ATOM     11  C   UNL     1      27.492  24.367  -1.677  1.00  0.00    -0.000 C 
BRANCH  11  12
ATOM     12  C   UNL     1      28.383  23.140  -1.941  1.00  0.00    -0.000 C 
BRANCH  12  13
ATOM     13  C   UNL     1      28.444  22.755  -3.428  1.00  0.00    -0.000 C 
BRANCH  13  14
ATOM     14  C   UNL     1      28.748  21.263  -3.646  1.00  0.00    -0.000 C 
BRANCH  14  15
ATOM     15  C   UNL     1      28.648  20.417  -2.359  1.00  0.00    -0.000 C 
BRANCH  15  16
ATOM     16  C   UNL     1      28.609  18.910  -2.658  1.00  0.00    -0.003 C 
ATOM     17  C   UNL     1      28.082  18.124  -1.461  1.00  0.00     0.004 C 
ENDBRANCH  15  16
ENDBRANCH  14  15
ENDBRANCH  13  14
ENDBRANCH  12  13
ENDBRANCH  11  12
ENDBRANCH  10  11
ENDBRANCH   1  10
TORSDOF 13
ENDMDL
MODEL 4
REMARK VINA RESULT:    -3.042      4.977     10.625
REMARK INTER + INTRA:          -5.645
REMARK INTER:                  -5.116
REMARK INTRA:                  -0.528
REMARK UNBOUND:                -0.291
REMARK SMILES CCCCCCCCCCCCCCC(=O)[O-]
REMARK SMILES IDX 9 1 10 2 11 3 12 4 13 5 14 6 15 7 16 8 17 9 8 10 7 11 6 12
REMARK SMILES IDX 5 13 4 14 3 15 2 16 1 17
REMARK H PARENT
REMARK Flexibility Score: inf
ROOT
ATOM      1  C   UNL     1      22.237  20.984 -10.371  1.00  0.00     0.000 C 
ENDROOT
BRANCH   1   2
ATOM      2  C   UNL     1      20.900  20.844 -11.122  1.00  0.00     0.000 C 
BRANCH   2   3
ATOM      3  C   UNL     1      20.177  19.522 -10.812  1.00  0.00     0.000 C 
BRANCH   3   4
ATOM      4  C   UNL     1      18.650  19.619 -10.987  1.00  0.00     0.000 C 
BRANCH   4   5
ATOM      5  C   UNL     1      17.916  18.268 -11.118  1.00  0.00     0.006 C 
BRANCH   5   6
ATOM      6  C   UNL     1      16.386  18.360 -11.018  1.00  0.00     0.053 C 
BRANCH   6   7
ATOM      7  C   UNL     1      15.934  18.670  -9.624  1.00  0.00     0.041 C 
ATOM      8  O   UNL     1      16.501  18.130  -8.639  1.00  0.00    -0.550 OA
ATOM      9  O   UNL     1      14.907  19.582  -9.412  1.00  0.00    -0.550 OA
ENDBRANCH   6   7
ENDBRANCH   5   6
ENDBRANCH   4   5
ENDBRANCH   3   4
ENDBRANCH   2   3
ENDBRANCH   1   2
BRANCH   1  10
ATOM     10  C   UNL     1      23.471  20.450 -11.125  1.00  0.00     0.000 C 
BRANCH  10  11
ATOM     11  C   UNL     1      24.698  21.384 -11.125  1.00  0.00    -0.000 C 
BRANCH  11  12
ATOM     12  C   UNL     1      24.453  22.787 -10.541  1.00  0.00    -0.000 C 
BRANCH  12  13
ATOM     13  C   UNL     1      25.618  23.755 -10.802  1.00  0.00    -0.000 C 
BRANCH  13  14
ATOM     14  C   UNL     1      26.994  23.081 -10.668  1.00  0.00    -0.000 C 
BRANCH  14  15
ATOM     15  C   UNL     1      27.998  23.887  -9.815  1.00  0.00    -0.000 C 
BRANCH  15  16
ATOM     16  C   UNL     1      27.958  25.388 -10.139  1.00  0.00    -0.003 C 
ATOM     17  C   UNL     1      28.449  26.220  -8.958  1.00  0.00     0.004 C 
ENDBRANCH  15  16
ENDBRANCH  14  15
ENDBRANCH  13  14
ENDBRANCH  12  13
ENDBRANCH  11  12
ENDBRANCH  10  11
ENDBRANCH   1  10
TORSDOF 13
ENDMDL
MODEL 5
REMARK VINA RESULT:    -2.974     10.742     14.311
REMARK INTER + INTRA:          -5.525
REMARK INTER:                  -4.808
REMARK INTRA:                  -0.717
REMARK UNBOUND:                -0.291
REMARK SMILES CCCCCCCCCCCCCCC(=O)[O-]
REMARK SMILES IDX 9 1 10 2 11 3 12 4 13 5 14 6 15 7 16 8 17 9 8 10 7 11 6 12
REMARK SMILES IDX 5 13 4 14 3 15 2 16 1 17
REMARK H PARENT
REMARK Flexibility Score: inf
ROOT
ATOM      1  C   UNL     1      27.268  24.265  -1.706  1.00  0.00     0.000 C 
ENDROOT
BRANCH   1   2
ATOM      2  C   UNL     1      27.209  23.061  -2.664  1.00  0.00     0.000 C 
BRANCH   2   3
ATOM      3  C   UNL     1      28.376  22.080  -2.462  1.00  0.00     0.000 C 
BRANCH   3   4
ATOM      4  C   UNL     1      28.392  20.945  -3.502  1.00  0.00     0.000 C 
BRANCH   4   5
ATOM      5  C   UNL     1      28.903  19.584  -2.984  1.00  0.00     0.006 C 
BRANCH   5   6
ATOM      6  C   UNL     1      28.569  19.295  -1.512  1.00  0.00     0.053 C 
BRANCH   6   7
ATOM      7  C   UNL     1      28.383  17.830  -1.259  1.00  0.00     0.041 C 
ATOM      8  O   UNL     1      29.107  16.987  -1.848  1.00  0.00    -0.550 OA
ATOM      9  O   UNL     1      27.429  17.399  -0.345  1.00  0.00    -0.550 OA
ENDBRANCH   6   7
ENDBRANCH   5   6
ENDBRANCH   4   5
ENDBRANCH   3   4
ENDBRANCH   2   3
ENDBRANCH   1   2
BRANCH   1  10
ATOM     10  C   UNL     1      28.667  24.881  -1.512  1.00  0.00     0.000 C 
BRANCH  10  11
ATOM     11  C   UNL     1      28.905  25.560  -0.148  1.00  0.00    -0.000 C 
BRANCH  11  12
ATOM     12  C   UNL     1      27.690  25.573   0.797  1.00  0.00    -0.000 C 
BRANCH  12  13
ATOM     13  C   UNL     1      28.039  25.118   2.224  1.00  0.00    -0.000 C 
BRANCH  13  14
ATOM     14  C   UNL     1      29.125  25.989   2.879  1.00  0.00    -0.000 C 
BRANCH  14  15
ATOM     15  C   UNL     1      28.580  27.291   3.505  1.00  0.00    -0.000 C 
BRANCH  15  16
ATOM     16  C   UNL     1      29.124  28.543   2.801  1.00  0.00    -0.003 C 
ATOM     17  C   UNL     1      28.897  29.794   3.646  1.00  0.00     0.004 C 
ENDBRANCH  15  16
ENDBRANCH  14  15
ENDBRANCH  13  14
ENDBRANCH  12  13
ENDBRANCH  11  12
ENDBRANCH  10  11
ENDBRANCH   1  10
TORSDOF 13
ENDMDL
MODEL 6
REMARK VINA RESULT:    -2.948     13.267     14.660
REMARK INTER + INTRA:          -5.479
REMARK INTER:                  -4.992
REMARK INTRA:                  -0.487
REMARK UNBOUND:                -0.291
REMARK SMILES CCCCCCCCCCCCCCC(=O)[O-]
REMARK SMILES IDX 9 1 10 2 11 3 12 4 13 5 14 6 15 7 16 8 17 9 8 10 7 11 6 12
REMARK SMILES IDX 5 13 4 14 3 15 2 16 1 17
REMARK H PARENT
REMARK Flexibility Score: inf
ROOT
ATOM      1  C   UNL     1      12.788  30.006  -8.208  1.00  0.00     0.000 C 
ENDROOT
BRANCH   1   2
ATOM      2  C   UNL     1      12.798  30.618  -9.620  1.00  0.00     0.000 C 
BRANCH   2   3
ATOM      3  C   UNL     1      13.341  32.056  -9.643  1.00  0.00     0.000 C 
BRANCH   3   4
ATOM      4  C   UNL     1      13.882  32.471 -11.024  1.00  0.00     0.000 C 
BRANCH   4   5
ATOM      5  C   UNL     1      14.589  33.841 -11.070  1.00  0.00     0.006 C 
BRANCH   5   6
ATOM      6  C   UNL     1      16.054  33.820 -10.609  1.00  0.00     0.053 C 
BRANCH   6   7
ATOM      7  C   UNL     1      16.395  32.552  -9.886  1.00  0.00     0.041 C 
ATOM      8  O   UNL     1      16.812  31.552 -10.525  1.00  0.00    -0.550 OA
ATOM      9  O   UNL     1      16.283  32.489  -8.503  1.00  0.00    -0.550 OA
ENDBRANCH   6   7
ENDBRANCH   5   6
ENDBRANCH   4   5
ENDBRANCH   3   4
ENDBRANCH   2   3
ENDBRANCH   1   2
BRANCH   1  10
ATOM     10  C   UNL     1      11.787  28.851  -8.000  1.00  0.00     0.000 C 
BRANCH  10  11
ATOM     11  C   UNL     1      10.326  29.280  -7.761  1.00  0.00    -0.000 C 
BRANCH  11  12
ATOM     12  C   UNL     1       9.293  28.640  -8.706  1.00  0.00    -0.000 C 
BRANCH  12  13
ATOM     13  C   UNL     1       9.769  28.591 -10.167  1.00  0.00    -0.000 C 
BRANCH  13  14
ATOM     14  C   UNL     1       9.242  29.769 -11.005  1.00  0.00    -0.000 C 
BRANCH  14  15
ATOM     15  C   UNL     1       8.966  31.042 -10.177  1.00  0.00    -0.000 C 
BRANCH  15  16
ATOM     16  C   UNL     1       8.875  32.297 -11.059  1.00  0.00    -0.003 C 
ATOM     17  C   UNL     1      10.215  33.023 -11.125  1.00  0.00     0.004 C 
ENDBRANCH  15  16
ENDBRANCH  14  15
ENDBRANCH  13  14
ENDBRANCH  12  13
ENDBRANCH  11  12
ENDBRANCH  10  11
ENDBRANCH   1  10
TORSDOF 13
ENDMDL
MODEL 7
REMARK VINA RESULT:    -2.881      1.471      1.707
REMARK INTER + INTRA:          -5.362
REMARK INTER:                  -5.053
REMARK INTRA:                  -0.309
REMARK UNBOUND:                -0.291
REMARK SMILES CCCCCCCCCCCCCCC(=O)[O-]
REMARK SMILES IDX 9 1 10 2 11 3 12 4 13 5 14 6 15 7 16 8 17 9 8 10 7 11 6 12
REMARK SMILES IDX 5 13 4 14 3 15 2 16 1 17
REMARK H PARENT
REMARK Flexibility Score: inf
ROOT
ATOM      1  C   UNL     1      22.799  21.961 -10.063  1.00  0.00     0.000 C 
ENDROOT
BRANCH   1   2
ATOM      2  C   UNL     1      24.321  21.860 -10.271  1.00  0.00     0.000 C 
BRANCH   2   3
ATOM      3  C   UNL     1      24.886  23.015 -11.113  1.00  0.00     0.000 C 
BRANCH   3   4
ATOM      4  C   UNL     1      25.780  23.969 -10.300  1.00  0.00     0.000 C 
BRANCH   4   5
ATOM      5  C   UNL     1      26.372  25.153 -11.093  1.00  0.00     0.006 C 
BRANCH   5   6
ATOM      6  C   UNL     1      27.610  25.797 -10.451  1.00  0.00     0.053 C 
BRANCH   6   7
ATOM      7  C   UNL     1      27.375  27.234 -10.098  1.00  0.00     0.041 C 
ATOM      8  O   UNL     1      27.822  27.703  -9.019  1.00  0.00    -0.550 OA
ATOM      9  O   UNL     1      26.690  28.062 -10.977  1.00  0.00    -0.550 OA
ENDBRANCH   6   7
ENDBRANCH   5   6
ENDBRANCH   4   5
ENDBRANCH   3   4
ENDBRANCH   2   3
ENDBRANCH   1   2
BRANCH   1  10
ATOM     10  C   UNL     1      22.042  20.618 -10.091  1.00  0.00     0.000 C 
BRANCH  10  11
ATOM     11  C   UNL     1      20.874  20.540 -11.094  1.00  0.00    -0.000 C 
BRANCH  11  12
ATOM     12  C   UNL     1      20.046  19.244 -11.035  1.00  0.00    -0.000 C 
BRANCH  12  13
ATOM     13  C   UNL     1      18.530  19.502 -11.040  1.00  0.00    -0.000 C 
BRANCH  13  14
ATOM     14  C   UNL     1      17.704  18.204 -11.031  1.00  0.00    -0.000 C 
BRANCH  14  15
ATOM     15  C   UNL     1      16.732  18.098  -9.836  1.00  0.00    -0.000 C 
BRANCH  15  16
ATOM     16  C   UNL     1      15.700  19.235  -9.826  1.00  0.00    -0.003 C 
ATOM     17  C   UNL     1      14.376  18.774  -9.225  1.00  0.00     0.004 C 
ENDBRANCH  15  16
ENDBRANCH  14  15
ENDBRANCH  13  14
ENDBRANCH  12  13
ENDBRANCH  11  12
ENDBRANCH  10  11
ENDBRANCH   1  10
TORSDOF 13
ENDMDL
MODEL 8
REMARK VINA RESULT:    -2.800     10.402     14.874
REMARK INTER + INTRA:          -5.219
REMARK INTER:                  -4.706
REMARK INTRA:                  -0.513
REMARK UNBOUND:                -0.291
REMARK SMILES CCCCCCCCCCCCCCC(=O)[O-]
REMARK SMILES IDX 9 1 10 2 11 3 12 4 13 5 14 6 15 7 16 8 17 9 8 10 7 11 6 12
REMARK SMILES IDX 5 13 4 14 3 15 2 16 1 17
REMARK H PARENT
REMARK Flexibility Score: inf
ROOT
ATOM      1  C   UNL     1      26.589  24.396  -0.864  1.00  0.00     0.000 C 
ENDROOT
BRANCH   1   2
ATOM      2  C   UNL     1      26.655  23.602  -2.181  1.00  0.00     0.000 C 
BRANCH   2   3
ATOM      3  C   UNL     1      28.031  23.690  -2.862  1.00  0.00     0.000 C 
BRANCH   3   4
ATOM      4  C   UNL     1      28.583  22.315  -3.278  1.00  0.00     0.000 C 
BRANCH   4   5
ATOM      5  C   UNL     1      28.787  21.310  -2.125  1.00  0.00     0.006 C 
BRANCH   5   6
ATOM      6  C   UNL     1      27.884  20.070  -2.191  1.00  0.00     0.053 C 
BRANCH   6   7
ATOM      7  C   UNL     1      28.356  19.087  -3.219  1.00  0.00     0.041 C 
ATOM      8  O   UNL     1      28.084  19.263  -4.435  1.00  0.00    -0.550 OA
ATOM      9  O   UNL     1      29.125  17.996  -2.836  1.00  0.00    -0.550 OA
ENDBRANCH   6   7
ENDBRANCH   5   6
ENDBRANCH   4   5
ENDBRANCH   3   4
ENDBRANCH   2   3
ENDBRANCH   1   2
BRANCH   1  10
ATOM     10  C   UNL     1      27.954  24.779  -0.259  1.00  0.00     0.000 C 
BRANCH  10  11
ATOM     11  C   UNL     1      27.911  25.294   1.193  1.00  0.00    -0.000 C 
BRANCH  11  12
ATOM     12  C   UNL     1      29.125  26.136   1.626  1.00  0.00    -0.000 C 
BRANCH  12  13
ATOM     13  C   UNL     1      29.090  26.512   3.116  1.00  0.00    -0.000 C 
BRANCH  13  14
ATOM     14  C   UNL     1      28.729  27.989   3.350  1.00  0.00    -0.000 C 
BRANCH  14  15
ATOM     15  C   UNL     1      29.125  28.509   4.748  1.00  0.00    -0.000 C 
BRANCH  15  16
ATOM     16  C   UNL     1      29.109  30.044   4.821  1.00  0.00    -0.003 C 
ATOM     17  C   UNL     1      29.075  30.527   6.268  1.00  0.00     0.004 C 
ENDBRANCH  15  16
ENDBRANCH  14  15
ENDBRANCH  13  14
ENDBRANCH  12  13
ENDBRANCH  11  12
ENDBRANCH  10  11
ENDBRANCH   1  10
TORSDOF 13
ENDMDL
MODEL 9
REMARK VINA RESULT:    -2.783      5.473     10.891
REMARK INTER + INTRA:          -5.189
REMARK INTER:                  -4.860
REMARK INTRA:                  -0.329
REMARK UNBOUND:                -0.291
REMARK SMILES CCCCCCCCCCCCCCC(=O)[O-]
REMARK SMILES IDX 9 1 10 2 11 3 12 4 13 5 14 6 15 7 16 8 17 9 8 10 7 11 6 12
REMARK SMILES IDX 5 13 4 14 3 15 2 16 1 17
REMARK H PARENT
REMARK Flexibility Score: inf
ROOT
ATOM      1  C   UNL     1      22.496  21.881 -10.803  1.00  0.00     0.000 C 
ENDROOT
BRANCH   1   2
ATOM      2  C   UNL     1      21.754  20.589 -10.418  1.00  0.00     0.000 C 
BRANCH   2   3
ATOM      3  C   UNL     1      20.394  20.450 -11.122  1.00  0.00     0.000 C 
BRANCH   3   4
ATOM      4  C   UNL     1      19.608  19.207 -10.667  1.00  0.00     0.000 C 
BRANCH   4   5
ATOM      5  C   UNL     1      18.073  19.323 -10.774  1.00  0.00     0.006 C 
BRANCH   5   6
ATOM      6  C   UNL     1      17.327  17.980 -10.754  1.00  0.00     0.053 C 
BRANCH   6   7
ATOM      7  C   UNL     1      15.934  18.121 -10.223  1.00  0.00     0.041 C 
ATOM      8  O   UNL     1      15.625  17.619  -9.111  1.00  0.00    -0.550 OA
ATOM      9  O   UNL     1      14.985  18.837 -10.942  1.00  0.00    -0.550 OA
ENDBRANCH   6   7
ENDBRANCH   5   6
ENDBRANCH   4   5
ENDBRANCH   3   4
ENDBRANCH   2   3
ENDBRANCH   1   2
BRANCH   1  10
ATOM     10  C   UNL     1      23.436  22.446  -9.719  1.00  0.00     0.000 C 
BRANCH  10  11
ATOM     11  C   UNL     1      24.684  23.181 -10.246  1.00  0.00    -0.000 C 
BRANCH  11  12
ATOM     12  C   UNL     1      24.397  24.412 -11.125  1.00  0.00    -0.000 C 
BRANCH  12  13
ATOM     13  C   UNL     1      25.541  25.438 -11.107  1.00  0.00    -0.000 C 
BRANCH  13  14
ATOM     14  C   UNL     1      25.039  26.889 -11.007  1.00  0.00    -0.000 C 
BRANCH  14  15
ATOM     15  C   UNL     1      26.170  27.939 -11.042  1.00  0.00    -0.000 C 
BRANCH  15  16
ATOM     16  C   UNL     1      26.491  28.490  -9.644  1.00  0.00    -0.003 C 
ATOM     17  C   UNL     1      27.721  27.809  -9.051  1.00  0.00     0.004 C 
ENDBRANCH  15  16
ENDBRANCH  14  15
ENDBRANCH  13  14
ENDBRANCH  12  13
ENDBRANCH  11  12
ENDBRANCH  10  11
ENDBRANCH   1  10
TORSDOF 13
ENDMDL
