MODEL 1
REMARK VINA RESULT:    -2.970      0.000      0.000
REMARK INTER + INTRA:          -3.678
REMARK INTER:                  -3.490
REMARK INTRA:                  -0.188
REMARK UNBOUND:                -0.188
REMARK SMILES O=C([O-])CCC(=O)[O-]
REMARK SMILES IDX 4 1 2 2 1 3 3 4 5 5 6 6 7 7 8 8
REMARK H PARENT
REMARK Flexibility Score: inf
ROOT
ATOM      1  C   UNL     1      -3.008  -3.766  35.977  1.00  0.00     0.059 C 
ENDROOT
BRANCH   1   2
ATOM      2  C   UNL     1      -2.169  -2.525  35.992  1.00  0.00     0.042 C 
ATOM      3  O   UNL     1      -1.078  -2.491  35.365  1.00  0.00    -0.550 OA
ATOM      4  O   UNL     1      -2.573  -1.421  36.732  1.00  0.00    -0.550 OA
ENDBRANCH   1   2
BRANCH   1   5
ATOM      5  C   UNL     1      -4.446  -3.472  35.535  1.00  0.00     0.059 C 
BRANCH   5   6
ATOM      6  C   UNL     1      -4.494  -2.935  34.137  1.00  0.00     0.042 C 
ATOM      7  O   UNL     1      -5.032  -1.821  33.904  1.00  0.00    -0.550 OA
ATOM      8  O   UNL     1      -3.908  -3.647  33.099  1.00  0.00    -0.550 OA
ENDBRANCH   5   6
ENDBRANCH   1   5
TORSDOF 3
ENDMDL
MODEL 2
REMARK VINA RESULT:    -2.949      1.868      3.053
REMARK INTER + INTRA:          -3.653
REMARK INTER:                  -3.546
REMARK INTRA:                  -0.107
REMARK UNBOUND:                -0.188
REMARK SMILES O=C([O-])CCC(=O)[O-]
REMARK SMILES IDX 4 1 2 2 1 3 3 4 5 5 6 6 7 7 8 8
REMARK H PARENT
REMARK Flexibility Score: inf
ROOT
ATOM      1  C   UNL     1      -3.925  -3.688  35.457  1.00  0.00     0.059 C 
ENDROOT
BRANCH   1   2
ATOM      2  C   UNL     1      -3.566  -3.121  34.117  1.00  0.00     0.042 C 
ATOM      3  O   UNL     1      -3.932  -3.706  33.065  1.00  0.00    -0.550 OA
ATOM      4  O   UNL     1      -2.791  -1.971  34.033  1.00  0.00    -0.550 OA
ENDBRANCH   1   2
BRANCH   1   5
ATOM      5  C   UNL     1      -5.372  -3.361  35.840  1.00  0.00     0.059 C 
BRANCH   5   6
ATOM      6  C   UNL     1      -5.439  -2.248  36.841  1.00  0.00     0.042 C 
ATOM      7  O   UNL     1      -6.553  -1.777  37.192  1.00  0.00    -0.550 OA
ATOM      8  O   UNL     1      -4.273  -1.759  37.415  1.00  0.00    -0.550 OA
ENDBRANCH   5   6
ENDBRANCH   1   5
TORSDOF 3
ENDMDL
MODEL 3
REMARK VINA RESULT:    -2.943      1.851      2.869
REMARK INTER + INTRA:          -3.647
REMARK INTER:                  -3.540
REMARK INTRA:                  -0.106
REMARK UNBOUND:                -0.188
REMARK SMILES O=C([O-])CCC(=O)[O-]
REMARK SMILES IDX 4 1 2 2 1 3 3 4 5 5 6 6 7 7 8 8
REMARK H PARENT
REMARK Flexibility Score: inf
ROOT
ATOM      1  C   UNL     1      -5.390  -3.302  35.818  1.00  0.00     0.059 C 
ENDROOT
BRANCH   1   2
ATOM      2  C   UNL     1      -5.432  -2.215  36.848  1.00  0.00     0.042 C 
ATOM      3  O   UNL     1      -6.534  -1.722  37.202  1.00  0.00    -0.550 OA
ATOM      4  O   UNL     1      -4.250  -1.720  37.384  1.00  0.00    -0.550 OA
ENDBRANCH   1   2
BRANCH   1   5
ATOM      5  C   UNL     1      -3.951  -3.658  35.428  1.00  0.00     0.059 C 
BRANCH   5   6
ATOM      6  C   UNL     1      -3.603  -3.134  34.068  1.00  0.00     0.042 C 
ATOM      7  O   UNL     1      -3.968  -3.757  33.036  1.00  0.00    -0.550 OA
ATOM      8  O   UNL     1      -2.911  -1.938  33.941  1.00  0.00    -0.550 OA
ENDBRANCH   5   6
ENDBRANCH   1   5
TORSDOF 3
ENDMDL
MODEL 4
REMARK VINA RESULT:    -2.925      1.908      3.274
REMARK INTER + INTRA:          -3.626
REMARK INTER:                  -3.530
REMARK INTRA:                  -0.096
REMARK UNBOUND:                -0.188
REMARK SMILES O=C([O-])CCC(=O)[O-]
REMARK SMILES IDX 4 1 2 2 1 3 3 4 5 5 6 6 7 7 8 8
REMARK H PARENT
REMARK Flexibility Score: inf
ROOT
ATOM      1  C   UNL     1      -3.893  -3.620  35.521  1.00  0.00     0.059 C 
ENDROOT
BRANCH   1   2
ATOM      2  C   UNL     1      -3.539  -3.065  34.175  1.00  0.00     0.042 C 
ATOM      3  O   UNL     1      -2.953  -1.955  34.083  1.00  0.00    -0.550 OA
ATOM      4  O   UNL     1      -3.894  -3.756  33.023  1.00  0.00    -0.550 OA
ENDBRANCH   1   2
BRANCH   1   5
ATOM      5  C   UNL     1      -5.353  -3.329  35.886  1.00  0.00     0.059 C 
BRANCH   5   6
ATOM      6  C   UNL     1      -5.456  -2.289  36.959  1.00  0.00     0.042 C 
ATOM      7  O   UNL     1      -4.443  -1.975  37.638  1.00  0.00    -0.550 OA
ATOM      8  O   UNL     1      -6.662  -1.638  37.181  1.00  0.00    -0.550 OA
ENDBRANCH   5   6
ENDBRANCH   1   5
TORSDOF 3
ENDMDL
MODEL 5
REMARK VINA RESULT:    -2.921      0.147      3.547
REMARK INTER + INTRA:          -3.621
REMARK INTER:                  -3.444
REMARK INTRA:                  -0.177
REMARK UNBOUND:                -0.188
REMARK SMILES O=C([O-])CCC(=O)[O-]
REMARK SMILES IDX 4 1 2 2 1 3 3 4 5 5 6 6 7 7 8 8
REMARK H PARENT
REMARK Flexibility Score: inf
ROOT
ATOM      1  C   UNL     1      -4.343  -3.347  35.626  1.00  0.00     0.059 C 
ENDROOT
BRANCH   1   2
ATOM      2  C   UNL     1      -4.442  -2.853  34.215  1.00  0.00     0.042 C 
ATOM      3  O   UNL     1      -4.989  -1.746  33.970  1.00  0.00    -0.550 OA
ATOM      4  O   UNL     1      -3.968  -3.635  33.170  1.00  0.00    -0.550 OA
ENDBRANCH   1   2
BRANCH   1   5
ATOM      5  C   UNL     1      -2.905  -3.733  35.991  1.00  0.00     0.059 C 
BRANCH   5   6
ATOM      6  C   UNL     1      -2.006  -2.535  36.031  1.00  0.00     0.042 C 
ATOM      7  O   UNL     1      -0.931  -2.528  35.376  1.00  0.00    -0.550 OA
ATOM      8  O   UNL     1      -2.376  -1.413  36.760  1.00  0.00    -0.550 OA
ENDBRANCH   5   6
ENDBRANCH   1   5
TORSDOF 3
ENDMDL
MODEL 6
REMARK VINA RESULT:    -2.904      0.260      3.149
REMARK INTER + INTRA:          -3.601
REMARK INTER:                  -3.415
REMARK INTRA:                  -0.186
REMARK UNBOUND:                -0.188
REMARK SMILES O=C([O-])CCC(=O)[O-]
REMARK SMILES IDX 4 1 2 2 1 3 3 4 5 5 6 6 7 7 8 8
REMARK H PARENT
REMARK Flexibility Score: inf
ROOT
ATOM      1  C   UNL     1      -4.248  -3.632  35.517  1.00  0.00     0.059 C 
ENDROOT
BRANCH   1   2
ATOM      2  C   UNL     1      -4.357  -3.034  34.148  1.00  0.00     0.042 C 
ATOM      3  O   UNL     1      -3.855  -3.627  33.157  1.00  0.00    -0.550 OA
ATOM      4  O   UNL     1      -4.976  -1.803  33.973  1.00  0.00    -0.550 OA
ENDBRANCH   1   2
BRANCH   1   5
ATOM      5  C   UNL     1      -2.797  -3.657  36.010  1.00  0.00     0.059 C 
BRANCH   5   6
ATOM      6  C   UNL     1      -2.201  -2.283  36.037  1.00  0.00     0.042 C 
ATOM      7  O   UNL     1      -2.639  -1.418  36.840  1.00  0.00    -0.550 OA
ATOM      8  O   UNL     1      -1.134  -1.972  35.204  1.00  0.00    -0.550 OA
ENDBRANCH   5   6
ENDBRANCH   1   5
TORSDOF 3
ENDMDL
MODEL 7
REMARK VINA RESULT:    -2.827      1.104      1.641
REMARK INTER + INTRA:          -3.511
REMARK INTER:                  -3.387
REMARK INTRA:                  -0.124
REMARK UNBOUND:                -0.188
REMARK SMILES O=C([O-])CCC(=O)[O-]
REMARK SMILES IDX 4 1 2 2 1 3 3 4 5 5 6 6 7 7 8 8
REMARK H PARENT
REMARK Flexibility Score: inf
ROOT
ATOM      1  C   UNL     1      -2.848  -2.428  36.122  1.00  0.00     0.059 C 
ENDROOT
BRANCH   1   2
ATOM      2  C   UNL     1      -1.464  -2.277  35.569  1.00  0.00     0.042 C 
ATOM      3  O   UNL     1      -0.514  -2.949  36.050  1.00  0.00    -0.550 OA
ATOM      4  O   UNL     1      -1.217  -1.364  34.553  1.00  0.00    -0.550 OA
ENDBRANCH   1   2
BRANCH   1   5
ATOM      5  C   UNL     1      -3.609  -3.569  35.439  1.00  0.00     0.059 C 
BRANCH   5   6
ATOM      6  C   UNL     1      -4.189  -3.138  34.127  1.00  0.00     0.042 C 
ATOM      7  O   UNL     1      -3.865  -3.731  33.065  1.00  0.00    -0.550 OA
ATOM      8  O   UNL     1      -5.117  -2.106  34.084  1.00  0.00    -0.550 OA
ENDBRANCH   5   6
ENDBRANCH   1   5
TORSDOF 3
ENDMDL
MODEL 8
REMARK VINA RESULT:    -2.800      1.898      3.897
REMARK INTER + INTRA:          -3.478
REMARK INTER:                  -3.399
REMARK INTRA:                  -0.079
REMARK UNBOUND:                -0.188
REMARK SMILES O=C([O-])CCC(=O)[O-]
REMARK SMILES IDX 4 1 2 2 1 3 3 4 5 5 6 6 7 7 8 8
REMARK H PARENT
REMARK Flexibility Score: inf
ROOT
ATOM      1  C   UNL     1      -5.273  -3.338  35.740  1.00  0.00     0.059 C 
ENDROOT
BRANCH   1   2
ATOM      2  C   UNL     1      -5.024  -2.690  34.413  1.00  0.00     0.042 C 
ATOM      3  O   UNL     1      -5.557  -1.582  34.140  1.00  0.00    -0.550 OA
ATOM      4  O   UNL     1      -4.238  -3.329  33.463  1.00  0.00    -0.550 OA
ENDBRANCH   1   2
BRANCH   1   5
ATOM      5  C   UNL     1      -5.819  -2.338  36.765  1.00  0.00     0.059 C 
BRANCH   5   6
ATOM      6  C   UNL     1      -4.751  -1.881  37.712  1.00  0.00     0.042 C 
ATOM      7  O   UNL     1      -4.961  -1.884  38.953  1.00  0.00    -0.550 OA
ATOM      8  O   UNL     1      -3.511  -1.491  37.224  1.00  0.00    -0.550 OA
ENDBRANCH   5   6
ENDBRANCH   1   5
TORSDOF 3
ENDMDL
MODEL 9
REMARK VINA RESULT:    -2.678      1.449      3.593
REMARK INTER + INTRA:          -3.335
REMARK INTER:                  -3.271
REMARK INTRA:                  -0.063
REMARK UNBOUND:                -0.188
REMARK SMILES O=C([O-])CCC(=O)[O-]
REMARK SMILES IDX 4 1 2 2 1 3 3 4 5 5 6 6 7 7 8 8
REMARK H PARENT
REMARK Flexibility Score: inf
ROOT
ATOM      1  C   UNL     1      -3.648  -3.223  34.572  1.00  0.00     0.059 C 
ENDROOT
BRANCH   1   2
ATOM      2  C   UNL     1      -5.024  -2.749  34.926  1.00  0.00     0.042 C 
ATOM      3  O   UNL     1      -5.569  -1.833  34.258  1.00  0.00    -0.550 OA
ATOM      4  O   UNL     1      -5.686  -3.292  36.020  1.00  0.00    -0.550 OA
ENDBRANCH   1   2
BRANCH   1   5
ATOM      5  C   UNL     1      -2.778  -3.419  35.819  1.00  0.00     0.059 C 
BRANCH   5   6
ATOM      6  C   UNL     1      -1.539  -2.579  35.764  1.00  0.00     0.042 C 
ATOM      7  O   UNL     1      -0.571  -2.827  36.528  1.00  0.00    -0.550 OA
ATOM      8  O   UNL     1      -1.441  -1.546  34.841  1.00  0.00    -0.550 OA
ENDBRANCH   5   6
ENDBRANCH   1   5
TORSDOF 3
ENDMDL
