MODEL 1
REMARK VINA RESULT:    -2.399      0.000      0.000
REMARK INTER + INTRA:          -2.652
REMARK INTER:                  -3.381
REMARK INTRA:                   0.728
REMARK UNBOUND:                 0.728
REMARK SMILES CC1=CCC(=C(C)C)C(=O)CC(C)=CCC1
REMARK SMILES IDX 12 1 14 2 13 3 15 4 16 5 2 6 1 7 3 8 11 10 9 11 10 12 5 13
REMARK SMILES IDX 6 14 7 15 8 16 4 17
REMARK H PARENT
REMARK Flexibility Score: 60.00
ROOT
ATOM      1  C   UNL     1     102.977  47.462  53.656  1.00  0.00    -0.070 C 
ATOM      2  C   UNL     1     102.222  46.906  54.631  1.00  0.00    -0.027 C 
ATOM      3  C   UNL     1     102.338  47.683  52.308  1.00  0.00     0.039 C 
ENDROOT
BRANCH   2   4
ATOM      4  C   UNL     1     102.706  46.518  56.010  1.00  0.00     0.032 C 
BRANCH   4   5
ATOM      5  C   UNL     1     101.967  47.208  57.175  1.00  0.00     0.034 C 
BRANCH   5   6
ATOM      6  C   UNL     1     102.796  48.284  57.854  1.00  0.00    -0.077 C 
ATOM      7  C   UNL     1     103.316  47.998  59.240  1.00  0.00     0.039 C 
ATOM      8  C   UNL     1     103.040  49.509  57.325  1.00  0.00    -0.023 CG0
ATOM      9  G   UNL     1     102.636  50.009  55.953  1.00  0.00     0.000 G0
ENDBRANCH   5   6
ENDBRANCH   4   5
ENDBRANCH   2   4
BRANCH   1  10
ATOM     10  C   UNL     1     104.447  47.784  53.827  1.00  0.00     0.111 C 
BRANCH  10  11
ATOM     11  C   UNL     1     104.667  48.838  54.882  1.00  0.00     0.163 C 
ATOM     12  O   UNL     1     105.574  48.643  55.736  1.00  0.00    -0.294 OA
BRANCH  11  13
ATOM     13  C   UNL     1     103.815  50.060  54.982  1.00  0.00    -0.002 C 
ATOM     14  C   UNL     1     104.140  51.196  54.293  1.00  0.00    -0.069 C 
ATOM     15  C   UNL     1     103.392  52.495  54.495  1.00  0.00     0.039 C 
ATOM     16  C   UNL     1     105.272  51.209  53.290  1.00  0.00     0.039 C 
BRANCH  13  17
ATOM     17  C   UNL     1     102.641  50.013  55.947  1.00  0.00     0.066 CG0
ATOM     18  G   UNL     1     103.044  49.521  57.322  1.00  0.00     0.000 G0
ENDBRANCH  13  17
ENDBRANCH  11  13
ENDBRANCH  10  11
ENDBRANCH   1  10
TORSDOF 0
ENDMDL
MODEL 2
REMARK VINA RESULT:    -2.171      1.526      3.721
REMARK INTER + INTRA:          -2.330
REMARK INTER:                  -3.907
REMARK INTRA:                   1.576
REMARK UNBOUND:                 0.728
REMARK SMILES CC1=CCC(=C(C)C)C(=O)CC(C)=CCC1
REMARK SMILES IDX 12 1 14 2 13 3 15 4 16 5 2 6 1 7 3 8 11 10 9 11 10 12 5 13
REMARK SMILES IDX 6 14 7 15 8 16 4 17
REMARK H PARENT
REMARK Flexibility Score: 60.00
ROOT
ATOM      1  C   UNL     1     102.363  46.431  54.098  1.00  0.00    -0.070 C 
ATOM      2  C   UNL     1     102.321  47.086  52.915  1.00  0.00    -0.027 C 
ATOM      3  C   UNL     1     101.424  45.269  54.296  1.00  0.00     0.039 C 
ENDROOT
BRANCH   2   4
ATOM      4  C   UNL     1     103.109  48.327  52.564  1.00  0.00     0.032 C 
BRANCH   4   5
ATOM      5  C   UNL     1     104.443  48.485  53.323  1.00  0.00     0.034 C 
BRANCH   5   6
ATOM      6  C   UNL     1     104.647  49.880  53.888  1.00  0.00    -0.077 C 
ATOM      7  C   UNL     1     105.921  50.602  53.528  1.00  0.00     0.039 C 
ATOM      8  C   UNL     1     103.794  50.489  54.747  1.00  0.00    -0.023 CG0
ATOM      9  G   UNL     1     102.456  49.967  55.231  1.00  0.00     0.000 G0
ENDBRANCH   5   6
ENDBRANCH   4   5
ENDBRANCH   2   4
BRANCH   1  10
ATOM     10  C   UNL     1     103.237  46.867  55.256  1.00  0.00     0.111 C 
BRANCH  10  11
ATOM     11  C   UNL     1     102.452  47.634  56.288  1.00  0.00     0.163 C 
ATOM     12  O   UNL     1     101.600  47.006  56.973  1.00  0.00    -0.294 OA
BRANCH  11  13
ATOM     13  C   UNL     1     102.606  49.107  56.479  1.00  0.00    -0.002 C 
ATOM     14  C   UNL     1     102.789  49.634  57.727  1.00  0.00    -0.069 C 
ATOM     15  C   UNL     1     102.789  51.127  57.973  1.00  0.00     0.039 C 
ATOM     16  C   UNL     1     103.000  48.744  58.932  1.00  0.00     0.039 C 
BRANCH  13  17
ATOM     17  C   UNL     1     102.455  49.988  55.249  1.00  0.00     0.066 CG0
ATOM     18  G   UNL     1     103.789  50.480  54.725  1.00  0.00     0.000 G0
ENDBRANCH  13  17
ENDBRANCH  11  13
ENDBRANCH  10  11
ENDBRANCH   1  10
TORSDOF 0
ENDMDL
MODEL 3
REMARK VINA RESULT:    -2.121      7.649     10.417
REMARK INTER + INTRA:          -2.261
REMARK INTER:                  -3.868
REMARK INTRA:                   1.607
REMARK UNBOUND:                 0.728
REMARK SMILES CC1=CCC(=C(C)C)C(=O)CC(C)=CCC1
REMARK SMILES IDX 12 1 14 2 13 3 15 4 16 5 2 6 1 7 3 8 11 10 9 11 10 12 5 13
REMARK SMILES IDX 6 14 7 15 8 16 4 17
REMARK H PARENT
REMARK Flexibility Score: 60.00
ROOT
ATOM      1  C   UNL     1     107.975  47.577  65.571  1.00  0.00    -0.070 C 
ATOM      2  C   UNL     1     108.633  46.567  64.958  1.00  0.00    -0.027 C 
ATOM      3  C   UNL     1     108.352  47.905  66.993  1.00  0.00     0.039 C 
ENDROOT
BRANCH   2   4
ATOM      4  C   UNL     1     108.334  46.027  63.578  1.00  0.00     0.032 C 
BRANCH   4   5
ATOM      5  C   UNL     1     109.127  46.694  62.434  1.00  0.00     0.034 C 
BRANCH   5   6
ATOM      6  C   UNL     1     108.391  47.860  61.799  1.00  0.00    -0.077 C 
ATOM      7  C   UNL     1     107.617  47.594  60.533  1.00  0.00     0.039 C 
ATOM      8  C   UNL     1     108.441  49.136  62.255  1.00  0.00    -0.023 CG0
ATOM      9  G   UNL     1     109.135  49.632  63.508  1.00  0.00     0.000 G0
ENDBRANCH   5   6
ENDBRANCH   4   5
ENDBRANCH   2   4
BRANCH   1  10
ATOM     10  C   UNL     1     106.822  48.325  64.932  1.00  0.00     0.111 C 
BRANCH  10  11
ATOM     11  C   UNL     1     107.022  49.817  65.000  1.00  0.00     0.163 C 
ATOM     12  O   UNL     1     106.132  50.509  65.566  1.00  0.00    -0.294 OA
BRANCH  11  13
ATOM     13  C   UNL     1     108.193  50.498  64.374  1.00  0.00    -0.002 C 
ATOM     14  C   UNL     1     108.367  51.848  64.501  1.00  0.00    -0.069 C 
ATOM     15  C   UNL     1     109.451  52.589  63.750  1.00  0.00     0.039 C 
ATOM     16  C   UNL     1     107.476  52.672  65.404  1.00  0.00     0.039 C 
BRANCH  13  17
ATOM     17  C   UNL     1     109.119  49.645  63.520  1.00  0.00     0.066 CG0
ATOM     18  G   UNL     1     108.436  49.130  62.269  1.00  0.00     0.000 G0
ENDBRANCH  13  17
ENDBRANCH  11  13
ENDBRANCH  10  11
ENDBRANCH   1  10
TORSDOF 0
ENDMDL
MODEL 4
REMARK VINA RESULT:    -1.352      1.833      4.225
REMARK INTER + INTRA:          -1.177
REMARK INTER:                  -2.795
REMARK INTRA:                   1.618
REMARK UNBOUND:                 0.728
REMARK SMILES CC1=CCC(=C(C)C)C(=O)CC(C)=CCC1
REMARK SMILES IDX 12 1 14 2 13 3 15 4 16 5 2 6 1 7 3 8 11 10 9 11 10 12 5 13
REMARK SMILES IDX 6 14 7 15 8 16 4 17
REMARK H PARENT
REMARK Flexibility Score: 60.00
ROOT
ATOM      1  C   UNL     1     102.003  46.573  54.664  1.00  0.00    -0.070 C 
ATOM      2  C   UNL     1     102.688  47.040  53.596  1.00  0.00    -0.027 C 
ATOM      3  C   UNL     1     101.619  45.114  54.673  1.00  0.00     0.039 C 
ENDROOT
BRANCH   2   4
ATOM      4  C   UNL     1     103.076  48.482  53.358  1.00  0.00     0.032 C 
BRANCH   4   5
ATOM      5  C   UNL     1     104.574  48.713  53.069  1.00  0.00     0.034 C 
BRANCH   5   6
ATOM      6  C   UNL     1     105.252  49.595  54.102  1.00  0.00    -0.077 C 
ATOM      7  C   UNL     1     105.748  50.946  53.653  1.00  0.00     0.039 C 
ATOM      8  C   UNL     1     105.502  49.221  55.382  1.00  0.00    -0.023 CG0
ATOM      9  G   UNL     1     105.085  47.928  56.054  1.00  0.00     0.000 G0
ENDBRANCH   5   6
ENDBRANCH   4   5
ENDBRANCH   2   4
BRANCH   1  10
ATOM     10  C   UNL     1     101.525  47.458  55.796  1.00  0.00     0.111 C 
BRANCH  10  11
ATOM     11  C   UNL     1     102.566  48.477  56.182  1.00  0.00     0.163 C 
ATOM     12  O   UNL     1     102.383  49.674  55.832  1.00  0.00    -0.294 OA
BRANCH  11  13
ATOM     13  C   UNL     1     103.820  48.107  56.903  1.00  0.00    -0.002 C 
ATOM     14  C   UNL     1     103.840  48.014  58.267  1.00  0.00    -0.069 C 
ATOM     15  C   UNL     1     105.126  47.798  59.035  1.00  0.00     0.039 C 
ATOM     16  C   UNL     1     102.569  48.124  59.080  1.00  0.00     0.039 C 
BRANCH  13  17
ATOM     17  C   UNL     1     105.079  47.936  56.067  1.00  0.00     0.066 CG0
ATOM     18  G   UNL     1     105.494  49.221  55.381  1.00  0.00     0.000 G0
ENDBRANCH  13  17
ENDBRANCH  11  13
ENDBRANCH  10  11
ENDBRANCH   1  10
TORSDOF 0
ENDMDL
MODEL 5
REMARK VINA RESULT:    -1.013      1.665      3.778
REMARK INTER + INTRA:          -0.699
REMARK INTER:                  -2.725
REMARK INTRA:                   2.025
REMARK UNBOUND:                 0.728
REMARK SMILES CC1=CCC(=C(C)C)C(=O)CC(C)=CCC1
REMARK SMILES IDX 12 1 14 2 13 3 15 4 16 5 2 6 1 7 3 8 11 10 9 11 10 12 5 13
REMARK SMILES IDX 6 14 7 15 8 16 4 17
REMARK H PARENT
REMARK Flexibility Score: 60.00
ROOT
ATOM      1  C   UNL     1     103.562  48.381  57.833  1.00  0.00    -0.070 C 
ATOM      2  C   UNL     1     102.970  47.267  57.347  1.00  0.00    -0.027 C 
ATOM      3  C   UNL     1     104.611  48.214  58.903  1.00  0.00     0.039 C 
ENDROOT
BRANCH   2   4
ATOM      4  C   UNL     1     101.835  47.233  56.348  1.00  0.00     0.032 C 
BRANCH   4   5
ATOM      5  C   UNL     1     101.961  46.147  55.260  1.00  0.00     0.034 C 
BRANCH   5   6
ATOM      6  C   UNL     1     102.362  46.703  53.905  1.00  0.00    -0.077 C 
ATOM      7  C   UNL     1     101.550  46.281  52.706  1.00  0.00     0.039 C 
ATOM      8  C   UNL     1     103.441  47.496  53.693  1.00  0.00    -0.023 CG0
ATOM      9  G   UNL     1     104.383  48.056  54.740  1.00  0.00     0.000 G0
ENDBRANCH   5   6
ENDBRANCH   4   5
ENDBRANCH   2   4
BRANCH   1  10
ATOM     10  C   UNL     1     103.159  49.782  57.421  1.00  0.00     0.111 C 
BRANCH  10  11
ATOM     11  C   UNL     1     103.009  49.901  55.926  1.00  0.00     0.163 C 
ATOM     12  O   UNL     1     101.891  50.263  55.468  1.00  0.00    -0.294 OA
BRANCH  11  13
ATOM     13  C   UNL     1     104.109  49.548  54.980  1.00  0.00    -0.002 C 
ATOM     14  C   UNL     1     104.783  50.522  54.298  1.00  0.00    -0.069 C 
ATOM     15  C   UNL     1     105.791  50.192  53.219  1.00  0.00     0.039 C 
ATOM     16  C   UNL     1     104.551  51.988  54.590  1.00  0.00     0.039 C 
BRANCH  13  17
ATOM     17  C   UNL     1     104.376  48.070  54.743  1.00  0.00     0.066 CG0
ATOM     18  G   UNL     1     103.462  47.481  53.687  1.00  0.00     0.000 G0
ENDBRANCH  13  17
ENDBRANCH  11  13
ENDBRANCH  10  11
ENDBRANCH   1  10
TORSDOF 0
ENDMDL
MODEL 6
REMARK VINA RESULT:    -0.915      8.095     10.573
REMARK INTER + INTRA:          -0.561
REMARK INTER:                  -1.799
REMARK INTRA:                   1.237
REMARK UNBOUND:                 0.728
REMARK SMILES CC1=CCC(=C(C)C)C(=O)CC(C)=CCC1
REMARK SMILES IDX 12 1 14 2 13 3 15 4 16 5 2 6 1 7 3 8 11 10 9 11 10 12 5 13
REMARK SMILES IDX 6 14 7 15 8 16 4 17
REMARK H PARENT
REMARK Flexibility Score: 60.00
ROOT
ATOM      1  C   UNL     1     108.736  51.494  64.503  1.00  0.00    -0.070 C 
ATOM      2  C   UNL     1     109.136  51.233  63.238  1.00  0.00    -0.027 C 
ATOM      3  C   UNL     1     108.608  52.937  64.920  1.00  0.00     0.039 C 
ENDROOT
BRANCH   2   4
ATOM      4  C   UNL     1     109.416  49.862  62.665  1.00  0.00     0.032 C 
BRANCH   4   5
ATOM      5  C   UNL     1     108.535  49.470  61.461  1.00  0.00     0.034 C 
BRANCH   5   6
ATOM      6  C   UNL     1     108.136  48.005  61.465  1.00  0.00    -0.077 C 
ATOM      7  C   UNL     1     108.780  47.100  60.445  1.00  0.00     0.039 C 
ATOM      8  C   UNL     1     107.190  47.472  62.278  1.00  0.00    -0.023 CG0
ATOM      9  G   UNL     1     106.430  48.180  63.381  1.00  0.00     0.000 G0
ENDBRANCH   5   6
ENDBRANCH   4   5
ENDBRANCH   2   4
BRANCH   1  10
ATOM     10  C   UNL     1     108.504  50.414  65.539  1.00  0.00     0.111 C 
BRANCH  10  11
ATOM     11  C   UNL     1     107.216  49.672  65.290  1.00  0.00     0.163 C 
ATOM     12  O   UNL     1     106.140  50.207  65.671  1.00  0.00    -0.294 OA
BRANCH  11  13
ATOM     13  C   UNL     1     107.181  48.314  64.671  1.00  0.00    -0.002 C 
ATOM     14  C   UNL     1     107.898  47.282  65.209  1.00  0.00    -0.069 C 
ATOM     15  C   UNL     1     108.010  45.940  64.519  1.00  0.00     0.039 C 
ATOM     16  C   UNL     1     108.620  47.433  66.529  1.00  0.00     0.039 C 
BRANCH  13  17
ATOM     17  C   UNL     1     106.398  48.159  63.376  1.00  0.00     0.066 CG0
ATOM     18  G   UNL     1     107.204  47.472  62.293  1.00  0.00     0.000 G0
ENDBRANCH  13  17
ENDBRANCH  11  13
ENDBRANCH  10  11
ENDBRANCH   1  10
TORSDOF 0
ENDMDL
MODEL 7
REMARK VINA RESULT:    -0.901      1.776      4.010
REMARK INTER + INTRA:          -0.542
REMARK INTER:                  -1.975
REMARK INTRA:                   1.433
REMARK UNBOUND:                 0.728
REMARK SMILES CC1=CCC(=C(C)C)C(=O)CC(C)=CCC1
REMARK SMILES IDX 12 1 14 2 13 3 15 4 16 5 2 6 1 7 3 8 11 10 9 11 10 12 5 13
REMARK SMILES IDX 6 14 7 15 8 16 4 17
REMARK H PARENT
REMARK Flexibility Score: 60.00
ROOT
ATOM      1  C   UNL     1     104.716  49.881  53.845  1.00  0.00    -0.070 C 
ATOM      2  C   UNL     1     104.344  48.825  53.086  1.00  0.00    -0.027 C 
ATOM      3  C   UNL     1     106.191  50.149  54.008  1.00  0.00     0.039 C 
ENDROOT
BRANCH   2   4
ATOM      4  C   UNL     1     102.926  48.339  52.883  1.00  0.00     0.032 C 
BRANCH   4   5
ATOM      5  C   UNL     1     102.746  46.809  52.975  1.00  0.00     0.034 C 
BRANCH   5   6
ATOM      6  C   UNL     1     102.008  46.370  54.227  1.00  0.00    -0.077 C 
ATOM      7  C   UNL     1     100.753  45.552  54.050  1.00  0.00     0.039 C 
ATOM      8  C   UNL     1     102.363  46.722  55.488  1.00  0.00    -0.023 CG0
ATOM      9  G   UNL     1     103.584  47.517  55.905  1.00  0.00     0.000 G0
ENDBRANCH   5   6
ENDBRANCH   4   5
ENDBRANCH   2   4
BRANCH   1  10
ATOM     10  C   UNL     1     103.731  50.743  54.607  1.00  0.00     0.111 C 
BRANCH  10  11
ATOM     11  C   UNL     1     102.747  49.908  55.386  1.00  0.00     0.163 C 
ATOM     12  O   UNL     1     101.517  50.107  55.194  1.00  0.00    -0.294 OA
BRANCH  11  13
ATOM     13  C   UNL     1     103.178  48.909  56.409  1.00  0.00    -0.002 C 
ATOM     14  C   UNL     1     103.293  49.262  57.725  1.00  0.00    -0.069 C 
ATOM     15  C   UNL     1     103.876  48.322  58.757  1.00  0.00     0.039 C 
ATOM     16  C   UNL     1     102.840  50.619  58.216  1.00  0.00     0.039 C 
BRANCH  13  17
ATOM     17  C   UNL     1     103.570  47.527  55.910  1.00  0.00     0.066 CG0
ATOM     18  G   UNL     1     102.370  46.707  55.482  1.00  0.00     0.000 G0
ENDBRANCH  13  17
ENDBRANCH  11  13
ENDBRANCH  10  11
ENDBRANCH   1  10
TORSDOF 0
ENDMDL
MODEL 8
REMARK VINA RESULT:    -0.862      1.155      3.625
REMARK INTER + INTRA:          -0.486
REMARK INTER:                  -3.177
REMARK INTRA:                   2.691
REMARK UNBOUND:                 0.728
REMARK SMILES CC1=CCC(=C(C)C)C(=O)CC(C)=CCC1
REMARK SMILES IDX 12 1 14 2 13 3 15 4 16 5 2 6 1 7 3 8 11 10 9 11 10 12 5 13
REMARK SMILES IDX 6 14 7 15 8 16 4 17
REMARK H PARENT
REMARK Flexibility Score: 60.00
ROOT
ATOM      1  C   UNL     1     104.732  50.295  54.018  1.00  0.00    -0.070 C 
ATOM      2  C   UNL     1     103.911  51.277  54.454  1.00  0.00    -0.027 C 
ATOM      3  C   UNL     1     106.142  50.670  53.637  1.00  0.00     0.039 C 
ENDROOT
BRANCH   2   4
ATOM      4  C   UNL     1     102.444  51.119  54.788  1.00  0.00     0.032 C 
BRANCH   4   5
ATOM      5  C   UNL     1     102.105  49.884  55.649  1.00  0.00     0.034 C 
BRANCH   5   6
ATOM      6  C   UNL     1     102.682  49.958  57.052  1.00  0.00    -0.077 C 
ATOM      7  C   UNL     1     102.733  51.310  57.718  1.00  0.00     0.039 C 
ATOM      8  C   UNL     1     103.216  48.903  57.715  1.00  0.00    -0.023 CG0
ATOM      9  G   UNL     1     103.258  47.460  57.254  1.00  0.00     0.000 G0
ENDBRANCH   5   6
ENDBRANCH   4   5
ENDBRANCH   2   4
BRANCH   1  10
ATOM     10  C   UNL     1     104.278  48.865  53.809  1.00  0.00     0.111 C 
BRANCH  10  11
ATOM     11  C   UNL     1     104.462  48.035  55.053  1.00  0.00     0.163 C 
ATOM     12  O   UNL     1     105.632  47.882  55.496  1.00  0.00    -0.294 OA
BRANCH  11  13
ATOM     13  C   UNL     1     103.324  47.347  55.733  1.00  0.00    -0.002 C 
ATOM     14  C   UNL     1     102.347  46.728  55.005  1.00  0.00    -0.069 C 
ATOM     15  C   UNL     1     101.103  46.162  55.655  1.00  0.00     0.039 C 
ATOM     16  C   UNL     1     102.461  46.579  53.504  1.00  0.00     0.039 C 
BRANCH  13  17
ATOM     17  C   UNL     1     103.254  47.450  57.249  1.00  0.00     0.066 CG0
ATOM     18  G   UNL     1     103.228  48.887  57.729  1.00  0.00     0.000 G0
ENDBRANCH  13  17
ENDBRANCH  11  13
ENDBRANCH  10  11
ENDBRANCH   1  10
TORSDOF 0
ENDMDL
MODEL 9
REMARK VINA RESULT:    -0.801      1.344      3.109
REMARK INTER + INTRA:          -0.400
REMARK INTER:                  -1.731
REMARK INTRA:                   1.331
REMARK UNBOUND:                 0.728
REMARK SMILES CC1=CCC(=C(C)C)C(=O)CC(C)=CCC1
REMARK SMILES IDX 12 1 14 2 13 3 15 4 16 5 2 6 1 7 3 8 11 10 9 11 10 12 5 13
REMARK SMILES IDX 6 14 7 15 8 16 4 17
REMARK H PARENT
REMARK Flexibility Score: 60.00
ROOT
ATOM      1  C   UNL     1     103.400  50.740  54.820  1.00  0.00    -0.070 C 
ATOM      2  C   UNL     1     102.750  50.978  55.981  1.00  0.00    -0.027 C 
ATOM      3  C   UNL     1     102.733  51.166  53.537  1.00  0.00     0.039 C 
ENDROOT
BRANCH   2   4
ATOM      4  C   UNL     1     103.207  50.541  57.355  1.00  0.00     0.032 C 
BRANCH   4   5
ATOM      5  C   UNL     1     102.345  49.440  58.006  1.00  0.00     0.034 C 
BRANCH   5   6
ATOM      6  C   UNL     1     103.083  48.123  58.172  1.00  0.00    -0.077 C 
ATOM      7  C   UNL     1     103.836  47.900  59.460  1.00  0.00     0.039 C 
ATOM      8  C   UNL     1     103.167  47.167  57.214  1.00  0.00    -0.023 CG0
ATOM      9  G   UNL     1     102.484  47.167  55.862  1.00  0.00     0.000 G0
ENDBRANCH   5   6
ENDBRANCH   4   5
ENDBRANCH   2   4
BRANCH   1  10
ATOM     10  C   UNL     1     104.714  49.989  54.743  1.00  0.00     0.111 C 
BRANCH  10  11
ATOM     11  C   UNL     1     104.562  48.555  55.181  1.00  0.00     0.163 C 
ATOM     12  O   UNL     1     105.479  48.048  55.881  1.00  0.00    -0.294 OA
BRANCH  11  13
ATOM     13  C   UNL     1     103.403  47.710  54.765  1.00  0.00    -0.002 C 
ATOM     14  C   UNL     1     103.132  47.498  53.442  1.00  0.00    -0.069 C 
ATOM     15  C   UNL     1     101.880  46.781  52.987  1.00  0.00     0.039 C 
ATOM     16  C   UNL     1     104.077  47.974  52.362  1.00  0.00     0.039 C 
BRANCH  13  17
ATOM     17  C   UNL     1     102.496  47.183  55.866  1.00  0.00     0.066 CG0
ATOM     18  G   UNL     1     103.180  47.168  57.219  1.00  0.00     0.000 G0
ENDBRANCH  13  17
ENDBRANCH  11  13
ENDBRANCH  10  11
ENDBRANCH   1  10
TORSDOF 0
ENDMDL
