MODEL 1
REMARK VINA RESULT:    -4.454      0.000      0.000
REMARK INTER + INTRA:         -14.496
REMARK INTER:                 -11.224
REMARK INTRA:                  -3.272
REMARK UNBOUND:                -3.272
REMARK SMILES CCCCCCCCCCCCCCCCCCCCCCCCCCCC(=O)[O-]
REMARK SMILES IDX 15 1 16 2 17 3 18 4 19 5 20 6 21 7 22 8 23 9 24 10 25 11
REMARK SMILES IDX 26 12 27 13 28 14 29 15 30 16 14 17 13 18 12 19 11 20 10 21
REMARK SMILES IDX 9 22 8 23 7 24 6 25 5 26 4 27 3 28 2 29 1 30
REMARK H PARENT
REMARK Flexibility Score: inf
ROOT
ATOM      1  C   UNL     1      19.694  42.831  24.009  1.00  0.00     0.000 C 
ENDROOT
BRANCH   1   2
ATOM      2  C   UNL     1      19.052  43.111  22.634  1.00  0.00     0.000 C 
BRANCH   2   3
ATOM      3  C   UNL     1      20.052  43.114  21.459  1.00  0.00     0.000 C 
BRANCH   3   4
ATOM      4  C   UNL     1      20.753  44.476  21.288  1.00  0.00     0.000 C 
BRANCH   4   5
ATOM      5  C   UNL     1      20.052  45.370  20.254  1.00  0.00     0.000 C 
BRANCH   5   6
ATOM      6  C   UNL     1      19.883  46.818  20.747  1.00  0.00     0.000 C 
BRANCH   6   7
ATOM      7  C   UNL     1      18.411  47.263  20.751  1.00  0.00     0.000 C 
BRANCH   7   8
ATOM      8  C   UNL     1      17.455  46.121  21.139  1.00  0.00     0.000 C 
BRANCH   8   9
ATOM      9  C   UNL     1      16.331  45.909  20.109  1.00  0.00     0.000 C 
BRANCH   9  10
ATOM     10  C   UNL     1      16.024  44.437  19.772  1.00  0.00     0.000 C 
BRANCH  10  11
ATOM     11  C   UNL     1      17.137  43.698  19.003  1.00  0.00     0.000 C 
BRANCH  11  12
ATOM     12  C   UNL     1      17.196  42.179  19.247  1.00  0.00     0.006 C 
BRANCH  12  13
ATOM     13  C   UNL     1      16.425  41.747  20.502  1.00  0.00     0.053 C 
BRANCH  13  14
ATOM     14  C   UNL     1      16.725  40.320  20.840  1.00  0.00     0.041 C 
ATOM     15  O   UNL     1      17.916  39.945  21.010  1.00  0.00    -0.550 OA
ATOM     16  O   UNL     1      15.691  39.397  20.941  1.00  0.00    -0.550 OA
ENDBRANCH  13  14
ENDBRANCH  12  13
ENDBRANCH  11  12
ENDBRANCH  10  11
ENDBRANCH   9  10
ENDBRANCH   8   9
ENDBRANCH   7   8
ENDBRANCH   6   7
ENDBRANCH   5   6
ENDBRANCH   4   5
ENDBRANCH   3   4
ENDBRANCH   2   3
ENDBRANCH   1   2
BRANCH   1  17
ATOM     17  C   UNL     1      20.480  41.512  24.108  1.00  0.00     0.000 C 
BRANCH  17  18
ATOM     18  C   UNL     1      20.830  41.134  25.555  1.00  0.00     0.000 C 
BRANCH  18  19
ATOM     19  C   UNL     1      19.593  41.223  26.459  1.00  0.00     0.000 C 
BRANCH  19  20
ATOM     20  C   UNL     1      18.541  40.150  26.127  1.00  0.00     0.000 C 
BRANCH  20  21
ATOM     21  C   UNL     1      18.842  38.799  26.799  1.00  0.00     0.000 C 
BRANCH  21  22
ATOM     22  C   UNL     1      18.415  38.761  28.274  1.00  0.00    -0.000 C 
BRANCH  22  23
ATOM     23  C   UNL     1      17.161  39.612  28.547  1.00  0.00    -0.000 C 
BRANCH  23  24
ATOM     24  C   UNL     1      16.445  39.212  29.846  1.00  0.00    -0.000 C 
BRANCH  24  25
ATOM     25  C   UNL     1      15.596  40.351  30.429  1.00  0.00    -0.000 C 
BRANCH  25  26
ATOM     26  C   UNL     1      15.477  41.512  29.430  1.00  0.00    -0.000 C 
BRANCH  26  27
ATOM     27  C   UNL     1      14.041  41.719  28.915  1.00  0.00    -0.000 C 
BRANCH  27  28
ATOM     28  C   UNL     1      13.742  41.080  27.547  1.00  0.00    -0.000 C 
BRANCH  28  29
ATOM     29  C   UNL     1      12.760  39.901  27.640  1.00  0.00    -0.003 C 
ATOM     30  C   UNL     1      13.480  38.570  27.439  1.00  0.00     0.004 C 
ENDBRANCH  28  29
ENDBRANCH  27  28
ENDBRANCH  26  27
ENDBRANCH  25  26
ENDBRANCH  24  25
ENDBRANCH  23  24
ENDBRANCH  22  23
ENDBRANCH  21  22
ENDBRANCH  20  21
ENDBRANCH  19  20
ENDBRANCH  18  19
ENDBRANCH  17  18
ENDBRANCH   1  17
TORSDOF 26
ENDMDL
MODEL 2
REMARK VINA RESULT:    -4.431      3.085      4.574
REMARK INTER + INTRA:         -14.439
REMARK INTER:                 -11.257
REMARK INTRA:                  -3.182
REMARK UNBOUND:                -3.272
REMARK SMILES CCCCCCCCCCCCCCCCCCCCCCCCCCCC(=O)[O-]
REMARK SMILES IDX 15 1 16 2 17 3 18 4 19 5 20 6 21 7 22 8 23 9 24 10 25 11
REMARK SMILES IDX 26 12 27 13 28 14 29 15 30 16 14 17 13 18 12 19 11 20 10 21
REMARK SMILES IDX 9 22 8 23 7 24 6 25 5 26 4 27 3 28 2 29 1 30
REMARK H PARENT
REMARK Flexibility Score: inf
ROOT
ATOM      1  C   UNL     1      19.655  42.180  24.964  1.00  0.00     0.000 C 
ENDROOT
BRANCH   1   2
ATOM      2  C   UNL     1      20.603  42.817  23.926  1.00  0.00     0.000 C 
BRANCH   2   3
ATOM      3  C   UNL     1      19.954  43.069  22.549  1.00  0.00     0.000 C 
BRANCH   3   4
ATOM      4  C   UNL     1      20.818  42.542  21.387  1.00  0.00     0.000 C 
BRANCH   4   5
ATOM      5  C   UNL     1      19.970  41.982  20.234  1.00  0.00     0.000 C 
BRANCH   5   6
ATOM      6  C   UNL     1      18.493  41.800  20.624  1.00  0.00     0.000 C 
BRANCH   6   7
ATOM      7  C   UNL     1      17.537  42.269  19.514  1.00  0.00     0.000 C 
BRANCH   7   8
ATOM      8  C   UNL     1      17.672  43.774  19.223  1.00  0.00     0.000 C 
BRANCH   8   9
ATOM      9  C   UNL     1      17.145  44.653  20.371  1.00  0.00     0.000 C 
BRANCH   9  10
ATOM     10  C   UNL     1      17.975  45.919  20.657  1.00  0.00     0.000 C 
BRANCH  10  11
ATOM     11  C   UNL     1      19.479  45.799  20.341  1.00  0.00     0.000 C 
BRANCH  11  12
ATOM     12  C   UNL     1      20.324  47.028  20.722  1.00  0.00     0.006 C 
BRANCH  12  13
ATOM     13  C   UNL     1      19.714  48.347  20.226  1.00  0.00     0.053 C 
BRANCH  13  14
ATOM     14  C   UNL     1      20.132  49.484  21.103  1.00  0.00     0.041 C 
ATOM     15  O   UNL     1      19.768  49.522  22.309  1.00  0.00    -0.550 OA
ATOM     16  O   UNL     1      20.901  50.518  20.584  1.00  0.00    -0.550 OA
ENDBRANCH  13  14
ENDBRANCH  12  13
ENDBRANCH  11  12
ENDBRANCH  10  11
ENDBRANCH   9  10
ENDBRANCH   8   9
ENDBRANCH   7   8
ENDBRANCH   6   7
ENDBRANCH   5   6
ENDBRANCH   4   5
ENDBRANCH   3   4
ENDBRANCH   2   3
ENDBRANCH   1   2
BRANCH   1  17
ATOM     17  C   UNL     1      19.940  40.705  25.292  1.00  0.00     0.000 C 
BRANCH  17  18
ATOM     18  C   UNL     1      19.389  39.740  24.231  1.00  0.00     0.000 C 
BRANCH  18  19
ATOM     19  C   UNL     1      17.959  40.127  23.830  1.00  0.00     0.000 C 
BRANCH  19  20
ATOM     20  C   UNL     1      16.930  39.043  24.193  1.00  0.00     0.000 C 
BRANCH  20  21
ATOM     21  C   UNL     1      16.643  38.983  25.703  1.00  0.00     0.000 C 
BRANCH  21  22
ATOM     22  C   UNL     1      15.365  38.197  26.034  1.00  0.00    -0.000 C 
BRANCH  22  23
ATOM     23  C   UNL     1      15.548  37.254  27.237  1.00  0.00    -0.000 C 
BRANCH  23  24
ATOM     24  C   UNL     1      15.249  37.940  28.579  1.00  0.00    -0.000 C 
BRANCH  24  25
ATOM     25  C   UNL     1      16.511  38.158  29.427  1.00  0.00    -0.000 C 
BRANCH  25  26
ATOM     26  C   UNL     1      16.581  39.602  29.944  1.00  0.00    -0.000 C 
BRANCH  26  27
ATOM     27  C   UNL     1      16.034  40.629  28.936  1.00  0.00    -0.000 C 
BRANCH  27  28
ATOM     28  C   UNL     1      14.560  41.023  29.143  1.00  0.00    -0.000 C 
BRANCH  28  29
ATOM     29  C   UNL     1      13.766  41.084  27.829  1.00  0.00    -0.003 C 
ATOM     30  C   UNL     1      12.522  40.202  27.897  1.00  0.00     0.004 C 
ENDBRANCH  28  29
ENDBRANCH  27  28
ENDBRANCH  26  27
ENDBRANCH  25  26
ENDBRANCH  24  25
ENDBRANCH  23  24
ENDBRANCH  22  23
ENDBRANCH  21  22
ENDBRANCH  20  21
ENDBRANCH  19  20
ENDBRANCH  18  19
ENDBRANCH  17  18
ENDBRANCH   1  17
TORSDOF 26
ENDMDL
MODEL 3
REMARK VINA RESULT:    -4.382      2.988      4.127
REMARK INTER + INTRA:         -14.315
REMARK INTER:                 -11.517
REMARK INTRA:                  -2.799
REMARK UNBOUND:                -3.272
REMARK SMILES CCCCCCCCCCCCCCCCCCCCCCCCCCCC(=O)[O-]
REMARK SMILES IDX 15 1 16 2 17 3 18 4 19 5 20 6 21 7 22 8 23 9 24 10 25 11
REMARK SMILES IDX 26 12 27 13 28 14 29 15 30 16 14 17 13 18 12 19 11 20 10 21
REMARK SMILES IDX 9 22 8 23 7 24 6 25 5 26 4 27 3 28 2 29 1 30
REMARK H PARENT
REMARK Flexibility Score: inf
ROOT
ATOM      1  C   UNL     1      19.625  42.817  23.669  1.00  0.00     0.000 C 
ENDROOT
BRANCH   1   2
ATOM      2  C   UNL     1      21.102  42.985  23.258  1.00  0.00     0.000 C 
BRANCH   2   3
ATOM      3  C   UNL     1      21.393  42.628  21.786  1.00  0.00     0.000 C 
BRANCH   3   4
ATOM      4  C   UNL     1      20.260  43.067  20.839  1.00  0.00     0.000 C 
BRANCH   4   5
ATOM      5  C   UNL     1      20.210  44.592  20.650  1.00  0.00     0.000 C 
BRANCH   5   6
ATOM      6  C   UNL     1      18.828  45.081  20.183  1.00  0.00     0.000 C 
BRANCH   6   7
ATOM      7  C   UNL     1      17.753  43.988  20.302  1.00  0.00     0.000 C 
BRANCH   7   8
ATOM      8  C   UNL     1      16.697  44.082  19.187  1.00  0.00     0.000 C 
BRANCH   8   9
ATOM      9  C   UNL     1      15.455  44.890  19.608  1.00  0.00     0.000 C 
BRANCH   9  10
ATOM     10  C   UNL     1      14.237  44.043  20.023  1.00  0.00     0.000 C 
BRANCH  10  11
ATOM     11  C   UNL     1      12.872  44.743  19.866  1.00  0.00     0.000 C 
BRANCH  11  12
ATOM     12  C   UNL     1      12.945  46.217  19.428  1.00  0.00     0.006 C 
BRANCH  12  13
ATOM     13  C   UNL     1      12.073  46.518  18.201  1.00  0.00     0.053 C 
BRANCH  13  14
ATOM     14  C   UNL     1      12.894  46.490  16.951  1.00  0.00     0.041 C 
ATOM     15  O   UNL     1      13.286  47.566  16.425  1.00  0.00    -0.550 OA
ATOM     16  O   UNL     1      13.206  45.277  16.349  1.00  0.00    -0.550 OA
ENDBRANCH  13  14
ENDBRANCH  12  13
ENDBRANCH  11  12
ENDBRANCH  10  11
ENDBRANCH   9  10
ENDBRANCH   8   9
ENDBRANCH   7   8
ENDBRANCH   6   7
ENDBRANCH   5   6
ENDBRANCH   4   5
ENDBRANCH   3   4
ENDBRANCH   2   3
ENDBRANCH   1   2
BRANCH   1  17
ATOM     17  C   UNL     1      19.212  41.388  24.059  1.00  0.00     0.000 C 
BRANCH  17  18
ATOM     18  C   UNL     1      18.174  40.785  23.101  1.00  0.00     0.000 C 
BRANCH  18  19
ATOM     19  C   UNL     1      17.420  39.627  23.770  1.00  0.00     0.000 C 
BRANCH  19  20
ATOM     20  C   UNL     1      17.925  39.337  25.194  1.00  0.00     0.000 C 
BRANCH  20  21
ATOM     21  C   UNL     1      16.911  38.535  26.028  1.00  0.00     0.000 C 
BRANCH  21  22
ATOM     22  C   UNL     1      15.571  39.266  26.198  1.00  0.00    -0.000 C 
BRANCH  22  23
ATOM     23  C   UNL     1      14.486  38.371  26.821  1.00  0.00    -0.000 C 
BRANCH  23  24
ATOM     24  C   UNL     1      13.321  39.178  27.416  1.00  0.00    -0.000 C 
BRANCH  24  25
ATOM     25  C   UNL     1      13.611  40.686  27.466  1.00  0.00    -0.000 C 
BRANCH  25  26
ATOM     26  C   UNL     1      13.727  41.173  28.918  1.00  0.00    -0.000 C 
BRANCH  26  27
ATOM     27  C   UNL     1      15.039  41.929  29.196  1.00  0.00    -0.000 C 
BRANCH  27  28
ATOM     28  C   UNL     1      16.302  41.049  29.230  1.00  0.00    -0.000 C 
BRANCH  28  29
ATOM     29  C   UNL     1      16.125  39.780  30.078  1.00  0.00    -0.003 C 
ATOM     30  C   UNL     1      17.231  38.768  29.791  1.00  0.00     0.004 C 
ENDBRANCH  28  29
ENDBRANCH  27  28
ENDBRANCH  26  27
ENDBRANCH  25  26
ENDBRANCH  24  25
ENDBRANCH  23  24
ENDBRANCH  22  23
ENDBRANCH  21  22
ENDBRANCH  20  21
ENDBRANCH  19  20
ENDBRANCH  18  19
ENDBRANCH  17  18
ENDBRANCH   1  17
TORSDOF 26
ENDMDL
MODEL 4
REMARK VINA RESULT:    -4.371      1.625      2.412
REMARK INTER + INTRA:         -14.288
REMARK INTER:                 -10.053
REMARK INTRA:                  -4.235
REMARK UNBOUND:                -3.272
REMARK SMILES CCCCCCCCCCCCCCCCCCCCCCCCCCCC(=O)[O-]
REMARK SMILES IDX 15 1 16 2 17 3 18 4 19 5 20 6 21 7 22 8 23 9 24 10 25 11
REMARK SMILES IDX 26 12 27 13 28 14 29 15 30 16 14 17 13 18 12 19 11 20 10 21
REMARK SMILES IDX 9 22 8 23 7 24 6 25 5 26 4 27 3 28 2 29 1 30
REMARK H PARENT
REMARK Flexibility Score: inf
ROOT
ATOM      1  C   UNL     1      19.405  42.831  23.621  1.00  0.00     0.000 C 
ENDROOT
BRANCH   1   2
ATOM      2  C   UNL     1      19.759  41.907  22.438  1.00  0.00     0.000 C 
BRANCH   2   3
ATOM      3  C   UNL     1      20.949  42.397  21.587  1.00  0.00     0.000 C 
BRANCH   3   4
ATOM      4  C   UNL     1      21.063  43.933  21.566  1.00  0.00     0.000 C 
BRANCH   4   5
ATOM      5  C   UNL     1      20.330  44.559  20.369  1.00  0.00     0.000 C 
BRANCH   5   6
ATOM      6  C   UNL     1      19.178  45.482  20.803  1.00  0.00     0.000 C 
BRANCH   6   7
ATOM      7  C   UNL     1      17.813  44.777  20.740  1.00  0.00     0.000 C 
BRANCH   7   8
ATOM      8  C   UNL     1      17.788  43.643  19.700  1.00  0.00     0.000 C 
BRANCH   8   9
ATOM      9  C   UNL     1      16.957  42.431  20.160  1.00  0.00     0.000 C 
BRANCH   9  10
ATOM     10  C   UNL     1      17.363  41.085  19.529  1.00  0.00     0.000 C 
BRANCH  10  11
ATOM     11  C   UNL     1      18.760  41.065  18.877  1.00  0.00     0.000 C 
BRANCH  11  12
ATOM     12  C   UNL     1      19.504  39.721  18.976  1.00  0.00     0.006 C 
BRANCH  12  13
ATOM     13  C   UNL     1      18.792  38.712  19.888  1.00  0.00     0.053 C 
BRANCH  13  14
ATOM     14  C   UNL     1      19.595  38.461  21.125  1.00  0.00     0.041 C 
ATOM     15  O   UNL     1      20.818  38.761  21.159  1.00  0.00    -0.550 OA
ATOM     16  O   UNL     1      19.000  37.869  22.233  1.00  0.00    -0.550 OA
ENDBRANCH  13  14
ENDBRANCH  12  13
ENDBRANCH  11  12
ENDBRANCH  10  11
ENDBRANCH   9  10
ENDBRANCH   8   9
ENDBRANCH   7   8
ENDBRANCH   6   7
ENDBRANCH   5   6
ENDBRANCH   4   5
ENDBRANCH   3   4
ENDBRANCH   2   3
ENDBRANCH   1   2
BRANCH   1  17
ATOM     17  C   UNL     1      19.672  42.241  25.016  1.00  0.00     0.000 C 
BRANCH  17  18
ATOM     18  C   UNL     1      20.284  40.833  24.960  1.00  0.00     0.000 C 
BRANCH  18  19
ATOM     19  C   UNL     1      19.323  39.794  25.555  1.00  0.00     0.000 C 
BRANCH  19  20
ATOM     20  C   UNL     1      18.635  40.292  26.837  1.00  0.00     0.000 C 
BRANCH  20  21
ATOM     21  C   UNL     1      18.440  39.173  27.876  1.00  0.00     0.000 C 
BRANCH  21  22
ATOM     22  C   UNL     1      17.522  39.591  29.034  1.00  0.00    -0.000 C 
BRANCH  22  23
ATOM     23  C   UNL     1      16.776  40.907  28.748  1.00  0.00    -0.000 C 
BRANCH  23  24
ATOM     24  C   UNL     1      15.463  41.027  29.539  1.00  0.00    -0.000 C 
BRANCH  24  25
ATOM     25  C   UNL     1      14.438  41.940  28.849  1.00  0.00    -0.000 C 
BRANCH  25  26
ATOM     26  C   UNL     1      13.675  41.177  27.756  1.00  0.00    -0.000 C 
BRANCH  26  27
ATOM     27  C   UNL     1      13.257  39.760  28.190  1.00  0.00    -0.000 C 
BRANCH  27  28
ATOM     28  C   UNL     1      13.364  38.685  27.092  1.00  0.00    -0.000 C 
BRANCH  28  29
ATOM     29  C   UNL     1      14.775  38.090  26.973  1.00  0.00    -0.003 C 
ATOM     30  C   UNL     1      15.509  38.653  25.759  1.00  0.00     0.004 C 
ENDBRANCH  28  29
ENDBRANCH  27  28
ENDBRANCH  26  27
ENDBRANCH  25  26
ENDBRANCH  24  25
ENDBRANCH  23  24
ENDBRANCH  22  23
ENDBRANCH  21  22
ENDBRANCH  20  21
ENDBRANCH  19  20
ENDBRANCH  18  19
ENDBRANCH  17  18
ENDBRANCH   1  17
TORSDOF 26
ENDMDL
MODEL 5
REMARK VINA RESULT:    -4.364      2.815      8.779
REMARK INTER + INTRA:         -14.270
REMARK INTER:                  -9.666
REMARK INTRA:                  -4.604
REMARK UNBOUND:                -3.272
REMARK SMILES CCCCCCCCCCCCCCCCCCCCCCCCCCCC(=O)[O-]
REMARK SMILES IDX 15 1 16 2 17 3 18 4 19 5 20 6 21 7 22 8 23 9 24 10 25 11
REMARK SMILES IDX 26 12 27 13 28 14 29 15 30 16 14 17 13 18 12 19 11 20 10 21
REMARK SMILES IDX 9 22 8 23 7 24 6 25 5 26 4 27 3 28 2 29 1 30
REMARK H PARENT
REMARK Flexibility Score: inf
ROOT
ATOM      1  C   UNL     1      17.306  39.509  24.539  1.00  0.00     0.000 C 
ENDROOT
BRANCH   1   2
ATOM      2  C   UNL     1      17.416  38.267  25.448  1.00  0.00     0.000 C 
BRANCH   2   3
ATOM      3  C   UNL     1      17.654  38.592  26.937  1.00  0.00     0.000 C 
BRANCH   3   4
ATOM      4  C   UNL     1      18.169  40.029  27.150  1.00  0.00     0.000 C 
BRANCH   4   5
ATOM      5  C   UNL     1      17.724  40.619  28.497  1.00  0.00     0.000 C 
BRANCH   5   6
ATOM      6  C   UNL     1      17.105  39.560  29.426  1.00  0.00     0.000 C 
BRANCH   6   7
ATOM      7  C   UNL     1      15.826  40.067  30.115  1.00  0.00     0.000 C 
BRANCH   7   8
ATOM      8  C   UNL     1      15.092  41.129  29.276  1.00  0.00     0.000 C 
BRANCH   8   9
ATOM      9  C   UNL     1      13.812  40.586  28.616  1.00  0.00     0.000 C 
BRANCH   9  10
ATOM     10  C   UNL     1      14.027  39.858  27.276  1.00  0.00     0.000 C 
BRANCH  10  11
ATOM     11  C   UNL     1      13.544  38.394  27.244  1.00  0.00     0.000 C 
BRANCH  11  12
ATOM     12  C   UNL     1      14.472  37.388  27.949  1.00  0.00     0.006 C 
BRANCH  12  13
ATOM     13  C   UNL     1      14.233  35.940  27.499  1.00  0.00     0.053 C 
BRANCH  13  14
ATOM     14  C   UNL     1      12.914  35.443  28.000  1.00  0.00     0.041 C 
ATOM     15  O   UNL     1      12.800  35.030  29.185  1.00  0.00    -0.550 OA
ATOM     16  O   UNL     1      11.814  35.409  27.151  1.00  0.00    -0.550 OA
ENDBRANCH  13  14
ENDBRANCH  12  13
ENDBRANCH  11  12
ENDBRANCH  10  11
ENDBRANCH   9  10
ENDBRANCH   8   9
ENDBRANCH   7   8
ENDBRANCH   6   7
ENDBRANCH   5   6
ENDBRANCH   4   5
ENDBRANCH   3   4
ENDBRANCH   2   3
ENDBRANCH   1   2
BRANCH   1  17
ATOM     17  C   UNL     1      16.949  39.217  23.072  1.00  0.00     0.000 C 
BRANCH  17  18
ATOM     18  C   UNL     1      17.724  40.099  22.082  1.00  0.00     0.000 C 
BRANCH  18  19
ATOM     19  C   UNL     1      16.770  41.002  21.289  1.00  0.00     0.000 C 
BRANCH  19  20
ATOM     20  C   UNL     1      16.994  40.909  19.770  1.00  0.00     0.000 C 
BRANCH  20  21
ATOM     21  C   UNL     1      18.174  41.774  19.293  1.00  0.00     0.000 C 
BRANCH  21  22
ATOM     22  C   UNL     1      17.944  43.275  19.530  1.00  0.00    -0.000 C 
BRANCH  22  23
ATOM     23  C   UNL     1      19.117  43.941  20.271  1.00  0.00    -0.000 C 
BRANCH  23  24
ATOM     24  C   UNL     1      20.083  42.919  20.891  1.00  0.00    -0.000 C 
BRANCH  24  25
ATOM     25  C   UNL     1      20.469  43.271  22.336  1.00  0.00    -0.000 C 
BRANCH  25  26
ATOM     26  C   UNL     1      19.278  43.068  23.285  1.00  0.00    -0.000 C 
BRANCH  26  27
ATOM     27  C   UNL     1      19.676  42.404  24.616  1.00  0.00    -0.000 C 
BRANCH  27  28
ATOM     28  C   UNL     1      21.012  41.639  24.588  1.00  0.00    -0.000 C 
BRANCH  28  29
ATOM     29  C   UNL     1      20.830  40.123  24.421  1.00  0.00    -0.003 C 
ATOM     30  C   UNL     1      21.274  39.665  23.033  1.00  0.00     0.004 C 
ENDBRANCH  28  29
ENDBRANCH  27  28
ENDBRANCH  26  27
ENDBRANCH  25  26
ENDBRANCH  24  25
ENDBRANCH  23  24
ENDBRANCH  22  23
ENDBRANCH  21  22
ENDBRANCH  20  21
ENDBRANCH  19  20
ENDBRANCH  18  19
ENDBRANCH  17  18
ENDBRANCH   1  17
TORSDOF 26
ENDMDL
MODEL 6
REMARK VINA RESULT:    -4.329      2.866      4.086
REMARK INTER + INTRA:         -14.182
REMARK INTER:                 -10.850
REMARK INTRA:                  -3.332
REMARK UNBOUND:                -3.272
REMARK SMILES CCCCCCCCCCCCCCCCCCCCCCCCCCCC(=O)[O-]
REMARK SMILES IDX 15 1 16 2 17 3 18 4 19 5 20 6 21 7 22 8 23 9 24 10 25 11
REMARK SMILES IDX 26 12 27 13 28 14 29 15 30 16 14 17 13 18 12 19 11 20 10 21
REMARK SMILES IDX 9 22 8 23 7 24 6 25 5 26 4 27 3 28 2 29 1 30
REMARK H PARENT
REMARK Flexibility Score: inf
ROOT
ATOM      1  C   UNL     1      18.890  43.232  22.348  1.00  0.00     0.000 C 
ENDROOT
BRANCH   1   2
ATOM      2  C   UNL     1      19.364  43.365  20.886  1.00  0.00     0.000 C 
BRANCH   2   3
ATOM      3  C   UNL     1      19.991  42.081  20.305  1.00  0.00     0.000 C 
BRANCH   3   4
ATOM      4  C   UNL     1      18.947  40.975  20.058  1.00  0.00     0.000 C 
BRANCH   4   5
ATOM      5  C   UNL     1      17.699  41.499  19.331  1.00  0.00     0.000 C 
BRANCH   5   6
ATOM      6  C   UNL     1      16.411  41.288  20.145  1.00  0.00     0.000 C 
BRANCH   6   7
ATOM      7  C   UNL     1      15.346  42.353  19.835  1.00  0.00     0.000 C 
BRANCH   7   8
ATOM      8  C   UNL     1      15.958  43.643  19.262  1.00  0.00     0.000 C 
BRANCH   8   9
ATOM      9  C   UNL     1      15.960  44.803  20.274  1.00  0.00     0.000 C 
BRANCH   9  10
ATOM     10  C   UNL     1      15.390  46.133  19.744  1.00  0.00     0.000 C 
BRANCH  10  11
ATOM     11  C   UNL     1      13.963  46.046  19.166  1.00  0.00     0.000 C 
BRANCH  11  12
ATOM     12  C   UNL     1      12.854  45.812  20.208  1.00  0.00     0.006 C 
BRANCH  12  13
ATOM     13  C   UNL     1      11.954  44.617  19.861  1.00  0.00     0.053 C 
BRANCH  13  14
ATOM     14  C   UNL     1      10.522  45.042  19.778  1.00  0.00     0.041 C 
ATOM     15  O   UNL     1      10.223  46.266  19.765  1.00  0.00    -0.550 OA
ATOM     16  O   UNL     1       9.513  44.087  19.743  1.00  0.00    -0.550 OA
ENDBRANCH  13  14
ENDBRANCH  12  13
ENDBRANCH  11  12
ENDBRANCH  10  11
ENDBRANCH   9  10
ENDBRANCH   8   9
ENDBRANCH   7   8
ENDBRANCH   6   7
ENDBRANCH   5   6
ENDBRANCH   4   5
ENDBRANCH   3   4
ENDBRANCH   2   3
ENDBRANCH   1   2
BRANCH   1  17
ATOM     17  C   UNL     1      20.002  42.960  23.374  1.00  0.00     0.000 C 
BRANCH  17  18
ATOM     18  C   UNL     1      19.685  41.772  24.296  1.00  0.00     0.000 C 
BRANCH  18  19
ATOM     19  C   UNL     1      18.502  40.958  23.754  1.00  0.00     0.000 C 
BRANCH  19  20
ATOM     20  C   UNL     1      18.862  39.482  23.514  1.00  0.00     0.000 C 
BRANCH  20  21
ATOM     21  C   UNL     1      18.633  38.608  24.760  1.00  0.00     0.000 C 
BRANCH  21  22
ATOM     22  C   UNL     1      17.645  39.238  25.753  1.00  0.00    -0.000 C 
BRANCH  22  23
ATOM     23  C   UNL     1      17.809  38.683  27.180  1.00  0.00    -0.000 C 
BRANCH  23  24
ATOM     24  C   UNL     1      18.462  39.694  28.136  1.00  0.00    -0.000 C 
BRANCH  24  25
ATOM     25  C   UNL     1      17.534  40.869  28.479  1.00  0.00    -0.000 C 
BRANCH  25  26
ATOM     26  C   UNL     1      16.232  40.368  29.122  1.00  0.00    -0.000 C 
BRANCH  26  27
ATOM     27  C   UNL     1      15.123  41.437  29.147  1.00  0.00    -0.000 C 
BRANCH  27  28
ATOM     28  C   UNL     1      13.953  41.183  28.179  1.00  0.00    -0.000 C 
BRANCH  28  29
ATOM     29  C   UNL     1      14.244  40.060  27.171  1.00  0.00    -0.003 C 
ATOM     30  C   UNL     1      13.318  38.867  27.396  1.00  0.00     0.004 C 
ENDBRANCH  28  29
ENDBRANCH  27  28
ENDBRANCH  26  27
ENDBRANCH  25  26
ENDBRANCH  24  25
ENDBRANCH  23  24
ENDBRANCH  22  23
ENDBRANCH  21  22
ENDBRANCH  20  21
ENDBRANCH  19  20
ENDBRANCH  18  19
ENDBRANCH  17  18
ENDBRANCH   1  17
TORSDOF 26
ENDMDL
MODEL 7
REMARK VINA RESULT:    -4.279      2.303      4.395
REMARK INTER + INTRA:         -14.056
REMARK INTER:                 -10.636
REMARK INTRA:                  -3.420
REMARK UNBOUND:                -3.272
REMARK SMILES CCCCCCCCCCCCCCCCCCCCCCCCCCCC(=O)[O-]
REMARK SMILES IDX 15 1 16 2 17 3 18 4 19 5 20 6 21 7 22 8 23 9 24 10 25 11
REMARK SMILES IDX 26 12 27 13 28 14 29 15 30 16 14 17 13 18 12 19 11 20 10 21
REMARK SMILES IDX 9 22 8 23 7 24 6 25 5 26 4 27 3 28 2 29 1 30
REMARK H PARENT
REMARK Flexibility Score: inf
ROOT
ATOM      1  C   UNL     1      19.411  39.223  23.174  1.00  0.00     0.000 C 
ENDROOT
BRANCH   1   2
ATOM      2  C   UNL     1      20.258  39.820  24.316  1.00  0.00     0.000 C 
BRANCH   2   3
ATOM      3  C   UNL     1      21.384  40.763  23.842  1.00  0.00     0.000 C 
BRANCH   3   4
ATOM      4  C   UNL     1      21.114  42.234  24.213  1.00  0.00     0.000 C 
BRANCH   4   5
ATOM      5  C   UNL     1      19.615  42.571  24.223  1.00  0.00     0.000 C 
BRANCH   5   6
ATOM      6  C   UNL     1      19.126  43.114  22.869  1.00  0.00     0.000 C 
BRANCH   6   7
ATOM      7  C   UNL     1      20.279  43.658  22.010  1.00  0.00     0.000 C 
BRANCH   7   8
ATOM      8  C   UNL     1      20.335  42.999  20.620  1.00  0.00     0.000 C 
BRANCH   8   9
ATOM      9  C   UNL     1      19.504  41.705  20.541  1.00  0.00     0.000 C 
BRANCH   9  10
ATOM     10  C   UNL     1      18.592  41.591  19.304  1.00  0.00     0.000 C 
BRANCH  10  11
ATOM     11  C   UNL     1      17.184  42.194  19.475  1.00  0.00     0.000 C 
BRANCH  11  12
ATOM     12  C   UNL     1      16.992  43.586  18.846  1.00  0.00     0.006 C 
BRANCH  12  13
ATOM     13  C   UNL     1      15.573  44.138  19.043  1.00  0.00     0.053 C 
BRANCH  13  14
ATOM     14  C   UNL     1      15.607  45.621  19.240  1.00  0.00     0.041 C 
ATOM     15  O   UNL     1      15.690  46.105  20.400  1.00  0.00    -0.550 OA
ATOM     16  O   UNL     1      15.520  46.471  18.144  1.00  0.00    -0.550 OA
ENDBRANCH  13  14
ENDBRANCH  12  13
ENDBRANCH  11  12
ENDBRANCH  10  11
ENDBRANCH   9  10
ENDBRANCH   8   9
ENDBRANCH   7   8
ENDBRANCH   6   7
ENDBRANCH   5   6
ENDBRANCH   4   5
ENDBRANCH   3   4
ENDBRANCH   2   3
ENDBRANCH   1   2
BRANCH   1  17
ATOM     17  C   UNL     1      17.896  39.185  23.434  1.00  0.00     0.000 C 
BRANCH  17  18
ATOM     18  C   UNL     1      17.549  38.875  24.898  1.00  0.00     0.000 C 
BRANCH  18  19
ATOM     19  C   UNL     1      16.052  38.572  25.054  1.00  0.00     0.000 C 
BRANCH  19  20
ATOM     20  C   UNL     1      15.445  39.227  26.307  1.00  0.00     0.000 C 
BRANCH  20  21
ATOM     21  C   UNL     1      13.998  38.774  26.568  1.00  0.00     0.000 C 
BRANCH  21  22
ATOM     22  C   UNL     1      13.314  39.581  27.682  1.00  0.00    -0.000 C 
BRANCH  22  23
ATOM     23  C   UNL     1      13.606  41.090  27.580  1.00  0.00    -0.000 C 
BRANCH  23  24
ATOM     24  C   UNL     1      14.053  41.698  28.918  1.00  0.00    -0.000 C 
BRANCH  24  25
ATOM     25  C   UNL     1      15.510  41.359  29.265  1.00  0.00    -0.000 C 
BRANCH  25  26
ATOM     26  C   UNL     1      15.576  40.281  30.358  1.00  0.00    -0.000 C 
BRANCH  26  27
ATOM     27  C   UNL     1      16.305  39.005  29.901  1.00  0.00    -0.000 C 
BRANCH  27  28
ATOM     28  C   UNL     1      17.811  39.177  29.632  1.00  0.00    -0.000 C 
BRANCH  28  29
ATOM     29  C   UNL     1      18.309  38.330  28.451  1.00  0.00    -0.003 C 
ATOM     30  C   UNL     1      19.715  38.750  28.027  1.00  0.00     0.004 C 
ENDBRANCH  28  29
ENDBRANCH  27  28
ENDBRANCH  26  27
ENDBRANCH  25  26
ENDBRANCH  24  25
ENDBRANCH  23  24
ENDBRANCH  22  23
ENDBRANCH  21  22
ENDBRANCH  20  21
ENDBRANCH  19  20
ENDBRANCH  18  19
ENDBRANCH  17  18
ENDBRANCH   1  17
TORSDOF 26
ENDMDL
MODEL 8
REMARK VINA RESULT:    -4.227      2.361      6.969
REMARK INTER + INTRA:         -13.925
REMARK INTER:                  -9.488
REMARK INTRA:                  -4.437
REMARK UNBOUND:                -3.272
REMARK SMILES CCCCCCCCCCCCCCCCCCCCCCCCCCCC(=O)[O-]
REMARK SMILES IDX 15 1 16 2 17 3 18 4 19 5 20 6 21 7 22 8 23 9 24 10 25 11
REMARK SMILES IDX 26 12 27 13 28 14 29 15 30 16 14 17 13 18 12 19 11 20 10 21
REMARK SMILES IDX 9 22 8 23 7 24 6 25 5 26 4 27 3 28 2 29 1 30
REMARK H PARENT
REMARK Flexibility Score: inf
ROOT
ATOM      1  C   UNL     1      13.234  38.957  26.996  1.00  0.00     0.000 C 
ENDROOT
BRANCH   1   2
ATOM      2  C   UNL     1      13.261  37.462  27.374  1.00  0.00     0.000 C 
BRANCH   2   3
ATOM      3  C   UNL     1      13.564  36.516  26.193  1.00  0.00     0.000 C 
BRANCH   3   4
ATOM      4  C   UNL     1      13.728  37.273  24.861  1.00  0.00     0.000 C 
BRANCH   4   5
ATOM      5  C   UNL     1      14.620  36.518  23.863  1.00  0.00     0.000 C 
BRANCH   5   6
ATOM      6  C   UNL     1      14.194  36.749  22.403  1.00  0.00     0.000 C 
BRANCH   6   7
ATOM      7  C   UNL     1      15.236  37.561  21.615  1.00  0.00     0.000 C 
BRANCH   7   8
ATOM      8  C   UNL     1      14.595  38.419  20.509  1.00  0.00     0.000 C 
BRANCH   8   9
ATOM      9  C   UNL     1      15.618  38.912  19.470  1.00  0.00     0.000 C 
BRANCH   9  10
ATOM     10  C   UNL     1      16.214  40.305  19.751  1.00  0.00     0.000 C 
BRANCH  10  11
ATOM     11  C   UNL     1      17.713  40.451  19.423  1.00  0.00     0.000 C 
BRANCH  11  12
ATOM     12  C   UNL     1      18.281  41.872  19.595  1.00  0.00     0.006 C 
BRANCH  12  13
ATOM     13  C   UNL     1      17.296  42.964  19.153  1.00  0.00     0.053 C 
BRANCH  13  14
ATOM     14  C   UNL     1      16.981  43.882  20.291  1.00  0.00     0.041 C 
ATOM     15  O   UNL     1      15.784  44.107  20.612  1.00  0.00    -0.550 OA
ATOM     16  O   UNL     1      18.009  44.513  20.982  1.00  0.00    -0.550 OA
ENDBRANCH  13  14
ENDBRANCH  12  13
ENDBRANCH  11  12
ENDBRANCH  10  11
ENDBRANCH   9  10
ENDBRANCH   8   9
ENDBRANCH   7   8
ENDBRANCH   6   7
ENDBRANCH   5   6
ENDBRANCH   4   5
ENDBRANCH   3   4
ENDBRANCH   2   3
ENDBRANCH   1   2
BRANCH   1  17
ATOM     17  C   UNL     1      13.161  39.932  28.183  1.00  0.00     0.000 C 
BRANCH  17  18
ATOM     18  C   UNL     1      14.028  41.184  27.980  1.00  0.00     0.000 C 
BRANCH  18  19
ATOM     19  C   UNL     1      14.859  41.484  29.235  1.00  0.00     0.000 C 
BRANCH  19  20
ATOM     20  C   UNL     1      15.284  40.207  29.982  1.00  0.00     0.000 C 
BRANCH  20  21
ATOM     21  C   UNL     1      16.631  39.654  29.486  1.00  0.00     0.000 C 
BRANCH  21  22
ATOM     22  C   UNL     1      16.534  38.197  29.007  1.00  0.00    -0.000 C 
BRANCH  22  23
ATOM     23  C   UNL     1      16.913  38.038  27.524  1.00  0.00    -0.000 C 
BRANCH  23  24
ATOM     24  C   UNL     1      17.140  39.386  26.823  1.00  0.00    -0.000 C 
BRANCH  24  25
ATOM     25  C   UNL     1      16.467  39.457  25.443  1.00  0.00    -0.000 C 
BRANCH  25  26
ATOM     26  C   UNL     1      17.415  38.953  24.345  1.00  0.00    -0.000 C 
BRANCH  26  27
ATOM     27  C   UNL     1      17.479  39.892  23.127  1.00  0.00    -0.000 C 
BRANCH  27  28
ATOM     28  C   UNL     1      18.406  41.110  23.294  1.00  0.00    -0.000 C 
BRANCH  28  29
ATOM     29  C   UNL     1      19.779  40.741  23.878  1.00  0.00    -0.003 C 
ATOM     30  C   UNL     1      20.653  40.051  22.834  1.00  0.00     0.004 C 
ENDBRANCH  28  29
ENDBRANCH  27  28
ENDBRANCH  26  27
ENDBRANCH  25  26
ENDBRANCH  24  25
ENDBRANCH  23  24
ENDBRANCH  22  23
ENDBRANCH  21  22
ENDBRANCH  20  21
ENDBRANCH  19  20
ENDBRANCH  18  19
ENDBRANCH  17  18
ENDBRANCH   1  17
TORSDOF 26
ENDMDL
MODEL 9
REMARK VINA RESULT:    -4.208      2.030      3.480
REMARK INTER + INTRA:         -13.877
REMARK INTER:                  -9.032
REMARK INTRA:                  -4.845
REMARK UNBOUND:                -3.272
REMARK SMILES CCCCCCCCCCCCCCCCCCCCCCCCCCCC(=O)[O-]
REMARK SMILES IDX 15 1 16 2 17 3 18 4 19 5 20 6 21 7 22 8 23 9 24 10 25 11
REMARK SMILES IDX 26 12 27 13 28 14 29 15 30 16 14 17 13 18 12 19 11 20 10 21
REMARK SMILES IDX 9 22 8 23 7 24 6 25 5 26 4 27 3 28 2 29 1 30
REMARK H PARENT
REMARK Flexibility Score: inf
ROOT
ATOM      1  C   UNL     1      16.794  38.957  23.908  1.00  0.00     0.000 C 
ENDROOT
BRANCH   1   2
ATOM      2  C   UNL     1      17.580  39.913  22.987  1.00  0.00     0.000 C 
BRANCH   2   3
ATOM      3  C   UNL     1      19.040  39.485  22.730  1.00  0.00     0.000 C 
BRANCH   3   4
ATOM      4  C   UNL     1      20.056  40.458  23.358  1.00  0.00     0.000 C 
BRANCH   4   5
ATOM      5  C   UNL     1      19.399  41.756  23.852  1.00  0.00     0.000 C 
BRANCH   5   6
ATOM      6  C   UNL     1      20.023  43.010  23.216  1.00  0.00     0.000 C 
BRANCH   6   7
ATOM      7  C   UNL     1      19.077  43.683  22.207  1.00  0.00     0.000 C 
BRANCH   7   8
ATOM      8  C   UNL     1      19.173  43.053  20.806  1.00  0.00     0.000 C 
BRANCH   8   9
ATOM      9  C   UNL     1      17.819  42.525  20.297  1.00  0.00     0.000 C 
BRANCH   9  10
ATOM     10  C   UNL     1      17.903  41.583  19.080  1.00  0.00     0.000 C 
BRANCH  10  11
ATOM     11  C   UNL     1      19.122  40.640  19.067  1.00  0.00     0.000 C 
BRANCH  11  12
ATOM     12  C   UNL     1      18.782  39.139  19.033  1.00  0.00     0.006 C 
BRANCH  12  13
ATOM     13  C   UNL     1      17.276  38.867  19.151  1.00  0.00     0.053 C 
BRANCH  13  14
ATOM     14  C   UNL     1      17.016  37.747  20.109  1.00  0.00     0.041 C 
ATOM     15  O   UNL     1      15.861  37.571  20.580  1.00  0.00    -0.550 OA
ATOM     16  O   UNL     1      18.055  36.913  20.504  1.00  0.00    -0.550 OA
ENDBRANCH  13  14
ENDBRANCH  12  13
ENDBRANCH  11  12
ENDBRANCH  10  11
ENDBRANCH   9  10
ENDBRANCH   8   9
ENDBRANCH   7   8
ENDBRANCH   6   7
ENDBRANCH   5   6
ENDBRANCH   4   5
ENDBRANCH   3   4
ENDBRANCH   2   3
ENDBRANCH   1   2
BRANCH   1  17
ATOM     17  C   UNL     1      16.536  39.483  25.330  1.00  0.00     0.000 C 
BRANCH  17  18
ATOM     18  C   UNL     1      17.773  39.385  26.235  1.00  0.00     0.000 C 
BRANCH  18  19
ATOM     19  C   UNL     1      18.177  37.921  26.455  1.00  0.00     0.000 C 
BRANCH  19  20
ATOM     20  C   UNL     1      17.233  37.186  27.421  1.00  0.00     0.000 C 
BRANCH  20  21
ATOM     21  C   UNL     1      17.490  37.554  28.893  1.00  0.00     0.000 C 
BRANCH  21  22
ATOM     22  C   UNL     1      16.307  38.295  29.534  1.00  0.00    -0.000 C 
BRANCH  22  23
ATOM     23  C   UNL     1      16.669  39.732  29.952  1.00  0.00    -0.000 C 
BRANCH  23  24
ATOM     24  C   UNL     1      15.890  40.793  29.159  1.00  0.00    -0.000 C 
BRANCH  24  25
ATOM     25  C   UNL     1      14.381  40.509  29.113  1.00  0.00    -0.000 C 
BRANCH  25  26
ATOM     26  C   UNL     1      13.862  40.545  27.667  1.00  0.00    -0.000 C 
BRANCH  26  27
ATOM     27  C   UNL     1      12.941  39.359  27.328  1.00  0.00    -0.000 C 
BRANCH  27  28
ATOM     28  C   UNL     1      13.670  38.072  26.898  1.00  0.00    -0.000 C 
BRANCH  28  29
ATOM     29  C   UNL     1      12.926  36.795  27.317  1.00  0.00    -0.003 C 
ATOM     30  C   UNL     1      13.801  35.916  28.207  1.00  0.00     0.004 C 
ENDBRANCH  28  29
ENDBRANCH  27  28
ENDBRANCH  26  27
ENDBRANCH  25  26
ENDBRANCH  24  25
ENDBRANCH  23  24
ENDBRANCH  22  23
ENDBRANCH  21  22
ENDBRANCH  20  21
ENDBRANCH  19  20
ENDBRANCH  18  19
ENDBRANCH  17  18
ENDBRANCH   1  17
TORSDOF 26
ENDMDL
