MODEL 1
REMARK VINA RESULT:    -3.194      0.000      0.000
REMARK INTER + INTRA:          -3.187
REMARK INTER:                  -3.941
REMARK INTRA:                   0.754
REMARK UNBOUND:                 0.754
REMARK SMILES CC1=CC=CC(C)(C)CC1=O
REMARK SMILES IDX 1 1 2 2 3 3 10 4 11 5 9 6 4 8 5 9 6 10 7 11 8 12
REMARK H PARENT
REMARK Flexibility Score: 80.00
ROOT
ATOM      1  C   UNL     1      10.423  19.104  16.711  1.00  0.00     0.048 C 
ATOM      2  C   UNL     1      11.933  19.061  16.686  1.00  0.00    -0.008 C 
ATOM      3  C   UNL     1      12.587  19.375  17.825  1.00  0.00     0.007 C 
ENDROOT
BRANCH   2   4
ATOM      4  C   UNL     1      12.574  18.600  15.430  1.00  0.00     0.159 C 
ATOM      5  O   UNL     1      11.855  18.077  14.535  1.00  0.00    -0.295 OA
BRANCH   4   6
ATOM      6  C   UNL     1      14.041  18.734  15.154  1.00  0.00     0.091 CG0
ATOM      7  G   UNL     1      14.924  17.995  16.184  1.00  0.00     0.000 G0
ENDBRANCH   4   6
ENDBRANCH   2   4
BRANCH   3   8
ATOM      8  C   UNL     1      14.040  19.397  18.113  1.00  0.00    -0.003 C 
ATOM      9  C   UNL     1      15.041  18.812  17.443  1.00  0.00    -0.020 C 
BRANCH   9  10
ATOM     10  C   UNL     1      14.919  17.990  16.182  1.00  0.00    -0.010 CG0
ATOM     11  C   UNL     1      14.381  16.582  16.519  1.00  0.00     0.016 C 
ATOM     12  C   UNL     1      16.329  17.827  15.570  1.00  0.00     0.016 C 
ATOM     13  G   UNL     1      14.034  18.737  15.158  1.00  0.00     0.000 G0
ENDBRANCH   9  10
ENDBRANCH   3   8
TORSDOF 0
ENDMDL
MODEL 2
REMARK VINA RESULT:    -3.104      1.649      3.482
REMARK INTER + INTRA:          -3.075
REMARK INTER:                  -3.836
REMARK INTRA:                   0.761
REMARK UNBOUND:                 0.754
REMARK SMILES CC1=CC=CC(C)(C)CC1=O
REMARK SMILES IDX 1 1 2 2 3 3 10 4 11 5 9 6 4 8 5 9 6 10 7 11 8 12
REMARK H PARENT
REMARK Flexibility Score: 80.00
ROOT
ATOM      1  C   UNL     1      15.337  18.774  18.131  1.00  0.00     0.048 C 
ATOM      2  C   UNL     1      13.994  18.892  17.450  1.00  0.00    -0.008 C 
ATOM      3  C   UNL     1      13.001  19.507  18.127  1.00  0.00     0.007 C 
ENDROOT
BRANCH   2   4
ATOM      4  C   UNL     1      13.897  18.388  16.058  1.00  0.00     0.159 C 
ATOM      5  O   UNL     1      14.957  18.093  15.442  1.00  0.00    -0.295 OA
BRANCH   4   6
ATOM      6  C   UNL     1      12.597  18.194  15.339  1.00  0.00     0.091 CG0
ATOM      7  G   UNL     1      11.779  19.497  15.196  1.00  0.00     0.000 G0
ENDBRANCH   4   6
ENDBRANCH   2   4
BRANCH   3   8
ATOM      8  C   UNL     1      11.605  19.792  17.719  1.00  0.00    -0.003 C 
ATOM      9  C   UNL     1      11.073  19.809  16.491  1.00  0.00    -0.020 C 
BRANCH   9  10
ATOM     10  C   UNL     1      11.789  19.504  15.196  1.00  0.00    -0.010 CG0
ATOM     11  C   UNL     1      12.670  20.706  14.785  1.00  0.00     0.016 C 
ATOM     12  C   UNL     1      10.729  19.291  14.093  1.00  0.00     0.016 C 
ATOM     13  G   UNL     1      12.598  18.197  15.346  1.00  0.00     0.000 G0
ENDBRANCH   9  10
ENDBRANCH   3   8
TORSDOF 0
ENDMDL
MODEL 3
REMARK VINA RESULT:    -3.095     11.692     13.025
REMARK INTER + INTRA:          -3.064
REMARK INTER:                  -3.806
REMARK INTRA:                   0.742
REMARK UNBOUND:                 0.754
REMARK SMILES CC1=CC=CC(C)(C)CC1=O
REMARK SMILES IDX 1 1 2 2 3 3 10 4 11 5 9 6 4 8 5 9 6 10 7 11 8 12
REMARK H PARENT
REMARK Flexibility Score: 80.00
ROOT
ATOM      1  C   UNL     1       9.811  30.347  15.367  1.00  0.00     0.048 C 
ATOM      2  C   UNL     1       8.500  29.884  15.957  1.00  0.00    -0.008 C 
ATOM      3  C   UNL     1       7.876  30.712  16.822  1.00  0.00     0.007 C 
ENDROOT
BRANCH   2   4
ATOM      4  C   UNL     1       7.964  28.586  15.478  1.00  0.00     0.159 C 
ATOM      5  O   UNL     1       8.504  28.036  14.479  1.00  0.00    -0.295 OA
BRANCH   4   6
ATOM      6  C   UNL     1       6.815  27.877  16.127  1.00  0.00     0.091 CG0
ATOM      7  G   UNL     1       5.511  28.705  16.130  1.00  0.00     0.000 G0
ENDBRANCH   4   6
ENDBRANCH   2   4
BRANCH   3   8
ATOM      8  C   UNL     1       6.586  30.550  17.533  1.00  0.00    -0.003 C 
ATOM      9  C   UNL     1       5.569  29.725  17.256  1.00  0.00    -0.020 C 
BRANCH   9  10
ATOM     10  C   UNL     1       5.510  28.715  16.135  1.00  0.00    -0.010 CG0
ATOM     11  C   UNL     1       5.221  29.429  14.795  1.00  0.00     0.016 C 
ATOM     12  C   UNL     1       4.343  27.742  16.418  1.00  0.00     0.016 C 
ATOM     13  G   UNL     1       6.821  27.897  16.104  1.00  0.00     0.000 G0
ENDBRANCH   9  10
ENDBRANCH   3   8
TORSDOF 0
ENDMDL
MODEL 4
REMARK VINA RESULT:    -3.074      8.601      9.134
REMARK INTER + INTRA:          -3.038
REMARK INTER:                  -3.794
REMARK INTRA:                   0.756
REMARK UNBOUND:                 0.754
REMARK SMILES CC1=CC=CC(C)(C)CC1=O
REMARK SMILES IDX 1 1 2 2 3 3 10 4 11 5 9 6 4 8 5 9 6 10 7 11 8 12
REMARK H PARENT
REMARK Flexibility Score: 80.00
ROOT
ATOM      1  C   UNL     1      12.183  25.063  16.341  1.00  0.00     0.048 C 
ATOM      2  C   UNL     1      13.377  25.937  16.035  1.00  0.00    -0.008 C 
ATOM      3  C   UNL     1      14.601  25.368  16.095  1.00  0.00     0.007 C 
ENDROOT
BRANCH   2   4
ATOM      4  C   UNL     1      13.102  27.334  15.617  1.00  0.00     0.159 C 
ATOM      5  O   UNL     1      11.916  27.666  15.345  1.00  0.00    -0.295 OA
BRANCH   4   6
ATOM      6  C   UNL     1      14.161  28.388  15.512  1.00  0.00     0.091 CG0
ATOM      7  G   UNL     1      15.283  28.028  14.512  1.00  0.00     0.000 G0
ENDBRANCH   4   6
ENDBRANCH   2   4
BRANCH   3   8
ATOM      8  C   UNL     1      15.936  25.952  15.827  1.00  0.00    -0.003 C 
ATOM      9  C   UNL     1      16.249  27.066  15.153  1.00  0.00    -0.020 C 
BRANCH   9  10
ATOM     10  C   UNL     1      15.280  28.031  14.511  1.00  0.00    -0.010 CG0
ATOM     11  C   UNL     1      14.742  27.438  13.189  1.00  0.00     0.016 C 
ATOM     12  C   UNL     1      16.043  29.332  14.174  1.00  0.00     0.016 C 
ATOM     13  G   UNL     1      14.154  28.378  15.511  1.00  0.00     0.000 G0
ENDBRANCH   9  10
ENDBRANCH   3   8
TORSDOF 0
ENDMDL
MODEL 5
REMARK VINA RESULT:    -3.059      8.390      9.290
REMARK INTER + INTRA:          -3.019
REMARK INTER:                  -3.768
REMARK INTRA:                   0.749
REMARK UNBOUND:                 0.754
REMARK SMILES CC1=CC=CC(C)(C)CC1=O
REMARK SMILES IDX 1 1 2 2 3 3 10 4 11 5 9 6 4 8 5 9 6 10 7 11 8 12
REMARK H PARENT
REMARK Flexibility Score: 80.00
ROOT
ATOM      1  C   UNL     1      18.493  25.958  14.703  1.00  0.00     0.048 C 
ATOM      2  C   UNL     1      17.154  26.597  14.986  1.00  0.00    -0.008 C 
ATOM      3  C   UNL     1      17.019  27.914  14.717  1.00  0.00     0.007 C 
ENDROOT
BRANCH   2   4
ATOM      4  C   UNL     1      16.069  25.706  15.466  1.00  0.00     0.159 C 
ATOM      5  O   UNL     1      16.241  24.458  15.419  1.00  0.00    -0.295 OA
BRANCH   4   6
ATOM      6  C   UNL     1      14.772  26.210  16.021  1.00  0.00     0.091 CG0
ATOM      7  G   UNL     1      13.962  27.052  15.010  1.00  0.00     0.000 G0
ENDBRANCH   4   6
ENDBRANCH   2   4
BRANCH   3   8
ATOM      8  C   UNL     1      15.840  28.799  14.862  1.00  0.00    -0.003 C 
ATOM      9  C   UNL     1      14.547  28.469  14.976  1.00  0.00    -0.020 C 
BRANCH   9  10
ATOM     10  C   UNL     1      13.976  27.072  15.011  1.00  0.00    -0.010 CG0
ATOM     11  C   UNL     1      13.948  26.477  13.585  1.00  0.00     0.016 C 
ATOM     12  C   UNL     1      12.519  27.156  15.520  1.00  0.00     0.016 C 
ATOM     13  G   UNL     1      14.784  26.205  16.003  1.00  0.00     0.000 G0
ENDBRANCH   9  10
ENDBRANCH   3   8
TORSDOF 0
ENDMDL
MODEL 6
REMARK VINA RESULT:    -2.881      1.299      3.423
REMARK INTER + INTRA:          -2.801
REMARK INTER:                  -3.561
REMARK INTRA:                   0.760
REMARK UNBOUND:                 0.754
REMARK SMILES CC1=CC=CC(C)(C)CC1=O
REMARK SMILES IDX 1 1 2 2 3 3 10 4 11 5 9 6 4 8 5 9 6 10 7 11 8 12
REMARK H PARENT
REMARK Flexibility Score: 80.00
ROOT
ATOM      1  C   UNL     1      16.675  17.627  15.549  1.00  0.00     0.048 C 
ATOM      2  C   UNL     1      15.360  18.083  16.137  1.00  0.00    -0.008 C 
ATOM      3  C   UNL     1      15.368  18.546  17.405  1.00  0.00     0.007 C 
ENDROOT
BRANCH   2   4
ATOM      4  C   UNL     1      14.176  18.057  15.242  1.00  0.00     0.159 C 
ATOM      5  O   UNL     1      14.347  17.836  14.013  1.00  0.00    -0.295 OA
BRANCH   4   6
ATOM      6  C   UNL     1      12.773  18.266  15.724  1.00  0.00     0.091 CG0
ATOM      7  G   UNL     1      12.564  19.631  16.417  1.00  0.00     0.000 G0
ENDBRANCH   4   6
ENDBRANCH   2   4
BRANCH   3   8
ATOM      8  C   UNL     1      14.259  19.080  18.231  1.00  0.00    -0.003 C 
ATOM      9  C   UNL     1      13.069  19.551  17.840  1.00  0.00    -0.020 C 
BRANCH   9  10
ATOM     10  C   UNL     1      12.552  19.625  16.423  1.00  0.00    -0.010 CG0
ATOM     11  C   UNL     1      13.222  20.802  15.678  1.00  0.00     0.016 C 
ATOM     12  C   UNL     1      11.032  19.897  16.474  1.00  0.00     0.016 C 
ATOM     13  G   UNL     1      12.775  18.269  15.717  1.00  0.00     0.000 G0
ENDBRANCH   9  10
ENDBRANCH   3   8
TORSDOF 0
ENDMDL
MODEL 7
REMARK VINA RESULT:    -2.862      1.636      2.640
REMARK INTER + INTRA:          -2.776
REMARK INTER:                  -3.523
REMARK INTRA:                   0.746
REMARK UNBOUND:                 0.754
REMARK SMILES CC1=CC=CC(C)(C)CC1=O
REMARK SMILES IDX 1 1 2 2 3 3 10 4 11 5 9 6 4 8 5 9 6 10 7 11 8 12
REMARK H PARENT
REMARK Flexibility Score: 80.00
ROOT
ATOM      1  C   UNL     1       9.493  19.306  16.245  1.00  0.00     0.048 C 
ATOM      2  C   UNL     1      10.903  18.779  16.120  1.00  0.00    -0.008 C 
ATOM      3  C   UNL     1      11.228  18.126  14.984  1.00  0.00     0.007 C 
ENDROOT
BRANCH   2   4
ATOM      4  C   UNL     1      11.841  19.091  17.226  1.00  0.00     0.159 C 
ATOM      5  O   UNL     1      11.494  19.931  18.101  1.00  0.00    -0.295 OA
BRANCH   4   6
ATOM      6  C   UNL     1      13.186  18.449  17.374  1.00  0.00     0.091 CG0
ATOM      7  G   UNL     1      14.117  18.698  16.166  1.00  0.00     0.000 G0
ENDBRANCH   4   6
ENDBRANCH   2   4
BRANCH   3   8
ATOM      8  C   UNL     1      12.517  17.528  14.565  1.00  0.00    -0.003 C 
ATOM      9  C   UNL     1      13.748  17.759  15.040  1.00  0.00    -0.020 C 
BRANCH   9  10
ATOM     10  C   UNL     1      14.115  18.695  16.167  1.00  0.00    -0.010 CG0
ATOM     11  C   UNL     1      14.092  20.158  15.668  1.00  0.00     0.016 C 
ATOM     12  C   UNL     1      15.555  18.368  16.620  1.00  0.00     0.016 C 
ATOM     13  G   UNL     1      13.168  18.460  17.366  1.00  0.00     0.000 G0
ENDBRANCH   9  10
ENDBRANCH   3   8
TORSDOF 0
ENDMDL
MODEL 8
REMARK VINA RESULT:    -2.858      3.749      4.783
REMARK INTER + INTRA:          -2.772
REMARK INTER:                  -3.532
REMARK INTRA:                   0.760
REMARK UNBOUND:                 0.754
REMARK SMILES CC1=CC=CC(C)(C)CC1=O
REMARK SMILES IDX 1 1 2 2 3 3 10 4 11 5 9 6 4 8 5 9 6 10 7 11 8 12
REMARK H PARENT
REMARK Flexibility Score: 80.00
ROOT
ATOM      1  C   UNL     1      11.075  12.434  14.265  1.00  0.00     0.048 C 
ATOM      2  C   UNL     1      12.259  13.270  14.690  1.00  0.00    -0.008 C 
ATOM      3  C   UNL     1      13.097  12.746  15.611  1.00  0.00     0.007 C 
ENDROOT
BRANCH   2   4
ATOM      4  C   UNL     1      12.450  14.570  14.000  1.00  0.00     0.159 C 
ATOM      5  O   UNL     1      11.752  14.827  12.982  1.00  0.00    -0.295 OA
BRANCH   4   6
ATOM      6  C   UNL     1      13.425  15.612  14.458  1.00  0.00     0.091 CG0
ATOM      7  G   UNL     1      14.887  15.113  14.476  1.00  0.00     0.000 G0
ENDBRANCH   4   6
ENDBRANCH   2   4
BRANCH   3   8
ATOM      8  C   UNL     1      14.338  13.306  16.196  1.00  0.00    -0.003 C 
ATOM      9  C   UNL     1      15.118  14.290  15.734  1.00  0.00    -0.020 C 
BRANCH   9  10
ATOM     10  C   UNL     1      14.892  15.104  14.482  1.00  0.00    -0.010 CG0
ATOM     11  C   UNL     1      15.267  14.270  13.235  1.00  0.00     0.016 C 
ATOM     12  C   UNL     1      15.825  16.336  14.528  1.00  0.00     0.016 C 
ATOM     13  G   UNL     1      13.432  15.607  14.445  1.00  0.00     0.000 G0
ENDBRANCH   9  10
ENDBRANCH   3   8
TORSDOF 0
ENDMDL
MODEL 9
REMARK VINA RESULT:    -2.808      1.994      3.366
REMARK INTER + INTRA:          -2.710
REMARK INTER:                  -3.468
REMARK INTRA:                   0.758
REMARK UNBOUND:                 0.754
REMARK SMILES CC1=CC=CC(C)(C)CC1=O
REMARK SMILES IDX 1 1 2 2 3 3 10 4 11 5 9 6 4 8 5 9 6 10 7 11 8 12
REMARK H PARENT
REMARK Flexibility Score: 80.00
ROOT
ATOM      1  C   UNL     1      15.500  18.821  18.362  1.00  0.00     0.048 C 
ATOM      2  C   UNL     1      15.360  18.149  17.016  1.00  0.00    -0.008 C 
ATOM      3  C   UNL     1      16.493  17.819  16.360  1.00  0.00     0.007 C 
ENDROOT
BRANCH   2   4
ATOM      4  C   UNL     1      13.983  17.836  16.559  1.00  0.00     0.159 C 
ATOM      5  O   UNL     1      13.026  17.973  17.369  1.00  0.00    -0.295 OA
BRANCH   4   6
ATOM      6  C   UNL     1      13.660  17.374  15.170  1.00  0.00     0.091 CG0
ATOM      7  G   UNL     1      14.385  16.067  14.778  1.00  0.00     0.000 G0
ENDBRANCH   4   6
ENDBRANCH   2   4
BRANCH   3   8
ATOM      8  C   UNL     1      16.674  17.139  15.056  1.00  0.00    -0.003 C 
ATOM      9  C   UNL     1      15.805  16.386  14.370  1.00  0.00    -0.020 C 
BRANCH   9  10
ATOM     10  C   UNL     1      14.383  16.067  14.767  1.00  0.00    -0.010 CG0
ATOM     11  C   UNL     1      14.373  14.998  15.882  1.00  0.00     0.016 C 
ATOM     12  C   UNL     1      13.656  15.480  13.536  1.00  0.00     0.016 C 
ATOM     13  G   UNL     1      13.656  17.366  15.181  1.00  0.00     0.000 G0
ENDBRANCH   9  10
ENDBRANCH   3   8
TORSDOF 0
ENDMDL
