MODEL 1
REMARK VINA RESULT:    -4.104      0.000      0.000
REMARK INTER + INTRA:          -9.948
REMARK INTER:                  -7.702
REMARK INTRA:                  -2.246
REMARK UNBOUND:                -2.246
REMARK SMILES O=C([O-])CCCCCCCCCCCCCCC(=O)[O-]
REMARK SMILES IDX 10 1 9 2 8 3 7 4 6 5 5 6 4 7 2 8 1 9 3 10 11 11 12 12 13 13
REMARK SMILES IDX 14 14 15 15 16 16 17 17 18 18 19 19 20 20
REMARK H PARENT
REMARK Flexibility Score: inf
ROOT
ATOM      1  C   UNL     1     162.854 162.936 183.446  1.00  0.00     0.000 C 
ENDROOT
BRANCH   1   2
ATOM      2  C   UNL     1     163.760 162.211 182.436  1.00  0.00     0.000 C 
BRANCH   2   3
ATOM      3  C   UNL     1     164.056 160.760 182.846  1.00  0.00     0.000 C 
BRANCH   3   4
ATOM      4  C   UNL     1     165.276 160.177 182.112  1.00  0.00     0.000 C 
BRANCH   4   5
ATOM      5  C   UNL     1     166.531 161.060 182.238  1.00  0.00     0.000 C 
BRANCH   5   6
ATOM      6  C   UNL     1     167.490 160.661 183.374  1.00  0.00     0.006 C 
BRANCH   6   7
ATOM      7  C   UNL     1     167.182 161.375 184.697  1.00  0.00     0.053 C 
BRANCH   7   8
ATOM      8  C   UNL     1     167.216 162.859 184.510  1.00  0.00     0.041 C 
ATOM      9  O   UNL     1     166.178 163.547 184.699  1.00  0.00    -0.550 OA
ATOM     10  O   UNL     1     168.382 163.478 184.075  1.00  0.00    -0.550 OA
ENDBRANCH   7   8
ENDBRANCH   6   7
ENDBRANCH   5   6
ENDBRANCH   4   5
ENDBRANCH   3   4
ENDBRANCH   2   3
ENDBRANCH   1   2
BRANCH   1  11
ATOM     11  C   UNL     1     161.375 162.927 183.028  1.00  0.00     0.000 C 
BRANCH  11  12
ATOM     12  C   UNL     1     160.582 161.783 183.685  1.00  0.00     0.000 C 
BRANCH  12  13
ATOM     13  C   UNL     1     160.211 160.677 182.680  1.00  0.00     0.000 C 
BRANCH  13  14
ATOM     14  C   UNL     1     160.217 161.150 181.213  1.00  0.00     0.000 C 
BRANCH  14  15
ATOM     15  C   UNL     1     161.181 160.330 180.340  1.00  0.00     0.000 C 
BRANCH  15  16
ATOM     16  C   UNL     1     162.025 161.201 179.392  1.00  0.00     0.006 C 
BRANCH  16  17
ATOM     17  C   UNL     1     163.327 160.529 178.918  1.00  0.00     0.053 C 
BRANCH  17  18
ATOM     18  C   UNL     1     164.345 161.517 178.436  1.00  0.00     0.041 C 
ATOM     19  O   UNL     1     164.476 162.629 179.014  1.00  0.00    -0.550 OA
ATOM     20  O   UNL     1     165.124 161.227 177.323  1.00  0.00    -0.550 OA
ENDBRANCH  17  18
ENDBRANCH  16  17
ENDBRANCH  15  16
ENDBRANCH  14  15
ENDBRANCH  13  14
ENDBRANCH  12  13
ENDBRANCH  11  12
ENDBRANCH   1  11
TORSDOF 15
ENDMDL
MODEL 2
REMARK VINA RESULT:    -4.012      2.523      4.049
REMARK INTER + INTRA:          -9.776
REMARK INTER:                  -7.631
REMARK INTRA:                  -2.145
REMARK UNBOUND:                -2.246
REMARK SMILES O=C([O-])CCCCCCCCCCCCCCC(=O)[O-]
REMARK SMILES IDX 10 1 9 2 8 3 7 4 6 5 5 6 4 7 2 8 1 9 3 10 11 11 12 12 13 13
REMARK SMILES IDX 14 14 15 15 16 16 17 17 18 18 19 19 20 20
REMARK H PARENT
REMARK Flexibility Score: inf
ROOT
ATOM      1  C   UNL     1     160.658 161.753 179.455  1.00  0.00     0.000 C 
ENDROOT
BRANCH   1   2
ATOM      2  C   UNL     1     162.131 162.155 179.265  1.00  0.00     0.000 C 
BRANCH   2   3
ATOM      3  C   UNL     1     163.105 161.058 179.722  1.00  0.00     0.000 C 
BRANCH   3   4
ATOM      4  C   UNL     1     164.228 161.604 180.622  1.00  0.00     0.000 C 
BRANCH   4   5
ATOM      5  C   UNL     1     164.767 160.555 181.611  1.00  0.00     0.000 C 
BRANCH   5   6
ATOM      6  C   UNL     1     164.716 160.977 183.091  1.00  0.00     0.006 C 
BRANCH   6   7
ATOM      7  C   UNL     1     165.734 162.070 183.438  1.00  0.00     0.053 C 
BRANCH   7   8
ATOM      8  C   UNL     1     167.045 161.461 183.823  1.00  0.00     0.041 C 
ATOM      9  O   UNL     1     168.125 162.003 183.470  1.00  0.00    -0.550 OA
ATOM     10  O   UNL     1     167.074 160.263 184.528  1.00  0.00    -0.550 OA
ENDBRANCH   7   8
ENDBRANCH   6   7
ENDBRANCH   5   6
ENDBRANCH   4   5
ENDBRANCH   3   4
ENDBRANCH   2   3
ENDBRANCH   1   2
BRANCH   1  11
ATOM     11  C   UNL     1     160.498 160.447 180.247  1.00  0.00     0.000 C 
BRANCH  11  12
ATOM     12  C   UNL     1     159.935 160.678 181.662  1.00  0.00     0.000 C 
BRANCH  12  13
ATOM     13  C   UNL     1     161.047 160.782 182.722  1.00  0.00     0.000 C 
BRANCH  13  14
ATOM     14  C   UNL     1     160.919 162.020 183.630  1.00  0.00     0.000 C 
BRANCH  14  15
ATOM     15  C   UNL     1     161.660 163.241 183.059  1.00  0.00     0.000 C 
BRANCH  15  16
ATOM     16  C   UNL     1     160.754 164.153 182.211  1.00  0.00     0.006 C 
BRANCH  16  17
ATOM     17  C   UNL     1     161.220 165.619 182.154  1.00  0.00     0.053 C 
BRANCH  17  18
ATOM     18  C   UNL     1     160.678 166.351 180.964  1.00  0.00     0.041 C 
ATOM     19  O   UNL     1     159.880 167.314 181.119  1.00  0.00    -0.550 OA
ATOM     20  O   UNL     1     161.024 165.947 179.682  1.00  0.00    -0.550 OA
ENDBRANCH  17  18
ENDBRANCH  16  17
ENDBRANCH  15  16
ENDBRANCH  14  15
ENDBRANCH  13  14
ENDBRANCH  12  13
ENDBRANCH  11  12
ENDBRANCH   1  11
TORSDOF 15
ENDMDL
MODEL 3
REMARK VINA RESULT:    -3.992      1.461      1.931
REMARK INTER + INTRA:          -9.739
REMARK INTER:                  -7.442
REMARK INTRA:                  -2.297
REMARK UNBOUND:                -2.246
REMARK SMILES O=C([O-])CCCCCCCCCCCCCCC(=O)[O-]
REMARK SMILES IDX 10 1 9 2 8 3 7 4 6 5 5 6 4 7 2 8 1 9 3 10 11 11 12 12 13 13
REMARK SMILES IDX 14 14 15 15 16 16 17 17 18 18 19 19 20 20
REMARK H PARENT
REMARK Flexibility Score: inf
ROOT
ATOM      1  C   UNL     1     162.971 162.983 183.247  1.00  0.00     0.000 C 
ENDROOT
BRANCH   1   2
ATOM      2  C   UNL     1     163.744 162.905 181.918  1.00  0.00     0.000 C 
BRANCH   2   3
ATOM      3  C   UNL     1     164.385 161.528 181.691  1.00  0.00     0.000 C 
BRANCH   3   4
ATOM      4  C   UNL     1     164.500 160.709 182.989  1.00  0.00     0.000 C 
BRANCH   4   5
ATOM      5  C   UNL     1     165.898 160.096 183.190  1.00  0.00     0.000 C 
BRANCH   5   6
ATOM      6  C   UNL     1     166.781 160.824 184.220  1.00  0.00     0.006 C 
BRANCH   6   7
ATOM      7  C   UNL     1     167.538 162.017 183.622  1.00  0.00     0.053 C 
BRANCH   7   8
ATOM      8  C   UNL     1     167.236 163.265 184.390  1.00  0.00     0.041 C 
ATOM      9  O   UNL     1     166.066 163.493 184.796  1.00  0.00    -0.550 OA
ATOM     10  O   UNL     1     168.237 164.203 184.613  1.00  0.00    -0.550 OA
ENDBRANCH   7   8
ENDBRANCH   6   7
ENDBRANCH   5   6
ENDBRANCH   4   5
ENDBRANCH   3   4
ENDBRANCH   2   3
ENDBRANCH   1   2
BRANCH   1  11
ATOM     11  C   UNL     1     161.448 162.949 183.051  1.00  0.00     0.000 C 
BRANCH  11  12
ATOM     12  C   UNL     1     160.787 161.755 183.763  1.00  0.00     0.000 C 
BRANCH  12  13
ATOM     13  C   UNL     1     160.385 160.639 182.780  1.00  0.00     0.000 C 
BRANCH  13  14
ATOM     14  C   UNL     1     160.116 161.144 181.350  1.00  0.00     0.000 C 
BRANCH  14  15
ATOM     15  C   UNL     1     161.110 160.561 180.330  1.00  0.00     0.000 C 
BRANCH  15  16
ATOM     16  C   UNL     1     161.249 161.424 179.063  1.00  0.00     0.006 C 
BRANCH  16  17
ATOM     17  C   UNL     1     160.690 162.851 179.214  1.00  0.00     0.053 C 
BRANCH  17  18
ATOM     18  C   UNL     1     161.752 163.902 179.098  1.00  0.00     0.041 C 
ATOM     19  O   UNL     1     162.656 163.800 178.226  1.00  0.00    -0.550 OA
ATOM     20  O   UNL     1     161.766 164.976 179.977  1.00  0.00    -0.550 OA
ENDBRANCH  17  18
ENDBRANCH  16  17
ENDBRANCH  15  16
ENDBRANCH  14  15
ENDBRANCH  13  14
ENDBRANCH  12  13
ENDBRANCH  11  12
ENDBRANCH   1  11
TORSDOF 15
ENDMDL
MODEL 4
REMARK VINA RESULT:    -3.985      3.280      5.654
REMARK INTER + INTRA:          -9.725
REMARK INTER:                  -7.366
REMARK INTRA:                  -2.359
REMARK UNBOUND:                -2.246
REMARK SMILES O=C([O-])CCCCCCCCCCCCCCC(=O)[O-]
REMARK SMILES IDX 10 1 9 2 8 3 7 4 6 5 5 6 4 7 2 8 1 9 3 10 11 11 12 12 13 13
REMARK SMILES IDX 14 14 15 15 16 16 17 17 18 18 19 19 20 20
REMARK H PARENT
REMARK Flexibility Score: inf
ROOT
ATOM      1  C   UNL     1     161.899 161.278 179.158  1.00  0.00     0.000 C 
ENDROOT
BRANCH   1   2
ATOM      2  C   UNL     1     160.728 162.124 178.629  1.00  0.00     0.000 C 
BRANCH   2   3
ATOM      3  C   UNL     1     160.832 163.599 179.047  1.00  0.00     0.000 C 
BRANCH   3   4
ATOM      4  C   UNL     1     162.237 163.970 179.554  1.00  0.00     0.000 C 
BRANCH   4   5
ATOM      5  C   UNL     1     162.206 164.946 180.744  1.00  0.00     0.000 C 
BRANCH   5   6
ATOM      6  C   UNL     1     160.970 165.862 180.797  1.00  0.00     0.006 C 
BRANCH   6   7
ATOM      7  C   UNL     1     160.518 166.176 182.229  1.00  0.00     0.053 C 
BRANCH   7   8
ATOM      8  C   UNL     1     160.611 167.644 182.497  1.00  0.00     0.041 C 
ATOM      9  O   UNL     1     160.253 168.110 183.610  1.00  0.00    -0.550 OA
ATOM     10  O   UNL     1     161.044 168.507 181.496  1.00  0.00    -0.550 OA
ENDBRANCH   7   8
ENDBRANCH   6   7
ENDBRANCH   5   6
ENDBRANCH   4   5
ENDBRANCH   3   4
ENDBRANCH   2   3
ENDBRANCH   1   2
BRANCH   1  11
ATOM     11  C   UNL     1     161.449 160.199 180.154  1.00  0.00     0.000 C 
BRANCH  11  12
ATOM     12  C   UNL     1     160.009 160.418 180.653  1.00  0.00     0.000 C 
BRANCH  12  13
ATOM     13  C   UNL     1     159.959 160.785 182.148  1.00  0.00     0.000 C 
BRANCH  13  14
ATOM     14  C   UNL     1     160.436 162.219 182.448  1.00  0.00     0.000 C 
BRANCH  14  15
ATOM     15  C   UNL     1     161.583 162.248 183.473  1.00  0.00     0.000 C 
BRANCH  15  16
ATOM     16  C   UNL     1     162.964 162.001 182.840  1.00  0.00     0.006 C 
BRANCH  16  17
ATOM     17  C   UNL     1     163.544 160.605 183.131  1.00  0.00     0.053 C 
BRANCH  17  18
ATOM     18  C   UNL     1     164.845 160.363 182.428  1.00  0.00     0.041 C 
ATOM     19  O   UNL     1     165.929 160.375 183.071  1.00  0.00    -0.550 OA
ATOM     20  O   UNL     1     164.866 160.160 181.054  1.00  0.00    -0.550 OA
ENDBRANCH  17  18
ENDBRANCH  16  17
ENDBRANCH  15  16
ENDBRANCH  14  15
ENDBRANCH  13  14
ENDBRANCH  12  13
ENDBRANCH  11  12
ENDBRANCH   1  11
TORSDOF 15
ENDMDL
MODEL 5
REMARK VINA RESULT:    -3.968      0.953      6.029
REMARK INTER + INTRA:          -9.694
REMARK INTER:                  -7.815
REMARK INTRA:                  -1.879
REMARK UNBOUND:                -2.246
REMARK SMILES O=C([O-])CCCCCCCCCCCCCCC(=O)[O-]
REMARK SMILES IDX 10 1 9 2 8 3 7 4 6 5 5 6 4 7 2 8 1 9 3 10 11 11 12 12 13 13
REMARK SMILES IDX 14 14 15 15 16 16 17 17 18 18 19 19 20 20
REMARK H PARENT
REMARK Flexibility Score: inf
ROOT
ATOM      1  C   UNL     1     162.345 162.957 182.711  1.00  0.00     0.000 C 
ENDROOT
BRANCH   1   2
ATOM      2  C   UNL     1     161.351 162.323 183.701  1.00  0.00     0.000 C 
BRANCH   2   3
ATOM      3  C   UNL     1     160.219 161.563 182.993  1.00  0.00     0.000 C 
BRANCH   3   4
ATOM      4  C   UNL     1     160.196 161.821 181.475  1.00  0.00     0.000 C 
BRANCH   4   5
ATOM      5  C   UNL     1     160.280 160.526 180.647  1.00  0.00     0.000 C 
BRANCH   5   6
ATOM      6  C   UNL     1     161.659 160.249 180.019  1.00  0.00     0.006 C 
BRANCH   6   7
ATOM      7  C   UNL     1     162.245 161.471 179.300  1.00  0.00     0.053 C 
BRANCH   7   8
ATOM      8  C   UNL     1     163.641 161.188 178.843  1.00  0.00     0.041 C 
ATOM      9  O   UNL     1     164.447 162.134 178.642  1.00  0.00    -0.550 OA
ATOM     10  O   UNL     1     164.037 159.880 178.588  1.00  0.00    -0.550 OA
ENDBRANCH   7   8
ENDBRANCH   6   7
ENDBRANCH   5   6
ENDBRANCH   4   5
ENDBRANCH   3   4
ENDBRANCH   2   3
ENDBRANCH   1   2
BRANCH   1  11
ATOM     11  C   UNL     1     163.795 162.520 182.966  1.00  0.00     0.000 C 
BRANCH  11  12
ATOM     12  C   UNL     1     163.926 161.002 183.185  1.00  0.00     0.000 C 
BRANCH  12  13
ATOM     13  C   UNL     1     164.685 160.310 182.037  1.00  0.00     0.000 C 
BRANCH  13  14
ATOM     14  C   UNL     1     166.208 160.234 182.262  1.00  0.00     0.000 C 
BRANCH  14  15
ATOM     15  C   UNL     1     166.586 160.398 183.744  1.00  0.00     0.000 C 
BRANCH  15  16
ATOM     16  C   UNL     1     167.634 161.502 183.980  1.00  0.00     0.006 C 
BRANCH  16  17
ATOM     17  C   UNL     1     167.171 162.607 184.947  1.00  0.00     0.053 C 
BRANCH  17  18
ATOM     18  C   UNL     1     167.416 163.984 184.410  1.00  0.00     0.041 C 
ATOM     19  O   UNL     1     168.530 164.546 184.584  1.00  0.00    -0.550 OA
ATOM     20  O   UNL     1     166.401 164.664 183.750  1.00  0.00    -0.550 OA
ENDBRANCH  17  18
ENDBRANCH  16  17
ENDBRANCH  15  16
ENDBRANCH  14  15
ENDBRANCH  13  14
ENDBRANCH  12  13
ENDBRANCH  11  12
ENDBRANCH   1  11
TORSDOF 15
ENDMDL
MODEL 6
REMARK VINA RESULT:    -3.874      1.199      2.038
REMARK INTER + INTRA:          -9.517
REMARK INTER:                  -7.627
REMARK INTRA:                  -1.891
REMARK UNBOUND:                -2.246
REMARK SMILES O=C([O-])CCCCCCCCCCCCCCC(=O)[O-]
REMARK SMILES IDX 10 1 9 2 8 3 7 4 6 5 5 6 4 7 2 8 1 9 3 10 11 11 12 12 13 13
REMARK SMILES IDX 14 14 15 15 16 16 17 17 18 18 19 19 20 20
REMARK H PARENT
REMARK Flexibility Score: inf
ROOT
ATOM      1  C   UNL     1     164.124 162.174 182.359  1.00  0.00     0.000 C 
ENDROOT
BRANCH   1   2
ATOM      2  C   UNL     1     164.090 160.644 182.518  1.00  0.00     0.000 C 
BRANCH   2   3
ATOM      3  C   UNL     1     165.496 160.030 182.601  1.00  0.00     0.000 C 
BRANCH   3   4
ATOM      4  C   UNL     1     165.987 159.876 184.051  1.00  0.00     0.000 C 
BRANCH   4   5
ATOM      5  C   UNL     1     167.274 160.672 184.335  1.00  0.00     0.000 C 
BRANCH   5   6
ATOM      6  C   UNL     1     167.090 162.200 184.389  1.00  0.00     0.006 C 
BRANCH   6   7
ATOM      7  C   UNL     1     168.126 162.957 183.548  1.00  0.00     0.053 C 
BRANCH   7   8
ATOM      8  C   UNL     1     167.601 164.304 183.161  1.00  0.00     0.041 C 
ATOM      9  O   UNL     1     167.900 164.805 182.045  1.00  0.00    -0.550 OA
ATOM     10  O   UNL     1     166.823 165.029 184.055  1.00  0.00    -0.550 OA
ENDBRANCH   7   8
ENDBRANCH   6   7
ENDBRANCH   5   6
ENDBRANCH   4   5
ENDBRANCH   3   4
ENDBRANCH   2   3
ENDBRANCH   1   2
BRANCH   1  11
ATOM     11  C   UNL     1     163.292 162.899 183.428  1.00  0.00     0.000 C 
BRANCH  11  12
ATOM     12  C   UNL     1     161.823 163.088 183.006  1.00  0.00     0.000 C 
BRANCH  12  13
ATOM     13  C   UNL     1     160.886 162.070 183.681  1.00  0.00     0.000 C 
BRANCH  13  14
ATOM     14  C   UNL     1     160.317 161.017 182.710  1.00  0.00     0.000 C 
BRANCH  14  15
ATOM     15  C   UNL     1     160.276 161.525 181.259  1.00  0.00     0.000 C 
BRANCH  15  16
ATOM     16  C   UNL     1     161.014 160.599 180.275  1.00  0.00     0.006 C 
BRANCH  16  17
ATOM     17  C   UNL     1     161.565 161.320 179.031  1.00  0.00     0.053 C 
BRANCH  17  18
ATOM     18  C   UNL     1     163.059 161.249 178.937  1.00  0.00     0.041 C 
ATOM     19  O   UNL     1     163.652 160.144 179.049  1.00  0.00    -0.550 OA
ATOM     20  O   UNL     1     163.800 162.411 178.762  1.00  0.00    -0.550 OA
ENDBRANCH  17  18
ENDBRANCH  16  17
ENDBRANCH  15  16
ENDBRANCH  14  15
ENDBRANCH  13  14
ENDBRANCH  12  13
ENDBRANCH  11  12
ENDBRANCH   1  11
TORSDOF 15
ENDMDL
MODEL 7
REMARK VINA RESULT:    -3.814      3.304      4.224
REMARK INTER + INTRA:          -9.404
REMARK INTER:                  -7.031
REMARK INTRA:                  -2.373
REMARK UNBOUND:                -2.246
REMARK SMILES O=C([O-])CCCCCCCCCCCCCCC(=O)[O-]
REMARK SMILES IDX 10 1 9 2 8 3 7 4 6 5 5 6 4 7 2 8 1 9 3 10 11 11 12 12 13 13
REMARK SMILES IDX 14 14 15 15 16 16 17 17 18 18 19 19 20 20
REMARK H PARENT
REMARK Flexibility Score: inf
ROOT
ATOM      1  C   UNL     1     163.375 162.279 183.042  1.00  0.00     0.000 C 
ENDROOT
BRANCH   1   2
ATOM      2  C   UNL     1     163.479 160.746 183.118  1.00  0.00     0.000 C 
BRANCH   2   3
ATOM      3  C   UNL     1     164.738 160.206 182.423  1.00  0.00     0.000 C 
BRANCH   3   4
ATOM      4  C   UNL     1     165.316 161.198 181.398  1.00  0.00     0.000 C 
BRANCH   4   5
ATOM      5  C   UNL     1     166.338 160.549 180.446  1.00  0.00     0.000 C 
BRANCH   5   6
ATOM      6  C   UNL     1     165.804 160.248 179.034  1.00  0.00     0.006 C 
BRANCH   6   7
ATOM      7  C   UNL     1     165.596 161.512 178.190  1.00  0.00     0.053 C 
BRANCH   7   8
ATOM      8  C   UNL     1     165.133 161.152 176.814  1.00  0.00     0.041 C 
ATOM      9  O   UNL     1     165.422 161.888 175.835  1.00  0.00    -0.550 OA
ATOM     10  O   UNL     1     164.338 160.028 176.621  1.00  0.00    -0.550 OA
ENDBRANCH   7   8
ENDBRANCH   6   7
ENDBRANCH   5   6
ENDBRANCH   4   5
ENDBRANCH   3   4
ENDBRANCH   2   3
ENDBRANCH   1   2
BRANCH   1  11
ATOM     11  C   UNL     1     161.926 162.769 182.903  1.00  0.00     0.000 C 
BRANCH  11  12
ATOM     12  C   UNL     1     160.927 161.889 183.677  1.00  0.00     0.000 C 
BRANCH  12  13
ATOM     13  C   UNL     1     160.025 161.067 182.738  1.00  0.00     0.000 C 
BRANCH  13  14
ATOM     14  C   UNL     1     160.223 161.397 181.246  1.00  0.00     0.000 C 
BRANCH  14  15
ATOM     15  C   UNL     1     160.887 160.242 180.477  1.00  0.00     0.000 C 
BRANCH  15  16
ATOM     16  C   UNL     1     162.066 160.701 179.602  1.00  0.00     0.006 C 
BRANCH  16  17
ATOM     17  C   UNL     1     162.005 162.186 179.198  1.00  0.00     0.053 C 
BRANCH  17  18
ATOM     18  C   UNL     1     161.365 162.395 177.860  1.00  0.00     0.041 C 
ATOM     19  O   UNL     1     160.141 162.146 177.694  1.00  0.00    -0.550 OA
ATOM     20  O   UNL     1     162.128 162.829 176.784  1.00  0.00    -0.550 OA
ENDBRANCH  17  18
ENDBRANCH  16  17
ENDBRANCH  15  16
ENDBRANCH  14  15
ENDBRANCH  13  14
ENDBRANCH  12  13
ENDBRANCH  11  12
ENDBRANCH   1  11
TORSDOF 15
ENDMDL
MODEL 8
REMARK VINA RESULT:    -3.803      1.931      2.438
REMARK INTER + INTRA:          -9.384
REMARK INTER:                  -7.664
REMARK INTRA:                  -1.721
REMARK UNBOUND:                -2.246
REMARK SMILES O=C([O-])CCCCCCCCCCCCCCC(=O)[O-]
REMARK SMILES IDX 10 1 9 2 8 3 7 4 6 5 5 6 4 7 2 8 1 9 3 10 11 11 12 12 13 13
REMARK SMILES IDX 14 14 15 15 16 16 17 17 18 18 19 19 20 20
REMARK H PARENT
REMARK Flexibility Score: inf
ROOT
ATOM      1  C   UNL     1     163.163 162.458 182.883  1.00  0.00     0.000 C 
ENDROOT
BRANCH   1   2
ATOM      2  C   UNL     1     163.506 160.957 182.905  1.00  0.00     0.000 C 
BRANCH   2   3
ATOM      3  C   UNL     1     165.012 160.700 183.066  1.00  0.00     0.000 C 
BRANCH   3   4
ATOM      4  C   UNL     1     165.804 161.990 183.345  1.00  0.00     0.000 C 
BRANCH   4   5
ATOM      5  C   UNL     1     167.273 161.722 183.719  1.00  0.00     0.000 C 
BRANCH   5   6
ATOM      6  C   UNL     1     167.762 160.291 183.431  1.00  0.00     0.006 C 
BRANCH   6   7
ATOM      7  C   UNL     1     169.009 160.253 182.538  1.00  0.00     0.053 C 
BRANCH   7   8
ATOM      8  C   UNL     1     168.623 160.355 181.097  1.00  0.00     0.041 C 
ATOM      9  O   UNL     1     169.392 160.916 180.272  1.00  0.00    -0.550 OA
ATOM     10  O   UNL     1     167.390 159.875 180.673  1.00  0.00    -0.550 OA
ENDBRANCH   7   8
ENDBRANCH   6   7
ENDBRANCH   5   6
ENDBRANCH   4   5
ENDBRANCH   3   4
ENDBRANCH   2   3
ENDBRANCH   1   2
BRANCH   1  11
ATOM     11  C   UNL     1     161.819 162.769 183.559  1.00  0.00     0.000 C 
BRANCH  11  12
ATOM     12  C   UNL     1     160.868 161.558 183.569  1.00  0.00     0.000 C 
BRANCH  12  13
ATOM     13  C   UNL     1     159.894 161.570 182.376  1.00  0.00     0.000 C 
BRANCH  13  14
ATOM     14  C   UNL     1     160.198 160.488 181.322  1.00  0.00     0.000 C 
BRANCH  14  15
ATOM     15  C   UNL     1     160.728 161.088 180.008  1.00  0.00     0.000 C 
BRANCH  15  16
ATOM     16  C   UNL     1     162.089 160.505 179.586  1.00  0.00     0.006 C 
BRANCH  16  17
ATOM     17  C   UNL     1     163.122 161.567 179.168  1.00  0.00     0.053 C 
BRANCH  17  18
ATOM     18  C   UNL     1     163.864 161.192 177.921  1.00  0.00     0.041 C 
ATOM     19  O   UNL     1     164.526 160.121 177.873  1.00  0.00    -0.550 OA
ATOM     20  O   UNL     1     163.857 162.043 176.824  1.00  0.00    -0.550 OA
ENDBRANCH  17  18
ENDBRANCH  16  17
ENDBRANCH  15  16
ENDBRANCH  14  15
ENDBRANCH  13  14
ENDBRANCH  12  13
ENDBRANCH  11  12
ENDBRANCH   1  11
TORSDOF 15
ENDMDL
