MODEL 1
REMARK VINA RESULT:    -4.679      0.000      0.000
REMARK INTER + INTRA:         -12.006
REMARK INTER:                 -10.696
REMARK INTRA:                  -1.310
REMARK UNBOUND:                -1.310
REMARK SMILES CCCCCCCCCCCCCCCCCCCCCCCC(=O)[O-]
REMARK SMILES IDX 13 1 14 2 15 3 16 4 17 5 18 6 19 7 20 8 21 9 22 10 23 11
REMARK SMILES IDX 24 12 25 13 26 14 12 15 11 16 10 17 9 18 8 19 7 20 6 21 5 22
REMARK SMILES IDX 4 23 3 24 2 25 1 26
REMARK H PARENT
REMARK Flexibility Score: inf
ROOT
ATOM      1  C   UNL     1      -1.444  -2.041   5.181  1.00  0.00     0.000 C 
ENDROOT
BRANCH   1   2
ATOM      2  C   UNL     1      -1.385  -3.571   5.033  1.00  0.00     0.000 C 
BRANCH   2   3
ATOM      3  C   UNL     1      -1.283  -4.295   6.386  1.00  0.00     0.000 C 
BRANCH   3   4
ATOM      4  C   UNL     1      -0.303  -5.480   6.352  1.00  0.00     0.000 C 
BRANCH   4   5
ATOM      5  C   UNL     1      -0.808  -6.722   7.117  1.00  0.00     0.000 C 
BRANCH   5   6
ATOM      6  C   UNL     1      -0.750  -6.527   8.643  1.00  0.00     0.000 C 
BRANCH   6   7
ATOM      7  C   UNL     1      -2.026  -7.013   9.349  1.00  0.00     0.000 C 
BRANCH   7   8
ATOM      8  C   UNL     1      -2.638  -8.253   8.674  1.00  0.00     0.000 C 
BRANCH   8   9
ATOM      9  C   UNL     1      -4.075  -8.010   8.186  1.00  0.00     0.000 C 
BRANCH   9  10
ATOM     10  C   UNL     1      -4.864  -7.075   9.119  1.00  0.00     0.006 C 
BRANCH  10  11
ATOM     11  C   UNL     1      -6.380  -7.202   8.919  1.00  0.00     0.053 C 
BRANCH  11  12
ATOM     12  C   UNL     1      -7.057  -5.867   8.958  1.00  0.00     0.041 C 
ATOM     13  O   UNL     1      -8.029  -5.625   8.194  1.00  0.00    -0.550 OA
ATOM     14  O   UNL     1      -6.595  -4.879   9.818  1.00  0.00    -0.550 OA
ENDBRANCH  11  12
ENDBRANCH  10  11
ENDBRANCH   9  10
ENDBRANCH   8   9
ENDBRANCH   7   8
ENDBRANCH   6   7
ENDBRANCH   5   6
ENDBRANCH   4   5
ENDBRANCH   3   4
ENDBRANCH   2   3
ENDBRANCH   1   2
BRANCH   1  15
ATOM     15  C   UNL     1      -1.120  -1.568   6.608  1.00  0.00     0.000 C 
BRANCH  15  16
ATOM     16  C   UNL     1      -1.279  -0.046   6.780  1.00  0.00     0.000 C 
BRANCH  16  17
ATOM     17  C   UNL     1      -1.370   0.441   8.241  1.00  0.00     0.000 C 
BRANCH  17  18
ATOM     18  C   UNL     1      -0.497  -0.337   9.245  1.00  0.00    -0.000 C 
BRANCH  18  19
ATOM     19  C   UNL     1       0.833   0.348   9.622  1.00  0.00    -0.000 C 
BRANCH  19  20
ATOM     20  C   UNL     1       1.935  -0.603  10.121  1.00  0.00    -0.000 C 
BRANCH  20  21
ATOM     21  C   UNL     1       3.338   0.015  10.036  1.00  0.00    -0.000 C 
BRANCH  21  22
ATOM     22  C   UNL     1       4.381  -1.046   9.652  1.00  0.00    -0.000 C 
BRANCH  22  23
ATOM     23  C   UNL     1       5.048  -0.767   8.292  1.00  0.00    -0.000 C 
BRANCH  23  24
ATOM     24  C   UNL     1       6.155   0.303   8.319  1.00  0.00    -0.000 C 
BRANCH  24  25
ATOM     25  C   UNL     1       7.558  -0.293   8.516  1.00  0.00    -0.003 C 
ATOM     26  C   UNL     1       8.516   0.185   7.429  1.00  0.00     0.004 C 
ENDBRANCH  24  25
ENDBRANCH  23  24
ENDBRANCH  22  23
ENDBRANCH  21  22
ENDBRANCH  20  21
ENDBRANCH  19  20
ENDBRANCH  18  19
ENDBRANCH  17  18
ENDBRANCH  16  17
ENDBRANCH  15  16
ENDBRANCH   1  15
TORSDOF 22
ENDMDL
MODEL 2
REMARK VINA RESULT:    -4.606     15.356     18.606
REMARK INTER + INTRA:         -11.840
REMARK INTER:                  -7.969
REMARK INTRA:                  -3.871
REMARK UNBOUND:                -1.310
REMARK SMILES CCCCCCCCCCCCCCCCCCCCCCCC(=O)[O-]
REMARK SMILES IDX 13 1 14 2 15 3 16 4 17 5 18 6 19 7 20 8 21 9 22 10 23 11
REMARK SMILES IDX 24 12 25 13 26 14 12 15 11 16 10 17 9 18 8 19 7 20 6 21 5 22
REMARK SMILES IDX 4 23 3 24 2 25 1 26
REMARK H PARENT
REMARK Flexibility Score: inf
ROOT
ATOM      1  C   UNL     1      -5.887   3.224  -4.851  1.00  0.00     0.000 C 
ENDROOT
BRANCH   1   2
ATOM      2  C   UNL     1      -6.489   4.459  -4.159  1.00  0.00     0.000 C 
BRANCH   2   3
ATOM      3  C   UNL     1      -5.787   5.767  -4.563  1.00  0.00     0.000 C 
BRANCH   3   4
ATOM      4  C   UNL     1      -5.771   5.987  -6.085  1.00  0.00     0.000 C 
BRANCH   4   5
ATOM      5  C   UNL     1      -6.193   7.411  -6.508  1.00  0.00     0.000 C 
BRANCH   5   6
ATOM      6  C   UNL     1      -7.595   7.779  -5.989  1.00  0.00     0.000 C 
BRANCH   6   7
ATOM      7  C   UNL     1      -7.620   9.141  -5.277  1.00  0.00     0.000 C 
BRANCH   7   8
ATOM      8  C   UNL     1      -7.840   9.009  -3.760  1.00  0.00     0.000 C 
BRANCH   8   9
ATOM      9  C   UNL     1      -8.541   7.696  -3.378  1.00  0.00     0.000 C 
BRANCH   9  10
ATOM     10  C   UNL     1      -8.379   7.353  -1.887  1.00  0.00     0.006 C 
BRANCH  10  11
ATOM     11  C   UNL     1      -6.917   7.078  -1.512  1.00  0.00     0.053 C 
BRANCH  11  12
ATOM     12  C   UNL     1      -6.602   7.553  -0.127  1.00  0.00     0.041 C 
ATOM     13  O   UNL     1      -5.832   8.535   0.048  1.00  0.00    -0.550 OA
ATOM     14  O   UNL     1      -7.135   6.893   0.972  1.00  0.00    -0.550 OA
ENDBRANCH  11  12
ENDBRANCH  10  11
ENDBRANCH   9  10
ENDBRANCH   8   9
ENDBRANCH   7   8
ENDBRANCH   6   7
ENDBRANCH   5   6
ENDBRANCH   4   5
ENDBRANCH   3   4
ENDBRANCH   2   3
ENDBRANCH   1   2
BRANCH   1  15
ATOM     15  C   UNL     1      -6.653   1.930  -4.528  1.00  0.00     0.000 C 
BRANCH  15  16
ATOM     16  C   UNL     1      -8.144   2.179  -4.236  1.00  0.00     0.000 C 
BRANCH  16  17
ATOM     17  C   UNL     1      -9.126   1.386  -5.122  1.00  0.00     0.000 C 
BRANCH  17  18
ATOM     18  C   UNL     1      -9.888   2.224  -6.167  1.00  0.00    -0.000 C 
BRANCH  18  19
ATOM     19  C   UNL     1      -9.634   3.743  -6.097  1.00  0.00    -0.000 C 
BRANCH  19  20
ATOM     20  C   UNL     1      -8.733   4.303  -7.213  1.00  0.00    -0.000 C 
BRANCH  20  21
ATOM     21  C   UNL     1      -8.391   3.255  -8.282  1.00  0.00    -0.000 C 
BRANCH  21  22
ATOM     22  C   UNL     1      -6.879   2.984  -8.318  1.00  0.00    -0.000 C 
BRANCH  22  23
ATOM     23  C   UNL     1      -6.535   1.574  -8.835  1.00  0.00    -0.000 C 
BRANCH  23  24
ATOM     24  C   UNL     1      -6.615   0.457  -7.779  1.00  0.00    -0.000 C 
BRANCH  24  25
ATOM     25  C   UNL     1      -5.514  -0.602  -7.944  1.00  0.00    -0.003 C 
ATOM     26  C   UNL     1      -5.820  -1.538  -9.109  1.00  0.00     0.004 C 
ENDBRANCH  24  25
ENDBRANCH  23  24
ENDBRANCH  22  23
ENDBRANCH  21  22
ENDBRANCH  20  21
ENDBRANCH  19  20
ENDBRANCH  18  19
ENDBRANCH  17  18
ENDBRANCH  16  17
ENDBRANCH  15  16
ENDBRANCH   1  15
TORSDOF 22
ENDMDL
MODEL 3
REMARK VINA RESULT:    -4.491     15.393     18.734
REMARK INTER + INTRA:         -11.578
REMARK INTER:                  -6.996
REMARK INTRA:                  -4.582
REMARK UNBOUND:                -1.310
REMARK SMILES CCCCCCCCCCCCCCCCCCCCCCCC(=O)[O-]
REMARK SMILES IDX 13 1 14 2 15 3 16 4 17 5 18 6 19 7 20 8 21 9 22 10 23 11
REMARK SMILES IDX 24 12 25 13 26 14 12 15 11 16 10 17 9 18 8 19 7 20 6 21 5 22
REMARK SMILES IDX 4 23 3 24 2 25 1 26
REMARK H PARENT
REMARK Flexibility Score: inf
ROOT
ATOM      1  C   UNL     1      -6.551   5.483  -7.876  1.00  0.00     0.000 C 
ENDROOT
BRANCH   1   2
ATOM      2  C   UNL     1      -5.507   6.500  -7.383  1.00  0.00     0.000 C 
BRANCH   2   3
ATOM      3  C   UNL     1      -5.663   7.879  -8.046  1.00  0.00     0.000 C 
BRANCH   3   4
ATOM      4  C   UNL     1      -5.742   9.024  -7.022  1.00  0.00     0.000 C 
BRANCH   4   5
ATOM      5  C   UNL     1      -6.707   8.740  -5.851  1.00  0.00     0.000 C 
BRANCH   5   6
ATOM      6  C   UNL     1      -8.063   9.444  -6.032  1.00  0.00     0.000 C 
BRANCH   6   7
ATOM      7  C   UNL     1      -8.807   9.642  -4.701  1.00  0.00     0.000 C 
BRANCH   7   8
ATOM      8  C   UNL     1      -7.849   9.832  -3.513  1.00  0.00     0.000 C 
BRANCH   8   9
ATOM      9  C   UNL     1      -8.084   8.804  -2.395  1.00  0.00     0.000 C 
BRANCH   9  10
ATOM     10  C   UNL     1      -7.140   9.008  -1.198  1.00  0.00     0.006 C 
BRANCH  10  11
ATOM     11  C   UNL     1      -6.671   7.677  -0.596  1.00  0.00     0.053 C 
BRANCH  11  12
ATOM     12  C   UNL     1      -7.367   7.378   0.696  1.00  0.00     0.041 C 
ATOM     13  O   UNL     1      -6.821   7.669   1.793  1.00  0.00    -0.550 OA
ATOM     14  O   UNL     1      -8.607   6.751   0.690  1.00  0.00    -0.550 OA
ENDBRANCH  11  12
ENDBRANCH  10  11
ENDBRANCH   9  10
ENDBRANCH   8   9
ENDBRANCH   7   8
ENDBRANCH   6   7
ENDBRANCH   5   6
ENDBRANCH   4   5
ENDBRANCH   3   4
ENDBRANCH   2   3
ENDBRANCH   1   2
BRANCH   1  15
ATOM     15  C   UNL     1      -7.997   5.955  -7.645  1.00  0.00     0.000 C 
BRANCH  15  16
ATOM     16  C   UNL     1      -8.945   4.802  -7.266  1.00  0.00     0.000 C 
BRANCH  16  17
ATOM     17  C   UNL     1      -9.769   5.028  -5.983  1.00  0.00     0.000 C 
BRANCH  17  18
ATOM     18  C   UNL     1      -9.169   6.041  -4.989  1.00  0.00    -0.000 C 
BRANCH  18  19
ATOM     19  C   UNL     1      -9.144   5.577  -3.518  1.00  0.00    -0.000 C 
BRANCH  19  20
ATOM     20  C   UNL     1      -7.766   5.125  -3.003  1.00  0.00    -0.000 C 
BRANCH  20  21
ATOM     21  C   UNL     1      -6.631   5.433  -3.992  1.00  0.00    -0.000 C 
BRANCH  21  22
ATOM     22  C   UNL     1      -6.006   4.137  -4.528  1.00  0.00    -0.000 C 
BRANCH  22  23
ATOM     23  C   UNL     1      -6.789   2.877  -4.113  1.00  0.00    -0.000 C 
BRANCH  23  24
ATOM     24  C   UNL     1      -7.492   2.139  -5.268  1.00  0.00    -0.000 C 
BRANCH  24  25
ATOM     25  C   UNL     1      -8.625   1.219  -4.787  1.00  0.00    -0.003 C 
ATOM     26  C   UNL     1      -9.539   1.941  -3.802  1.00  0.00     0.004 C 
ENDBRANCH  24  25
ENDBRANCH  23  24
ENDBRANCH  22  23
ENDBRANCH  21  22
ENDBRANCH  20  21
ENDBRANCH  19  20
ENDBRANCH  18  19
ENDBRANCH  17  18
ENDBRANCH  16  17
ENDBRANCH  15  16
ENDBRANCH   1  15
TORSDOF 22
ENDMDL
MODEL 4
REMARK VINA RESULT:    -4.370     14.867     17.637
REMARK INTER + INTRA:         -11.302
REMARK INTER:                  -7.682
REMARK INTRA:                  -3.619
REMARK UNBOUND:                -1.310
REMARK SMILES CCCCCCCCCCCCCCCCCCCCCCCC(=O)[O-]
REMARK SMILES IDX 13 1 14 2 15 3 16 4 17 5 18 6 19 7 20 8 21 9 22 10 23 11
REMARK SMILES IDX 24 12 25 13 26 14 12 15 11 16 10 17 9 18 8 19 7 20 6 21 5 22
REMARK SMILES IDX 4 23 3 24 2 25 1 26
REMARK H PARENT
REMARK Flexibility Score: inf
ROOT
ATOM      1  C   UNL     1      -9.617   1.788  -3.790  1.00  0.00     0.000 C 
ENDROOT
BRANCH   1   2
ATOM      2  C   UNL     1     -10.077   2.498  -2.506  1.00  0.00     0.000 C 
BRANCH   2   3
ATOM      3  C   UNL     1      -8.985   3.396  -1.899  1.00  0.00     0.000 C 
BRANCH   3   4
ATOM      4  C   UNL     1      -9.492   4.812  -1.577  1.00  0.00     0.000 C 
BRANCH   4   5
ATOM      5  C   UNL     1      -9.119   5.860  -2.648  1.00  0.00     0.000 C 
BRANCH   5   6
ATOM      6  C   UNL     1      -9.351   7.300  -2.156  1.00  0.00     0.000 C 
BRANCH   6   7
ATOM      7  C   UNL     1      -8.036   8.051  -1.890  1.00  0.00     0.000 C 
BRANCH   7   8
ATOM      8  C   UNL     1      -6.812   7.119  -1.903  1.00  0.00     0.000 C 
BRANCH   8   9
ATOM      9  C   UNL     1      -6.052   7.126  -0.567  1.00  0.00     0.000 C 
BRANCH   9  10
ATOM     10  C   UNL     1      -6.522   8.251   0.373  1.00  0.00     0.006 C 
BRANCH  10  11
ATOM     11  C   UNL     1      -6.766   7.747   1.802  1.00  0.00     0.053 C 
BRANCH  11  12
ATOM     12  C   UNL     1      -8.227   7.696   2.128  1.00  0.00     0.041 C 
ATOM     13  O   UNL     1      -8.680   8.338   3.113  1.00  0.00    -0.550 OA
ATOM     14  O   UNL     1      -9.084   6.916   1.363  1.00  0.00    -0.550 OA
ENDBRANCH  11  12
ENDBRANCH  10  11
ENDBRANCH   9  10
ENDBRANCH   8   9
ENDBRANCH   7   8
ENDBRANCH   6   7
ENDBRANCH   5   6
ENDBRANCH   4   5
ENDBRANCH   3   4
ENDBRANCH   2   3
ENDBRANCH   1   2
BRANCH   1  15
ATOM     15  C   UNL     1      -8.587   2.607  -4.587  1.00  0.00     0.000 C 
BRANCH  15  16
ATOM     16  C   UNL     1      -7.245   1.871  -4.757  1.00  0.00     0.000 C 
BRANCH  16  17
ATOM     17  C   UNL     1      -5.995   2.774  -4.728  1.00  0.00     0.000 C 
BRANCH  17  18
ATOM     18  C   UNL     1      -6.239   4.213  -4.232  1.00  0.00    -0.000 C 
BRANCH  18  19
ATOM     19  C   UNL     1      -5.963   5.317  -5.273  1.00  0.00    -0.000 C 
BRANCH  19  20
ATOM     20  C   UNL     1      -7.129   5.608  -6.235  1.00  0.00    -0.000 C 
BRANCH  20  21
ATOM     21  C   UNL     1      -6.973   4.899  -7.589  1.00  0.00    -0.000 C 
BRANCH  21  22
ATOM     22  C   UNL     1      -8.285   4.214  -8.002  1.00  0.00    -0.000 C 
BRANCH  22  23
ATOM     23  C   UNL     1      -8.058   2.928  -8.819  1.00  0.00    -0.000 C 
BRANCH  23  24
ATOM     24  C   UNL     1      -6.797   2.130  -8.437  1.00  0.00    -0.000 C 
BRANCH  24  25
ATOM     25  C   UNL     1      -7.039   0.613  -8.396  1.00  0.00    -0.003 C 
ATOM     26  C   UNL     1      -5.922  -0.102  -7.643  1.00  0.00     0.004 C 
ENDBRANCH  24  25
ENDBRANCH  23  24
ENDBRANCH  22  23
ENDBRANCH  21  22
ENDBRANCH  20  21
ENDBRANCH  19  20
ENDBRANCH  18  19
ENDBRANCH  17  18
ENDBRANCH  16  17
ENDBRANCH  15  16
ENDBRANCH   1  15
TORSDOF 22
ENDMDL
MODEL 5
REMARK VINA RESULT:    -4.351     15.058     18.221
REMARK INTER + INTRA:         -11.258
REMARK INTER:                  -7.942
REMARK INTRA:                  -3.316
REMARK UNBOUND:                -1.310
REMARK SMILES CCCCCCCCCCCCCCCCCCCCCCCC(=O)[O-]
REMARK SMILES IDX 13 1 14 2 15 3 16 4 17 5 18 6 19 7 20 8 21 9 22 10 23 11
REMARK SMILES IDX 24 12 25 13 26 14 12 15 11 16 10 17 9 18 8 19 7 20 6 21 5 22
REMARK SMILES IDX 4 23 3 24 2 25 1 26
REMARK H PARENT
REMARK Flexibility Score: inf
ROOT
ATOM      1  C   UNL     1      -6.604   2.803  -4.113  1.00  0.00     0.000 C 
ENDROOT
BRANCH   1   2
ATOM      2  C   UNL     1      -8.122   2.995  -3.958  1.00  0.00     0.000 C 
BRANCH   2   3
ATOM      3  C   UNL     1      -8.496   3.777  -2.687  1.00  0.00     0.000 C 
BRANCH   3   4
ATOM      4  C   UNL     1      -9.527   4.887  -2.955  1.00  0.00     0.000 C 
BRANCH   4   5
ATOM      5  C   UNL     1      -9.118   6.261  -2.380  1.00  0.00     0.000 C 
BRANCH   5   6
ATOM      6  C   UNL     1      -7.918   6.155  -1.422  1.00  0.00     0.000 C 
BRANCH   6   7
ATOM      7  C   UNL     1      -6.838   7.211  -1.712  1.00  0.00     0.000 C 
BRANCH   7   8
ATOM      8  C   UNL     1      -5.921   7.464  -0.503  1.00  0.00     0.000 C 
BRANCH   8   9
ATOM      9  C   UNL     1      -5.989   8.917  -0.006  1.00  0.00     0.000 C 
BRANCH   9  10
ATOM     10  C   UNL     1      -6.414   9.017   1.469  1.00  0.00     0.006 C 
BRANCH  10  11
ATOM     11  C   UNL     1      -7.125   7.746   1.953  1.00  0.00     0.053 C 
BRANCH  11  12
ATOM     12  C   UNL     1      -8.615   7.878   1.866  1.00  0.00     0.041 C 
ATOM     13  O   UNL     1      -9.361   7.087   2.501  1.00  0.00    -0.550 OA
ATOM     14  O   UNL     1      -9.179   8.858   1.059  1.00  0.00    -0.550 OA
ENDBRANCH  11  12
ENDBRANCH  10  11
ENDBRANCH   9  10
ENDBRANCH   8   9
ENDBRANCH   7   8
ENDBRANCH   6   7
ENDBRANCH   5   6
ENDBRANCH   4   5
ENDBRANCH   3   4
ENDBRANCH   2   3
ENDBRANCH   1   2
BRANCH   1  15
ATOM     15  C   UNL     1      -5.976   3.803  -5.099  1.00  0.00     0.000 C 
BRANCH  15  16
ATOM     16  C   UNL     1      -5.832   5.215  -4.502  1.00  0.00     0.000 C 
BRANCH  16  17
ATOM     17  C   UNL     1      -6.429   6.351  -5.357  1.00  0.00     0.000 C 
BRANCH  17  18
ATOM     18  C   UNL     1      -7.061   5.904  -6.690  1.00  0.00    -0.000 C 
BRANCH  18  19
ATOM     19  C   UNL     1      -6.072   5.759  -7.865  1.00  0.00    -0.000 C 
BRANCH  19  20
ATOM     20  C   UNL     1      -5.133   6.959  -8.075  1.00  0.00    -0.000 C 
BRANCH  20  21
ATOM     21  C   UNL     1      -5.598   7.887  -9.208  1.00  0.00    -0.000 C 
BRANCH  21  22
ATOM     22  C   UNL     1      -5.942   9.283  -8.665  1.00  0.00    -0.000 C 
BRANCH  22  23
ATOM     23  C   UNL     1      -5.405   9.521  -7.240  1.00  0.00    -0.000 C 
BRANCH  23  24
ATOM     24  C   UNL     1      -6.464   9.958  -6.211  1.00  0.00    -0.000 C 
BRANCH  24  25
ATOM     25  C   UNL     1      -7.893   9.570  -6.622  1.00  0.00    -0.003 C 
ATOM     26  C   UNL     1      -8.736   9.206  -5.403  1.00  0.00     0.004 C 
ENDBRANCH  24  25
ENDBRANCH  23  24
ENDBRANCH  22  23
ENDBRANCH  21  22
ENDBRANCH  20  21
ENDBRANCH  19  20
ENDBRANCH  18  19
ENDBRANCH  17  18
ENDBRANCH  16  17
ENDBRANCH  15  16
ENDBRANCH   1  15
TORSDOF 22
ENDMDL
MODEL 6
REMARK VINA RESULT:    -4.336     15.203     18.244
REMARK INTER + INTRA:         -11.223
REMARK INTER:                  -7.694
REMARK INTRA:                  -3.529
REMARK UNBOUND:                -1.310
REMARK SMILES CCCCCCCCCCCCCCCCCCCCCCCC(=O)[O-]
REMARK SMILES IDX 13 1 14 2 15 3 16 4 17 5 18 6 19 7 20 8 21 9 22 10 23 11
REMARK SMILES IDX 24 12 25 13 26 14 12 15 11 16 10 17 9 18 8 19 7 20 6 21 5 22
REMARK SMILES IDX 4 23 3 24 2 25 1 26
REMARK H PARENT
REMARK Flexibility Score: inf
ROOT
ATOM      1  C   UNL     1      -5.993   5.323  -4.143  1.00  0.00     0.000 C 
ENDROOT
BRANCH   1   2
ATOM      2  C   UNL     1      -5.889   6.293  -5.332  1.00  0.00     0.000 C 
BRANCH   2   3
ATOM      3  C   UNL     1      -7.100   7.236  -5.437  1.00  0.00     0.000 C 
BRANCH   3   4
ATOM      4  C   UNL     1      -6.766   8.552  -6.160  1.00  0.00     0.000 C 
BRANCH   4   5
ATOM      5  C   UNL     1      -5.594   8.429  -7.158  1.00  0.00     0.000 C 
BRANCH   5   6
ATOM      6  C   UNL     1      -6.065   7.983  -8.554  1.00  0.00     0.000 C 
BRANCH   6   7
ATOM      7  C   UNL     1      -5.390   6.681  -9.016  1.00  0.00     0.000 C 
BRANCH   7   8
ATOM      8  C   UNL     1      -6.405   5.624  -9.483  1.00  0.00     0.000 C 
BRANCH   8   9
ATOM      9  C   UNL     1      -7.576   5.457  -8.501  1.00  0.00     0.000 C 
BRANCH   9  10
ATOM     10  C   UNL     1      -8.001   3.987  -8.335  1.00  0.00     0.006 C 
BRANCH  10  11
ATOM     11  C   UNL     1      -6.796   3.053  -8.160  1.00  0.00     0.053 C 
BRANCH  11  12
ATOM     12  C   UNL     1      -7.195   1.744  -7.552  1.00  0.00     0.041 C 
ATOM     13  O   UNL     1      -6.380   1.100  -6.838  1.00  0.00    -0.550 OA
ATOM     14  O   UNL     1      -8.457   1.219  -7.797  1.00  0.00    -0.550 OA
ENDBRANCH  11  12
ENDBRANCH  10  11
ENDBRANCH   9  10
ENDBRANCH   8   9
ENDBRANCH   7   8
ENDBRANCH   6   7
ENDBRANCH   5   6
ENDBRANCH   4   5
ENDBRANCH   3   4
ENDBRANCH   2   3
ENDBRANCH   1   2
BRANCH   1  15
ATOM     15  C   UNL     1      -6.347   3.889  -4.574  1.00  0.00     0.000 C 
BRANCH  15  16
ATOM     16  C   UNL     1      -7.831   3.550  -4.346  1.00  0.00     0.000 C 
BRANCH  16  17
ATOM     17  C   UNL     1      -8.180   3.062  -2.925  1.00  0.00     0.000 C 
BRANCH  17  18
ATOM     18  C   UNL     1      -8.919   4.089  -2.044  1.00  0.00    -0.000 C 
BRANCH  18  19
ATOM     19  C   UNL     1      -9.692   5.176  -2.817  1.00  0.00    -0.000 C 
BRANCH  19  20
ATOM     20  C   UNL     1      -9.233   6.619  -2.541  1.00  0.00    -0.000 C 
BRANCH  20  21
ATOM     21  C   UNL     1      -8.346   6.732  -1.292  1.00  0.00    -0.000 C 
BRANCH  21  22
ATOM     22  C   UNL     1      -7.128   7.628  -1.566  1.00  0.00    -0.000 C 
BRANCH  22  23
ATOM     23  C   UNL     1      -6.091   7.593  -0.427  1.00  0.00    -0.000 C 
BRANCH  23  24
ATOM     24  C   UNL     1      -5.677   8.973   0.117  1.00  0.00    -0.000 C 
BRANCH  24  25
ATOM     25  C   UNL     1      -6.312   9.294   1.478  1.00  0.00    -0.003 C 
ATOM     26  C   UNL     1      -6.893   8.040   2.124  1.00  0.00     0.004 C 
ENDBRANCH  24  25
ENDBRANCH  23  24
ENDBRANCH  22  23
ENDBRANCH  21  22
ENDBRANCH  20  21
ENDBRANCH  19  20
ENDBRANCH  18  19
ENDBRANCH  17  18
ENDBRANCH  16  17
ENDBRANCH  15  16
ENDBRANCH   1  15
TORSDOF 22
ENDMDL
MODEL 7
REMARK VINA RESULT:    -4.288     15.391     18.306
REMARK INTER + INTRA:         -11.113
REMARK INTER:                  -7.454
REMARK INTRA:                  -3.660
REMARK UNBOUND:                -1.310
REMARK SMILES CCCCCCCCCCCCCCCCCCCCCCCC(=O)[O-]
REMARK SMILES IDX 13 1 14 2 15 3 16 4 17 5 18 6 19 7 20 8 21 9 22 10 23 11
REMARK SMILES IDX 24 12 25 13 26 14 12 15 11 16 10 17 9 18 8 19 7 20 6 21 5 22
REMARK SMILES IDX 4 23 3 24 2 25 1 26
REMARK H PARENT
REMARK Flexibility Score: inf
ROOT
ATOM      1  C   UNL     1      -6.733   2.146  -5.492  1.00  0.00     0.000 C 
ENDROOT
BRANCH   1   2
ATOM      2  C   UNL     1      -6.445   3.096  -4.318  1.00  0.00     0.000 C 
BRANCH   2   3
ATOM      3  C   UNL     1      -5.982   4.488  -4.779  1.00  0.00     0.000 C 
BRANCH   3   4
ATOM      4  C   UNL     1      -6.312   5.592  -3.758  1.00  0.00     0.000 C 
BRANCH   4   5
ATOM      5  C   UNL     1      -7.472   5.225  -2.807  1.00  0.00     0.000 C 
BRANCH   5   6
ATOM      6  C   UNL     1      -8.235   6.469  -2.316  1.00  0.00     0.000 C 
BRANCH   6   7
ATOM      7  C   UNL     1      -7.473   7.775  -2.593  1.00  0.00     0.000 C 
BRANCH   7   8
ATOM      8  C   UNL     1      -8.002   8.955  -1.760  1.00  0.00     0.000 C 
BRANCH   8   9
ATOM      9  C   UNL     1      -6.892   9.662  -0.966  1.00  0.00     0.000 C 
BRANCH   9  10
ATOM     10  C   UNL     1      -6.098   8.692  -0.073  1.00  0.00     0.006 C 
BRANCH  10  11
ATOM     11  C   UNL     1      -6.204   9.057   1.414  1.00  0.00     0.053 C 
BRANCH  11  12
ATOM     12  C   UNL     1      -7.310   8.307   2.090  1.00  0.00     0.041 C 
ATOM     13  O   UNL     1      -7.698   8.647   3.239  1.00  0.00    -0.550 OA
ATOM     14  O   UNL     1      -7.892   7.212   1.463  1.00  0.00    -0.550 OA
ENDBRANCH  11  12
ENDBRANCH  10  11
ENDBRANCH   9  10
ENDBRANCH   8   9
ENDBRANCH   7   8
ENDBRANCH   6   7
ENDBRANCH   5   6
ENDBRANCH   4   5
ENDBRANCH   3   4
ENDBRANCH   2   3
ENDBRANCH   1   2
BRANCH   1  15
ATOM     15  C   UNL     1      -8.208   1.713  -5.559  1.00  0.00     0.000 C 
BRANCH  15  16
ATOM     16  C   UNL     1      -9.070   2.370  -4.465  1.00  0.00     0.000 C 
BRANCH  16  17
ATOM     17  C   UNL     1      -9.869   3.608  -4.917  1.00  0.00     0.000 C 
BRANCH  17  18
ATOM     18  C   UNL     1      -9.840   3.888  -6.433  1.00  0.00    -0.000 C 
BRANCH  18  19
ATOM     19  C   UNL     1      -9.241   5.251  -6.834  1.00  0.00    -0.000 C 
BRANCH  19  20
ATOM     20  C   UNL     1      -8.546   5.276  -8.207  1.00  0.00    -0.000 C 
BRANCH  20  21
ATOM     21  C   UNL     1      -7.062   4.887  -8.130  1.00  0.00    -0.000 C 
BRANCH  21  22
ATOM     22  C   UNL     1      -6.174   6.008  -8.692  1.00  0.00    -0.000 C 
BRANCH  22  23
ATOM     23  C   UNL     1      -5.227   6.609  -7.635  1.00  0.00    -0.000 C 
BRANCH  23  24
ATOM     24  C   UNL     1      -5.579   8.039  -7.186  1.00  0.00    -0.000 C 
BRANCH  24  25
ATOM     25  C   UNL     1      -6.857   8.101  -6.334  1.00  0.00    -0.003 C 
ATOM     26  C   UNL     1      -7.113   9.518  -5.830  1.00  0.00     0.004 C 
ENDBRANCH  24  25
ENDBRANCH  23  24
ENDBRANCH  22  23
ENDBRANCH  21  22
ENDBRANCH  20  21
ENDBRANCH  19  20
ENDBRANCH  18  19
ENDBRANCH  17  18
ENDBRANCH  16  17
ENDBRANCH  15  16
ENDBRANCH   1  15
TORSDOF 22
ENDMDL
MODEL 8
REMARK VINA RESULT:    -4.278     15.368     18.760
REMARK INTER + INTRA:         -11.089
REMARK INTER:                  -6.977
REMARK INTRA:                  -4.113
REMARK UNBOUND:                -1.310
REMARK SMILES CCCCCCCCCCCCCCCCCCCCCCCC(=O)[O-]
REMARK SMILES IDX 13 1 14 2 15 3 16 4 17 5 18 6 19 7 20 8 21 9 22 10 23 11
REMARK SMILES IDX 24 12 25 13 26 14 12 15 11 16 10 17 9 18 8 19 7 20 6 21 5 22
REMARK SMILES IDX 4 23 3 24 2 25 1 26
REMARK H PARENT
REMARK Flexibility Score: inf
ROOT
ATOM      1  C   UNL     1      -6.770   2.676  -4.039  1.00  0.00     0.000 C 
ENDROOT
BRANCH   1   2
ATOM      2  C   UNL     1      -5.970   3.598  -4.975  1.00  0.00     0.000 C 
BRANCH   2   3
ATOM      3  C   UNL     1      -5.930   5.055  -4.482  1.00  0.00     0.000 C 
BRANCH   3   4
ATOM      4  C   UNL     1      -6.284   6.065  -5.587  1.00  0.00     0.000 C 
BRANCH   4   5
ATOM      5  C   UNL     1      -7.797   6.149  -5.885  1.00  0.00     0.000 C 
BRANCH   5   6
ATOM      6  C   UNL     1      -8.241   7.580  -6.238  1.00  0.00     0.000 C 
BRANCH   6   7
ATOM      7  C   UNL     1      -7.612   8.636  -5.313  1.00  0.00     0.000 C 
BRANCH   7   8
ATOM      8  C   UNL     1      -8.501   8.963  -4.101  1.00  0.00     0.000 C 
BRANCH   8   9
ATOM      9  C   UNL     1      -7.783   8.728  -2.763  1.00  0.00     0.000 C 
BRANCH   9  10
ATOM     10  C   UNL     1      -7.920   7.279  -2.266  1.00  0.00     0.006 C 
BRANCH  10  11
ATOM     11  C   UNL     1      -6.693   6.823  -1.465  1.00  0.00     0.053 C 
BRANCH  11  12
ATOM     12  C   UNL     1      -6.606   7.520  -0.142  1.00  0.00     0.041 C 
ATOM     13  O   UNL     1      -5.828   8.499   0.010  1.00  0.00    -0.550 OA
ATOM     14  O   UNL     1      -7.362   7.069   0.932  1.00  0.00    -0.550 OA
ENDBRANCH  11  12
ENDBRANCH  10  11
ENDBRANCH   9  10
ENDBRANCH   8   9
ENDBRANCH   7   8
ENDBRANCH   6   7
ENDBRANCH   5   6
ENDBRANCH   4   5
ENDBRANCH   3   4
ENDBRANCH   2   3
ENDBRANCH   1   2
BRANCH   1  15
ATOM     15  C   UNL     1      -7.816   3.436  -3.206  1.00  0.00     0.000 C 
BRANCH  15  16
ATOM     16  C   UNL     1      -9.247   2.914  -3.430  1.00  0.00     0.000 C 
BRANCH  16  17
ATOM     17  C   UNL     1      -9.342   1.553  -4.149  1.00  0.00     0.000 C 
BRANCH  17  18
ATOM     18  C   UNL     1     -10.031   1.587  -5.527  1.00  0.00    -0.000 C 
BRANCH  18  19
ATOM     19  C   UNL     1      -9.803   2.879  -6.339  1.00  0.00    -0.000 C 
BRANCH  19  20
ATOM     20  C   UNL     1      -9.175   2.670  -7.729  1.00  0.00    -0.000 C 
BRANCH  20  21
ATOM     21  C   UNL     1      -7.738   2.131  -7.657  1.00  0.00    -0.000 C 
BRANCH  21  22
ATOM     22  C   UNL     1      -6.817   2.900  -8.616  1.00  0.00    -0.000 C 
BRANCH  22  23
ATOM     23  C   UNL     1      -7.298   4.339  -8.884  1.00  0.00    -0.000 C 
BRANCH  23  24
ATOM     24  C   UNL     1      -6.421   5.145  -9.860  1.00  0.00    -0.000 C 
BRANCH  24  25
ATOM     25  C   UNL     1      -6.166   6.584  -9.386  1.00  0.00    -0.003 C 
ATOM     26  C   UNL     1      -4.783   6.717  -8.754  1.00  0.00     0.004 C 
ENDBRANCH  24  25
ENDBRANCH  23  24
ENDBRANCH  22  23
ENDBRANCH  21  22
ENDBRANCH  20  21
ENDBRANCH  19  20
ENDBRANCH  18  19
ENDBRANCH  17  18
ENDBRANCH  16  17
ENDBRANCH  15  16
ENDBRANCH   1  15
TORSDOF 22
ENDMDL
MODEL 9
REMARK VINA RESULT:    -4.277     16.595     19.749
REMARK INTER + INTRA:         -11.089
REMARK INTER:                  -6.563
REMARK INTRA:                  -4.526
REMARK UNBOUND:                -1.310
REMARK SMILES CCCCCCCCCCCCCCCCCCCCCCCC(=O)[O-]
REMARK SMILES IDX 13 1 14 2 15 3 16 4 17 5 18 6 19 7 20 8 21 9 22 10 23 11
REMARK SMILES IDX 24 12 25 13 26 14 12 15 11 16 10 17 9 18 8 19 7 20 6 21 5 22
REMARK SMILES IDX 4 23 3 24 2 25 1 26
REMARK H PARENT
REMARK Flexibility Score: inf
ROOT
ATOM      1  C   UNL     1      -6.946   1.893  -5.056  1.00  0.00     0.000 C 
ENDROOT
BRANCH   1   2
ATOM      2  C   UNL     1      -6.540   3.041  -4.117  1.00  0.00     0.000 C 
BRANCH   2   3
ATOM      3  C   UNL     1      -5.919   4.231  -4.867  1.00  0.00     0.000 C 
BRANCH   3   4
ATOM      4  C   UNL     1      -6.017   5.547  -4.077  1.00  0.00     0.000 C 
BRANCH   4   5
ATOM      5  C   UNL     1      -7.193   5.581  -3.078  1.00  0.00     0.000 C 
BRANCH   5   6
ATOM      6  C   UNL     1      -8.216   6.679  -3.422  1.00  0.00     0.000 C 
BRANCH   6   7
ATOM      7  C   UNL     1      -7.572   7.882  -4.132  1.00  0.00     0.000 C 
BRANCH   7   8
ATOM      8  C   UNL     1      -8.480   8.478  -5.221  1.00  0.00     0.000 C 
BRANCH   8   9
ATOM      9  C   UNL     1      -7.711   8.822  -6.507  1.00  0.00     0.000 C 
BRANCH   9  10
ATOM     10  C   UNL     1      -6.397   8.032  -6.637  1.00  0.00     0.006 C 
BRANCH  10  11
ATOM     11  C   UNL     1      -5.491   8.592  -7.741  1.00  0.00     0.053 C 
BRANCH  11  12
ATOM     12  C   UNL     1      -5.426   7.674  -8.922  1.00  0.00     0.041 C 
ATOM     13  O   UNL     1      -6.299   7.742  -9.828  1.00  0.00    -0.550 OA
ATOM     14  O   UNL     1      -4.419   6.722  -9.008  1.00  0.00    -0.550 OA
ENDBRANCH  11  12
ENDBRANCH  10  11
ENDBRANCH   9  10
ENDBRANCH   8   9
ENDBRANCH   7   8
ENDBRANCH   6   7
ENDBRANCH   5   6
ENDBRANCH   4   5
ENDBRANCH   3   4
ENDBRANCH   2   3
ENDBRANCH   1   2
BRANCH   1  15
ATOM     15  C   UNL     1      -8.470   1.697  -5.131  1.00  0.00     0.000 C 
BRANCH  15  16
ATOM     16  C   UNL     1      -9.232   2.564  -4.112  1.00  0.00     0.000 C 
BRANCH  16  17
ATOM     17  C   UNL     1     -10.024   3.741  -4.718  1.00  0.00     0.000 C 
BRANCH  17  18
ATOM     18  C   UNL     1      -9.880   3.910  -6.243  1.00  0.00    -0.000 C 
BRANCH  18  19
ATOM     19  C   UNL     1      -9.057   5.136  -6.689  1.00  0.00    -0.000 C 
BRANCH  19  20
ATOM     20  C   UNL     1      -8.497   5.055  -8.121  1.00  0.00    -0.000 C 
BRANCH  20  21
ATOM     21  C   UNL     1      -7.097   4.424  -8.176  1.00  0.00    -0.000 C 
BRANCH  21  22
ATOM     22  C   UNL     1      -6.707   4.087  -9.623  1.00  0.00    -0.000 C 
BRANCH  22  23
ATOM     23  C   UNL     1      -6.833   2.585  -9.943  1.00  0.00    -0.000 C 
BRANCH  23  24
ATOM     24  C   UNL     1      -6.821   1.656  -8.715  1.00  0.00    -0.000 C 
BRANCH  24  25
ATOM     25  C   UNL     1      -6.346   0.233  -9.047  1.00  0.00    -0.003 C 
ATOM     26  C   UNL     1      -5.622  -0.396  -7.860  1.00  0.00     0.004 C 
ENDBRANCH  24  25
ENDBRANCH  23  24
ENDBRANCH  22  23
ENDBRANCH  21  22
ENDBRANCH  20  21
ENDBRANCH  19  20
ENDBRANCH  18  19
ENDBRANCH  17  18
ENDBRANCH  16  17
ENDBRANCH  15  16
ENDBRANCH   1  15
TORSDOF 22
ENDMDL
