MODEL 1
REMARK VINA RESULT:    -4.762      0.000      0.000
REMARK INTER + INTRA:          -6.055
REMARK INTER:                  -5.876
REMARK INTRA:                  -0.179
REMARK UNBOUND:                -0.179
REMARK SMILES CCCCC=CC(C)=O
REMARK SMILES IDX 4 1 3 2 2 3 1 4 5 5 6 6 7 7 9 8 8 9
REMARK H PARENT
REMARK Flexibility Score: inf
ROOT
ATOM      1  C   UNL     1       6.019  15.026  28.364  1.00  0.00     0.027 C 
ENDROOT
BRANCH   1   2
ATOM      2  C   UNL     1       6.310  15.463  29.805  1.00  0.00     0.004 C 
BRANCH   2   3
ATOM      3  C   UNL     1       5.319  14.822  30.783  1.00  0.00    -0.003 C 
ATOM      4  C   UNL     1       5.480  15.399  32.187  1.00  0.00     0.004 C 
ENDBRANCH   2   3
ENDBRANCH   1   2
BRANCH   1   5
ATOM      5  C   UNL     1       5.079  13.855  28.330  1.00  0.00    -0.023 C 
ATOM      6  C   UNL     1       4.056  13.803  27.470  1.00  0.00     0.042 C 
BRANCH   6   7
ATOM      7  C   UNL     1       3.114  12.670  27.431  1.00  0.00     0.152 C 
ATOM      8  O   UNL     1       2.253  12.513  28.340  1.00  0.00    -0.295 OA
ATOM      9  C   UNL     1       3.181  11.690  26.303  1.00  0.00     0.093 C 
ENDBRANCH   6   7
ENDBRANCH   1   5
TORSDOF 4
ENDMDL
MODEL 2
REMARK VINA RESULT:    -4.655      2.325      3.140
REMARK INTER + INTRA:          -5.923
REMARK INTER:                  -5.676
REMARK INTRA:                  -0.248
REMARK UNBOUND:                -0.179
REMARK SMILES CCCCC=CC(C)=O
REMARK SMILES IDX 4 1 3 2 2 3 1 4 5 5 6 6 7 7 9 8 8 9
REMARK H PARENT
REMARK Flexibility Score: inf
ROOT
ATOM      1  C   UNL     1       4.560  13.326  29.060  1.00  0.00     0.027 C 
ENDROOT
BRANCH   1   2
ATOM      2  C   UNL     1       4.844  14.296  27.906  1.00  0.00     0.004 C 
BRANCH   2   3
ATOM      3  C   UNL     1       6.195  14.994  28.097  1.00  0.00    -0.003 C 
ATOM      4  C   UNL     1       6.346  15.522  29.522  1.00  0.00     0.004 C 
ENDBRANCH   2   3
ENDBRANCH   1   2
BRANCH   1   5
ATOM      5  C   UNL     1       3.140  13.447  29.534  1.00  0.00    -0.023 C 
ATOM      6  C   UNL     1       2.166  13.873  28.723  1.00  0.00     0.042 C 
BRANCH   6   7
ATOM      7  C   UNL     1       0.769  14.012  29.173  1.00  0.00     0.152 C 
ATOM      8  O   UNL     1      -0.136  14.372  28.371  1.00  0.00    -0.295 OA
ATOM      9  C   UNL     1       0.418  13.727  30.599  1.00  0.00     0.093 C 
ENDBRANCH   6   7
ENDBRANCH   1   5
TORSDOF 4
ENDMDL
MODEL 3
REMARK VINA RESULT:    -4.516      2.749      3.983
REMARK INTER + INTRA:          -5.751
REMARK INTER:                  -5.465
REMARK INTRA:                  -0.286
REMARK UNBOUND:                -0.179
REMARK SMILES CCCCC=CC(C)=O
REMARK SMILES IDX 4 1 3 2 2 3 1 4 5 5 6 6 7 7 9 8 8 9
REMARK H PARENT
REMARK Flexibility Score: inf
ROOT
ATOM      1  C   UNL     1       3.672  13.368  31.856  1.00  0.00     0.027 C 
ENDROOT
BRANCH   1   2
ATOM      2  C   UNL     1       2.374  12.629  31.503  1.00  0.00     0.004 C 
BRANCH   2   3
ATOM      3  C   UNL     1       1.159  13.548  31.663  1.00  0.00    -0.003 C 
ATOM      4  C   UNL     1       0.430  13.735  30.335  1.00  0.00     0.004 C 
ENDBRANCH   2   3
ENDBRANCH   1   2
BRANCH   1   5
ATOM      5  C   UNL     1       4.285  14.001  30.641  1.00  0.00    -0.023 C 
ATOM      6  C   UNL     1       4.136  13.467  29.424  1.00  0.00     0.042 C 
BRANCH   6   7
ATOM      7  C   UNL     1       4.742  14.066  28.220  1.00  0.00     0.152 C 
ATOM      8  O   UNL     1       4.183  13.958  27.094  1.00  0.00    -0.295 OA
ATOM      9  C   UNL     1       6.035  14.807  28.332  1.00  0.00     0.093 C 
ENDBRANCH   6   7
ENDBRANCH   1   5
TORSDOF 4
ENDMDL
MODEL 4
REMARK VINA RESULT:    -4.506      2.522      3.378
REMARK INTER + INTRA:          -5.739
REMARK INTER:                  -5.544
REMARK INTRA:                  -0.195
REMARK UNBOUND:                -0.179
REMARK SMILES CCCCC=CC(C)=O
REMARK SMILES IDX 4 1 3 2 2 3 1 4 5 5 6 6 7 7 9 8 8 9
REMARK H PARENT
REMARK Flexibility Score: inf
ROOT
ATOM      1  C   UNL     1       4.897  14.357  30.232  1.00  0.00     0.027 C 
ENDROOT
BRANCH   1   2
ATOM      2  C   UNL     1       5.088  14.013  28.749  1.00  0.00     0.004 C 
BRANCH   2   3
ATOM      3  C   UNL     1       6.072  14.982  28.085  1.00  0.00    -0.003 C 
ATOM      4  C   UNL     1       6.755  15.870  29.121  1.00  0.00     0.004 C 
ENDBRANCH   2   3
ENDBRANCH   1   2
BRANCH   1   5
ATOM      5  C   UNL     1       3.751  13.588  30.824  1.00  0.00    -0.023 C 
ATOM      6  C   UNL     1       2.649  13.319  30.116  1.00  0.00     0.042 C 
BRANCH   6   7
ATOM      7  C   UNL     1       1.507  12.578  30.683  1.00  0.00     0.152 C 
ATOM      8  O   UNL     1       1.435  11.323  30.577  1.00  0.00    -0.295 OA
ATOM      9  C   UNL     1       0.419  13.321  31.389  1.00  0.00     0.093 C 
ENDBRANCH   6   7
ENDBRANCH   1   5
TORSDOF 4
ENDMDL
MODEL 5
REMARK VINA RESULT:    -4.487      1.690      4.934
REMARK INTER + INTRA:          -5.716
REMARK INTER:                  -5.574
REMARK INTRA:                  -0.142
REMARK UNBOUND:                -0.179
REMARK SMILES CCCCC=CC(C)=O
REMARK SMILES IDX 4 1 3 2 2 3 1 4 5 5 6 6 7 7 9 8 8 9
REMARK H PARENT
REMARK Flexibility Score: inf
ROOT
ATOM      1  C   UNL     1       4.913  13.972  28.015  1.00  0.00     0.027 C 
ENDROOT
BRANCH   1   2
ATOM      2  C   UNL     1       3.748  13.665  27.065  1.00  0.00     0.004 C 
BRANCH   2   3
ATOM      3  C   UNL     1       3.150  12.285  27.360  1.00  0.00    -0.003 C 
ATOM      4  C   UNL     1       2.987  11.471  26.079  1.00  0.00     0.004 C 
ENDBRANCH   2   3
ENDBRANCH   1   2
BRANCH   1   5
ATOM      5  C   UNL     1       4.477  13.902  29.451  1.00  0.00    -0.023 C 
ATOM      6  C   UNL     1       5.121  14.574  30.411  1.00  0.00     0.042 C 
BRANCH   6   7
ATOM      7  C   UNL     1       4.717  14.508  31.827  1.00  0.00     0.152 C 
ATOM      8  O   UNL     1       3.955  13.591  32.240  1.00  0.00    -0.295 OA
ATOM      9  C   UNL     1       5.212  15.543  32.787  1.00  0.00     0.093 C 
ENDBRANCH   6   7
ENDBRANCH   1   5
TORSDOF 4
ENDMDL
MODEL 6
REMARK VINA RESULT:    -4.325      3.075      4.188
REMARK INTER + INTRA:          -5.515
REMARK INTER:                  -5.257
REMARK INTRA:                  -0.259
REMARK UNBOUND:                -0.179
REMARK SMILES CCCCC=CC(C)=O
REMARK SMILES IDX 4 1 3 2 2 3 1 4 5 5 6 6 7 7 9 8 8 9
REMARK H PARENT
REMARK Flexibility Score: inf
ROOT
ATOM      1  C   UNL     1       0.596  13.356  29.243  1.00  0.00     0.027 C 
ENDROOT
BRANCH   1   2
ATOM      2  C   UNL     1       0.336  13.699  30.716  1.00  0.00     0.004 C 
BRANCH   2   3
ATOM      3  C   UNL     1       1.554  13.357  31.581  1.00  0.00    -0.003 C 
ATOM      4  C   UNL     1       1.671  11.850  31.796  1.00  0.00     0.004 C 
ENDBRANCH   2   3
ENDBRANCH   1   2
BRANCH   1   5
ATOM      5  C   UNL     1       1.856  14.007  28.747  1.00  0.00    -0.023 C 
ATOM      6  C   UNL     1       2.812  13.302  28.134  1.00  0.00     0.042 C 
BRANCH   6   7
ATOM      7  C   UNL     1       4.062  13.919  27.653  1.00  0.00     0.152 C 
ATOM      8  O   UNL     1       4.190  14.261  26.445  1.00  0.00    -0.295 OA
ATOM      9  C   UNL     1       5.193  14.140  28.605  1.00  0.00     0.093 C 
ENDBRANCH   6   7
ENDBRANCH   1   5
TORSDOF 4
ENDMDL
MODEL 7
REMARK VINA RESULT:    -4.231      1.763      2.452
REMARK INTER + INTRA:          -5.400
REMARK INTER:                  -5.228
REMARK INTRA:                  -0.171
REMARK UNBOUND:                -0.179
REMARK SMILES CCCCC=CC(C)=O
REMARK SMILES IDX 4 1 3 2 2 3 1 4 5 5 6 6 7 7 9 8 8 9
REMARK H PARENT
REMARK Flexibility Score: inf
ROOT
ATOM      1  C   UNL     1       3.888  12.313  31.001  1.00  0.00     0.027 C 
ENDROOT
BRANCH   1   2
ATOM      2  C   UNL     1       3.846  13.523  31.943  1.00  0.00     0.004 C 
BRANCH   2   3
ATOM      3  C   UNL     1       4.875  14.580  31.525  1.00  0.00    -0.003 C 
ATOM      4  C   UNL     1       5.423  15.325  32.739  1.00  0.00     0.004 C 
ENDBRANCH   2   3
ENDBRANCH   1   2
BRANCH   1   5
ATOM      5  C   UNL     1       3.448  12.689  29.615  1.00  0.00    -0.023 C 
ATOM      6  C   UNL     1       3.891  12.031  28.539  1.00  0.00     0.042 C 
BRANCH   6   7
ATOM      7  C   UNL     1       3.482  12.393  27.169  1.00  0.00     0.152 C 
ATOM      8  O   UNL     1       2.832  11.582  26.453  1.00  0.00    -0.295 OA
ATOM      9  C   UNL     1       3.845  13.734  26.617  1.00  0.00     0.093 C 
ENDBRANCH   6   7
ENDBRANCH   1   5
TORSDOF 4
ENDMDL
MODEL 8
REMARK VINA RESULT:    -4.194      2.815      3.405
REMARK INTER + INTRA:          -5.354
REMARK INTER:                  -5.074
REMARK INTRA:                  -0.280
REMARK UNBOUND:                -0.179
REMARK SMILES CCCCC=CC(C)=O
REMARK SMILES IDX 4 1 3 2 2 3 1 4 5 5 6 6 7 7 9 8 8 9
REMARK H PARENT
REMARK Flexibility Score: inf
ROOT
ATOM      1  C   UNL     1       3.940  11.984  30.768  1.00  0.00     0.027 C 
ENDROOT
BRANCH   1   2
ATOM      2  C   UNL     1       3.202  13.009  31.639  1.00  0.00     0.004 C 
BRANCH   2   3
ATOM      3  C   UNL     1       1.739  12.601  31.844  1.00  0.00    -0.003 C 
ATOM      4  C   UNL     1       0.792  13.594  31.175  1.00  0.00     0.004 C 
ENDBRANCH   2   3
ENDBRANCH   1   2
BRANCH   1   5
ATOM      5  C   UNL     1       3.993  12.428  29.334  1.00  0.00    -0.023 C 
ATOM      6  C   UNL     1       3.256  11.834  28.390  1.00  0.00     0.042 C 
BRANCH   6   7
ATOM      7  C   UNL     1       3.304  12.246  26.975  1.00  0.00     0.152 C 
ATOM      8  O   UNL     1       2.881  11.482  26.065  1.00  0.00    -0.295 OA
ATOM      9  C   UNL     1       3.865  13.584  26.612  1.00  0.00     0.093 C 
ENDBRANCH   6   7
ENDBRANCH   1   5
TORSDOF 4
ENDMDL
MODEL 9
REMARK VINA RESULT:    -4.191      2.825      4.606
REMARK INTER + INTRA:          -5.351
REMARK INTER:                  -5.121
REMARK INTRA:                  -0.229
REMARK UNBOUND:                -0.179
REMARK SMILES CCCCC=CC(C)=O
REMARK SMILES IDX 4 1 3 2 2 3 1 4 5 5 6 6 7 7 9 8 8 9
REMARK H PARENT
REMARK Flexibility Score: inf
ROOT
ATOM      1  C   UNL     1       2.340  12.909  28.593  1.00  0.00     0.027 C 
ENDROOT
BRANCH   1   2
ATOM      2  C   UNL     1       1.695  12.822  29.982  1.00  0.00     0.004 C 
BRANCH   2   3
ATOM      3  C   UNL     1       0.511  13.788  30.098  1.00  0.00    -0.003 C 
ATOM      4  C   UNL     1      -0.065  14.121  28.724  1.00  0.00     0.004 C 
ENDBRANCH   2   3
ENDBRANCH   1   2
BRANCH   1   5
ATOM      5  C   UNL     1       3.550  13.800  28.611  1.00  0.00    -0.023 C 
ATOM      6  C   UNL     1       4.346  13.876  29.682  1.00  0.00     0.042 C 
BRANCH   6   7
ATOM      7  C   UNL     1       5.530  14.754  29.724  1.00  0.00     0.152 C 
ATOM      8  O   UNL     1       5.934  15.242  30.816  1.00  0.00    -0.295 OA
ATOM      9  C   UNL     1       6.260  15.075  28.460  1.00  0.00     0.093 C 
ENDBRANCH   6   7
ENDBRANCH   1   5
TORSDOF 4
ENDMDL
