MODEL 1
REMARK VINA RESULT:    -3.951      0.000      0.000
REMARK INTER + INTRA:          -3.951
REMARK INTER:                  -3.951
REMARK INTRA:                   0.000
REMARK UNBOUND:                 0.000
REMARK SMILES Cc1cccc2ccccc12
REMARK SMILES IDX 1 1 2 2 3 3 4 4 5 5 6 6 7 7 8 8 9 9 10 10 11 11
REMARK H PARENT
REMARK Flexibility Score: inf
ROOT
ATOM      1  C   UNL     1       3.243 110.369 182.885  1.00  0.00     0.045 C 
ATOM      2  C   UNL     1       3.928 109.035 182.736  1.00  0.00    -0.043 A 
ATOM      3  C   UNL     1       5.006 108.729 183.585  1.00  0.00     0.004 A 
ATOM      4  C   UNL     1       5.671 107.507 183.484  1.00  0.00     0.001 A 
ATOM      5  C   UNL     1       5.274 106.567 182.535  1.00  0.00     0.009 A 
ATOM      6  C   UNL     1       4.204 106.842 181.673  1.00  0.00    -0.018 A 
ATOM      7  C   UNL     1       3.809 105.891 180.719  1.00  0.00     0.009 A 
ATOM      8  C   UNL     1       2.744 106.158 179.858  1.00  0.00     0.001 A 
ATOM      9  C   UNL     1       2.064 107.373 179.940  1.00  0.00     0.001 A 
ATOM     10  C   UNL     1       2.443 108.331 180.883  1.00  0.00     0.009 A 
ATOM     11  C   UNL     1       3.518 108.083 181.766  1.00  0.00    -0.015 A 
ENDROOT
TORSDOF 0
ENDMDL
MODEL 2
REMARK VINA RESULT:    -3.941      1.181      3.970
REMARK INTER + INTRA:          -3.941
REMARK INTER:                  -3.941
REMARK INTRA:                   0.000
REMARK UNBOUND:                 0.000
REMARK SMILES Cc1cccc2ccccc12
REMARK SMILES IDX 1 1 2 2 3 3 4 4 5 5 6 6 7 7 8 8 9 9 10 10 11 11
REMARK H PARENT
REMARK Flexibility Score: inf
ROOT
ATOM      1  C   UNL     1       0.206 108.128 179.100  1.00  0.00     0.045 C 
ATOM      2  C   UNL     1       1.324 107.158 179.385  1.00  0.00    -0.043 A 
ATOM      3  C   UNL     1       1.432 105.998 178.597  1.00  0.00     0.004 A 
ATOM      4  C   UNL     1       2.449 105.072 178.824  1.00  0.00     0.001 A 
ATOM      5  C   UNL     1       3.379 105.284 179.840  1.00  0.00     0.009 A 
ATOM      6  C   UNL     1       3.299 106.430 180.643  1.00  0.00    -0.018 A 
ATOM      7  C   UNL     1       4.239 106.637 181.665  1.00  0.00     0.009 A 
ATOM      8  C   UNL     1       4.166 107.776 182.468  1.00  0.00     0.001 A 
ATOM      9  C   UNL     1       3.156 108.716 182.260  1.00  0.00     0.001 A 
ATOM     10  C   UNL     1       2.213 108.526 181.247  1.00  0.00     0.009 A 
ATOM     11  C   UNL     1       2.267 107.381 180.422  1.00  0.00    -0.015 A 
ENDROOT
TORSDOF 0
ENDMDL
MODEL 3
REMARK VINA RESULT:    -3.904      0.932      4.208
REMARK INTER + INTRA:          -3.904
REMARK INTER:                  -3.904
REMARK INTRA:                   0.000
REMARK UNBOUND:                 0.000
REMARK SMILES Cc1cccc2ccccc12
REMARK SMILES IDX 1 1 2 2 3 3 4 4 5 5 6 6 7 7 8 8 9 9 10 10 11 11
REMARK H PARENT
REMARK Flexibility Score: inf
ROOT
ATOM      1  C   UNL     1       4.070 105.313 179.299  1.00  0.00     0.045 C 
ATOM      2  C   UNL     1       3.510 106.450 180.115  1.00  0.00    -0.043 A 
ATOM      3  C   UNL     1       2.326 107.074 179.683  1.00  0.00     0.004 A 
ATOM      4  C   UNL     1       1.771 108.130 180.404  1.00  0.00     0.001 A 
ATOM      5  C   UNL     1       2.385 108.584 181.570  1.00  0.00     0.009 A 
ATOM      6  C   UNL     1       3.566 107.984 182.027  1.00  0.00    -0.018 A 
ATOM      7  C   UNL     1       4.179 108.446 183.202  1.00  0.00     0.009 A 
ATOM      8  C   UNL     1       5.355 107.853 183.663  1.00  0.00     0.001 A 
ATOM      9  C   UNL     1       5.929 106.795 182.957  1.00  0.00     0.001 A 
ATOM     10  C   UNL     1       5.332 106.322 181.787  1.00  0.00     0.009 A 
ATOM     11  C   UNL     1       4.142 106.906 181.301  1.00  0.00    -0.015 A 
ENDROOT
TORSDOF 0
ENDMDL
MODEL 4
REMARK VINA RESULT:    -3.895      1.244      4.750
REMARK INTER + INTRA:          -3.895
REMARK INTER:                  -3.895
REMARK INTRA:                   0.000
REMARK UNBOUND:                 0.000
REMARK SMILES Cc1cccc2ccccc12
REMARK SMILES IDX 1 1 2 2 3 3 4 4 5 5 6 6 7 7 8 8 9 9 10 10 11 11
REMARK H PARENT
REMARK Flexibility Score: inf
ROOT
ATOM      1  C   UNL     1       3.222 104.595 178.688  1.00  0.00     0.045 C 
ATOM      2  C   UNL     1       2.468 105.824 179.129  1.00  0.00    -0.043 A 
ATOM      3  C   UNL     1       1.329 106.215 178.404  1.00  0.00     0.004 A 
ATOM      4  C   UNL     1       0.600 107.346 178.774  1.00  0.00     0.001 A 
ATOM      5  C   UNL     1       0.994 108.107 179.872  1.00  0.00     0.009 A 
ATOM      6  C   UNL     1       2.126 107.744 180.615  1.00  0.00    -0.018 A 
ATOM      7  C   UNL     1       2.517 108.516 181.720  1.00  0.00     0.009 A 
ATOM      8  C   UNL     1       3.642 108.160 182.465  1.00  0.00     0.001 A 
ATOM      9  C   UNL     1       4.387 107.034 182.113  1.00  0.00     0.001 A 
ATOM     10  C   UNL     1       4.012 106.254 181.017  1.00  0.00     0.009 A 
ATOM     11  C   UNL     1       2.876 106.595 180.249  1.00  0.00    -0.015 A 
ENDROOT
TORSDOF 0
ENDMDL
MODEL 5
REMARK VINA RESULT:    -3.881      1.364      4.578
REMARK INTER + INTRA:          -3.881
REMARK INTER:                  -3.881
REMARK INTRA:                   0.000
REMARK UNBOUND:                 0.000
REMARK SMILES Cc1cccc2ccccc12
REMARK SMILES IDX 1 1 2 2 3 3 4 4 5 5 6 6 7 7 8 8 9 9 10 10 11 11
REMARK H PARENT
REMARK Flexibility Score: inf
ROOT
ATOM      1  C   UNL     1       6.083 106.461 183.437  1.00  0.00     0.045 C 
ATOM      2  C   UNL     1       5.054 107.457 182.967  1.00  0.00    -0.043 A 
ATOM      3  C   UNL     1       3.994 107.005 182.160  1.00  0.00     0.004 A 
ATOM      4  C   UNL     1       3.019 107.890 181.701  1.00  0.00     0.001 A 
ATOM      5  C   UNL     1       3.081 109.241 182.037  1.00  0.00     0.009 A 
ATOM      6  C   UNL     1       4.125 109.723 182.838  1.00  0.00    -0.018 A 
ATOM      7  C   UNL     1       4.182 111.085 183.173  1.00  0.00     0.009 A 
ATOM      8  C   UNL     1       5.218 111.571 183.971  1.00  0.00     0.001 A 
ATOM      9  C   UNL     1       6.205 110.705 184.442  1.00  0.00     0.001 A 
ATOM     10  C   UNL     1       6.164 109.346 184.119  1.00  0.00     0.009 A 
ATOM     11  C   UNL     1       5.125 108.831 183.313  1.00  0.00    -0.015 A 
ENDROOT
TORSDOF 0
ENDMDL
MODEL 6
REMARK VINA RESULT:    -3.850      0.836      2.641
REMARK INTER + INTRA:          -3.850
REMARK INTER:                  -3.850
REMARK INTRA:                   0.000
REMARK UNBOUND:                 0.000
REMARK SMILES Cc1cccc2ccccc12
REMARK SMILES IDX 1 1 2 2 3 3 4 4 5 5 6 6 7 7 8 8 9 9 10 10 11 11
REMARK H PARENT
REMARK Flexibility Score: inf
ROOT
ATOM      1  C   UNL     1       5.922 106.595 182.965  1.00  0.00     0.045 C 
ATOM      2  C   UNL     1       4.694 107.335 182.500  1.00  0.00    -0.043 A 
ATOM      3  C   UNL     1       4.265 108.459 183.227  1.00  0.00     0.004 A 
ATOM      4  C   UNL     1       3.134 109.175 182.835  1.00  0.00     0.001 A 
ATOM      5  C   UNL     1       2.410 108.785 181.711  1.00  0.00     0.009 A 
ATOM      6  C   UNL     1       2.812 107.669 180.964  1.00  0.00    -0.018 A 
ATOM      7  C   UNL     1       2.078 107.281 179.832  1.00  0.00     0.009 A 
ATOM      8  C   UNL     1       2.472 106.171 179.083  1.00  0.00     0.001 A 
ATOM      9  C   UNL     1       3.599 105.439 179.457  1.00  0.00     0.001 A 
ATOM     10  C   UNL     1       4.341 105.811 180.580  1.00  0.00     0.009 A 
ATOM     11  C   UNL     1       3.962 106.931 181.353  1.00  0.00    -0.015 A 
ENDROOT
TORSDOF 0
ENDMDL
MODEL 7
REMARK VINA RESULT:    -3.836      1.236      2.975
REMARK INTER + INTRA:          -3.836
REMARK INTER:                  -3.836
REMARK INTRA:                   0.000
REMARK UNBOUND:                 0.000
REMARK SMILES Cc1cccc2ccccc12
REMARK SMILES IDX 1 1 2 2 3 3 4 4 5 5 6 6 7 7 8 8 9 9 10 10 11 11
REMARK H PARENT
REMARK Flexibility Score: inf
ROOT
ATOM      1  C   UNL     1       5.439 105.843 179.587  1.00  0.00     0.045 C 
ATOM      2  C   UNL     1       5.390 106.417 180.980  1.00  0.00    -0.043 A 
ATOM      3  C   UNL     1       6.451 106.146 181.862  1.00  0.00     0.004 A 
ATOM      4  C   UNL     1       6.449 106.655 183.160  1.00  0.00     0.001 A 
ATOM      5  C   UNL     1       5.390 107.444 183.604  1.00  0.00     0.009 A 
ATOM      6  C   UNL     1       4.317 107.732 182.750  1.00  0.00    -0.018 A 
ATOM      7  C   UNL     1       3.253 108.527 183.203  1.00  0.00     0.009 A 
ATOM      8  C   UNL     1       2.181 108.819 182.358  1.00  0.00     0.001 A 
ATOM      9  C   UNL     1       2.162 108.320 181.055  1.00  0.00     0.001 A 
ATOM     10  C   UNL     1       3.212 107.528 180.587  1.00  0.00     0.009 A 
ATOM     11  C   UNL     1       4.307 107.220 181.424  1.00  0.00    -0.015 A 
ENDROOT
TORSDOF 0
ENDMDL
MODEL 8
REMARK VINA RESULT:    -3.779      1.247      3.936
REMARK INTER + INTRA:          -3.779
REMARK INTER:                  -3.779
REMARK INTRA:                   0.000
REMARK UNBOUND:                 0.000
REMARK SMILES Cc1cccc2ccccc12
REMARK SMILES IDX 1 1 2 2 3 3 4 4 5 5 6 6 7 7 8 8 9 9 10 10 11 11
REMARK H PARENT
REMARK Flexibility Score: inf
ROOT
ATOM      1  C   UNL     1       2.488 108.501 181.355  1.00  0.00     0.045 C 
ATOM      2  C   UNL     1       3.734 108.232 182.159  1.00  0.00    -0.043 A 
ATOM      3  C   UNL     1       4.255 106.926 182.184  1.00  0.00     0.004 A 
ATOM      4  C   UNL     1       5.405 106.630 182.914  1.00  0.00     0.001 A 
ATOM      5  C   UNL     1       6.058 107.629 183.633  1.00  0.00     0.009 A 
ATOM      6  C   UNL     1       5.564 108.940 183.629  1.00  0.00    -0.018 A 
ATOM      7  C   UNL     1       6.227 109.942 184.355  1.00  0.00     0.009 A 
ATOM      8  C   UNL     1       5.741 111.250 184.355  1.00  0.00     0.001 A 
ATOM      9  C   UNL     1       4.592 111.570 183.632  1.00  0.00     0.001 A 
ATOM     10  C   UNL     1       3.920 110.586 182.904  1.00  0.00     0.009 A 
ATOM     11  C   UNL     1       4.393 109.256 182.888  1.00  0.00    -0.015 A 
ENDROOT
TORSDOF 0
ENDMDL
MODEL 9
REMARK VINA RESULT:    -3.715      1.292      3.711
REMARK INTER + INTRA:          -3.715
REMARK INTER:                  -3.715
REMARK INTRA:                   0.000
REMARK UNBOUND:                 0.000
REMARK SMILES Cc1cccc2ccccc12
REMARK SMILES IDX 1 1 2 2 3 3 4 4 5 5 6 6 7 7 8 8 9 9 10 10 11 11
REMARK H PARENT
REMARK Flexibility Score: inf
ROOT
ATOM      1  C   UNL     1       3.534 111.096 183.228  1.00  0.00     0.045 C 
ATOM      2  C   UNL     1       3.765 109.654 182.852  1.00  0.00    -0.043 A 
ATOM      3  C   UNL     1       2.786 108.987 182.095  1.00  0.00     0.004 A 
ATOM      4  C   UNL     1       2.956 107.653 181.724  1.00  0.00     0.001 A 
ATOM      5  C   UNL     1       4.104 106.960 182.101  1.00  0.00     0.009 A 
ATOM      6  C   UNL     1       5.099 107.597 182.856  1.00  0.00    -0.018 A 
ATOM      7  C   UNL     1       6.253 106.892 183.231  1.00  0.00     0.009 A 
ATOM      8  C   UNL     1       7.248 107.520 183.982  1.00  0.00     0.001 A 
ATOM      9  C   UNL     1       7.100 108.853 184.365  1.00  0.00     0.001 A 
ATOM     10  C   UNL     1       5.958 109.569 184.000  1.00  0.00     0.009 A 
ATOM     11  C   UNL     1       4.938 108.955 183.239  1.00  0.00    -0.015 A 
ENDROOT
TORSDOF 0
ENDMDL
