MODEL 1
REMARK VINA RESULT:    -3.784      0.000      0.000
REMARK INTER + INTRA:          -4.903
REMARK INTER:                  -4.669
REMARK INTRA:                  -0.234
REMARK UNBOUND:                -0.234
REMARK SMILES CCCCC=CC(C)=O
REMARK SMILES IDX 4 1 3 2 2 3 1 4 5 5 6 6 7 7 9 8 8 9
REMARK H PARENT
REMARK Flexibility Score: inf
ROOT
ATOM      1  C   UNL     1      57.168  68.957  30.025  1.00  0.00     0.027 C 
ENDROOT
BRANCH   1   2
ATOM      2  C   UNL     1      56.943  70.364  30.592  1.00  0.00     0.004 C 
BRANCH   2   3
ATOM      3  C   UNL     1      55.896  70.344  31.712  1.00  0.00    -0.003 C 
ATOM      4  C   UNL     1      54.829  69.284  31.450  1.00  0.00     0.004 C 
ENDBRANCH   2   3
ENDBRANCH   1   2
BRANCH   1   5
ATOM      5  C   UNL     1      58.502  68.409  30.443  1.00  0.00    -0.023 C 
ATOM      6  C   UNL     1      59.500  69.215  30.823  1.00  0.00     0.042 C 
BRANCH   6   7
ATOM      7  C   UNL     1      60.813  68.697  31.251  1.00  0.00     0.152 C 
ATOM      8  O   UNL     1      60.984  67.465  31.463  1.00  0.00    -0.295 OA
ATOM      9  C   UNL     1      61.956  69.641  31.433  1.00  0.00     0.093 C 
ENDBRANCH   6   7
ENDBRANCH   1   5
TORSDOF 4
ENDMDL
MODEL 2
REMARK VINA RESULT:    -3.607      1.791      4.648
REMARK INTER + INTRA:          -4.685
REMARK INTER:                  -4.461
REMARK INTRA:                  -0.225
REMARK UNBOUND:                -0.234
REMARK SMILES CCCCC=CC(C)=O
REMARK SMILES IDX 4 1 3 2 2 3 1 4 5 5 6 6 7 7 9 8 8 9
REMARK H PARENT
REMARK Flexibility Score: inf
ROOT
ATOM      1  C   UNL     1      60.797  67.649  31.700  1.00  0.00     0.027 C 
ENDROOT
BRANCH   1   2
ATOM      2  C   UNL     1      61.167  69.007  32.309  1.00  0.00     0.004 C 
BRANCH   2   3
ATOM      3  C   UNL     1      62.093  69.795  31.375  1.00  0.00    -0.003 C 
ATOM      4  C   UNL     1      61.362  70.972  30.737  1.00  0.00     0.004 C 
ENDBRANCH   2   3
ENDBRANCH   1   2
BRANCH   1   5
ATOM      5  C   UNL     1      59.563  67.752  30.851  1.00  0.00    -0.023 C 
ATOM      6  C   UNL     1      58.598  68.636  31.126  1.00  0.00     0.042 C 
BRANCH   6   7
ATOM      7  C   UNL     1      57.384  68.763  30.298  1.00  0.00     0.152 C 
ATOM      8  O   UNL     1      57.381  68.382  29.095  1.00  0.00    -0.295 OA
ATOM      9  C   UNL     1      56.143  69.348  30.889  1.00  0.00     0.093 C 
ENDBRANCH   6   7
ENDBRANCH   1   5
TORSDOF 4
ENDMDL
MODEL 3
REMARK VINA RESULT:    -3.571     16.125     17.266
REMARK INTER + INTRA:          -4.640
REMARK INTER:                  -4.489
REMARK INTRA:                  -0.150
REMARK UNBOUND:                -0.234
REMARK SMILES CCCCC=CC(C)=O
REMARK SMILES IDX 4 1 3 2 2 3 1 4 5 5 6 6 7 7 9 8 8 9
REMARK H PARENT
REMARK Flexibility Score: inf
ROOT
ATOM      1  C   UNL     1      43.733  60.875  28.847  1.00  0.00     0.027 C 
ENDROOT
BRANCH   1   2
ATOM      2  C   UNL     1      44.387  59.644  28.207  1.00  0.00     0.004 C 
BRANCH   2   3
ATOM      3  C   UNL     1      43.427  58.961  27.225  1.00  0.00    -0.003 C 
ATOM      4  C   UNL     1      42.162  58.483  27.932  1.00  0.00     0.004 C 
ENDBRANCH   2   3
ENDBRANCH   1   2
BRANCH   1   5
ATOM      5  C   UNL     1      43.757  60.785  30.346  1.00  0.00    -0.023 C 
ATOM      6  C   UNL     1      44.431  61.670  31.088  1.00  0.00     0.042 C 
BRANCH   6   7
ATOM      7  C   UNL     1      44.456  61.608  32.562  1.00  0.00     0.152 C 
ATOM      8  O   UNL     1      44.858  60.572  33.158  1.00  0.00    -0.295 OA
ATOM      9  C   UNL     1      44.001  62.787  33.359  1.00  0.00     0.093 C 
ENDBRANCH   6   7
ENDBRANCH   1   5
TORSDOF 4
ENDMDL
MODEL 4
REMARK VINA RESULT:    -3.563     17.818     19.833
REMARK INTER + INTRA:          -4.630
REMARK INTER:                  -4.395
REMARK INTRA:                  -0.235
REMARK UNBOUND:                -0.234
REMARK SMILES CCCCC=CC(C)=O
REMARK SMILES IDX 4 1 3 2 2 3 1 4 5 5 6 6 7 7 9 8 8 9
REMARK H PARENT
REMARK Flexibility Score: inf
ROOT
ATOM      1  C   UNL     1      42.225  58.570  28.105  1.00  0.00     0.027 C 
ENDROOT
BRANCH   1   2
ATOM      2  C   UNL     1      43.425  58.988  27.246  1.00  0.00     0.004 C 
BRANCH   2   3
ATOM      3  C   UNL     1      44.396  59.864  28.047  1.00  0.00    -0.003 C 
ATOM      4  C   UNL     1      43.644  60.799  28.991  1.00  0.00     0.004 C 
ENDBRANCH   2   3
ENDBRANCH   1   2
BRANCH   1   5
ATOM      5  C   UNL     1      42.281  57.108  28.442  1.00  0.00    -0.023 C 
ATOM      6  C   UNL     1      43.259  56.321  27.978  1.00  0.00     0.042 C 
BRANCH   6   7
ATOM      7  C   UNL     1      43.340  54.886  28.309  1.00  0.00     0.152 C 
ATOM      8  O   UNL     1      42.677  54.406  29.269  1.00  0.00    -0.295 OA
ATOM      9  C   UNL     1      44.216  53.989  27.497  1.00  0.00     0.093 C 
ENDBRANCH   6   7
ENDBRANCH   1   5
TORSDOF 4
ENDMDL
MODEL 5
REMARK VINA RESULT:    -3.538     20.881     22.084
REMARK INTER + INTRA:          -4.600
REMARK INTER:                  -4.395
REMARK INTRA:                  -0.205
REMARK UNBOUND:                -0.234
REMARK SMILES CCCCC=CC(C)=O
REMARK SMILES IDX 4 1 3 2 2 3 1 4 5 5 6 6 7 7 9 8 8 9
REMARK H PARENT
REMARK Flexibility Score: inf
ROOT
ATOM      1  C   UNL     1      41.875  60.559  44.581  1.00  0.00     0.027 C 
ENDROOT
BRANCH   1   2
ATOM      2  C   UNL     1      42.198  59.060  44.533  1.00  0.00     0.004 C 
BRANCH   2   3
ATOM      3  C   UNL     1      42.030  58.507  43.112  1.00  0.00    -0.003 C 
ATOM      4  C   UNL     1      42.525  59.506  42.070  1.00  0.00     0.004 C 
ENDBRANCH   2   3
ENDBRANCH   1   2
BRANCH   1   5
ATOM      5  C   UNL     1      42.975  61.330  45.251  1.00  0.00    -0.023 C 
ATOM      6  C   UNL     1      43.391  62.510  44.776  1.00  0.00     0.042 C 
BRANCH   6   7
ATOM      7  C   UNL     1      44.460  63.290  45.426  1.00  0.00     0.152 C 
ATOM      8  O   UNL     1      45.484  62.719  45.892  1.00  0.00    -0.295 OA
ATOM      9  C   UNL     1      44.331  64.774  45.533  1.00  0.00     0.093 C 
ENDBRANCH   6   7
ENDBRANCH   1   5
TORSDOF 4
ENDMDL
MODEL 6
REMARK VINA RESULT:    -3.519      2.505      4.905
REMARK INTER + INTRA:          -4.576
REMARK INTER:                  -4.344
REMARK INTRA:                  -0.231
REMARK UNBOUND:                -0.234
REMARK SMILES CCCCC=CC(C)=O
REMARK SMILES IDX 4 1 3 2 2 3 1 4 5 5 6 6 7 7 9 8 8 9
REMARK H PARENT
REMARK Flexibility Score: inf
ROOT
ATOM      1  C   UNL     1      58.669  68.347  30.298  1.00  0.00     0.027 C 
ENDROOT
BRANCH   1   2
ATOM      2  C   UNL     1      59.783  69.208  30.908  1.00  0.00     0.004 C 
BRANCH   2   3
ATOM      3  C   UNL     1      60.940  68.334  31.408  1.00  0.00    -0.003 C 
ATOM      4  C   UNL     1      60.488  66.893  31.627  1.00  0.00     0.004 C 
ENDBRANCH   2   3
ENDBRANCH   1   2
BRANCH   1   5
ATOM      5  C   UNL     1      57.319  68.966  30.523  1.00  0.00    -0.023 C 
ATOM      6  C   UNL     1      56.670  68.821  31.684  1.00  0.00     0.042 C 
BRANCH   6   7
ATOM      7  C   UNL     1      55.350  69.432  31.931  1.00  0.00     0.152 C 
ATOM      8  O   UNL     1      54.343  69.090  31.253  1.00  0.00    -0.295 OA
ATOM      9  C   UNL     1      55.202  70.466  32.999  1.00  0.00     0.093 C 
ENDBRANCH   6   7
ENDBRANCH   1   5
TORSDOF 4
ENDMDL
MODEL 7
REMARK VINA RESULT:    -3.491     20.870     22.281
REMARK INTER + INTRA:          -4.542
REMARK INTER:                  -4.416
REMARK INTRA:                  -0.126
REMARK UNBOUND:                -0.234
REMARK SMILES CCCCC=CC(C)=O
REMARK SMILES IDX 4 1 3 2 2 3 1 4 5 5 6 6 7 7 9 8 8 9
REMARK H PARENT
REMARK Flexibility Score: inf
ROOT
ATOM      1  C   UNL     1      43.435  62.777  44.428  1.00  0.00     0.027 C 
ENDROOT
BRANCH   1   2
ATOM      2  C   UNL     1      44.497  63.443  45.311  1.00  0.00     0.004 C 
BRANCH   2   3
ATOM      3  C   UNL     1      44.112  64.892  45.636  1.00  0.00    -0.003 C 
ATOM      4  C   UNL     1      45.329  65.700  46.076  1.00  0.00     0.004 C 
ENDBRANCH   2   3
ENDBRANCH   1   2
BRANCH   1   5
ATOM      5  C   UNL     1      42.980  61.473  45.015  1.00  0.00    -0.023 C 
ATOM      6  C   UNL     1      43.839  60.473  45.247  1.00  0.00     0.042 C 
BRANCH   6   7
ATOM      7  C   UNL     1      43.415  59.189  45.836  1.00  0.00     0.152 C 
ATOM      8  O   UNL     1      42.518  58.492  45.288  1.00  0.00    -0.295 OA
ATOM      9  C   UNL     1      44.058  58.707  47.095  1.00  0.00     0.093 C 
ENDBRANCH   6   7
ENDBRANCH   1   5
TORSDOF 4
ENDMDL
MODEL 8
REMARK VINA RESULT:    -3.490     14.853     17.147
REMARK INTER + INTRA:          -4.540
REMARK INTER:                  -4.315
REMARK INTRA:                  -0.225
REMARK UNBOUND:                -0.234
REMARK SMILES CCCCC=CC(C)=O
REMARK SMILES IDX 4 1 3 2 2 3 1 4 5 5 6 6 7 7 9 8 8 9
REMARK H PARENT
REMARK Flexibility Score: inf
ROOT
ATOM      1  C   UNL     1      47.370  58.653  27.243  1.00  0.00     0.027 C 
ENDROOT
BRANCH   1   2
ATOM      2  C   UNL     1      47.500  57.615  28.364  1.00  0.00     0.004 C 
BRANCH   2   3
ATOM      3  C   UNL     1      48.865  57.721  29.055  1.00  0.00    -0.003 C 
ATOM      4  C   UNL     1      49.896  58.379  28.142  1.00  0.00     0.004 C 
ENDBRANCH   2   3
ENDBRANCH   1   2
BRANCH   1   5
ATOM      5  C   UNL     1      45.986  59.233  27.196  1.00  0.00    -0.023 C 
ATOM      6  C   UNL     1      45.128  59.076  28.212  1.00  0.00     0.042 C 
BRANCH   6   7
ATOM      7  C   UNL     1      43.769  59.648  28.193  1.00  0.00     0.152 C 
ATOM      8  O   UNL     1      43.546  60.798  28.662  1.00  0.00    -0.295 OA
ATOM      9  C   UNL     1      42.643  58.859  27.610  1.00  0.00     0.093 C 
ENDBRANCH   6   7
ENDBRANCH   1   5
TORSDOF 4
ENDMDL
MODEL 9
REMARK VINA RESULT:    -3.457     16.222     16.962
REMARK INTER + INTRA:          -4.499
REMARK INTER:                  -4.358
REMARK INTRA:                  -0.142
REMARK UNBOUND:                -0.234
REMARK SMILES CCCCC=CC(C)=O
REMARK SMILES IDX 4 1 3 2 2 3 1 4 5 5 6 6 7 7 9 8 8 9
REMARK H PARENT
REMARK Flexibility Score: inf
ROOT
ATOM      1  C   UNL     1      61.063  60.199  45.611  1.00  0.00     0.027 C 
ENDROOT
BRANCH   1   2
ATOM      2  C   UNL     1      59.903  59.200  45.698  1.00  0.00     0.004 C 
BRANCH   2   3
ATOM      3  C   UNL     1      59.440  58.772  44.300  1.00  0.00    -0.003 C 
ATOM      4  C   UNL     1      58.718  57.429  44.345  1.00  0.00     0.004 C 
ENDBRANCH   2   3
ENDBRANCH   1   2
BRANCH   1   5
ATOM      5  C   UNL     1      60.664  61.544  46.144  1.00  0.00    -0.023 C 
ATOM      6  C   UNL     1      60.737  62.646  45.388  1.00  0.00     0.042 C 
BRANCH   6   7
ATOM      7  C   UNL     1      60.336  63.974  45.888  1.00  0.00     0.152 C 
ATOM      8  O   UNL     1      59.433  64.637  45.307  1.00  0.00    -0.295 OA
ATOM      9  C   UNL     1      61.006  64.542  47.096  1.00  0.00     0.093 C 
ENDBRANCH   6   7
ENDBRANCH   1   5
TORSDOF 4
ENDMDL
