MODEL 1
REMARK VINA RESULT:    -6.296      0.000      0.000
REMARK INTER + INTRA:          -6.296
REMARK INTER:                  -6.296
REMARK INTRA:                   0.000
REMARK UNBOUND:                 0.000
REMARK SMILES C=C1CCC[C@]2(C)CC(=O)C(=C(C)C)C[C@H]12
REMARK SMILES IDX 13 1 12 2 11 3 15 4 16 5 2 6 1 7 3 8 4 9 5 10 6 11 8 12 9 13
REMARK SMILES IDX 10 14 7 15 14 16
REMARK H PARENT
REMARK Flexibility Score: inf
ROOT
ATOM      1  C   UNL     1       0.812  31.927  27.148  1.00  0.00     0.039 C 
ATOM      2  C   UNL     1       0.072  31.287  28.300  1.00  0.00    -0.070 C 
ATOM      3  C   UNL     1       0.727  30.780  29.385  1.00  0.00    -0.006 C 
ATOM      4  C   UNL     1      -0.016  30.231  30.592  1.00  0.00     0.047 C 
ATOM      5  C   UNL     1       0.753  29.056  31.246  1.00  0.00     0.025 C 
ATOM      6  C   UNL     1      -0.058  28.538  32.429  1.00  0.00    -0.073 C 
ATOM      7  C   UNL     1      -1.001  27.602  32.242  1.00  0.00     0.008 C 
ATOM      8  C   UNL     1       0.117  29.129  33.810  1.00  0.00     0.031 C 
ATOM      9  C   UNL     1       1.297  30.097  33.878  1.00  0.00     0.005 C 
ATOM     10  C   UNL     1       2.504  29.501  33.153  1.00  0.00     0.008 C 
ATOM     11  C   UNL     1       2.268  29.388  31.613  1.00  0.00    -0.018 C 
ATOM     12  C   UNL     1       2.746  30.714  30.946  1.00  0.00     0.088 C 
ATOM     13  C   UNL     1       2.201  30.851  29.560  1.00  0.00     0.159 C 
ATOM     14  O   UNL     1       2.995  30.978  28.588  1.00  0.00    -0.295 OA
ATOM     15  C   UNL     1       3.170  28.243  31.088  1.00  0.00     0.012 C 
ATOM     16  C   UNL     1      -1.438  31.263  28.220  1.00  0.00     0.039 C 
ENDROOT
TORSDOF 0
ENDMDL
MODEL 2
REMARK VINA RESULT:    -6.288      2.159      3.401
REMARK INTER + INTRA:          -6.288
REMARK INTER:                  -6.288
REMARK INTRA:                   0.000
REMARK UNBOUND:                 0.000
REMARK SMILES C=C1CCC[C@]2(C)CC(=O)C(=C(C)C)C[C@H]12
REMARK SMILES IDX 13 1 12 2 11 3 15 4 16 5 2 6 1 7 3 8 4 9 5 10 6 11 8 12 9 13
REMARK SMILES IDX 10 14 7 15 14 16
REMARK H PARENT
REMARK Flexibility Score: inf
ROOT
ATOM      1  C   UNL     1      -2.119  26.310  28.789  1.00  0.00     0.039 C 
ATOM      2  C   UNL     1      -1.900  26.836  30.189  1.00  0.00    -0.070 C 
ATOM      3  C   UNL     1      -0.803  27.580  30.517  1.00  0.00    -0.006 C 
ATOM      4  C   UNL     1      -0.630  28.199  31.894  1.00  0.00     0.047 C 
ATOM      5  C   UNL     1       0.861  28.248  32.312  1.00  0.00     0.025 C 
ATOM      6  C   UNL     1       0.958  28.854  33.708  1.00  0.00    -0.073 C 
ATOM      7  C   UNL     1       0.849  28.071  34.793  1.00  0.00     0.008 C 
ATOM      8  C   UNL     1       1.086  30.349  33.900  1.00  0.00     0.031 C 
ATOM      9  C   UNL     1       1.309  31.083  32.578  1.00  0.00     0.005 C 
ATOM     10  C   UNL     1       2.343  30.338  31.735  1.00  0.00     0.008 C 
ATOM     11  C   UNL     1       1.817  28.950  31.249  1.00  0.00    -0.018 C 
ATOM     12  C   UNL     1       1.104  29.151  29.876  1.00  0.00     0.088 C 
ATOM     13  C   UNL     1       0.240  27.978  29.537  1.00  0.00     0.159 C 
ATOM     14  O   UNL     1       0.444  27.342  28.467  1.00  0.00    -0.295 OA
ATOM     15  C   UNL     1       3.050  28.042  31.012  1.00  0.00     0.012 C 
ATOM     16  C   UNL     1      -2.973  26.537  31.213  1.00  0.00     0.039 C 
ENDROOT
TORSDOF 0
ENDMDL
MODEL 3
REMARK VINA RESULT:    -6.092      2.122      5.223
REMARK INTER + INTRA:          -6.092
REMARK INTER:                  -6.092
REMARK INTRA:                   0.000
REMARK UNBOUND:                 0.000
REMARK SMILES C=C1CCC[C@]2(C)CC(=O)C(=C(C)C)C[C@H]12
REMARK SMILES IDX 13 1 12 2 11 3 15 4 16 5 2 6 1 7 3 8 4 9 5 10 6 11 8 12 9 13
REMARK SMILES IDX 10 14 7 15 14 16
REMARK H PARENT
REMARK Flexibility Score: inf
ROOT
ATOM      1  C   UNL     1       0.572  28.678  34.577  1.00  0.00     0.039 C 
ATOM      2  C   UNL     1       1.025  29.574  33.447  1.00  0.00    -0.070 C 
ATOM      3  C   UNL     1       0.585  29.397  32.167  1.00  0.00    -0.006 C 
ATOM      4  C   UNL     1       0.953  30.356  31.047  1.00  0.00     0.047 C 
ATOM      5  C   UNL     1       1.087  29.621  29.689  1.00  0.00     0.025 C 
ATOM      6  C   UNL     1       1.481  30.635  28.621  1.00  0.00    -0.073 C 
ATOM      7  C   UNL     1       2.775  30.921  28.408  1.00  0.00     0.008 C 
ATOM      8  C   UNL     1       0.430  31.401  27.850  1.00  0.00     0.031 C 
ATOM      9  C   UNL     1      -0.981  30.883  28.127  1.00  0.00     0.005 C 
ATOM     10  C   UNL     1      -0.990  29.355  28.104  1.00  0.00     0.008 C 
ATOM     11  C   UNL     1      -0.182  28.743  29.292  1.00  0.00    -0.018 C 
ATOM     12  C   UNL     1      -1.153  28.553  30.498  1.00  0.00     0.088 C 
ATOM     13  C   UNL     1      -0.400  28.355  31.775  1.00  0.00     0.159 C 
ATOM     14  O   UNL     1      -0.587  27.308  32.452  1.00  0.00    -0.295 OA
ATOM     15  C   UNL     1       0.303  27.339  28.851  1.00  0.00     0.012 C 
ATOM     16  C   UNL     1       1.961  30.708  33.799  1.00  0.00     0.039 C 
ENDROOT
TORSDOF 0
ENDMDL
MODEL 4
REMARK VINA RESULT:    -5.947      2.245      4.600
REMARK INTER + INTRA:          -5.947
REMARK INTER:                  -5.947
REMARK INTRA:                   0.000
REMARK UNBOUND:                 0.000
REMARK SMILES C=C1CCC[C@]2(C)CC(=O)C(=C(C)C)C[C@H]12
REMARK SMILES IDX 13 1 12 2 11 3 15 4 16 5 2 6 1 7 3 8 4 9 5 10 6 11 8 12 9 13
REMARK SMILES IDX 10 14 7 15 14 16
REMARK H PARENT
REMARK Flexibility Score: inf
ROOT
ATOM      1  C   UNL     1       1.829  30.571  33.522  1.00  0.00     0.039 C 
ATOM      2  C   UNL     1       0.810  29.487  33.258  1.00  0.00    -0.070 C 
ATOM      3  C   UNL     1       0.509  29.072  31.993  1.00  0.00    -0.006 C 
ATOM      4  C   UNL     1      -0.436  27.912  31.727  1.00  0.00     0.047 C 
ATOM      5  C   UNL     1      -1.240  28.122  30.419  1.00  0.00     0.025 C 
ATOM      6  C   UNL     1      -2.183  26.939  30.229  1.00  0.00    -0.073 C 
ATOM      7  C   UNL     1      -3.403  26.952  30.789  1.00  0.00     0.008 C 
ATOM      8  C   UNL     1      -1.734  25.698  29.492  1.00  0.00     0.031 C 
ATOM      9  C   UNL     1      -0.372  25.883  28.825  1.00  0.00     0.005 C 
ATOM     10  C   UNL     1      -0.314  27.241  28.125  1.00  0.00     0.008 C 
ATOM     11  C   UNL     1      -0.341  28.428  29.140  1.00  0.00    -0.018 C 
ATOM     12  C   UNL     1       1.128  28.768  29.535  1.00  0.00     0.088 C 
ATOM     13  C   UNL     1       1.178  29.602  30.776  1.00  0.00     0.159 C 
ATOM     14  O   UNL     1       1.738  30.731  30.746  1.00  0.00    -0.295 OA
ATOM     15  C   UNL     1      -0.929  29.657  28.402  1.00  0.00     0.012 C 
ATOM     16  C   UNL     1       0.158  28.847  34.464  1.00  0.00     0.039 C 
ENDROOT
TORSDOF 0
ENDMDL
MODEL 5
REMARK VINA RESULT:    -5.747      1.979      3.119
REMARK INTER + INTRA:          -5.747
REMARK INTER:                  -5.747
REMARK INTRA:                   0.000
REMARK UNBOUND:                 0.000
REMARK SMILES C=C1CCC[C@]2(C)CC(=O)C(=C(C)C)C[C@H]12
REMARK SMILES IDX 13 1 12 2 11 3 15 4 16 5 2 6 1 7 3 8 4 9 5 10 6 11 8 12 9 13
REMARK SMILES IDX 10 14 7 15 14 16
REMARK H PARENT
REMARK Flexibility Score: inf
ROOT
ATOM      1  C   UNL     1       0.043  27.971  27.405  1.00  0.00     0.039 C 
ATOM      2  C   UNL     1       0.679  27.500  28.692  1.00  0.00    -0.070 C 
ATOM      3  C   UNL     1       0.849  28.334  29.760  1.00  0.00    -0.006 C 
ATOM      4  C   UNL     1       1.391  27.840  31.092  1.00  0.00     0.047 C 
ATOM      5  C   UNL     1       2.233  28.930  31.801  1.00  0.00     0.025 C 
ATOM      6  C   UNL     1       2.765  28.361  33.112  1.00  0.00    -0.073 C 
ATOM      7  C   UNL     1       3.924  27.683  33.132  1.00  0.00     0.008 C 
ATOM      8  C   UNL     1       1.961  28.466  34.388  1.00  0.00     0.031 C 
ATOM      9  C   UNL     1       0.730  29.355  34.223  1.00  0.00     0.005 C 
ATOM     10  C   UNL     1       1.102  30.625  33.458  1.00  0.00     0.008 C 
ATOM     11  C   UNL     1       1.486  30.326  31.974  1.00  0.00    -0.018 C 
ATOM     12  C   UNL     1       0.190  30.399  31.109  1.00  0.00     0.088 C 
ATOM     13  C   UNL     1       0.389  29.747  29.778  1.00  0.00     0.159 C 
ATOM     14  O   UNL     1       0.207  30.415  28.724  1.00  0.00    -0.295 OA
ATOM     15  C   UNL     1       2.433  31.459  31.502  1.00  0.00     0.012 C 
ATOM     16  C   UNL     1       1.089  26.046  28.767  1.00  0.00     0.039 C 
ENDROOT
TORSDOF 0
ENDMDL
MODEL 6
REMARK VINA RESULT:    -5.637      2.354      5.322
REMARK INTER + INTRA:          -5.637
REMARK INTER:                  -5.637
REMARK INTRA:                   0.000
REMARK UNBOUND:                 0.000
REMARK SMILES C=C1CCC[C@]2(C)CC(=O)C(=C(C)C)C[C@H]12
REMARK SMILES IDX 13 1 12 2 11 3 15 4 16 5 2 6 1 7 3 8 4 9 5 10 6 11 8 12 9 13
REMARK SMILES IDX 10 14 7 15 14 16
REMARK H PARENT
REMARK Flexibility Score: inf
ROOT
ATOM      1  C   UNL     1       2.436  28.627  33.856  1.00  0.00     0.039 C 
ATOM      2  C   UNL     1       2.365  29.755  32.852  1.00  0.00    -0.070 C 
ATOM      3  C   UNL     1       2.586  29.550  31.521  1.00  0.00    -0.006 C 
ATOM      4  C   UNL     1       2.414  30.658  30.494  1.00  0.00     0.047 C 
ATOM      5  C   UNL     1       3.420  30.511  29.325  1.00  0.00     0.025 C 
ATOM      6  C   UNL     1       3.209  31.665  28.351  1.00  0.00    -0.073 C 
ATOM      7  C   UNL     1       3.847  32.831  28.539  1.00  0.00     0.008 C 
ATOM      8  C   UNL     1       2.215  31.554  27.217  1.00  0.00     0.031 C 
ATOM      9  C   UNL     1       1.659  30.138  27.074  1.00  0.00     0.005 C 
ATOM     10  C   UNL     1       2.792  29.118  27.189  1.00  0.00     0.008 C 
ATOM     11  C   UNL     1       3.405  29.080  28.625  1.00  0.00    -0.018 C 
ATOM     12  C   UNL     1       2.615  28.033  29.468  1.00  0.00     0.088 C 
ATOM     13  C   UNL     1       2.864  28.215  30.932  1.00  0.00     0.159 C 
ATOM     14  O   UNL     1       3.337  27.260  31.606  1.00  0.00    -0.295 OA
ATOM     15  C   UNL     1       4.865  28.577  28.493  1.00  0.00     0.012 C 
ATOM     16  C   UNL     1       1.999  31.124  33.380  1.00  0.00     0.039 C 
ENDROOT
TORSDOF 0
ENDMDL
MODEL 7
REMARK VINA RESULT:    -5.433      1.865      4.314
REMARK INTER + INTRA:          -5.433
REMARK INTER:                  -5.433
REMARK INTRA:                   0.000
REMARK UNBOUND:                 0.000
REMARK SMILES C=C1CCC[C@]2(C)CC(=O)C(=C(C)C)C[C@H]12
REMARK SMILES IDX 13 1 12 2 11 3 15 4 16 5 2 6 1 7 3 8 4 9 5 10 6 11 8 12 9 13
REMARK SMILES IDX 10 14 7 15 14 16
REMARK H PARENT
REMARK Flexibility Score: inf
ROOT
ATOM      1  C   UNL     1       5.134  26.233  28.357  1.00  0.00     0.039 C 
ATOM      2  C   UNL     1       4.540  26.571  29.705  1.00  0.00    -0.070 C 
ATOM      3  C   UNL     1       3.643  27.588  29.863  1.00  0.00    -0.006 C 
ATOM      4  C   UNL     1       2.963  27.866  31.194  1.00  0.00     0.047 C 
ATOM      5  C   UNL     1       2.697  29.379  31.391  1.00  0.00     0.025 C 
ATOM      6  C   UNL     1       2.039  29.587  32.751  1.00  0.00    -0.073 C 
ATOM      7  C   UNL     1       2.796  29.743  33.849  1.00  0.00     0.008 C 
ATOM      8  C   UNL     1       0.536  29.529  32.906  1.00  0.00     0.031 C 
ATOM      9  C   UNL     1      -0.180  29.457  31.559  1.00  0.00     0.005 C 
ATOM     10  C   UNL     1       0.442  30.456  30.583  1.00  0.00     0.008 C 
ATOM     11  C   UNL     1       1.903  30.066  30.193  1.00  0.00    -0.018 C 
ATOM     12  C   UNL     1       1.845  29.146  28.936  1.00  0.00     0.088 C 
ATOM     13  C   UNL     1       3.135  28.415  28.737  1.00  0.00     0.159 C 
ATOM     14  O   UNL     1       3.770  28.554  27.656  1.00  0.00    -0.295 OA
ATOM     15  C   UNL     1       2.639  31.369  29.791  1.00  0.00     0.012 C 
ATOM     16  C   UNL     1       4.951  25.707  30.876  1.00  0.00     0.039 C 
ENDROOT
TORSDOF 0
ENDMDL
MODEL 8
REMARK VINA RESULT:    -5.074     13.652     15.055
REMARK INTER + INTRA:          -5.074
REMARK INTER:                  -5.074
REMARK INTRA:                   0.000
REMARK UNBOUND:                 0.000
REMARK SMILES C=C1CCC[C@]2(C)CC(=O)C(=C(C)C)C[C@H]12
REMARK SMILES IDX 13 1 12 2 11 3 15 4 16 5 2 6 1 7 3 8 4 9 5 10 6 11 8 12 9 13
REMARK SMILES IDX 10 14 7 15 14 16
REMARK H PARENT
REMARK Flexibility Score: inf
ROOT
ATOM      1  C   UNL     1      -2.459  17.260  23.738  1.00  0.00     0.039 C 
ATOM      2  C   UNL     1      -3.692  16.780  24.469  1.00  0.00    -0.070 C 
ATOM      3  C   UNL     1      -3.743  16.715  25.831  1.00  0.00    -0.006 C 
ATOM      4  C   UNL     1      -5.013  16.334  26.574  1.00  0.00     0.047 C 
ATOM      5  C   UNL     1      -4.698  15.556  27.877  1.00  0.00     0.025 C 
ATOM      6  C   UNL     1      -6.012  15.185  28.555  1.00  0.00    -0.073 C 
ATOM      7  C   UNL     1      -6.644  14.047  28.223  1.00  0.00     0.008 C 
ATOM      8  C   UNL     1      -6.673  16.123  29.539  1.00  0.00     0.031 C 
ATOM      9  C   UNL     1      -5.780  17.312  29.890  1.00  0.00     0.005 C 
ATOM     10  C   UNL     1      -4.350  16.834  30.145  1.00  0.00     0.008 C 
ATOM     11  C   UNL     1      -3.671  16.293  28.847  1.00  0.00    -0.018 C 
ATOM     12  C   UNL     1      -2.957  17.483  28.136  1.00  0.00     0.088 C 
ATOM     13  C   UNL     1      -2.629  17.148  26.715  1.00  0.00     0.159 C 
ATOM     14  O   UNL     1      -1.432  17.200  26.323  1.00  0.00    -0.295 OA
ATOM     15  C   UNL     1      -2.582  15.279  29.281  1.00  0.00     0.012 C 
ATOM     16  C   UNL     1      -4.891  16.407  23.626  1.00  0.00     0.039 C 
ENDROOT
TORSDOF 0
ENDMDL
MODEL 9
REMARK VINA RESULT:    -4.992     14.005     16.336
REMARK INTER + INTRA:          -4.992
REMARK INTER:                  -4.992
REMARK INTRA:                   0.000
REMARK UNBOUND:                 0.000
REMARK SMILES C=C1CCC[C@]2(C)CC(=O)C(=C(C)C)C[C@H]12
REMARK SMILES IDX 13 1 12 2 11 3 15 4 16 5 2 6 1 7 3 8 4 9 5 10 6 11 8 12 9 13
REMARK SMILES IDX 10 14 7 15 14 16
REMARK H PARENT
REMARK Flexibility Score: inf
ROOT
ATOM      1  C   UNL     1      -4.338  15.747  30.648  1.00  0.00     0.039 C 
ATOM      2  C   UNL     1      -5.110  15.346  29.413  1.00  0.00    -0.070 C 
ATOM      3  C   UNL     1      -4.714  15.720  28.161  1.00  0.00    -0.006 C 
ATOM      4  C   UNL     1      -5.426  15.233  26.910  1.00  0.00     0.047 C 
ATOM      5  C   UNL     1      -5.406  16.304  25.791  1.00  0.00     0.025 C 
ATOM      6  C   UNL     1      -6.157  15.761  24.580  1.00  0.00    -0.073 C 
ATOM      7  C   UNL     1      -7.487  15.920  24.484  1.00  0.00     0.008 C 
ATOM      8  C   UNL     1      -5.442  14.958  23.517  1.00  0.00     0.031 C 
ATOM      9  C   UNL     1      -3.926  14.963  23.713  1.00  0.00     0.005 C 
ATOM     10  C   UNL     1      -3.447  16.376  24.044  1.00  0.00     0.008 C 
ATOM     11  C   UNL     1      -3.954  16.858  25.440  1.00  0.00    -0.018 C 
ATOM     12  C   UNL     1      -2.903  16.442  26.513  1.00  0.00     0.088 C 
ATOM     13  C   UNL     1      -3.480  16.503  27.892  1.00  0.00     0.159 C 
ATOM     14  O   UNL     1      -2.940  17.239  28.762  1.00  0.00    -0.295 OA
ATOM     15  C   UNL     1      -4.007  18.406  25.406  1.00  0.00     0.012 C 
ATOM     16  C   UNL     1      -6.329  14.473  29.616  1.00  0.00     0.039 C 
ENDROOT
TORSDOF 0
ENDMDL
