MODEL 1
REMARK VINA RESULT:    -6.257      0.000      0.000
REMARK INTER + INTRA:         -10.829
REMARK INTER:                  -8.635
REMARK INTRA:                  -2.194
REMARK UNBOUND:                -2.194
REMARK SMILES C=C(CC[C@H](C(=O)[O-])[C@H]1CC[C@]2(C)C3=C(CC[C@]12C)[C@]1(C)CC[C@@H](O)C(C)(C)[C@@H]1CC3)C(C)C
REMARK SMILES IDX 4 1 5 2 6 3 7 4 8 5 9 6 10 7 18 8 11 9 12 10 17 11 19 12
REMARK SMILES IDX 13 13 14 14 16 15 15 16 31 17 20 18 30 19 29 20 22 21 21 22
REMARK SMILES IDX 26 23 23 24 24 25 27 26 28 27 25 28 3 30 2 31 1 32 32 33
REMARK SMILES IDX 33 34 34 35
REMARK H PARENT 25 29
REMARK Flexibility Score: inf
ROOT
ATOM      1  C   UNL     1     161.502 161.569 179.095  1.00  0.00     0.014 C 
ENDROOT
BRANCH   1   2
ATOM      2  C   UNL     1     163.019 161.901 179.223  1.00  0.00     0.039 C 
BRANCH   2   3
ATOM      3  C   UNL     1     163.798 160.780 179.868  1.00  0.00     0.045 C 
ATOM      4  O   UNL     1     163.397 160.283 180.951  1.00  0.00    -0.550 OA
ATOM      5  O   UNL     1     164.936 160.256 179.263  1.00  0.00    -0.550 OA
ENDBRANCH   2   3
BRANCH   2   6
ATOM      6  C   UNL     1     163.376 163.286 179.872  1.00  0.00     0.004 C 
ATOM      7  C   UNL     1     164.411 163.176 181.001  1.00  0.00     0.006 C 
ATOM      8  C   UNL     1     163.779 164.524 178.978  1.00  0.00    -0.020 C 
ATOM      9  C   UNL     1     165.387 164.314 180.802  1.00  0.00     0.012 C 
ATOM     10  C   UNL     1     164.644 165.400 179.979  1.00  0.00    -0.006 C 
ATOM     11  C   UNL     1     162.482 165.246 178.455  1.00  0.00     0.012 C 
ATOM     12  C   UNL     1     164.630 164.128 177.739  1.00  0.00     0.012 C 
ATOM     13  C   UNL     1     165.712 166.322 179.329  1.00  0.00     0.017 C 
ATOM     14  C   UNL     1     163.738 166.302 180.860  1.00  0.00    -0.064 C 
ATOM     15  C   UNL     1     162.403 166.715 178.833  1.00  0.00     0.032 C 
ATOM     16  C   UNL     1     162.640 166.907 180.320  1.00  0.00    -0.064 C 
ATOM     17  C   UNL     1     164.136 166.593 182.289  1.00  0.00     0.032 C 
ATOM     18  C   UNL     1     161.676 167.832 181.127  1.00  0.00    -0.008 C 
ATOM     19  C   UNL     1     163.624 167.939 182.762  1.00  0.00     0.009 C 
ATOM     20  C   UNL     1     162.082 167.986 182.658  1.00  0.00     0.007 C 
ATOM     21  C   UNL     1     161.706 169.221 180.418  1.00  0.00     0.014 C 
ATOM     22  C   UNL     1     160.273 167.174 181.014  1.00  0.00     0.016 C 
ATOM     23  C   UNL     1     161.453 169.245 183.432  1.00  0.00    -0.006 C 
ATOM     24  C   UNL     1     160.957 170.321 181.162  1.00  0.00     0.033 C 
ATOM     25  C   UNL     1     161.539 170.533 182.561  1.00  0.00     0.120 C 
ATOM     26  C   UNL     1     159.976 168.974 183.859  1.00  0.00     0.014 C 
ATOM     27  C   UNL     1     162.211 169.525 184.761  1.00  0.00     0.014 C 
BRANCH  25  28
ATOM     28  O   UNL     1     160.860 171.597 183.189  1.00  0.00    -0.393 OA
ATOM     29  H   UNL     1     160.443 171.227 184.010  1.00  0.00     0.210 HD
ENDBRANCH  25  28
ENDBRANCH   2   6
ENDBRANCH   1   2
BRANCH   1  30
ATOM     30  C   UNL     1     160.637 162.416 180.050  1.00  0.00     0.031 C 
BRANCH  30  31
ATOM     31  C   UNL     1     160.264 161.750 181.374  1.00  0.00    -0.075 C 
ATOM     32  C   UNL     1     159.907 160.449 181.466  1.00  0.00     0.008 C 
BRANCH  31  33
ATOM     33  C   UNL     1     160.338 162.612 182.631  1.00  0.00     0.008 C 
ATOM     34  C   UNL     1     161.053 161.868 183.765  1.00  0.00     0.012 C 
ATOM     35  C   UNL     1     160.997 163.970 182.352  1.00  0.00     0.012 C 
ENDBRANCH  31  33
ENDBRANCH  30  31
ENDBRANCH   1  30
TORSDOF 7
ENDMDL
MODEL 2
REMARK VINA RESULT:    -5.989     13.758     17.631
REMARK INTER + INTRA:         -10.459
REMARK INTER:                  -7.925
REMARK INTRA:                  -2.533
REMARK UNBOUND:                -2.194
REMARK SMILES C=C(CC[C@H](C(=O)[O-])[C@H]1CC[C@]2(C)C3=C(CC[C@]12C)[C@]1(C)CC[C@@H](O)C(C)(C)[C@@H]1CC3)C(C)C
REMARK SMILES IDX 4 1 5 2 6 3 7 4 8 5 9 6 10 7 18 8 11 9 12 10 17 11 19 12
REMARK SMILES IDX 13 13 14 14 16 15 15 16 31 17 20 18 30 19 29 20 22 21 21 22
REMARK SMILES IDX 26 23 23 24 24 25 27 26 28 27 25 28 3 30 2 31 1 32 32 33
REMARK SMILES IDX 33 34 34 35
REMARK H PARENT 25 29
REMARK Flexibility Score: inf
ROOT
ATOM      1  C   UNL     1     173.183 175.481 181.903  1.00  0.00     0.014 C 
ENDROOT
BRANCH   1   2
ATOM      2  C   UNL     1     174.565 176.143 182.186  1.00  0.00     0.039 C 
BRANCH   2   3
ATOM      3  C   UNL     1     174.724 177.465 181.474  1.00  0.00     0.045 C 
ATOM      4  O   UNL     1     174.336 177.584 180.283  1.00  0.00    -0.550 OA
ATOM      5  O   UNL     1     175.259 178.571 182.124  1.00  0.00    -0.550 OA
ENDBRANCH   2   3
BRANCH   2   6
ATOM      6  C   UNL     1     175.828 175.232 181.980  1.00  0.00     0.004 C 
ATOM      7  C   UNL     1     176.834 175.813 180.975  1.00  0.00     0.006 C 
ATOM      8  C   UNL     1     176.651 174.688 183.213  1.00  0.00    -0.020 C 
ATOM      9  C   UNL     1     178.208 175.609 181.575  1.00  0.00     0.012 C 
ATOM     10  C   UNL     1     178.084 174.436 182.582  1.00  0.00    -0.006 C 
ATOM     11  C   UNL     1     175.963 173.391 183.779  1.00  0.00     0.012 C 
ATOM     12  C   UNL     1     176.749 175.714 184.377  1.00  0.00     0.012 C 
ATOM     13  C   UNL     1     179.285 174.519 183.565  1.00  0.00     0.017 C 
ATOM     14  C   UNL     1     178.155 173.046 181.894  1.00  0.00    -0.064 C 
ATOM     15  C   UNL     1     176.876 172.177 183.810  1.00  0.00     0.032 C 
ATOM     16  C   UNL     1     177.545 171.965 182.463  1.00  0.00    -0.064 C 
ATOM     17  C   UNL     1     178.991 172.872 180.647  1.00  0.00     0.032 C 
ATOM     18  C   UNL     1     177.567 170.533 181.846  1.00  0.00    -0.008 C 
ATOM     19  C   UNL     1     179.525 171.459 180.509  1.00  0.00     0.009 C 
ATOM     20  C   UNL     1     178.354 170.451 180.464  1.00  0.00     0.007 C 
ATOM     21  C   UNL     1     178.242 169.609 182.906  1.00  0.00     0.014 C 
ATOM     22  C   UNL     1     176.077 170.147 181.631  1.00  0.00     0.016 C 
ATOM     23  C   UNL     1     178.821 168.986 180.003  1.00  0.00    -0.006 C 
ATOM     24  C   UNL     1     178.516 168.190 182.418  1.00  0.00     0.033 C 
ATOM     25  C   UNL     1     179.438 168.198 181.197  1.00  0.00     0.120 C 
ATOM     26  C   UNL     1     177.643 168.182 179.370  1.00  0.00     0.014 C 
ATOM     27  C   UNL     1     179.900 169.066 178.886  1.00  0.00     0.014 C 
BRANCH  25  28
ATOM     28  O   UNL     1     179.715 166.869 180.817  1.00  0.00    -0.393 OA
ATOM     29  H   UNL     1     180.082 166.411 181.619  1.00  0.00     0.210 HD
ENDBRANCH  25  28
ENDBRANCH   2   6
ENDBRANCH   1   2
BRANCH   1  30
ATOM     30  C   UNL     1     173.316 173.990 181.533  1.00  0.00     0.031 C 
BRANCH  30  31
ATOM     31  C   UNL     1     173.536 173.692 180.050  1.00  0.00    -0.075 C 
ATOM     32  C   UNL     1     172.965 174.418 179.063  1.00  0.00     0.008 C 
BRANCH  31  33
ATOM     33  C   UNL     1     174.470 172.535 179.705  1.00  0.00     0.008 C 
ATOM     34  C   UNL     1     173.735 171.460 178.895  1.00  0.00     0.012 C 
ATOM     35  C   UNL     1     175.729 173.020 178.973  1.00  0.00     0.012 C 
ENDBRANCH  31  33
ENDBRANCH  30  31
ENDBRANCH   1  30
TORSDOF 7
ENDMDL
MODEL 3
REMARK VINA RESULT:    -5.816      3.845      7.884
REMARK INTER + INTRA:         -10.220
REMARK INTER:                  -7.602
REMARK INTRA:                  -2.618
REMARK UNBOUND:                -2.194
REMARK SMILES C=C(CC[C@H](C(=O)[O-])[C@H]1CC[C@]2(C)C3=C(CC[C@]12C)[C@]1(C)CC[C@@H](O)C(C)(C)[C@@H]1CC3)C(C)C
REMARK SMILES IDX 4 1 5 2 6 3 7 4 8 5 9 6 10 7 18 8 11 9 12 10 17 11 19 12
REMARK SMILES IDX 13 13 14 14 16 15 15 16 31 17 20 18 30 19 29 20 22 21 21 22
REMARK SMILES IDX 26 23 23 24 24 25 27 26 28 27 25 28 3 30 2 31 1 32 32 33
REMARK SMILES IDX 33 34 34 35
REMARK H PARENT 25 29
REMARK Flexibility Score: inf
ROOT
ATOM      1  C   UNL     1     161.437 161.059 179.258  1.00  0.00     0.014 C 
ENDROOT
BRANCH   1   2
ATOM      2  C   UNL     1     161.492 162.019 180.484  1.00  0.00     0.039 C 
BRANCH   2   3
ATOM      3  C   UNL     1     160.606 163.228 180.305  1.00  0.00     0.045 C 
ATOM      4  O   UNL     1     160.284 163.601 179.147  1.00  0.00    -0.550 OA
ATOM      5  O   UNL     1     160.104 163.920 181.402  1.00  0.00    -0.550 OA
ENDBRANCH   2   3
BRANCH   2   6
ATOM      6  C   UNL     1     162.924 162.433 180.980  1.00  0.00     0.004 C 
ATOM      7  C   UNL     1     163.233 163.921 180.759  1.00  0.00     0.006 C 
ATOM      8  C   UNL     1     163.425 162.055 182.429  1.00  0.00    -0.020 C 
ATOM      9  C   UNL     1     163.908 164.412 182.020  1.00  0.00     0.012 C 
ATOM     10  C   UNL     1     164.522 163.166 182.711  1.00  0.00    -0.006 C 
ATOM     11  C   UNL     1     163.987 160.585 182.429  1.00  0.00     0.012 C 
ATOM     12  C   UNL     1     162.299 162.128 183.499  1.00  0.00     0.012 C 
ATOM     13  C   UNL     1     164.767 163.517 184.204  1.00  0.00     0.017 C 
ATOM     14  C   UNL     1     165.894 162.762 182.107  1.00  0.00    -0.064 C 
ATOM     15  C   UNL     1     165.426 160.480 182.904  1.00  0.00     0.032 C 
ATOM     16  C   UNL     1     166.316 161.465 182.167  1.00  0.00    -0.064 C 
ATOM     17  C   UNL     1     166.807 163.829 181.548  1.00  0.00     0.032 C 
ATOM     18  C   UNL     1     167.678 160.969 181.591  1.00  0.00    -0.008 C 
ATOM     19  C   UNL     1     168.270 163.444 181.658  1.00  0.00     0.009 C 
ATOM     20  C   UNL     1     168.530 162.123 180.898  1.00  0.00     0.007 C 
ATOM     21  C   UNL     1     168.468 160.364 182.792  1.00  0.00     0.014 C 
ATOM     22  C   UNL     1     167.319 159.876 180.547  1.00  0.00     0.016 C 
ATOM     23  C   UNL     1     170.095 161.824 180.702  1.00  0.00    -0.006 C 
ATOM     24  C   UNL     1     169.907 159.978 182.467  1.00  0.00     0.033 C 
ATOM     25  C   UNL     1     170.706 161.191 181.988  1.00  0.00     0.120 C 
ATOM     26  C   UNL     1     170.352 160.904 179.467  1.00  0.00     0.014 C 
ATOM     27  C   UNL     1     170.883 163.131 180.402  1.00  0.00     0.014 C 
BRANCH  25  28
ATOM     28  O   UNL     1     172.042 160.806 181.758  1.00  0.00    -0.393 OA
ATOM     29  H   UNL     1     172.024 160.117 181.042  1.00  0.00     0.210 HD
ENDBRANCH  25  28
ENDBRANCH   2   6
ENDBRANCH   1   2
BRANCH   1  30
ATOM     30  C   UNL     1     162.824 160.482 178.906  1.00  0.00     0.031 C 
BRANCH  30  31
ATOM     31  C   UNL     1     163.648 161.297 177.911  1.00  0.00    -0.075 C 
ATOM     32  C   UNL     1     163.093 161.977 176.881  1.00  0.00     0.008 C 
BRANCH  31  33
ATOM     33  C   UNL     1     165.156 161.349 178.134  1.00  0.00     0.008 C 
ATOM     34  C   UNL     1     165.903 160.617 177.012  1.00  0.00     0.012 C 
ATOM     35  C   UNL     1     165.659 162.791 178.288  1.00  0.00     0.012 C 
ENDBRANCH  31  33
ENDBRANCH  30  31
ENDBRANCH   1  30
TORSDOF 7
ENDMDL
MODEL 4
REMARK VINA RESULT:    -5.709      2.326      8.242
REMARK INTER + INTRA:         -10.073
REMARK INTER:                  -9.216
REMARK INTRA:                  -0.857
REMARK UNBOUND:                -2.194
REMARK SMILES C=C(CC[C@H](C(=O)[O-])[C@H]1CC[C@]2(C)C3=C(CC[C@]12C)[C@]1(C)CC[C@@H](O)C(C)(C)[C@@H]1CC3)C(C)C
REMARK SMILES IDX 4 1 5 2 6 3 7 4 8 5 9 6 10 7 18 8 11 9 12 10 17 11 19 12
REMARK SMILES IDX 13 13 14 14 16 15 15 16 31 17 20 18 30 19 29 20 22 21 21 22
REMARK SMILES IDX 26 23 23 24 24 25 27 26 28 27 25 28 3 30 2 31 1 32 32 33
REMARK SMILES IDX 33 34 34 35
REMARK H PARENT 25 29
REMARK Flexibility Score: inf
ROOT
ATOM      1  C   UNL     1     162.938 171.698 183.191  1.00  0.00     0.014 C 
ENDROOT
BRANCH   1   2
ATOM      2  C   UNL     1     163.071 170.320 183.907  1.00  0.00     0.039 C 
BRANCH   2   3
ATOM      3  C   UNL     1     164.504 169.981 184.237  1.00  0.00     0.045 C 
ATOM      4  O   UNL     1     164.777 168.878 184.777  1.00  0.00    -0.550 OA
ATOM      5  O   UNL     1     165.540 170.853 183.918  1.00  0.00    -0.550 OA
ENDBRANCH   2   3
BRANCH   2   6
ATOM      6  C   UNL     1     162.345 169.107 183.222  1.00  0.00     0.004 C 
ATOM      7  C   UNL     1     160.857 169.009 183.588  1.00  0.00     0.006 C 
ATOM      8  C   UNL     1     162.468 168.856 181.668  1.00  0.00    -0.020 C 
ATOM      9  C   UNL     1     160.118 168.694 182.306  1.00  0.00     0.012 C 
ATOM     10  C   UNL     1     161.147 168.037 181.349  1.00  0.00    -0.006 C 
ATOM     11  C   UNL     1     163.797 168.071 181.361  1.00  0.00     0.012 C 
ATOM     12  C   UNL     1     162.496 170.172 180.840  1.00  0.00     0.012 C 
ATOM     13  C   UNL     1     160.602 168.161 179.900  1.00  0.00     0.017 C 
ATOM     14  C   UNL     1     161.346 166.523 181.632  1.00  0.00    -0.064 C 
ATOM     15  C   UNL     1     163.579 166.762 180.623  1.00  0.00     0.032 C 
ATOM     16  C   UNL     1     162.527 165.915 181.317  1.00  0.00    -0.064 C 
ATOM     17  C   UNL     1     160.191 165.703 182.160  1.00  0.00     0.032 C 
ATOM     18  C   UNL     1     162.814 164.401 181.562  1.00  0.00    -0.008 C 
ATOM     19  C   UNL     1     160.279 164.251 181.734  1.00  0.00     0.009 C 
ATOM     20  C   UNL     1     161.600 163.629 182.242  1.00  0.00     0.007 C 
ATOM     21  C   UNL     1     163.131 163.783 180.165  1.00  0.00     0.014 C 
ATOM     22  C   UNL     1     164.059 164.356 182.491  1.00  0.00     0.016 C 
ATOM     23  C   UNL     1     161.617 162.029 182.108  1.00  0.00    -0.006 C 
ATOM     24  C   UNL     1     163.271 162.265 180.167  1.00  0.00     0.033 C 
ATOM     25  C   UNL     1     161.985 161.596 180.658  1.00  0.00     0.120 C 
ATOM     26  C   UNL     1     162.596 161.378 183.136  1.00  0.00     0.014 C 
ATOM     27  C   UNL     1     160.224 161.422 182.439  1.00  0.00     0.014 C 
BRANCH  25  28
ATOM     28  O   UNL     1     162.134 160.197 180.585  1.00  0.00    -0.393 OA
ATOM     29  H   UNL     1     162.756 159.935 181.315  1.00  0.00     0.210 HD
ENDBRANCH  25  28
ENDBRANCH   2   6
ENDBRANCH   1   2
BRANCH   1  30
ATOM     30  C   UNL     1     161.785 172.545 183.767  1.00  0.00     0.031 C 
BRANCH  30  31
ATOM     31  C   UNL     1     160.778 173.075 182.747  1.00  0.00    -0.075 C 
ATOM     32  C   UNL     1     159.875 172.282 182.127  1.00  0.00     0.008 C 
BRANCH  31  33
ATOM     33  C   UNL     1     160.800 174.574 182.461  1.00  0.00     0.008 C 
ATOM     34  C   UNL     1     160.263 175.368 183.658  1.00  0.00     0.012 C 
ATOM     35  C   UNL     1     162.201 175.055 182.057  1.00  0.00     0.012 C 
ENDBRANCH  31  33
ENDBRANCH  30  31
ENDBRANCH   1  30
TORSDOF 7
ENDMDL
MODEL 5
REMARK VINA RESULT:    -5.682     11.300     14.891
REMARK INTER + INTRA:         -10.036
REMARK INTER:                  -7.479
REMARK INTRA:                  -2.557
REMARK UNBOUND:                -2.194
REMARK SMILES C=C(CC[C@H](C(=O)[O-])[C@H]1CC[C@]2(C)C3=C(CC[C@]12C)[C@]1(C)CC[C@@H](O)C(C)(C)[C@@H]1CC3)C(C)C
REMARK SMILES IDX 4 1 5 2 6 3 7 4 8 5 9 6 10 7 18 8 11 9 12 10 17 11 19 12
REMARK SMILES IDX 13 13 14 14 16 15 15 16 31 17 20 18 30 19 29 20 22 21 21 22
REMARK SMILES IDX 26 23 23 24 24 25 27 26 28 27 25 28 3 30 2 31 1 32 32 33
REMARK SMILES IDX 33 34 34 35
REMARK H PARENT 25 29
REMARK Flexibility Score: inf
ROOT
ATOM      1  C   UNL     1     174.104 163.352 183.950  1.00  0.00     0.014 C 
ENDROOT
BRANCH   1   2
ATOM      2  C   UNL     1     174.733 164.726 183.566  1.00  0.00     0.039 C 
BRANCH   2   3
ATOM      3  C   UNL     1     173.889 165.890 184.025  1.00  0.00     0.045 C 
ATOM      4  O   UNL     1     174.443 166.966 184.370  1.00  0.00    -0.550 OA
ATOM      5  O   UNL     1     172.500 165.811 184.036  1.00  0.00    -0.550 OA
ENDBRANCH   2   3
BRANCH   2   6
ATOM      6  C   UNL     1     175.169 164.897 182.067  1.00  0.00     0.004 C 
ATOM      7  C   UNL     1     174.361 165.969 181.321  1.00  0.00     0.006 C 
ATOM      8  C   UNL     1     176.687 165.090 181.677  1.00  0.00    -0.020 C 
ATOM      9  C   UNL     1     175.355 166.764 180.503  1.00  0.00     0.012 C 
ATOM     10  C   UNL     1     176.588 165.848 180.287  1.00  0.00    -0.006 C 
ATOM     11  C   UNL     1     177.396 163.688 181.592  1.00  0.00     0.012 C 
ATOM     12  C   UNL     1     177.473 165.953 182.704  1.00  0.00     0.012 C 
ATOM     13  C   UNL     1     177.796 166.751 179.916  1.00  0.00     0.017 C 
ATOM     14  C   UNL     1     176.392 164.847 179.117  1.00  0.00    -0.064 C 
ATOM     15  C   UNL     1     178.041 163.408 180.246  1.00  0.00     0.032 C 
ATOM     16  C   UNL     1     177.062 163.657 179.111  1.00  0.00    -0.064 C 
ATOM     17  C   UNL     1     175.540 165.239 177.932  1.00  0.00     0.032 C 
ATOM     18  C   UNL     1     176.930 162.593 177.978  1.00  0.00    -0.008 C 
ATOM     19  C   UNL     1     175.983 164.551 176.655  1.00  0.00     0.009 C 
ATOM     20  C   UNL     1     175.913 163.016 176.828  1.00  0.00     0.007 C 
ATOM     21  C   UNL     1     178.361 162.401 177.388  1.00  0.00     0.014 C 
ATOM     22  C   UNL     1     176.432 161.297 178.676  1.00  0.00     0.016 C 
ATOM     23  C   UNL     1     176.058 162.234 175.434  1.00  0.00    -0.006 C 
ATOM     24  C   UNL     1     178.414 161.522 176.143  1.00  0.00     0.033 C 
ATOM     25  C   UNL     1     177.555 162.107 175.021  1.00  0.00     0.120 C 
ATOM     26  C   UNL     1     175.389 160.825 175.496  1.00  0.00     0.014 C 
ATOM     27  C   UNL     1     175.317 162.982 174.289  1.00  0.00     0.014 C 
BRANCH  25  28
ATOM     28  O   UNL     1     177.681 161.300 173.872  1.00  0.00    -0.393 OA
ATOM     29  H   UNL     1     178.210 161.820 173.211  1.00  0.00     0.210 HD
ENDBRANCH  25  28
ENDBRANCH   2   6
ENDBRANCH   1   2
BRANCH   1  30
ATOM     30  C   UNL     1     173.298 162.735 182.789  1.00  0.00     0.031 C 
BRANCH  30  31
ATOM     31  C   UNL     1     174.030 161.680 181.961  1.00  0.00    -0.075 C 
ATOM     32  C   UNL     1     175.084 160.977 182.434  1.00  0.00     0.008 C 
BRANCH  31  33
ATOM     33  C   UNL     1     173.504 161.412 180.554  1.00  0.00     0.008 C 
ATOM     34  C   UNL     1     172.235 160.552 180.596  1.00  0.00     0.012 C 
ATOM     35  C   UNL     1     173.268 162.715 179.777  1.00  0.00     0.012 C 
ENDBRANCH  31  33
ENDBRANCH  30  31
ENDBRANCH   1  30
TORSDOF 7
ENDMDL
MODEL 6
REMARK VINA RESULT:    -5.678      3.396      5.925
REMARK INTER + INTRA:         -10.030
REMARK INTER:                  -9.643
REMARK INTRA:                  -0.387
REMARK UNBOUND:                -2.194
REMARK SMILES C=C(CC[C@H](C(=O)[O-])[C@H]1CC[C@]2(C)C3=C(CC[C@]12C)[C@]1(C)CC[C@@H](O)C(C)(C)[C@@H]1CC3)C(C)C
REMARK SMILES IDX 4 1 5 2 6 3 7 4 8 5 9 6 10 7 18 8 11 9 12 10 17 11 19 12
REMARK SMILES IDX 13 13 14 14 16 15 15 16 31 17 20 18 30 19 29 20 22 21 21 22
REMARK SMILES IDX 26 23 23 24 24 25 27 26 28 27 25 28 3 30 2 31 1 32 32 33
REMARK SMILES IDX 33 34 34 35
REMARK H PARENT 25 29
REMARK Flexibility Score: inf
ROOT
ATOM      1  C   UNL     1     161.477 165.894 181.706  1.00  0.00     0.014 C 
ENDROOT
BRANCH   1   2
ATOM      2  C   UNL     1     161.075 167.135 180.853  1.00  0.00     0.039 C 
BRANCH   2   3
ATOM      3  C   UNL     1     161.793 167.175 179.526  1.00  0.00     0.045 C 
ATOM      4  O   UNL     1     162.680 166.320 179.269  1.00  0.00    -0.550 OA
ATOM      5  O   UNL     1     161.464 168.119 178.559  1.00  0.00    -0.550 OA
ENDBRANCH   2   3
BRANCH   2   6
ATOM      6  C   UNL     1     161.143 168.528 181.576  1.00  0.00     0.004 C 
ATOM      7  C   UNL     1     159.994 168.748 182.571  1.00  0.00     0.006 C 
ATOM      8  C   UNL     1     162.473 169.022 182.270  1.00  0.00    -0.020 C 
ATOM      9  C   UNL     1     160.609 169.366 183.808  1.00  0.00     0.012 C 
ATOM     10  C   UNL     1     161.931 170.042 183.358  1.00  0.00    -0.006 C 
ATOM     11  C   UNL     1     163.420 169.675 181.197  1.00  0.00     0.012 C 
ATOM     12  C   UNL     1     163.262 167.873 182.958  1.00  0.00     0.012 C 
ATOM     13  C   UNL     1     162.823 170.235 184.614  1.00  0.00     0.017 C 
ATOM     14  C   UNL     1     161.704 171.448 182.740  1.00  0.00    -0.064 C 
ATOM     15  C   UNL     1     163.811 171.107 181.515  1.00  0.00     0.032 C 
ATOM     16  C   UNL     1     162.587 171.949 181.828  1.00  0.00    -0.064 C 
ATOM     17  C   UNL     1     160.559 172.305 183.233  1.00  0.00     0.032 C 
ATOM     18  C   UNL     1     162.441 173.351 181.159  1.00  0.00    -0.008 C 
ATOM     19  C   UNL     1     160.857 173.786 183.103  1.00  0.00     0.009 C 
ATOM     20  C   UNL     1     161.141 174.142 181.626  1.00  0.00     0.007 C 
ATOM     21  C   UNL     1     163.725 174.152 181.537  1.00  0.00     0.014 C 
ATOM     22  C   UNL     1     162.377 173.081 179.630  1.00  0.00     0.016 C 
ATOM     23  C   UNL     1     161.148 175.727 181.367  1.00  0.00    -0.006 C 
ATOM     24  C   UNL     1     163.695 175.619 181.120  1.00  0.00     0.033 C 
ATOM     25  C   UNL     1     162.518 176.350 181.769  1.00  0.00     0.120 C 
ATOM     26  C   UNL     1     160.811 176.066 179.881  1.00  0.00     0.014 C 
ATOM     27  C   UNL     1     160.046 176.439 182.203  1.00  0.00     0.014 C 
BRANCH  25  28
ATOM     28  O   UNL     1     162.563 177.712 181.408  1.00  0.00    -0.393 OA
ATOM     29  H   UNL     1     163.488 178.027 181.588  1.00  0.00     0.210 HD
ENDBRANCH  25  28
ENDBRANCH   2   6
ENDBRANCH   1   2
BRANCH   1  30
ATOM     30  C   UNL     1     160.268 164.994 182.030  1.00  0.00     0.031 C 
BRANCH  30  31
ATOM     31  C   UNL     1     160.536 163.489 182.010  1.00  0.00    -0.075 C 
ATOM     32  C   UNL     1     160.367 162.729 180.905  1.00  0.00     0.008 C 
BRANCH  31  33
ATOM     33  C   UNL     1     161.043 162.855 183.302  1.00  0.00     0.008 C 
ATOM     34  C   UNL     1     160.464 161.447 183.486  1.00  0.00     0.012 C 
ATOM     35  C   UNL     1     162.576 162.839 183.364  1.00  0.00     0.012 C 
ENDBRANCH  31  33
ENDBRANCH  30  31
ENDBRANCH   1  30
TORSDOF 7
ENDMDL
MODEL 7
REMARK VINA RESULT:    -5.612      4.785      8.523
REMARK INTER + INTRA:          -9.938
REMARK INTER:                  -8.610
REMARK INTRA:                  -1.328
REMARK UNBOUND:                -2.194
REMARK SMILES C=C(CC[C@H](C(=O)[O-])[C@H]1CC[C@]2(C)C3=C(CC[C@]12C)[C@]1(C)CC[C@@H](O)C(C)(C)[C@@H]1CC3)C(C)C
REMARK SMILES IDX 4 1 5 2 6 3 7 4 8 5 9 6 10 7 18 8 11 9 12 10 17 11 19 12
REMARK SMILES IDX 13 13 14 14 16 15 15 16 31 17 20 18 30 19 29 20 22 21 21 22
REMARK SMILES IDX 26 23 23 24 24 25 27 26 28 27 25 28 3 30 2 31 1 32 32 33
REMARK SMILES IDX 33 34 34 35
REMARK H PARENT 25 29
REMARK Flexibility Score: inf
ROOT
ATOM      1  C   UNL     1     163.289 162.154 180.253  1.00  0.00     0.014 C 
ENDROOT
BRANCH   1   2
ATOM      2  C   UNL     1     163.822 162.995 181.452  1.00  0.00     0.039 C 
BRANCH   2   3
ATOM      3  C   UNL     1     163.528 164.467 181.295  1.00  0.00     0.045 C 
ATOM      4  O   UNL     1     162.762 165.042 182.111  1.00  0.00    -0.550 OA
ATOM      5  O   UNL     1     164.122 165.214 180.283  1.00  0.00    -0.550 OA
ENDBRANCH   2   3
BRANCH   2   6
ATOM      6  C   UNL     1     165.320 162.756 181.859  1.00  0.00     0.004 C 
ATOM      7  C   UNL     1     165.819 163.736 182.930  1.00  0.00     0.006 C 
ATOM      8  C   UNL     1     165.837 161.317 182.254  1.00  0.00    -0.020 C 
ATOM      9  C   UNL     1     166.619 162.919 183.921  1.00  0.00     0.012 C 
ATOM     10  C   UNL     1     167.090 161.645 183.172  1.00  0.00    -0.006 C 
ATOM     11  C   UNL     1     166.192 160.504 180.955  1.00  0.00     0.012 C 
ATOM     12  C   UNL     1     164.788 160.493 183.053  1.00  0.00     0.012 C 
ATOM     13  C   UNL     1     167.456 160.572 184.233  1.00  0.00     0.017 C 
ATOM     14  C   UNL     1     168.361 161.891 182.315  1.00  0.00    -0.064 C 
ATOM     15  C   UNL     1     167.625 160.002 180.918  1.00  0.00     0.032 C 
ATOM     16  C   UNL     1     168.603 161.125 181.210  1.00  0.00    -0.064 C 
ATOM     17  C   UNL     1     169.383 162.908 182.768  1.00  0.00     0.032 C 
ATOM     18  C   UNL     1     169.853 161.299 180.294  1.00  0.00    -0.008 C 
ATOM     19  C   UNL     1     170.782 162.561 182.299  1.00  0.00     0.009 C 
ATOM     20  C   UNL     1     170.819 162.477 180.756  1.00  0.00     0.007 C 
ATOM     21  C   UNL     1     170.612 159.936 180.326  1.00  0.00     0.014 C 
ATOM     22  C   UNL     1     169.295 161.596 178.875  1.00  0.00     0.016 C 
ATOM     23  C   UNL     1     172.317 162.431 180.179  1.00  0.00    -0.006 C 
ATOM     24  C   UNL     1     171.966 159.954 179.625  1.00  0.00     0.033 C 
ATOM     25  C   UNL     1     172.899 160.988 180.260  1.00  0.00     0.120 C 
ATOM     26  C   UNL     1     172.382 162.963 178.713  1.00  0.00     0.014 C 
ATOM     27  C   UNL     1     173.261 163.364 180.989  1.00  0.00     0.014 C 
BRANCH  25  28
ATOM     28  O   UNL     1     174.156 160.929 179.625  1.00  0.00    -0.393 OA
ATOM     29  H   UNL     1     174.138 160.140 179.022  1.00  0.00     0.210 HD
ENDBRANCH  25  28
ENDBRANCH   2   6
ENDBRANCH   1   2
BRANCH   1  30
ATOM     30  C   UNL     1     162.065 161.299 180.638  1.00  0.00     0.031 C 
BRANCH  30  31
ATOM     31  C   UNL     1     160.836 162.075 181.112  1.00  0.00    -0.075 C 
ATOM     32  C   UNL     1     160.283 163.080 180.396  1.00  0.00     0.008 C 
BRANCH  31  33
ATOM     33  C   UNL     1     160.215 161.653 182.439  1.00  0.00     0.008 C 
ATOM     34  C   UNL     1     159.876 160.157 182.435  1.00  0.00     0.012 C 
ATOM     35  C   UNL     1     161.115 162.016 183.629  1.00  0.00     0.012 C 
ENDBRANCH  31  33
ENDBRANCH  30  31
ENDBRANCH   1  30
TORSDOF 7
ENDMDL
MODEL 8
REMARK VINA RESULT:    -5.567      3.662      7.816
REMARK INTER + INTRA:          -9.877
REMARK INTER:                  -8.060
REMARK INTRA:                  -1.817
REMARK UNBOUND:                -2.194
REMARK SMILES C=C(CC[C@H](C(=O)[O-])[C@H]1CC[C@]2(C)C3=C(CC[C@]12C)[C@]1(C)CC[C@@H](O)C(C)(C)[C@@H]1CC3)C(C)C
REMARK SMILES IDX 4 1 5 2 6 3 7 4 8 5 9 6 10 7 18 8 11 9 12 10 17 11 19 12
REMARK SMILES IDX 13 13 14 14 16 15 15 16 31 17 20 18 30 19 29 20 22 21 21 22
REMARK SMILES IDX 26 23 23 24 24 25 27 26 28 27 25 28 3 30 2 31 1 32 32 33
REMARK SMILES IDX 33 34 34 35
REMARK H PARENT 25 29
REMARK Flexibility Score: inf
ROOT
ATOM      1  C   UNL     1     162.743 164.527 181.917  1.00  0.00     0.014 C 
ENDROOT
BRANCH   1   2
ATOM      2  C   UNL     1     163.950 163.613 182.287  1.00  0.00     0.039 C 
BRANCH   2   3
ATOM      3  C   UNL     1     164.872 164.261 183.292  1.00  0.00     0.045 C 
ATOM      4  O   UNL     1     165.228 163.623 184.315  1.00  0.00    -0.550 OA
ATOM      5  O   UNL     1     165.370 165.543 183.086  1.00  0.00    -0.550 OA
ENDBRANCH   2   3
BRANCH   2   6
ATOM      6  C   UNL     1     164.757 163.005 181.085  1.00  0.00     0.004 C 
ATOM      7  C   UNL     1     166.202 163.519 181.006  1.00  0.00     0.006 C 
ATOM      8  C   UNL     1     164.794 161.447 180.833  1.00  0.00    -0.020 C 
ATOM      9  C   UNL     1     167.070 162.318 180.702  1.00  0.00     0.012 C 
ATOM     10  C   UNL     1     166.151 161.262 180.033  1.00  0.00    -0.006 C 
ATOM     11  C   UNL     1     163.513 161.008 180.031  1.00  0.00     0.012 C 
ATOM     12  C   UNL     1     164.831 160.619 182.150  1.00  0.00     0.012 C 
ATOM     13  C   UNL     1     166.838 159.876 180.166  1.00  0.00     0.017 C 
ATOM     14  C   UNL     1     165.945 161.525 178.516  1.00  0.00    -0.064 C 
ATOM     15  C   UNL     1     163.822 160.296 178.726  1.00  0.00     0.032 C 
ATOM     16  C   UNL     1     164.810 161.093 177.892  1.00  0.00    -0.064 C 
ATOM     17  C   UNL     1     167.053 162.166 177.712  1.00  0.00     0.032 C 
ATOM     18  C   UNL     1     164.520 161.308 176.375  1.00  0.00    -0.008 C 
ATOM     19  C   UNL     1     167.027 161.734 176.258  1.00  0.00     0.009 C 
ATOM     20  C   UNL     1     165.670 162.108 175.618  1.00  0.00     0.007 C 
ATOM     21  C   UNL     1     164.353 159.886 175.754  1.00  0.00     0.014 C 
ATOM     22  C   UNL     1     163.189 162.107 176.312  1.00  0.00     0.016 C 
ATOM     23  C   UNL     1     165.688 161.973 174.018  1.00  0.00    -0.006 C 
ATOM     24  C   UNL     1     164.235 159.875 174.234  1.00  0.00     0.033 C 
ATOM     25  C   UNL     1     165.473 160.493 173.582  1.00  0.00     0.120 C 
ATOM     26  C   UNL     1     164.620 162.897 173.354  1.00  0.00     0.014 C 
ATOM     27  C   UNL     1     167.049 162.443 173.429  1.00  0.00     0.014 C 
BRANCH  25  28
ATOM     28  O   UNL     1     165.351 160.407 172.181  1.00  0.00    -0.393 OA
ATOM     29  H   UNL     1     164.487 159.954 171.994  1.00  0.00     0.210 HD
ENDBRANCH  25  28
ENDBRANCH   2   6
ENDBRANCH   1   2
BRANCH   1  30
ATOM     30  C   UNL     1     161.395 163.919 182.357  1.00  0.00     0.031 C 
BRANCH  30  31
ATOM     31  C   UNL     1     160.749 162.951 181.366  1.00  0.00    -0.075 C 
ATOM     32  C   UNL     1     160.635 163.221 180.046  1.00  0.00     0.008 C 
BRANCH  31  33
ATOM     33  C   UNL     1     160.248 161.621 181.920  1.00  0.00     0.008 C 
ATOM     34  C   UNL     1     160.007 160.612 180.790  1.00  0.00     0.012 C 
ATOM     35  C   UNL     1     161.200 161.051 182.981  1.00  0.00     0.012 C 
ENDBRANCH  31  33
ENDBRANCH  30  31
ENDBRANCH   1  30
TORSDOF 7
ENDMDL
MODEL 9
REMARK VINA RESULT:    -5.547      7.726     10.892
REMARK INTER + INTRA:          -9.848
REMARK INTER:                  -7.728
REMARK INTRA:                  -2.121
REMARK UNBOUND:                -2.194
REMARK SMILES C=C(CC[C@H](C(=O)[O-])[C@H]1CC[C@]2(C)C3=C(CC[C@]12C)[C@]1(C)CC[C@@H](O)C(C)(C)[C@@H]1CC3)C(C)C
REMARK SMILES IDX 4 1 5 2 6 3 7 4 8 5 9 6 10 7 18 8 11 9 12 10 17 11 19 12
REMARK SMILES IDX 13 13 14 14 16 15 15 16 31 17 20 18 30 19 29 20 22 21 21 22
REMARK SMILES IDX 26 23 23 24 24 25 27 26 28 27 25 28 3 30 2 31 1 32 32 33
REMARK SMILES IDX 33 34 34 35
REMARK H PARENT 25 29
REMARK Flexibility Score: inf
ROOT
ATOM      1  C   UNL     1     175.696 160.560 179.876  1.00  0.00     0.014 C 
ENDROOT
BRANCH   1   2
ATOM      2  C   UNL     1     175.254 161.917 179.251  1.00  0.00     0.039 C 
BRANCH   2   3
ATOM      3  C   UNL     1     176.344 162.959 179.313  1.00  0.00     0.045 C 
ATOM      4  O   UNL     1     177.292 162.824 180.130  1.00  0.00    -0.550 OA
ATOM      5  O   UNL     1     176.344 164.052 178.453  1.00  0.00    -0.550 OA
ENDBRANCH   2   3
BRANCH   2   6
ATOM      6  C   UNL     1     173.883 162.500 179.750  1.00  0.00     0.004 C 
ATOM      7  C   UNL     1     174.045 163.694 180.702  1.00  0.00     0.006 C 
ATOM      8  C   UNL     1     172.731 162.859 178.731  1.00  0.00    -0.020 C 
ATOM      9  C   UNL     1     173.019 164.722 180.280  1.00  0.00     0.012 C 
ATOM     10  C   UNL     1     171.903 163.954 179.525  1.00  0.00    -0.006 C 
ATOM     11  C   UNL     1     171.909 161.563 178.381  1.00  0.00     0.012 C 
ATOM     12  C   UNL     1     173.264 163.453 177.396  1.00  0.00     0.012 C 
ATOM     13  C   UNL     1     171.119 164.977 178.658  1.00  0.00     0.017 C 
ATOM     14  C   UNL     1     170.877 163.291 180.485  1.00  0.00    -0.064 C 
ATOM     15  C   UNL     1     170.425 161.681 178.678  1.00  0.00     0.032 C 
ATOM     16  C   UNL     1     170.191 162.177 180.094  1.00  0.00    -0.064 C 
ATOM     17  C   UNL     1     170.565 163.945 181.811  1.00  0.00     0.032 C 
ATOM     18  C   UNL     1     169.142 161.448 180.989  1.00  0.00    -0.008 C 
ATOM     19  C   UNL     1     169.155 163.642 182.280  1.00  0.00     0.009 C 
ATOM     20  C   UNL     1     168.960 162.115 182.423  1.00  0.00     0.007 C 
ATOM     21  C   UNL     1     167.794 161.485 180.203  1.00  0.00     0.014 C 
ATOM     22  C   UNL     1     169.662 159.992 181.142  1.00  0.00     0.016 C 
ATOM     23  C   UNL     1     167.613 161.739 183.212  1.00  0.00    -0.006 C 
ATOM     24  C   UNL     1     166.594 160.972 180.990  1.00  0.00     0.033 C 
ATOM     25  C   UNL     1     166.379 161.794 182.262  1.00  0.00     0.120 C 
ATOM     26  C   UNL     1     167.718 160.335 183.886  1.00  0.00     0.014 C 
ATOM     27  C   UNL     1     167.351 162.729 184.381  1.00  0.00     0.014 C 
BRANCH  25  28
ATOM     28  O   UNL     1     165.227 161.328 182.927  1.00  0.00    -0.393 OA
ATOM     29  H   UNL     1     164.880 162.086 183.467  1.00  0.00     0.210 HD
ENDBRANCH  25  28
ENDBRANCH   2   6
ENDBRANCH   1   2
BRANCH   1  30
ATOM     30  C   UNL     1     174.722 160.078 180.971  1.00  0.00     0.031 C 
BRANCH  30  31
ATOM     31  C   UNL     1     174.963 160.644 182.370  1.00  0.00    -0.075 C 
ATOM     32  C   UNL     1     176.194 160.961 182.831  1.00  0.00     0.008 C 
BRANCH  31  33
ATOM     33  C   UNL     1     173.737 160.877 183.247  1.00  0.00     0.008 C 
ATOM     34  C   UNL     1     173.634 162.349 183.666  1.00  0.00     0.012 C 
ATOM     35  C   UNL     1     172.448 160.402 182.561  1.00  0.00     0.012 C 
ENDBRANCH  31  33
ENDBRANCH  30  31
ENDBRANCH   1  30
TORSDOF 7
ENDMDL
