MODEL 1
REMARK VINA RESULT:    -5.721      0.000      0.000
REMARK INTER + INTRA:          -7.884
REMARK INTER:                  -7.728
REMARK INTRA:                  -0.156
REMARK UNBOUND:                -0.156
REMARK SMILES COc1ccc(-c2cc(=O)c3c(OC)c(OC)c(OC)c(OC)c3o2)cc1
REMARK SMILES IDX 7 1 8 2 9 3 10 4 11 5 24 6 25 7 21 8 18 9 15 10 12 11 6 12
REMARK SMILES IDX 3 13 4 14 27 15 5 16 26 17 2 18 1 19 22 20 23 21 13 22 14 23
REMARK SMILES IDX 19 24 20 25 16 26 17 27
REMARK H PARENT
REMARK Flexibility Score: inf
ROOT
ATOM      1  C   UNL     1     129.878 131.688 115.180  1.00  0.00     0.138 A 
ATOM      2  C   UNL     1     129.857 132.517 114.049  1.00  0.00     0.100 A 
ATOM      3  C   UNL     1     129.919 131.944 112.779  1.00  0.00     0.197 A 
ATOM      4  O   UNL     1     129.903 132.701 111.772  1.00  0.00    -0.289 OA
ATOM      5  C   UNL     1     130.008 130.542 112.649  1.00  0.00     0.115 A 
ATOM      6  C   UNL     1     130.031 129.774 113.831  1.00  0.00     0.188 A 
ATOM      7  O   UNL     1     129.969 130.371 115.021  1.00  0.00    -0.452 OA
ATOM      8  C   UNL     1     130.109 128.377 113.785  1.00  0.00     0.209 A 
ATOM      9  C   UNL     1     130.197 127.715 112.533  1.00  0.00     0.211 A 
ATOM     10  C   UNL     1     130.221 128.488 111.343  1.00  0.00     0.208 A 
ATOM     11  C   UNL     1     130.061 129.889 111.400  1.00  0.00     0.179 A 
ENDROOT
BRANCH   1  12
ATOM     12  C   UNL     1     129.817 132.236 116.558  1.00  0.00     0.018 A 
ATOM     13  C   UNL     1     129.642 133.246 119.192  1.00  0.00     0.118 A 
ATOM     14  C   UNL     1     130.361 133.948 118.207  1.00  0.00     0.047 A 
ATOM     15  C   UNL     1     129.009 132.048 118.847  1.00  0.00     0.047 A 
ATOM     16  C   UNL     1     130.444 133.450 116.902  1.00  0.00     0.016 A 
ATOM     17  C   UNL     1     129.089 131.549 117.545  1.00  0.00     0.016 A 
BRANCH  13  18
ATOM     18  O   UNL     1     129.532 133.703 120.513  1.00  0.00    -0.497 OA
ATOM     19  C   UNL     1     128.312 134.107 121.125  1.00  0.00     0.278 C 
ENDBRANCH  13  18
ENDBRANCH   1  12
BRANCH   8  20
ATOM     20  O   UNL     1     130.100 127.709 115.027  1.00  0.00    -0.490 OA
ATOM     21  C   UNL     1     131.208 127.492 115.894  1.00  0.00     0.278 C 
ENDBRANCH   8  20
BRANCH  11  22
ATOM     22  O   UNL     1     129.947 130.636 110.222  1.00  0.00    -0.492 OA
ATOM     23  C   UNL     1     128.706 130.813 109.546  1.00  0.00     0.278 C 
ENDBRANCH  11  22
BRANCH   9  24
ATOM     24  O   UNL     1     130.267 126.309 112.522  1.00  0.00    -0.490 OA
ATOM     25  C   UNL     1     129.300 125.401 112.005  1.00  0.00     0.279 C 
ENDBRANCH   9  24
BRANCH  10  26
ATOM     26  O   UNL     1     130.424 127.865 110.108  1.00  0.00    -0.490 OA
ATOM     27  C   UNL     1     129.347 127.381 109.310  1.00  0.00     0.278 C 
ENDBRANCH  10  26
TORSDOF 6
ENDMDL
MODEL 2
REMARK VINA RESULT:    -4.746      0.776      3.347
REMARK INTER + INTRA:          -6.567
REMARK INTER:                  -6.501
REMARK INTRA:                  -0.066
REMARK UNBOUND:                -0.156
REMARK SMILES COc1ccc(-c2cc(=O)c3c(OC)c(OC)c(OC)c(OC)c3o2)cc1
REMARK SMILES IDX 7 1 8 2 9 3 10 4 11 5 24 6 25 7 21 8 18 9 15 10 12 11 6 12
REMARK SMILES IDX 3 13 4 14 27 15 5 16 26 17 2 18 1 19 22 20 23 21 13 22 14 23
REMARK SMILES IDX 19 24 20 25 16 26 17 27
REMARK H PARENT
REMARK Flexibility Score: inf
ROOT
ATOM      1  C   UNL     1     130.008 130.441 115.967  1.00  0.00     0.138 A 
ATOM      2  C   UNL     1     130.169 129.069 116.210  1.00  0.00     0.100 A 
ATOM      3  C   UNL     1     130.311 128.197 115.131  1.00  0.00     0.197 A 
ATOM      4  O   UNL     1     130.450 126.965 115.362  1.00  0.00    -0.289 OA
ATOM      5  C   UNL     1     130.285 128.703 113.814  1.00  0.00     0.115 A 
ATOM      6  C   UNL     1     130.114 130.093 113.649  1.00  0.00     0.188 A 
ATOM      7  O   UNL     1     129.983 130.884 114.714  1.00  0.00    -0.452 OA
ATOM      8  C   UNL     1     130.087 130.672 112.375  1.00  0.00     0.209 A 
ATOM      9  C   UNL     1     130.204 129.853 111.223  1.00  0.00     0.211 A 
ATOM     10  C   UNL     1     130.330 128.448 111.385  1.00  0.00     0.208 A 
ATOM     11  C   UNL     1     130.436 127.886 112.675  1.00  0.00     0.179 A 
ENDROOT
BRANCH   1  12
ATOM     12  C   UNL     1     129.850 131.421 117.072  1.00  0.00     0.018 A 
ATOM     13  C   UNL     1     129.493 133.253 119.193  1.00  0.00     0.118 A 
ATOM     14  C   UNL     1     130.239 133.617 118.057  1.00  0.00     0.047 A 
ATOM     15  C   UNL     1     128.924 131.977 119.254  1.00  0.00     0.047 A 
ATOM     16  C   UNL     1     130.412 132.711 117.005  1.00  0.00     0.016 A 
ATOM     17  C   UNL     1     129.095 131.071 118.204  1.00  0.00     0.016 A 
BRANCH  13  18
ATOM     18  O   UNL     1     129.293 134.125 120.273  1.00  0.00    -0.497 OA
ATOM     19  C   UNL     1     128.152 134.102 121.125  1.00  0.00     0.278 C 
ENDBRANCH  13  18
ENDBRANCH   1  12
BRANCH   8  20
ATOM     20  O   UNL     1     129.936 132.074 112.330  1.00  0.00    -0.490 OA
ATOM     21  C   UNL     1     130.848 133.052 112.817  1.00  0.00     0.278 C 
ENDBRANCH   8  20
BRANCH  11  22
ATOM     22  O   UNL     1     130.698 126.520 112.831  1.00  0.00    -0.492 OA
ATOM     23  C   UNL     1     129.744 125.516 112.493  1.00  0.00     0.278 C 
ENDBRANCH  11  22
BRANCH   9  24
ATOM     24  O   UNL     1     130.180 130.468 109.958  1.00  0.00    -0.490 OA
ATOM     25  C   UNL     1     129.032 130.813 109.189  1.00  0.00     0.279 C 
ENDBRANCH   9  24
BRANCH  10  26
ATOM     26  O   UNL     1     130.329 127.613 110.264  1.00  0.00    -0.490 OA
ATOM     27  C   UNL     1     129.154 127.363 109.497  1.00  0.00     0.278 C 
ENDBRANCH  10  26
TORSDOF 6
ENDMDL
MODEL 3
REMARK VINA RESULT:    -4.691      1.792      3.716
REMARK INTER + INTRA:          -6.493
REMARK INTER:                  -6.816
REMARK INTRA:                   0.323
REMARK UNBOUND:                -0.156
REMARK SMILES COc1ccc(-c2cc(=O)c3c(OC)c(OC)c(OC)c(OC)c3o2)cc1
REMARK SMILES IDX 7 1 8 2 9 3 10 4 11 5 24 6 25 7 21 8 18 9 15 10 12 11 6 12
REMARK SMILES IDX 3 13 4 14 27 15 5 16 26 17 2 18 1 19 22 20 23 21 13 22 14 23
REMARK SMILES IDX 19 24 20 25 16 26 17 27
REMARK H PARENT
REMARK Flexibility Score: inf
ROOT
ATOM      1  C   UNL     1     129.978 131.412 114.162  1.00  0.00     0.138 A 
ATOM      2  C   UNL     1     130.830 130.337 113.876  1.00  0.00     0.100 A 
ATOM      3  C   UNL     1     130.768 129.728 112.623  1.00  0.00     0.197 A 
ATOM      4  O   UNL     1     131.536 128.760 112.380  1.00  0.00    -0.289 OA
ATOM      5  C   UNL     1     129.845 130.199 111.664  1.00  0.00     0.115 A 
ATOM      6  C   UNL     1     129.016 131.280 112.026  1.00  0.00     0.188 A 
ATOM      7  O   UNL     1     129.117 131.826 113.237  1.00  0.00    -0.452 OA
ATOM      8  C   UNL     1     128.083 131.810 111.127  1.00  0.00     0.209 A 
ATOM      9  C   UNL     1     127.940 131.236 109.837  1.00  0.00     0.211 A 
ATOM     10  C   UNL     1     128.740 130.117 109.486  1.00  0.00     0.208 A 
ATOM     11  C   UNL     1     129.733 129.645 110.372  1.00  0.00     0.179 A 
ENDROOT
BRANCH   1  12
ATOM     12  C   UNL     1     129.995 132.100 115.478  1.00  0.00     0.018 A 
ATOM     13  C   UNL     1     129.983 133.364 118.006  1.00  0.00     0.118 A 
ATOM     14  C   UNL     1     130.327 134.089 116.849  1.00  0.00     0.047 A 
ATOM     15  C   UNL     1     129.640 132.014 117.885  1.00  0.00     0.047 A 
ATOM     16  C   UNL     1     130.328 133.463 115.598  1.00  0.00     0.016 A 
ATOM     17  C   UNL     1     129.639 131.388 116.636  1.00  0.00     0.016 A 
BRANCH  13  18
ATOM     18  O   UNL     1     129.969 133.945 119.282  1.00  0.00    -0.497 OA
ATOM     19  C   UNL     1     129.271 133.410 120.401  1.00  0.00     0.278 C 
ENDBRANCH  13  18
ENDBRANCH   1  12
BRANCH   8  20
ATOM     20  O   UNL     1     127.325 132.907 111.586  1.00  0.00    -0.490 OA
ATOM     21  C   UNL     1     126.135 132.862 112.365  1.00  0.00     0.278 C 
ENDBRANCH   8  20
BRANCH  11  22
ATOM     22  O   UNL     1     130.612 128.632 109.972  1.00  0.00    -0.492 OA
ATOM     23  C   UNL     1     130.193 127.282 109.795  1.00  0.00     0.278 C 
ENDBRANCH  11  22
BRANCH   9  24
ATOM     24  O   UNL     1     126.997 131.796 108.955  1.00  0.00    -0.490 OA
ATOM     25  C   UNL     1     125.858 131.156 108.390  1.00  0.00     0.279 C 
ENDBRANCH   9  24
BRANCH  10  26
ATOM     26  O   UNL     1     128.534 129.465 108.267  1.00  0.00    -0.490 OA
ATOM     27  C   UNL     1     127.813 128.240 108.167  1.00  0.00     0.278 C 
ENDBRANCH  10  26
TORSDOF 6
ENDMDL
MODEL 4
REMARK VINA RESULT:    -4.473      1.553      2.288
REMARK INTER + INTRA:          -6.198
REMARK INTER:                  -6.271
REMARK INTRA:                   0.073
REMARK UNBOUND:                -0.156
REMARK SMILES COc1ccc(-c2cc(=O)c3c(OC)c(OC)c(OC)c(OC)c3o2)cc1
REMARK SMILES IDX 7 1 8 2 9 3 10 4 11 5 24 6 25 7 21 8 18 9 15 10 12 11 6 12
REMARK SMILES IDX 3 13 4 14 27 15 5 16 26 17 2 18 1 19 22 20 23 21 13 22 14 23
REMARK SMILES IDX 19 24 20 25 16 26 17 27
REMARK H PARENT
REMARK Flexibility Score: inf
ROOT
ATOM      1  C   UNL     1     129.785 131.123 113.063  1.00  0.00     0.138 A 
ATOM      2  C   UNL     1     129.297 131.824 111.951  1.00  0.00     0.100 A 
ATOM      3  C   UNL     1     129.032 131.132 110.769  1.00  0.00     0.197 A 
ATOM      4  O   UNL     1     128.599 131.774 109.775  1.00  0.00    -0.289 OA
ATOM      5  C   UNL     1     129.261 129.741 110.708  1.00  0.00     0.115 A 
ATOM      6  C   UNL     1     129.758 129.106 111.865  1.00  0.00     0.188 A 
ATOM      7  O   UNL     1     129.995 129.814 112.968  1.00  0.00    -0.452 OA
ATOM      8  C   UNL     1     130.002 127.728 111.886  1.00  0.00     0.209 A 
ATOM      9  C   UNL     1     129.778 126.952 110.719  1.00  0.00     0.211 A 
ATOM     10  C   UNL     1     129.323 127.596 109.539  1.00  0.00     0.208 A 
ATOM     11  C   UNL     1     129.004 128.971 109.554  1.00  0.00     0.179 A 
ENDROOT
BRANCH   1  12
ATOM     12  C   UNL     1     130.088 131.802 114.348  1.00  0.00     0.018 A 
ATOM     13  C   UNL     1     130.627 133.050 116.826  1.00  0.00     0.118 A 
ATOM     14  C   UNL     1     130.739 133.775 115.625  1.00  0.00     0.047 A 
ATOM     15  C   UNL     1     130.237 131.708 116.776  1.00  0.00     0.047 A 
ATOM     16  C   UNL     1     130.468 133.158 114.399  1.00  0.00     0.016 A 
ATOM     17  C   UNL     1     129.965 131.090 115.554  1.00  0.00     0.016 A 
BRANCH  13  18
ATOM     18  O   UNL     1     130.889 133.623 118.078  1.00  0.00    -0.497 OA
ATOM     19  C   UNL     1     129.886 134.040 118.998  1.00  0.00     0.278 C 
ENDBRANCH  13  18
ENDBRANCH   1  12
BRANCH   8  20
ATOM     20  O   UNL     1     130.474 127.195 113.104  1.00  0.00    -0.490 OA
ATOM     21  C   UNL     1     129.897 127.363 114.394  1.00  0.00     0.278 C 
ENDBRANCH   8  20
BRANCH  11  22
ATOM     22  O   UNL     1     128.426 129.576 108.432  1.00  0.00    -0.492 OA
ATOM     23  C   UNL     1     127.018 129.597 108.215  1.00  0.00     0.278 C 
ENDBRANCH  11  22
BRANCH   9  24
ATOM     24  O   UNL     1     130.027 125.569 110.776  1.00  0.00    -0.490 OA
ATOM     25  C   UNL     1     129.086 124.533 111.038  1.00  0.00     0.279 C 
ENDBRANCH   9  24
BRANCH  10  26
ATOM     26  O   UNL     1     129.207 126.873 108.348  1.00  0.00    -0.490 OA
ATOM     27  C   UNL     1     130.320 126.230 107.732  1.00  0.00     0.278 C 
ENDBRANCH  10  26
TORSDOF 6
ENDMDL
