MODEL 1
REMARK VINA RESULT:    -2.866      0.000      0.000
REMARK INTER + INTRA:          -3.211
REMARK INTER:                  -3.201
REMARK INTRA:                  -0.010
REMARK UNBOUND:                -0.010
REMARK SMILES CCCC(=O)[O-]
REMARK SMILES IDX 3 1 4 2 5 3 6 4 2 5 1 6
REMARK H PARENT
REMARK Flexibility Score: inf
ROOT
ATOM      1  C   UNL     1       2.511 -10.163  18.921  1.00  0.00     0.052 C 
ENDROOT
BRANCH   1   2
ATOM      2  C   UNL     1       1.406 -10.525  17.977  1.00  0.00     0.041 C 
ATOM      3  O   UNL     1       0.209 -10.521  18.369  1.00  0.00    -0.550 OA
ATOM      4  O   UNL     1       1.696 -10.835  16.654  1.00  0.00    -0.550 OA
ENDBRANCH   1   2
BRANCH   1   5
ATOM      5  C   UNL     1       2.015  -9.256  20.055  1.00  0.00     0.003 C 
ATOM      6  C   UNL     1       3.125  -8.900  21.043  1.00  0.00     0.004 C 
ENDBRANCH   1   5
TORSDOF 2
ENDMDL
MODEL 2
REMARK VINA RESULT:    -2.864     26.137     26.809
REMARK INTER + INTRA:          -3.209
REMARK INTER:                  -3.201
REMARK INTRA:                  -0.008
REMARK UNBOUND:                -0.010
REMARK SMILES CCCC(=O)[O-]
REMARK SMILES IDX 3 1 4 2 5 3 6 4 2 5 1 6
REMARK H PARENT
REMARK Flexibility Score: inf
ROOT
ATOM      1  C   UNL     1     -16.059   7.082  30.427  1.00  0.00     0.052 C 
ENDROOT
BRANCH   1   2
ATOM      2  C   UNL     1     -16.486   5.681  30.744  1.00  0.00     0.041 C 
ATOM      3  O   UNL     1     -16.822   5.370  31.917  1.00  0.00    -0.550 OA
ATOM      4  O   UNL     1     -16.542   4.727  29.736  1.00  0.00    -0.550 OA
ENDBRANCH   1   2
BRANCH   1   5
ATOM      5  C   UNL     1     -14.864   7.106  29.464  1.00  0.00     0.003 C 
ATOM      6  C   UNL     1     -14.585   8.507  28.920  1.00  0.00     0.004 C 
ENDBRANCH   1   5
TORSDOF 2
ENDMDL
MODEL 3
REMARK VINA RESULT:    -2.829     26.302     26.691
REMARK INTER + INTRA:          -3.169
REMARK INTER:                  -3.164
REMARK INTRA:                  -0.005
REMARK UNBOUND:                -0.010
REMARK SMILES CCCC(=O)[O-]
REMARK SMILES IDX 3 1 4 2 5 3 6 4 2 5 1 6
REMARK H PARENT
REMARK Flexibility Score: inf
ROOT
ATOM      1  C   UNL     1     -15.187   8.468  29.361  1.00  0.00     0.052 C 
ENDROOT
BRANCH   1   2
ATOM      2  C   UNL     1     -14.109   8.806  28.376  1.00  0.00     0.041 C 
ATOM      3  O   UNL     1     -14.405   9.115  27.193  1.00  0.00    -0.550 OA
ATOM      4  O   UNL     1     -12.779   8.810  28.777  1.00  0.00    -0.550 OA
ENDBRANCH   1   2
BRANCH   1   5
ATOM      5  C   UNL     1     -15.141   6.989  29.767  1.00  0.00     0.003 C 
ATOM      6  C   UNL     1     -16.276   6.612  30.718  1.00  0.00     0.004 C 
ENDBRANCH   1   5
TORSDOF 2
ENDMDL
MODEL 4
REMARK VINA RESULT:    -2.781     25.331     26.046
REMARK INTER + INTRA:          -3.116
REMARK INTER:                  -3.089
REMARK INTRA:                  -0.027
REMARK UNBOUND:                -0.010
REMARK SMILES CCCC(=O)[O-]
REMARK SMILES IDX 3 1 4 2 5 3 6 4 2 5 1 6
REMARK H PARENT
REMARK Flexibility Score: inf
ROOT
ATOM      1  C   UNL     1     -15.939   2.689  34.337  1.00  0.00     0.052 C 
ENDROOT
BRANCH   1   2
ATOM      2  C   UNL     1     -15.291   2.753  32.988  1.00  0.00     0.041 C 
ATOM      3  O   UNL     1     -14.782   3.829  32.579  1.00  0.00    -0.550 OA
ATOM      4  O   UNL     1     -15.221   1.614  32.196  1.00  0.00    -0.550 OA
ENDBRANCH   1   2
BRANCH   1   5
ATOM      5  C   UNL     1     -16.327   1.253  34.712  1.00  0.00     0.003 C 
ATOM      6  C   UNL     1     -15.646   0.783  35.998  1.00  0.00     0.004 C 
ENDBRANCH   1   5
TORSDOF 2
ENDMDL
MODEL 5
REMARK VINA RESULT:    -2.779     25.810     26.570
REMARK INTER + INTRA:          -3.114
REMARK INTER:                  -3.104
REMARK INTRA:                  -0.010
REMARK UNBOUND:                -0.010
REMARK SMILES CCCC(=O)[O-]
REMARK SMILES IDX 3 1 4 2 5 3 6 4 2 5 1 6
REMARK H PARENT
REMARK Flexibility Score: inf
ROOT
ATOM      1  C   UNL     1     -15.200   6.338  29.626  1.00  0.00     0.052 C 
ENDROOT
BRANCH   1   2
ATOM      2  C   UNL     1     -14.468   7.578  29.210  1.00  0.00     0.041 C 
ATOM      3  O   UNL     1     -15.018   8.705  29.314  1.00  0.00    -0.550 OA
ATOM      4  O   UNL     1     -13.164   7.489  28.738  1.00  0.00    -0.550 OA
ENDBRANCH   1   2
BRANCH   1   5
ATOM      5  C   UNL     1     -16.288   6.644  30.664  1.00  0.00     0.003 C 
ATOM      6  C   UNL     1     -16.594   5.441  31.557  1.00  0.00     0.004 C 
ENDBRANCH   1   5
TORSDOF 2
ENDMDL
MODEL 6
REMARK VINA RESULT:    -2.770     25.829     26.492
REMARK INTER + INTRA:          -3.103
REMARK INTER:                  -3.094
REMARK INTRA:                  -0.009
REMARK UNBOUND:                -0.010
REMARK SMILES CCCC(=O)[O-]
REMARK SMILES IDX 3 1 4 2 5 3 6 4 2 5 1 6
REMARK H PARENT
REMARK Flexibility Score: inf
ROOT
ATOM      1  C   UNL     1     -14.523   6.904  29.335  1.00  0.00     0.052 C 
ENDROOT
BRANCH   1   2
ATOM      2  C   UNL     1     -15.744   6.299  29.957  1.00  0.00     0.041 C 
ATOM      3  O   UNL     1     -16.368   6.914  30.860  1.00  0.00    -0.550 OA
ATOM      4  O   UNL     1     -16.211   5.067  29.514  1.00  0.00    -0.550 OA
ENDBRANCH   1   2
BRANCH   1   5
ATOM      5  C   UNL     1     -14.717   8.398  29.041  1.00  0.00     0.003 C 
ATOM      6  C   UNL     1     -13.418   9.080  28.612  1.00  0.00     0.004 C 
ENDBRANCH   1   5
TORSDOF 2
ENDMDL
MODEL 7
REMARK VINA RESULT:    -2.588      2.077      2.490
REMARK INTER + INTRA:          -2.900
REMARK INTER:                  -2.859
REMARK INTRA:                  -0.041
REMARK UNBOUND:                -0.010
REMARK SMILES CCCC(=O)[O-]
REMARK SMILES IDX 3 1 4 2 5 3 6 4 2 5 1 6
REMARK H PARENT
REMARK Flexibility Score: inf
ROOT
ATOM      1  C   UNL     1       0.607  -9.646  18.244  1.00  0.00     0.052 C 
ENDROOT
BRANCH   1   2
ATOM      2  C   UNL     1       0.670  -8.423  17.381  1.00  0.00     0.041 C 
ATOM      3  O   UNL     1       0.951  -7.304  17.885  1.00  0.00    -0.550 OA
ATOM      4  O   UNL     1       0.449  -8.525  16.013  1.00  0.00    -0.550 OA
ENDBRANCH   1   2
BRANCH   1   5
ATOM      5  C   UNL     1       1.925 -10.432  18.211  1.00  0.00     0.003 C 
ATOM      6  C   UNL     1       2.923  -9.936  19.258  1.00  0.00     0.004 C 
ENDBRANCH   1   5
TORSDOF 2
ENDMDL
MODEL 8
REMARK VINA RESULT:    -2.567      2.178      2.859
REMARK INTER + INTRA:          -2.877
REMARK INTER:                  -2.839
REMARK INTRA:                  -0.038
REMARK UNBOUND:                -0.010
REMARK SMILES CCCC(=O)[O-]
REMARK SMILES IDX 3 1 4 2 5 3 6 4 2 5 1 6
REMARK H PARENT
REMARK Flexibility Score: inf
ROOT
ATOM      1  C   UNL     1       0.841  -9.187  18.701  1.00  0.00     0.052 C 
ENDROOT
BRANCH   1   2
ATOM      2  C   UNL     1       1.850 -10.204  18.262  1.00  0.00     0.041 C 
ATOM      3  O   UNL     1       2.800 -10.525  19.023  1.00  0.00    -0.550 OA
ATOM      4  O   UNL     1       1.721 -10.821  17.024  1.00  0.00    -0.550 OA
ENDBRANCH   1   2
BRANCH   1   5
ATOM      5  C   UNL     1       0.942  -7.896  17.877  1.00  0.00     0.003 C 
ATOM      6  C   UNL     1      -0.160  -7.793  16.822  1.00  0.00     0.004 C 
ENDBRANCH   1   5
TORSDOF 2
ENDMDL
