MODEL 1
REMARK VINA RESULT:    -3.394      0.000      0.000
REMARK INTER + INTRA:          -4.029
REMARK INTER:                  -3.990
REMARK INTRA:                  -0.039
REMARK UNBOUND:                -0.039
REMARK SMILES O=C([O-])CCC(=O)[O-]
REMARK SMILES IDX 4 1 2 2 1 3 3 4 5 5 6 6 7 7 8 8
REMARK H PARENT
REMARK Flexibility Score: inf
ROOT
ATOM      1  C   UNL     1      29.673  24.510  16.860  1.00  0.00     0.059 C 
ENDROOT
BRANCH   1   2
ATOM      2  C   UNL     1      30.527  25.469  17.631  1.00  0.00     0.042 C 
ATOM      3  O   UNL     1      29.997  26.407  18.283  1.00  0.00    -0.550 OA
ATOM      4  O   UNL     1      31.905  25.302  17.661  1.00  0.00    -0.550 OA
ENDBRANCH   1   2
BRANCH   1   5
ATOM      5  C   UNL     1      28.546  25.232  16.114  1.00  0.00     0.059 C 
BRANCH   5   6
ATOM      6  C   UNL     1      27.525  24.270  15.588  1.00  0.00     0.042 C 
ATOM      7  O   UNL     1      27.574  23.054  15.914  1.00  0.00    -0.550 OA
ATOM      8  O   UNL     1      26.544  24.708  14.708  1.00  0.00    -0.550 OA
ENDBRANCH   5   6
ENDBRANCH   1   5
TORSDOF 3
ENDMDL
MODEL 2
REMARK VINA RESULT:    -3.382      0.158      4.298
REMARK INTER + INTRA:          -4.014
REMARK INTER:                  -3.973
REMARK INTRA:                  -0.041
REMARK UNBOUND:                -0.039
REMARK SMILES O=C([O-])CCC(=O)[O-]
REMARK SMILES IDX 4 1 2 2 1 3 3 4 5 5 6 6 7 7 8 8
REMARK H PARENT
REMARK Flexibility Score: inf
ROOT
ATOM      1  C   UNL     1      28.631  25.333  16.045  1.00  0.00     0.059 C 
ENDROOT
BRANCH   1   2
ATOM      2  C   UNL     1      27.545  24.403  15.599  1.00  0.00     0.042 C 
ATOM      3  O   UNL     1      26.619  24.819  14.855  1.00  0.00    -0.550 OA
ATOM      4  O   UNL     1      27.579  23.066  15.973  1.00  0.00    -0.550 OA
ENDBRANCH   1   2
BRANCH   1   5
ATOM      5  C   UNL     1      29.689  24.606  16.881  1.00  0.00     0.059 C 
BRANCH   5   6
ATOM      6  C   UNL     1      30.471  25.559  17.733  1.00  0.00     0.042 C 
ATOM      7  O   UNL     1      29.893  26.528  18.294  1.00  0.00    -0.550 OA
ATOM      8  O   UNL     1      31.844  25.400  17.876  1.00  0.00    -0.550 OA
ENDBRANCH   5   6
ENDBRANCH   1   5
TORSDOF 3
ENDMDL
MODEL 3
REMARK VINA RESULT:    -3.237     13.449     14.587
REMARK INTER + INTRA:          -3.844
REMARK INTER:                  -3.775
REMARK INTRA:                  -0.068
REMARK UNBOUND:                -0.039
REMARK SMILES O=C([O-])CCC(=O)[O-]
REMARK SMILES IDX 4 1 2 2 1 3 3 4 5 5 6 6 7 7 8 8
REMARK H PARENT
REMARK Flexibility Score: inf
ROOT
ATOM      1  C   UNL     1      36.401  37.261  13.758  1.00  0.00     0.059 C 
ENDROOT
BRANCH   1   2
ATOM      2  C   UNL     1      36.817  38.509  13.043  1.00  0.00     0.042 C 
ATOM      3  O   UNL     1      38.021  38.878  13.058  1.00  0.00    -0.550 OA
ATOM      4  O   UNL     1      35.882  39.244  12.326  1.00  0.00    -0.550 OA
ENDBRANCH   1   2
BRANCH   1   5
ATOM      5  C   UNL     1      35.077  36.714  13.214  1.00  0.00     0.059 C 
BRANCH   5   6
ATOM      6  C   UNL     1      34.152  36.305  14.320  1.00  0.00     0.042 C 
ATOM      7  O   UNL     1      33.818  37.136  15.205  1.00  0.00    -0.550 OA
ATOM      8  O   UNL     1      33.691  34.997  14.394  1.00  0.00    -0.550 OA
ENDBRANCH   5   6
ENDBRANCH   1   5
TORSDOF 3
ENDMDL
MODEL 4
REMARK VINA RESULT:    -3.210     12.350     13.629
REMARK INTER + INTRA:          -3.812
REMARK INTER:                  -3.723
REMARK INTRA:                  -0.088
REMARK UNBOUND:                -0.039
REMARK SMILES O=C([O-])CCC(=O)[O-]
REMARK SMILES IDX 4 1 2 2 1 3 3 4 5 5 6 6 7 7 8 8
REMARK H PARENT
REMARK Flexibility Score: inf
ROOT
ATOM      1  C   UNL     1      33.973  36.994  14.153  1.00  0.00     0.059 C 
ENDROOT
BRANCH   1   2
ATOM      2  C   UNL     1      33.885  36.954  12.659  1.00  0.00     0.042 C 
ATOM      3  O   UNL     1      34.170  37.974  11.979  1.00  0.00    -0.550 OA
ATOM      4  O   UNL     1      33.525  35.777  12.015  1.00  0.00    -0.550 OA
ENDBRANCH   1   2
BRANCH   1   5
ATOM      5  C   UNL     1      34.437  35.651  14.727  1.00  0.00     0.059 C 
BRANCH   5   6
ATOM      6  C   UNL     1      35.932  35.558  14.778  1.00  0.00     0.042 C 
ATOM      7  O   UNL     1      36.490  34.460  15.040  1.00  0.00    -0.550 OA
ATOM      8  O   UNL     1      36.707  36.693  14.573  1.00  0.00    -0.550 OA
ENDBRANCH   5   6
ENDBRANCH   1   5
TORSDOF 3
ENDMDL
MODEL 5
REMARK VINA RESULT:    -3.155     13.286     14.182
REMARK INTER + INTRA:          -3.748
REMARK INTER:                  -3.558
REMARK INTRA:                  -0.190
REMARK UNBOUND:                -0.039
REMARK SMILES O=C([O-])CCC(=O)[O-]
REMARK SMILES IDX 4 1 2 2 1 3 3 4 5 5 6 6 7 7 8 8
REMARK H PARENT
REMARK Flexibility Score: inf
ROOT
ATOM      1  C   UNL     1      32.420  25.596  28.730  1.00  0.00     0.059 C 
ENDROOT
BRANCH   1   2
ATOM      2  C   UNL     1      33.373  26.666  29.165  1.00  0.00     0.042 C 
ATOM      3  O   UNL     1      34.558  26.372  29.476  1.00  0.00    -0.550 OA
ATOM      4  O   UNL     1      32.965  27.993  29.189  1.00  0.00    -0.550 OA
ENDBRANCH   1   2
BRANCH   1   5
ATOM      5  C   UNL     1      31.142  25.602  29.576  1.00  0.00     0.059 C 
BRANCH   5   6
ATOM      6  C   UNL     1      31.433  25.319  31.018  1.00  0.00     0.042 C 
ATOM      7  O   UNL     1      31.096  26.145  31.907  1.00  0.00    -0.550 OA
ATOM      8  O   UNL     1      32.113  24.161  31.377  1.00  0.00    -0.550 OA
ENDBRANCH   5   6
ENDBRANCH   1   5
TORSDOF 3
ENDMDL
MODEL 6
REMARK VINA RESULT:    -3.150     13.266     14.306
REMARK INTER + INTRA:          -3.741
REMARK INTER:                  -3.550
REMARK INTRA:                  -0.191
REMARK UNBOUND:                -0.039
REMARK SMILES O=C([O-])CCC(=O)[O-]
REMARK SMILES IDX 4 1 2 2 1 3 3 4 5 5 6 6 7 7 8 8
REMARK H PARENT
REMARK Flexibility Score: inf
ROOT
ATOM      1  C   UNL     1      31.173  25.605  29.608  1.00  0.00     0.059 C 
ENDROOT
BRANCH   1   2
ATOM      2  C   UNL     1      31.487  25.344  31.049  1.00  0.00     0.042 C 
ATOM      3  O   UNL     1      32.030  24.261  31.394  1.00  0.00    -0.550 OA
ATOM      4  O   UNL     1      31.216  26.313  32.006  1.00  0.00    -0.550 OA
ENDBRANCH   1   2
BRANCH   1   5
ATOM      5  C   UNL     1      32.436  25.573  28.741  1.00  0.00     0.059 C 
BRANCH   5   6
ATOM      6  C   UNL     1      33.398  26.654  29.127  1.00  0.00     0.042 C 
ATOM      7  O   UNL     1      34.569  26.361  29.487  1.00  0.00    -0.550 OA
ATOM      8  O   UNL     1      32.990  27.982  29.128  1.00  0.00    -0.550 OA
ENDBRANCH   5   6
ENDBRANCH   1   5
TORSDOF 3
ENDMDL
MODEL 7
REMARK VINA RESULT:    -3.126     11.729     13.118
REMARK INTER + INTRA:          -3.714
REMARK INTER:                  -3.550
REMARK INTRA:                  -0.164
REMARK UNBOUND:                -0.039
REMARK SMILES O=C([O-])CCC(=O)[O-]
REMARK SMILES IDX 4 1 2 2 1 3 3 4 5 5 6 6 7 7 8 8
REMARK H PARENT
REMARK Flexibility Score: inf
ROOT
ATOM      1  C   UNL     1      34.139  36.907  14.921  1.00  0.00     0.059 C 
ENDROOT
BRANCH   1   2
ATOM      2  C   UNL     1      34.425  36.992  13.453  1.00  0.00     0.042 C 
ATOM      3  O   UNL     1      35.358  37.725  13.030  1.00  0.00    -0.550 OA
ATOM      4  O   UNL     1      33.686  36.232  12.556  1.00  0.00    -0.550 OA
ENDBRANCH   1   2
BRANCH   1   5
ATOM      5  C   UNL     1      35.317  36.300  15.690  1.00  0.00     0.059 C 
BRANCH   5   6
ATOM      6  C   UNL     1      35.465  34.836  15.410  1.00  0.00     0.042 C 
ATOM      7  O   UNL     1      36.606  34.339  15.221  1.00  0.00    -0.550 OA
ATOM      8  O   UNL     1      34.338  34.028  15.319  1.00  0.00    -0.550 OA
ENDBRANCH   5   6
ENDBRANCH   1   5
TORSDOF 3
ENDMDL
MODEL 8
REMARK VINA RESULT:    -3.123     11.824     13.115
REMARK INTER + INTRA:          -3.710
REMARK INTER:                  -3.573
REMARK INTRA:                  -0.137
REMARK UNBOUND:                -0.039
REMARK SMILES O=C([O-])CCC(=O)[O-]
REMARK SMILES IDX 4 1 2 2 1 3 3 4 5 5 6 6 7 7 8 8
REMARK H PARENT
REMARK Flexibility Score: inf
ROOT
ATOM      1  C   UNL     1      35.351  36.227  15.815  1.00  0.00     0.059 C 
ENDROOT
BRANCH   1   2
ATOM      2  C   UNL     1      35.449  34.790  15.404  1.00  0.00     0.042 C 
ATOM      3  O   UNL     1      36.575  34.257  15.223  1.00  0.00    -0.550 OA
ATOM      4  O   UNL     1      34.296  34.029  15.259  1.00  0.00    -0.550 OA
ENDBRANCH   1   2
BRANCH   1   5
ATOM      5  C   UNL     1      34.258  36.964  15.035  1.00  0.00     0.059 C 
BRANCH   5   6
ATOM      6  C   UNL     1      34.659  37.199  13.611  1.00  0.00     0.042 C 
ATOM      7  O   UNL     1      35.828  37.581  13.337  1.00  0.00    -0.550 OA
ATOM      8  O   UNL     1      33.731  37.036  12.590  1.00  0.00    -0.550 OA
ENDBRANCH   5   6
ENDBRANCH   1   5
TORSDOF 3
ENDMDL
MODEL 9
REMARK VINA RESULT:    -3.045     12.002     13.409
REMARK INTER + INTRA:          -3.618
REMARK INTER:                  -3.498
REMARK INTRA:                  -0.120
REMARK UNBOUND:                -0.039
REMARK SMILES O=C([O-])CCC(=O)[O-]
REMARK SMILES IDX 4 1 2 2 1 3 3 4 5 5 6 6 7 7 8 8
REMARK H PARENT
REMARK Flexibility Score: inf
ROOT
ATOM      1  C   UNL     1      34.270  35.881  12.399  1.00  0.00     0.059 C 
ENDROOT
BRANCH   1   2
ATOM      2  C   UNL     1      33.432  34.791  12.993  1.00  0.00     0.042 C 
ATOM      3  O   UNL     1      32.739  34.047  12.250  1.00  0.00    -0.550 OA
ATOM      4  O   UNL     1      33.447  34.572  14.364  1.00  0.00    -0.550 OA
ENDBRANCH   1   2
BRANCH   1   5
ATOM      5  C   UNL     1      34.617  36.954  13.436  1.00  0.00     0.059 C 
BRANCH   5   6
ATOM      6  C   UNL     1      36.066  36.907  13.816  1.00  0.00     0.042 C 
ATOM      7  O   UNL     1      36.494  35.991  14.567  1.00  0.00    -0.550 OA
ATOM      8  O   UNL     1      36.935  37.896  13.372  1.00  0.00    -0.550 OA
ENDBRANCH   5   6
ENDBRANCH   1   5
TORSDOF 3
ENDMDL
