MODEL 1
REMARK VINA RESULT:    11.799      0.000      0.000
REMARK INTER + INTRA:          16.006
REMARK INTER:                  14.559
REMARK INTRA:                   1.448
REMARK UNBOUND:                 1.448
REMARK SMILES C=C1CC[C@@H]2[C@H]([C@@H]3[C@@H](C)CC[C@@H]13)C2(C)C
REMARK SMILES IDX 3 1 2 2 1 3 12 4 9 5 8 6 10 7 7 8 11 9 4 11 5 12 6 13 13 14
REMARK SMILES IDX 14 16 15 17
REMARK H PARENT
REMARK Flexibility Score: 80.00
ROOT
ATOM      1  C   UNL     1     134.989 140.178 161.560  1.00  0.00     0.031 C 
ENDROOT
BRANCH   1   2
ATOM      2  C   UNL     1     135.497 140.675 162.906  1.00  0.00    -0.074 C 
ATOM      3  C   UNL     1     135.835 141.976 163.011  1.00  0.00     0.008 C 
BRANCH   2   4
ATOM      4  C   UNL     1     135.400 139.756 164.134  1.00  0.00     0.018 C 
ATOM      5  C   UNL     1     137.869 137.365 165.528  1.00  0.00     0.008 C 
ATOM      6  C   UNL     1     136.450 137.931 165.391  1.00  0.00    -0.010 C 
ATOM      7  C   UNL     1     136.214 139.123 166.329  1.00  0.00     0.004 C 
ATOM      8  C   UNL     1     136.167 138.437 163.958  1.00  0.00     0.003 CG0
ATOM      9  C   UNL     1     135.976 140.324 165.433  1.00  0.00     0.008 C 
ATOM     10  G   UNL     1     135.328 137.399 163.172  1.00  0.00     0.000 G0
ENDBRANCH   2   4
ENDBRANCH   1   2
BRANCH   1  11
ATOM     11  C   UNL     1     135.735 138.934 161.060  1.00  0.00     0.009 C 
BRANCH  11  12
ATOM     12  C   UNL     1     135.107 137.654 161.642  1.00  0.00    -0.001 C 
ATOM     13  C   UNL     1     135.327 137.384 163.138  1.00  0.00     0.002 CG0
ATOM     14  C   UNL     1     135.980 136.467 162.085  1.00  0.00    -0.029 C 
ATOM     15  G   UNL     1     136.162 138.415 163.936  1.00  0.00     0.000 G0
ATOM     16  C   UNL     1     135.306 135.100 161.917  1.00  0.00     0.011 C 
ATOM     17  C   UNL     1     137.491 136.493 161.781  1.00  0.00     0.011 C 
ENDBRANCH  11  12
ENDBRANCH   1  11
TORSDOF 0
ENDMDL
