MODEL 1
REMARK VINA RESULT:    -5.959      0.000      0.000
REMARK INTER + INTRA:          -6.668
REMARK INTER:                  -6.308
REMARK INTRA:                  -0.360
REMARK UNBOUND:                -0.360
REMARK SMILES CC1=C[C@@H]2C(=C(C)CC[C@H]2C(C)C)CC1
REMARK SMILES IDX 1 1 2 2 3 3 4 4 10 5 9 6 8 7 6 8 5 9 14 10 15 11 7 12 11 13
REMARK SMILES IDX 12 14 13 15
REMARK H PARENT
REMARK Flexibility Score: inf
ROOT
ATOM      1  C   UNL     1     141.039 147.241 163.319  1.00  0.00     0.039 C 
ATOM      2  C   UNL     1     142.520 147.466 163.454  1.00  0.00    -0.076 C 
ATOM      3  C   UNL     1     143.256 147.666 162.335  1.00  0.00    -0.020 C 
ATOM      4  C   UNL     1     144.765 147.834 162.374  1.00  0.00     0.041 C 
ATOM      5  C   UNL     1     145.300 148.638 161.151  1.00  0.00     0.003 C 
ATOM      6  C   UNL     1     145.058 150.137 161.423  1.00  0.00     0.009 C 
ATOM      7  C   UNL     1     145.818 150.602 162.667  1.00  0.00     0.031 C 
ATOM      8  C   UNL     1     145.557 149.717 163.867  1.00  0.00    -0.073 C 
ATOM      9  C   UNL     1     145.151 148.422 163.720  1.00  0.00    -0.064 C 
ATOM     10  C   UNL     1     144.651 147.588 164.876  1.00  0.00     0.036 C 
ATOM     11  C   UNL     1     143.115 147.596 164.853  1.00  0.00     0.035 C 
ATOM     12  C   UNL     1     145.825 150.307 165.231  1.00  0.00     0.039 C 
ENDROOT
BRANCH   5  13
ATOM     13  C   UNL     1     146.793 148.289 160.809  1.00  0.00    -0.013 C 
ATOM     14  C   UNL     1     146.983 146.779 160.554  1.00  0.00     0.007 C 
ATOM     15  C   UNL     1     147.305 149.051 159.569  1.00  0.00     0.007 C 
ENDBRANCH   5  13
TORSDOF 1
ENDMDL
MODEL 2
REMARK VINA RESULT:    -5.952      4.816      6.457
REMARK INTER + INTRA:          -6.660
REMARK INTER:                  -6.281
REMARK INTRA:                  -0.379
REMARK UNBOUND:                -0.360
REMARK SMILES CC1=C[C@@H]2C(=C(C)CC[C@H]2C(C)C)CC1
REMARK SMILES IDX 1 1 2 2 3 3 4 4 10 5 9 6 8 7 6 8 5 9 14 10 15 11 7 12 11 13
REMARK SMILES IDX 12 14 13 15
REMARK H PARENT
REMARK Flexibility Score: inf
ROOT
ATOM      1  C   UNL     1     141.786 145.058 160.628  1.00  0.00     0.039 C 
ATOM      2  C   UNL     1     142.166 144.646 162.024  1.00  0.00    -0.076 C 
ATOM      3  C   UNL     1     142.661 143.402 162.228  1.00  0.00    -0.020 C 
ATOM      4  C   UNL     1     143.005 142.882 163.612  1.00  0.00     0.041 C 
ATOM      5  C   UNL     1     144.083 141.758 163.568  1.00  0.00     0.003 C 
ATOM      6  C   UNL     1     145.464 142.427 163.401  1.00  0.00     0.009 C 
ATOM      7  C   UNL     1     145.779 143.341 164.587  1.00  0.00     0.031 C 
ATOM      8  C   UNL     1     144.661 144.320 164.875  1.00  0.00    -0.073 C 
ATOM      9  C   UNL     1     143.376 144.062 164.494  1.00  0.00    -0.064 C 
ATOM     10  C   UNL     1     142.285 145.105 164.544  1.00  0.00     0.036 C 
ATOM     11  C   UNL     1     142.106 145.690 163.135  1.00  0.00     0.035 C 
ATOM     12  C   UNL     1     145.015 145.562 165.657  1.00  0.00     0.039 C 
ENDROOT
BRANCH   5  13
ATOM     13  C   UNL     1     143.993 140.788 164.801  1.00  0.00    -0.013 C 
ATOM     14  C   UNL     1     142.544 140.326 165.060  1.00  0.00     0.007 C 
ATOM     15  C   UNL     1     144.872 139.532 164.626  1.00  0.00     0.007 C 
ENDBRANCH   5  13
TORSDOF 1
ENDMDL
MODEL 3
REMARK VINA RESULT:    -5.939      5.553      7.539
REMARK INTER + INTRA:          -6.646
REMARK INTER:                  -6.282
REMARK INTRA:                  -0.364
REMARK UNBOUND:                -0.360
REMARK SMILES CC1=C[C@@H]2C(=C(C)CC[C@H]2C(C)C)CC1
REMARK SMILES IDX 1 1 2 2 3 3 4 4 10 5 9 6 8 7 6 8 5 9 14 10 15 11 7 12 11 13
REMARK SMILES IDX 12 14 13 15
REMARK H PARENT
REMARK Flexibility Score: inf
ROOT
ATOM      1  C   UNL     1     149.753 143.475 163.275  1.00  0.00     0.039 C 
ATOM      2  C   UNL     1     148.272 143.258 163.422  1.00  0.00    -0.076 C 
ATOM      3  C   UNL     1     147.524 143.066 162.309  1.00  0.00    -0.020 C 
ATOM      4  C   UNL     1     146.016 142.907 162.361  1.00  0.00     0.041 C 
ATOM      5  C   UNL     1     145.464 142.111 161.140  1.00  0.00     0.003 C 
ATOM      6  C   UNL     1     145.701 140.609 161.404  1.00  0.00     0.009 C 
ATOM      7  C   UNL     1     144.949 140.144 162.653  1.00  0.00     0.031 C 
ATOM      8  C   UNL     1     145.226 141.023 163.854  1.00  0.00    -0.073 C 
ATOM      9  C   UNL     1     145.638 142.316 163.708  1.00  0.00    -0.064 C 
ATOM     10  C   UNL     1     146.153 143.143 164.862  1.00  0.00     0.036 C 
ATOM     11  C   UNL     1     147.689 143.126 164.826  1.00  0.00     0.035 C 
ATOM     12  C   UNL     1     144.966 140.429 165.218  1.00  0.00     0.039 C 
ENDROOT
BRANCH   5  13
ATOM     13  C   UNL     1     143.970 142.470 160.812  1.00  0.00    -0.013 C 
ATOM     14  C   UNL     1     143.781 143.986 160.600  1.00  0.00     0.007 C 
ATOM     15  C   UNL     1     143.454 141.742 159.554  1.00  0.00     0.007 C 
ENDBRANCH   5  13
TORSDOF 1
ENDMDL
MODEL 4
REMARK VINA RESULT:    -5.935      3.439      5.306
REMARK INTER + INTRA:          -6.643
REMARK INTER:                  -6.288
REMARK INTRA:                  -0.354
REMARK UNBOUND:                -0.360
REMARK SMILES CC1=C[C@@H]2C(=C(C)CC[C@H]2C(C)C)CC1
REMARK SMILES IDX 1 1 2 2 3 3 4 4 10 5 9 6 8 7 6 8 5 9 14 10 15 11 7 12 11 13
REMARK SMILES IDX 12 14 13 15
REMARK H PARENT
REMARK Flexibility Score: inf
ROOT
ATOM      1  C   UNL     1     147.215 149.725 163.293  1.00  0.00     0.039 C 
ATOM      2  C   UNL     1     147.450 148.245 163.426  1.00  0.00    -0.076 C 
ATOM      3  C   UNL     1     147.655 147.511 162.306  1.00  0.00    -0.020 C 
ATOM      4  C   UNL     1     147.832 146.004 162.344  1.00  0.00     0.041 C 
ATOM      5  C   UNL     1     148.640 145.475 161.121  1.00  0.00     0.003 C 
ATOM      6  C   UNL     1     150.138 145.726 161.394  1.00  0.00     0.009 C 
ATOM      7  C   UNL     1     150.606 144.967 162.638  1.00  0.00     0.031 C 
ATOM      8  C   UNL     1     149.718 145.221 163.838  1.00  0.00    -0.073 C 
ATOM      9  C   UNL     1     148.422 145.620 163.690  1.00  0.00    -0.064 C 
ATOM     10  C   UNL     1     147.583 146.113 164.845  1.00  0.00     0.036 C 
ATOM     11  C   UNL     1     147.582 147.649 164.824  1.00  0.00     0.035 C 
ATOM     12  C   UNL     1     150.309 144.955 165.202  1.00  0.00     0.039 C 
ENDROOT
BRANCH   5  13
ATOM     13  C   UNL     1     148.301 143.980 160.776  1.00  0.00    -0.013 C 
ATOM     14  C   UNL     1     146.800 143.791 160.474  1.00  0.00     0.007 C 
ATOM     15  C   UNL     1     149.102 143.460 159.566  1.00  0.00     0.007 C 
ENDBRANCH   5  13
TORSDOF 1
ENDMDL
MODEL 5
REMARK VINA RESULT:    -5.928      3.451      5.354
REMARK INTER + INTRA:          -6.635
REMARK INTER:                  -6.279
REMARK INTRA:                  -0.356
REMARK UNBOUND:                -0.360
REMARK SMILES CC1=C[C@@H]2C(=C(C)CC[C@H]2C(C)C)CC1
REMARK SMILES IDX 1 1 2 2 3 3 4 4 10 5 9 6 8 7 6 8 5 9 14 10 15 11 7 12 11 13
REMARK SMILES IDX 12 14 13 15
REMARK H PARENT
REMARK Flexibility Score: inf
ROOT
ATOM      1  C   UNL     1     143.498 141.004 163.287  1.00  0.00     0.039 C 
ATOM      2  C   UNL     1     143.268 142.482 163.448  1.00  0.00    -0.076 C 
ATOM      3  C   UNL     1     143.075 143.239 162.341  1.00  0.00    -0.020 C 
ATOM      4  C   UNL     1     142.904 144.746 162.407  1.00  0.00     0.041 C 
ATOM      5  C   UNL     1     142.108 145.303 161.189  1.00  0.00     0.003 C 
ATOM      6  C   UNL     1     140.607 145.052 161.444  1.00  0.00     0.009 C 
ATOM      7  C   UNL     1     140.131 145.788 162.698  1.00  0.00     0.031 C 
ATOM      8  C   UNL     1     141.007 145.506 163.901  1.00  0.00    -0.073 C 
ATOM      9  C   UNL     1     142.304 145.105 163.756  1.00  0.00    -0.064 C 
ATOM     10  C   UNL     1     143.131 144.585 164.908  1.00  0.00     0.036 C 
ATOM     11  C   UNL     1     143.126 143.050 164.856  1.00  0.00     0.035 C 
ATOM     12  C   UNL     1     140.406 145.747 165.264  1.00  0.00     0.039 C 
ENDROOT
BRANCH   5  13
ATOM     13  C   UNL     1     142.456 146.803 160.877  1.00  0.00    -0.013 C 
ATOM     14  C   UNL     1     143.963 146.995 160.606  1.00  0.00     0.007 C 
ATOM     15  C   UNL     1     141.679 147.345 159.661  1.00  0.00     0.007 C 
ENDBRANCH   5  13
TORSDOF 1
ENDMDL
MODEL 6
REMARK VINA RESULT:    -5.920      4.886      6.229
REMARK INTER + INTRA:          -6.627
REMARK INTER:                  -6.237
REMARK INTRA:                  -0.390
REMARK UNBOUND:                -0.360
REMARK SMILES CC1=C[C@@H]2C(=C(C)CC[C@H]2C(C)C)CC1
REMARK SMILES IDX 1 1 2 2 3 3 4 4 10 5 9 6 8 7 6 8 5 9 14 10 15 11 7 12 11 13
REMARK SMILES IDX 12 14 13 15
REMARK H PARENT
REMARK Flexibility Score: inf
ROOT
ATOM      1  C   UNL     1     145.761 141.757 160.647  1.00  0.00     0.039 C 
ATOM      2  C   UNL     1     146.184 142.153 162.034  1.00  0.00    -0.076 C 
ATOM      3  C   UNL     1     147.402 142.721 162.210  1.00  0.00    -0.020 C 
ATOM      4  C   UNL     1     147.935 143.090 163.583  1.00  0.00     0.041 C 
ATOM      5  C   UNL     1     148.992 144.233 163.517  1.00  0.00     0.003 C 
ATOM      6  C   UNL     1     148.237 145.572 163.376  1.00  0.00     0.009 C 
ATOM      7  C   UNL     1     147.336 145.827 164.586  1.00  0.00     0.031 C 
ATOM      8  C   UNL     1     146.434 144.650 164.892  1.00  0.00    -0.073 C 
ATOM      9  C   UNL     1     146.759 143.385 164.497  1.00  0.00    -0.064 C 
ATOM     10  C   UNL     1     145.784 142.233 164.566  1.00  0.00     0.036 C 
ATOM     11  C   UNL     1     145.175 142.026 163.171  1.00  0.00     0.035 C 
ATOM     12  C   UNL     1     145.193 144.925 165.707  1.00  0.00     0.039 C 
ENDROOT
BRANCH   5  13
ATOM     13  C   UNL     1     149.996 144.196 164.725  1.00  0.00    -0.013 C 
ATOM     14  C   UNL     1     150.372 142.750 165.110  1.00  0.00     0.007 C 
ATOM     15  C   UNL     1     151.299 144.966 164.429  1.00  0.00     0.007 C 
ENDBRANCH   5  13
TORSDOF 1
ENDMDL
MODEL 7
REMARK VINA RESULT:    -5.863      1.595      5.249
REMARK INTER + INTRA:          -6.566
REMARK INTER:                  -6.176
REMARK INTRA:                  -0.390
REMARK UNBOUND:                -0.360
REMARK SMILES CC1=C[C@@H]2C(=C(C)CC[C@H]2C(C)C)CC1
REMARK SMILES IDX 1 1 2 2 3 3 4 4 10 5 9 6 8 7 6 8 5 9 14 10 15 11 7 12 11 13
REMARK SMILES IDX 12 14 13 15
REMARK H PARENT
REMARK Flexibility Score: inf
ROOT
ATOM      1  C   UNL     1     144.837 148.855 160.546  1.00  0.00     0.039 C 
ATOM      2  C   UNL     1     144.428 148.498 161.948  1.00  0.00    -0.076 C 
ATOM      3  C   UNL     1     143.207 147.950 162.155  1.00  0.00    -0.020 C 
ATOM      4  C   UNL     1     142.688 147.622 163.543  1.00  0.00     0.041 C 
ATOM      5  C   UNL     1     141.617 146.490 163.520  1.00  0.00     0.003 C 
ATOM      6  C   UNL     1     142.354 145.139 163.402  1.00  0.00     0.009 C 
ATOM      7  C   UNL     1     143.269 144.904 164.606  1.00  0.00     0.031 C 
ATOM      8  C   UNL     1     144.189 146.077 164.870  1.00  0.00    -0.073 C 
ATOM      9  C   UNL     1     143.874 147.336 164.448  1.00  0.00    -0.064 C 
ATOM     10  C   UNL     1     144.863 148.477 164.476  1.00  0.00     0.036 C 
ATOM     11  C   UNL     1     145.455 148.642 163.068  1.00  0.00     0.035 C 
ATOM     12  C   UNL     1     145.438 145.806 165.675  1.00  0.00     0.039 C 
ENDROOT
BRANCH   5  13
ATOM     13  C   UNL     1     140.630 146.570 164.740  1.00  0.00    -0.013 C 
ATOM     14  C   UNL     1     140.264 148.028 165.084  1.00  0.00     0.007 C 
ATOM     15  C   UNL     1     139.321 145.795 164.488  1.00  0.00     0.007 C 
ENDBRANCH   5  13
TORSDOF 1
ENDMDL
MODEL 8
REMARK VINA RESULT:    -5.734      5.684      7.139
REMARK INTER + INTRA:          -6.430
REMARK INTER:                  -6.088
REMARK INTRA:                  -0.342
REMARK UNBOUND:                -0.360
REMARK SMILES CC1=C[C@@H]2C(=C(C)CC[C@H]2C(C)C)CC1
REMARK SMILES IDX 1 1 2 2 3 3 4 4 10 5 9 6 8 7 6 8 5 9 14 10 15 11 7 12 11 13
REMARK SMILES IDX 12 14 13 15
REMARK H PARENT
REMARK Flexibility Score: inf
ROOT
ATOM      1  C   UNL     1     142.722 142.906 159.780  1.00  0.00     0.039 C 
ATOM      2  C   UNL     1     143.800 142.241 160.591  1.00  0.00    -0.076 C 
ATOM      3  C   UNL     1     144.787 143.003 161.119  1.00  0.00    -0.020 C 
ATOM      4  C   UNL     1     145.949 142.407 161.893  1.00  0.00     0.041 C 
ATOM      5  C   UNL     1     146.577 143.425 162.891  1.00  0.00     0.003 C 
ATOM      6  C   UNL     1     145.680 143.477 164.146  1.00  0.00     0.009 C 
ATOM      7  C   UNL     1     145.617 142.113 164.835  1.00  0.00     0.031 C 
ATOM      8  C   UNL     1     145.256 140.998 163.877  1.00  0.00    -0.073 C 
ATOM      9  C   UNL     1     145.487 141.111 162.536  1.00  0.00    -0.064 C 
ATOM     10  C   UNL     1     144.928 140.136 161.527  1.00  0.00     0.036 C 
ATOM     11  C   UNL     1     143.668 140.753 160.902  1.00  0.00     0.035 C 
ATOM     12  C   UNL     1     144.689 139.732 164.473  1.00  0.00     0.039 C 
ENDROOT
BRANCH   5  13
ATOM     13  C   UNL     1     148.085 143.111 163.203  1.00  0.00    -0.013 C 
ATOM     14  C   UNL     1     148.955 143.172 161.930  1.00  0.00     0.007 C 
ATOM     15  C   UNL     1     148.685 144.083 164.239  1.00  0.00     0.007 C 
ENDBRANCH   5  13
TORSDOF 1
ENDMDL
MODEL 9
REMARK VINA RESULT:    -5.730      3.544      6.083
REMARK INTER + INTRA:          -6.426
REMARK INTER:                  -6.079
REMARK INTRA:                  -0.347
REMARK UNBOUND:                -0.360
REMARK SMILES CC1=C[C@@H]2C(=C(C)CC[C@H]2C(C)C)CC1
REMARK SMILES IDX 1 1 2 2 3 3 4 4 10 5 9 6 8 7 6 8 5 9 14 10 15 11 7 12 11 13
REMARK SMILES IDX 12 14 13 15
REMARK H PARENT
REMARK Flexibility Score: inf
ROOT
ATOM      1  C   UNL     1     147.784 142.831 159.740  1.00  0.00     0.039 C 
ATOM      2  C   UNL     1     148.463 143.891 160.562  1.00  0.00    -0.076 C 
ATOM      3  C   UNL     1     147.711 144.871 161.119  1.00  0.00    -0.020 C 
ATOM      4  C   UNL     1     148.323 146.016 161.906  1.00  0.00     0.041 C 
ATOM      5  C   UNL     1     147.320 146.628 162.930  1.00  0.00     0.003 C 
ATOM      6  C   UNL     1     147.282 145.708 164.168  1.00  0.00     0.009 C 
ATOM      7  C   UNL     1     148.655 145.627 164.838  1.00  0.00     0.031 C 
ATOM      8  C   UNL     1     149.756 145.280 163.857  1.00  0.00    -0.073 C 
ATOM      9  C   UNL     1     149.625 145.538 162.524  1.00  0.00    -0.064 C 
ATOM     10  C   UNL     1     150.584 144.994 161.490  1.00  0.00     0.036 C 
ATOM     11  C   UNL     1     149.955 143.748 160.850  1.00  0.00     0.035 C 
ATOM     12  C   UNL     1     151.028 144.698 164.426  1.00  0.00     0.039 C 
ENDROOT
BRANCH   5  13
ATOM     13  C   UNL     1     147.643 148.129 163.266  1.00  0.00    -0.013 C 
ATOM     14  C   UNL     1     147.594 149.019 162.007  1.00  0.00     0.007 C 
ATOM     15  C   UNL     1     146.672 148.719 164.308  1.00  0.00     0.007 C 
ENDBRANCH   5  13
TORSDOF 1
ENDMDL
