MODEL 1
REMARK VINA RESULT:    -2.565      0.000      0.000
REMARK INTER + INTRA:          -7.822
REMARK INTER:                  -4.963
REMARK INTRA:                  -2.859
REMARK UNBOUND:                -2.859
REMARK SMILES CCCCCCCCCCCCCCCCCC(=O)[O-]
REMARK SMILES IDX 10 1 11 2 12 3 13 4 14 5 15 6 16 7 17 8 18 9 19 10 20 11
REMARK SMILES IDX 9 12 8 13 7 14 6 15 5 16 4 17 3 18 2 19 1 20
REMARK H PARENT
REMARK Flexibility Score: inf
ROOT
ATOM      1  C   UNL     1     125.531 117.787 111.498  1.00  0.00     0.000 C 
ENDROOT
BRANCH   1   2
ATOM      2  C   UNL     1     126.084 116.370 111.719  1.00  0.00     0.000 C 
BRANCH   2   3
ATOM      3  C   UNL     1     124.988 115.352 112.082  1.00  0.00     0.000 C 
BRANCH   3   4
ATOM      4  C   UNL     1     124.912 114.192 111.066  1.00  0.00     0.000 C 
BRANCH   4   5
ATOM      5  C   UNL     1     126.072 114.179 110.051  1.00  0.00     0.000 C 
BRANCH   5   6
ATOM      6  C   UNL     1     125.639 114.194 108.575  1.00  0.00     0.000 C 
BRANCH   6   7
ATOM      7  C   UNL     1     124.139 114.482 108.397  1.00  0.00     0.006 C 
BRANCH   7   8
ATOM      8  C   UNL     1     123.437 113.394 107.573  1.00  0.00     0.053 C 
BRANCH   8   9
ATOM      9  C   UNL     1     123.544 112.050 108.227  1.00  0.00     0.041 C 
ATOM     10  O   UNL     1     124.261 111.150 107.715  1.00  0.00    -0.550 OA
ATOM     11  O   UNL     1     122.877 111.803 109.421  1.00  0.00    -0.550 OA
ENDBRANCH   8   9
ENDBRANCH   7   8
ENDBRANCH   6   7
ENDBRANCH   5   6
ENDBRANCH   4   5
ENDBRANCH   3   4
ENDBRANCH   2   3
ENDBRANCH   1   2
BRANCH   1  12
ATOM     12  C   UNL     1     124.706 117.927 110.201  1.00  0.00     0.000 C 
BRANCH  12  13
ATOM     13  C   UNL     1     125.579 117.784 108.945  1.00  0.00    -0.000 C 
BRANCH  13  14
ATOM     14  C   UNL     1     126.511 118.993 108.779  1.00  0.00    -0.000 C 
BRANCH  14  15
ATOM     15  C   UNL     1     127.969 118.592 108.485  1.00  0.00    -0.000 C 
BRANCH  15  16
ATOM     16  C   UNL     1     128.926 118.690 109.688  1.00  0.00    -0.000 C 
BRANCH  16  17
ATOM     17  C   UNL     1     129.380 117.340 110.273  1.00  0.00    -0.000 C 
BRANCH  17  18
ATOM     18  C   UNL     1     128.943 116.118 109.435  1.00  0.00    -0.000 C 
BRANCH  18  19
ATOM     19  C   UNL     1     129.810 114.879 109.703  1.00  0.00    -0.003 C 
ATOM     20  C   UNL     1     129.602 114.359 111.123  1.00  0.00     0.004 C 
ENDBRANCH  18  19
ENDBRANCH  17  18
ENDBRANCH  16  17
ENDBRANCH  15  16
ENDBRANCH  14  15
ENDBRANCH  13  14
ENDBRANCH  12  13
ENDBRANCH   1  12
TORSDOF 16
ENDMDL
MODEL 2
REMARK VINA RESULT:    -2.481     13.868     15.805
REMARK INTER + INTRA:          -7.660
REMARK INTER:                  -4.862
REMARK INTRA:                  -2.798
REMARK UNBOUND:                -2.859
REMARK SMILES CCCCCCCCCCCCCCCCCC(=O)[O-]
REMARK SMILES IDX 10 1 11 2 12 3 13 4 14 5 15 6 16 7 17 8 18 9 19 10 20 11
REMARK SMILES IDX 9 12 8 13 7 14 6 15 5 16 4 17 3 18 2 19 1 20
REMARK H PARENT
REMARK Flexibility Score: inf
ROOT
ATOM      1  C   UNL     1     123.321 106.372 120.351  1.00  0.00     0.000 C 
ENDROOT
BRANCH   1   2
ATOM      2  C   UNL     1     122.624 105.128 119.775  1.00  0.00     0.000 C 
BRANCH   2   3
ATOM      3  C   UNL     1     122.473 103.998 120.807  1.00  0.00     0.000 C 
BRANCH   3   4
ATOM      4  C   UNL     1     122.913 102.630 120.242  1.00  0.00     0.000 C 
BRANCH   4   5
ATOM      5  C   UNL     1     124.441 102.473 120.116  1.00  0.00     0.000 C 
BRANCH   5   6
ATOM      6  C   UNL     1     125.260 103.257 121.156  1.00  0.00     0.000 C 
BRANCH   6   7
ATOM      7  C   UNL     1     126.627 103.711 120.618  1.00  0.00     0.006 C 
BRANCH   7   8
ATOM      8  C   UNL     1     126.489 104.722 119.471  1.00  0.00     0.053 C 
BRANCH   8   9
ATOM      9  C   UNL     1     127.809 105.330 119.109  1.00  0.00     0.041 C 
ATOM     10  O   UNL     1     128.772 105.287 119.920  1.00  0.00    -0.550 OA
ATOM     11  O   UNL     1     127.986 105.916 117.862  1.00  0.00    -0.550 OA
ENDBRANCH   8   9
ENDBRANCH   7   8
ENDBRANCH   6   7
ENDBRANCH   5   6
ENDBRANCH   4   5
ENDBRANCH   3   4
ENDBRANCH   2   3
ENDBRANCH   1   2
BRANCH   1  12
ATOM     12  C   UNL     1     123.382 106.380 121.893  1.00  0.00     0.000 C 
BRANCH  12  13
ATOM     13  C   UNL     1     123.296 107.803 122.466  1.00  0.00    -0.000 C 
BRANCH  13  14
ATOM     14  C   UNL     1     123.013 108.828 121.358  1.00  0.00    -0.000 C 
BRANCH  14  15
ATOM     15  C   UNL     1     121.937 109.856 121.752  1.00  0.00    -0.000 C 
BRANCH  15  16
ATOM     16  C   UNL     1     120.484 109.398 121.523  1.00  0.00    -0.000 C 
BRANCH  16  17
ATOM     17  C   UNL     1     120.279 108.453 120.325  1.00  0.00    -0.000 C 
BRANCH  17  18
ATOM     18  C   UNL     1     119.624 107.106 120.699  1.00  0.00    -0.000 C 
BRANCH  18  19
ATOM     19  C   UNL     1     119.371 106.972 122.208  1.00  0.00    -0.003 C 
ATOM     20  C   UNL     1     119.824 105.609 122.723  1.00  0.00     0.004 C 
ENDBRANCH  18  19
ENDBRANCH  17  18
ENDBRANCH  16  17
ENDBRANCH  15  16
ENDBRANCH  14  15
ENDBRANCH  13  14
ENDBRANCH  12  13
ENDBRANCH   1  12
TORSDOF 16
ENDMDL
MODEL 3
REMARK VINA RESULT:    -2.470     13.680     15.684
REMARK INTER + INTRA:          -7.639
REMARK INTER:                  -4.670
REMARK INTRA:                  -2.969
REMARK UNBOUND:                -2.859
REMARK SMILES CCCCCCCCCCCCCCCCCC(=O)[O-]
REMARK SMILES IDX 10 1 11 2 12 3 13 4 14 5 15 6 16 7 17 8 18 9 19 10 20 11
REMARK SMILES IDX 9 12 8 13 7 14 6 15 5 16 4 17 3 18 2 19 1 20
REMARK H PARENT
REMARK Flexibility Score: inf
ROOT
ATOM      1  C   UNL     1     122.298 107.355 118.787  1.00  0.00     0.000 C 
ENDROOT
BRANCH   1   2
ATOM      2  C   UNL     1     123.130 106.200 119.367  1.00  0.00     0.000 C 
BRANCH   2   3
ATOM      3  C   UNL     1     122.358 104.869 119.403  1.00  0.00     0.000 C 
BRANCH   3   4
ATOM      4  C   UNL     1     122.926 103.895 120.457  1.00  0.00     0.000 C 
BRANCH   4   5
ATOM      5  C   UNL     1     123.932 104.546 121.426  1.00  0.00     0.000 C 
BRANCH   5   6
ATOM      6  C   UNL     1     125.309 103.863 121.483  1.00  0.00     0.000 C 
BRANCH   6   7
ATOM      7  C   UNL     1     125.684 103.168 120.163  1.00  0.00     0.006 C 
BRANCH   7   8
ATOM      8  C   UNL     1     126.887 103.835 119.482  1.00  0.00     0.053 C 
BRANCH   8   9
ATOM      9  C   UNL     1     128.182 103.238 119.942  1.00  0.00     0.041 C 
ATOM     10  O   UNL     1     128.871 103.818 120.824  1.00  0.00    -0.550 OA
ATOM     11  O   UNL     1     128.613 102.024 119.421  1.00  0.00    -0.550 OA
ENDBRANCH   8   9
ENDBRANCH   7   8
ENDBRANCH   6   7
ENDBRANCH   5   6
ENDBRANCH   4   5
ENDBRANCH   3   4
ENDBRANCH   2   3
ENDBRANCH   1   2
BRANCH   1  12
ATOM     12  C   UNL     1     120.791 107.241 119.098  1.00  0.00     0.000 C 
BRANCH  12  13
ATOM     13  C   UNL     1     120.241 108.512 119.764  1.00  0.00    -0.000 C 
BRANCH  13  14
ATOM     14  C   UNL     1     119.741 108.218 121.185  1.00  0.00    -0.000 C 
BRANCH  14  15
ATOM     15  C   UNL     1     120.039 106.777 121.640  1.00  0.00    -0.000 C 
BRANCH  15  16
ATOM     16  C   UNL     1     121.118 106.650 122.732  1.00  0.00    -0.000 C 
BRANCH  16  17
ATOM     17  C   UNL     1     121.875 107.951 123.056  1.00  0.00    -0.000 C 
BRANCH  17  18
ATOM     18  C   UNL     1     123.361 107.929 122.636  1.00  0.00    -0.000 C 
BRANCH  18  19
ATOM     19  C   UNL     1     123.732 109.107 121.724  1.00  0.00    -0.003 C 
ATOM     20  C   UNL     1     122.734 110.253 121.870  1.00  0.00     0.004 C 
ENDBRANCH  18  19
ENDBRANCH  17  18
ENDBRANCH  16  17
ENDBRANCH  15  16
ENDBRANCH  14  15
ENDBRANCH  13  14
ENDBRANCH  12  13
ENDBRANCH   1  12
TORSDOF 16
ENDMDL
MODEL 4
REMARK VINA RESULT:    -2.448     12.880     15.348
REMARK INTER + INTRA:          -7.597
REMARK INTER:                  -4.861
REMARK INTRA:                  -2.735
REMARK UNBOUND:                -2.859
REMARK SMILES CCCCCCCCCCCCCCCCCC(=O)[O-]
REMARK SMILES IDX 10 1 11 2 12 3 13 4 14 5 15 6 16 7 17 8 18 9 19 10 20 11
REMARK SMILES IDX 9 12 8 13 7 14 6 15 5 16 4 17 3 18 2 19 1 20
REMARK H PARENT
REMARK Flexibility Score: inf
ROOT
ATOM      1  C   UNL     1     119.813 107.689 120.804  1.00  0.00     0.000 C 
ENDROOT
BRANCH   1   2
ATOM      2  C   UNL     1     119.707 107.033 122.190  1.00  0.00     0.000 C 
BRANCH   2   3
ATOM      3  C   UNL     1     121.076 106.640 122.771  1.00  0.00     0.000 C 
BRANCH   3   4
ATOM      4  C   UNL     1     121.915 107.873 123.169  1.00  0.00     0.000 C 
BRANCH   4   5
ATOM      5  C   UNL     1     123.342 107.869 122.585  1.00  0.00     0.000 C 
BRANCH   5   6
ATOM      6  C   UNL     1     123.663 109.051 121.655  1.00  0.00     0.000 C 
BRANCH   6   7
ATOM      7  C   UNL     1     122.547 110.109 121.629  1.00  0.00     0.006 C 
BRANCH   7   8
ATOM      8  C   UNL     1     122.959 111.363 120.848  1.00  0.00     0.053 C 
BRANCH   8   9
ATOM      9  C   UNL     1     122.888 112.593 121.702  1.00  0.00     0.041 C 
ATOM     10  O   UNL     1     121.897 113.366 121.621  1.00  0.00    -0.550 OA
ATOM     11  O   UNL     1     123.902 112.869 122.611  1.00  0.00    -0.550 OA
ENDBRANCH   8   9
ENDBRANCH   7   8
ENDBRANCH   6   7
ENDBRANCH   5   6
ENDBRANCH   4   5
ENDBRANCH   3   4
ENDBRANCH   2   3
ENDBRANCH   1   2
BRANCH   1  12
ATOM     12  C   UNL     1     120.289 106.719 119.703  1.00  0.00     0.000 C 
BRANCH  12  13
ATOM     13  C   UNL     1     121.616 107.168 119.072  1.00  0.00    -0.000 C 
BRANCH  13  14
ATOM     14  C   UNL     1     122.747 106.186 119.408  1.00  0.00    -0.000 C 
BRANCH  14  15
ATOM     15  C   UNL     1     122.237 104.765 119.714  1.00  0.00    -0.000 C 
BRANCH  15  16
ATOM     16  C   UNL     1     122.946 104.057 120.884  1.00  0.00    -0.000 C 
BRANCH  16  17
ATOM     17  C   UNL     1     124.360 104.580 121.203  1.00  0.00    -0.000 C 
BRANCH  17  18
ATOM     18  C   UNL     1     125.454 103.493 121.145  1.00  0.00    -0.000 C 
BRANCH  18  19
ATOM     19  C   UNL     1     126.403 103.675 119.951  1.00  0.00    -0.003 C 
ATOM     20  C   UNL     1     126.316 105.092 119.390  1.00  0.00     0.004 C 
ENDBRANCH  18  19
ENDBRANCH  17  18
ENDBRANCH  16  17
ENDBRANCH  15  16
ENDBRANCH  14  15
ENDBRANCH  13  14
ENDBRANCH  12  13
ENDBRANCH   1  12
TORSDOF 16
ENDMDL
MODEL 5
REMARK VINA RESULT:    -2.440     13.303     15.813
REMARK INTER + INTRA:          -7.580
REMARK INTER:                  -4.947
REMARK INTRA:                  -2.634
REMARK UNBOUND:                -2.859
REMARK SMILES CCCCCCCCCCCCCCCCCC(=O)[O-]
REMARK SMILES IDX 10 1 11 2 12 3 13 4 14 5 15 6 16 7 17 8 18 9 19 10 20 11
REMARK SMILES IDX 9 12 8 13 7 14 6 15 5 16 4 17 3 18 2 19 1 20
REMARK H PARENT
REMARK Flexibility Score: inf
ROOT
ATOM      1  C   UNL     1     124.125 107.799 120.379  1.00  0.00     0.000 C 
ENDROOT
BRANCH   1   2
ATOM      2  C   UNL     1     123.562 109.228 120.419  1.00  0.00     0.000 C 
BRANCH   2   3
ATOM      3  C   UNL     1     123.327 109.736 121.852  1.00  0.00     0.000 C 
BRANCH   3   4
ATOM      4  C   UNL     1     123.323 108.588 122.884  1.00  0.00     0.000 C 
BRANCH   4   5
ATOM      5  C   UNL     1     121.918 108.224 123.403  1.00  0.00     0.000 C 
BRANCH   5   6
ATOM      6  C   UNL     1     121.330 106.927 122.821  1.00  0.00     0.000 C 
BRANCH   6   7
ATOM      7  C   UNL     1     119.929 107.127 122.218  1.00  0.00     0.006 C 
BRANCH   7   8
ATOM      8  C   UNL     1     119.977 107.900 120.893  1.00  0.00     0.053 C 
BRANCH   8   9
ATOM      9  C   UNL     1     119.267 109.215 120.996  1.00  0.00     0.041 C 
ATOM     10  O   UNL     1     119.923 110.289 121.042  1.00  0.00    -0.550 OA
ATOM     11  O   UNL     1     117.878 109.257 121.009  1.00  0.00    -0.550 OA
ENDBRANCH   8   9
ENDBRANCH   7   8
ENDBRANCH   6   7
ENDBRANCH   5   6
ENDBRANCH   4   5
ENDBRANCH   3   4
ENDBRANCH   2   3
ENDBRANCH   1   2
BRANCH   1  12
ATOM     12  C   UNL     1     123.258 106.822 119.557  1.00  0.00     0.000 C 
BRANCH  12  13
ATOM     13  C   UNL     1     123.451 105.364 120.003  1.00  0.00    -0.000 C 
BRANCH  13  14
ATOM     14  C   UNL     1     124.171 105.292 121.357  1.00  0.00    -0.000 C 
BRANCH  14  15
ATOM     15  C   UNL     1     124.912 103.959 121.573  1.00  0.00    -0.000 C 
BRANCH  15  16
ATOM     16  C   UNL     1     126.088 103.706 120.611  1.00  0.00    -0.000 C 
BRANCH  16  17
ATOM     17  C   UNL     1     125.877 102.553 119.611  1.00  0.00    -0.000 C 
BRANCH  17  18
ATOM     18  C   UNL     1     124.772 101.559 120.029  1.00  0.00    -0.000 C 
BRANCH  18  19
ATOM     19  C   UNL     1     123.526 101.654 119.135  1.00  0.00    -0.003 C 
ATOM     20  C   UNL     1     122.264 101.853 119.970  1.00  0.00     0.004 C 
ENDBRANCH  18  19
ENDBRANCH  17  18
ENDBRANCH  16  17
ENDBRANCH  15  16
ENDBRANCH  14  15
ENDBRANCH  13  14
ENDBRANCH  12  13
ENDBRANCH   1  12
TORSDOF 16
ENDMDL
MODEL 6
REMARK VINA RESULT:    -2.428      2.889      6.001
REMARK INTER + INTRA:          -7.558
REMARK INTER:                  -4.519
REMARK INTRA:                  -3.040
REMARK UNBOUND:                -2.859
REMARK SMILES CCCCCCCCCCCCCCCCCC(=O)[O-]
REMARK SMILES IDX 10 1 11 2 12 3 13 4 14 5 15 6 16 7 17 8 18 9 19 10 20 11
REMARK SMILES IDX 9 12 8 13 7 14 6 15 5 16 4 17 3 18 2 19 1 20
REMARK H PARENT
REMARK Flexibility Score: inf
ROOT
ATOM      1  C   UNL     1     126.309 113.888 110.222  1.00  0.00     0.000 C 
ENDROOT
BRANCH   1   2
ATOM      2  C   UNL     1     125.522 112.945 111.147  1.00  0.00     0.000 C 
BRANCH   2   3
ATOM      3  C   UNL     1     124.658 113.698 112.172  1.00  0.00     0.000 C 
BRANCH   3   4
ATOM      4  C   UNL     1     123.348 114.229 111.551  1.00  0.00     0.000 C 
BRANCH   4   5
ATOM      5  C   UNL     1     123.350 115.750 111.303  1.00  0.00     0.000 C 
BRANCH   5   6
ATOM      6  C   UNL     1     124.247 116.560 112.255  1.00  0.00     0.000 C 
BRANCH   6   7
ATOM      7  C   UNL     1     125.371 117.309 111.520  1.00  0.00     0.006 C 
BRANCH   7   8
ATOM      8  C   UNL     1     124.946 117.748 110.112  1.00  0.00     0.053 C 
BRANCH   8   9
ATOM      9  C   UNL     1     126.127 117.901 109.203  1.00  0.00     0.041 C 
ATOM     10  O   UNL     1     127.170 117.222 109.396  1.00  0.00    -0.550 OA
ATOM     11  O   UNL     1     126.063 118.771 108.121  1.00  0.00    -0.550 OA
ENDBRANCH   8   9
ENDBRANCH   7   8
ENDBRANCH   6   7
ENDBRANCH   5   6
ENDBRANCH   4   5
ENDBRANCH   3   4
ENDBRANCH   2   3
ENDBRANCH   1   2
BRANCH   1  12
ATOM     12  C   UNL     1     126.023 113.655 108.723  1.00  0.00     0.000 C 
BRANCH  12  13
ATOM     13  C   UNL     1     124.952 114.616 108.184  1.00  0.00    -0.000 C 
BRANCH  13  14
ATOM     14  C   UNL     1     123.636 113.875 107.906  1.00  0.00    -0.000 C 
BRANCH  14  15
ATOM     15  C   UNL     1     123.808 112.346 107.854  1.00  0.00    -0.000 C 
BRANCH  15  16
ATOM     16  C   UNL     1     122.955 111.561 108.868  1.00  0.00    -0.000 C 
BRANCH  16  17
ATOM     17  C   UNL     1     123.523 110.188 109.275  1.00  0.00    -0.000 C 
BRANCH  17  18
ATOM     18  C   UNL     1     124.238 109.444 108.127  1.00  0.00    -0.000 C 
BRANCH  18  19
ATOM     19  C   UNL     1     125.615 108.905 108.541  1.00  0.00    -0.003 C 
ATOM     20  C   UNL     1     126.359 109.911 109.415  1.00  0.00     0.004 C 
ENDBRANCH  18  19
ENDBRANCH  17  18
ENDBRANCH  16  17
ENDBRANCH  15  16
ENDBRANCH  14  15
ENDBRANCH  13  14
ENDBRANCH  12  13
ENDBRANCH   1  12
TORSDOF 16
ENDMDL
MODEL 7
REMARK VINA RESULT:    -2.422     13.349     15.774
REMARK INTER + INTRA:          -7.546
REMARK INTER:                  -4.852
REMARK INTRA:                  -2.694
REMARK UNBOUND:                -2.859
REMARK SMILES CCCCCCCCCCCCCCCCCC(=O)[O-]
REMARK SMILES IDX 10 1 11 2 12 3 13 4 14 5 15 6 16 7 17 8 18 9 19 10 20 11
REMARK SMILES IDX 9 12 8 13 7 14 6 15 5 16 4 17 3 18 2 19 1 20
REMARK H PARENT
REMARK Flexibility Score: inf
ROOT
ATOM      1  C   UNL     1     124.181 107.466 120.226  1.00  0.00     0.000 C 
ENDROOT
BRANCH   1   2
ATOM      2  C   UNL     1     123.501 106.390 119.364  1.00  0.00     0.000 C 
BRANCH   2   3
ATOM      3  C   UNL     1     123.107 105.141 120.170  1.00  0.00     0.000 C 
BRANCH   3   4
ATOM      4  C   UNL     1     124.039 104.909 121.378  1.00  0.00     0.000 C 
BRANCH   4   5
ATOM      5  C   UNL     1     124.892 103.630 121.268  1.00  0.00     0.000 C 
BRANCH   5   6
ATOM      6  C   UNL     1     126.334 103.854 120.780  1.00  0.00     0.000 C 
BRANCH   6   7
ATOM      7  C   UNL     1     126.544 103.410 119.323  1.00  0.00     0.006 C 
BRANCH   7   8
ATOM      8  C   UNL     1     127.589 102.293 119.206  1.00  0.00     0.053 C 
BRANCH   8   9
ATOM      9  C   UNL     1     128.976 102.806 119.448  1.00  0.00     0.041 C 
ATOM     10  O   UNL     1     129.352 103.889 118.926  1.00  0.00    -0.550 OA
ATOM     11  O   UNL     1     129.843 102.105 120.277  1.00  0.00    -0.550 OA
ENDBRANCH   8   9
ENDBRANCH   7   8
ENDBRANCH   6   7
ENDBRANCH   5   6
ENDBRANCH   4   5
ENDBRANCH   3   4
ENDBRANCH   2   3
ENDBRANCH   1   2
BRANCH   1  12
ATOM     12  C   UNL     1     123.510 108.851 120.119  1.00  0.00     0.000 C 
BRANCH  12  13
ATOM     13  C   UNL     1     123.252 109.475 121.500  1.00  0.00    -0.000 C 
BRANCH  13  14
ATOM     14  C   UNL     1     123.401 108.429 122.614  1.00  0.00    -0.000 C 
BRANCH  14  15
ATOM     15  C   UNL     1     122.085 108.165 123.369  1.00  0.00    -0.000 C 
BRANCH  15  16
ATOM     16  C   UNL     1     121.273 106.960 122.858  1.00  0.00    -0.000 C 
BRANCH  16  17
ATOM     17  C   UNL     1     119.974 107.318 122.112  1.00  0.00    -0.000 C 
BRANCH  17  18
ATOM     18  C   UNL     1     120.132 107.375 120.577  1.00  0.00    -0.000 C 
BRANCH  18  19
ATOM     19  C   UNL     1     119.678 108.719 119.987  1.00  0.00    -0.003 C 
ATOM     20  C   UNL     1     119.521 109.773 121.080  1.00  0.00     0.004 C 
ENDBRANCH  18  19
ENDBRANCH  17  18
ENDBRANCH  16  17
ENDBRANCH  15  16
ENDBRANCH  14  15
ENDBRANCH  13  14
ENDBRANCH  12  13
ENDBRANCH   1  12
TORSDOF 16
ENDMDL
MODEL 8
REMARK VINA RESULT:    -2.403      2.239      3.353
REMARK INTER + INTRA:          -7.510
REMARK INTER:                  -4.976
REMARK INTRA:                  -2.534
REMARK UNBOUND:                -2.859
REMARK SMILES CCCCCCCCCCCCCCCCCC(=O)[O-]
REMARK SMILES IDX 10 1 11 2 12 3 13 4 14 5 15 6 16 7 17 8 18 9 19 10 20 11
REMARK SMILES IDX 9 12 8 13 7 14 6 15 5 16 4 17 3 18 2 19 1 20
REMARK H PARENT
REMARK Flexibility Score: inf
ROOT
ATOM      1  C   UNL     1     124.197 115.422 109.579  1.00  0.00     0.000 C 
ENDROOT
BRANCH   1   2
ATOM      2  C   UNL     1     124.532 114.864 108.187  1.00  0.00     0.000 C 
BRANCH   2   3
ATOM      3  C   UNL     1     123.461 113.893 107.661  1.00  0.00     0.000 C 
BRANCH   3   4
ATOM      4  C   UNL     1     123.829 112.418 107.932  1.00  0.00     0.000 C 
BRANCH   4   5
ATOM      5  C   UNL     1     125.206 112.235 108.601  1.00  0.00     0.000 C 
BRANCH   5   6
ATOM      6  C   UNL     1     125.157 111.728 110.053  1.00  0.00     0.000 C 
BRANCH   6   7
ATOM      7  C   UNL     1     126.004 110.462 110.270  1.00  0.00     0.006 C 
BRANCH   7   8
ATOM      8  C   UNL     1     126.317 109.745 108.950  1.00  0.00     0.053 C 
BRANCH   8   9
ATOM      9  C   UNL     1     125.370 108.611 108.699  1.00  0.00     0.041 C 
ATOM     10  O   UNL     1     124.767 108.519 107.597  1.00  0.00    -0.550 OA
ATOM     11  O   UNL     1     125.177 107.638 109.672  1.00  0.00    -0.550 OA
ENDBRANCH   8   9
ENDBRANCH   7   8
ENDBRANCH   6   7
ENDBRANCH   5   6
ENDBRANCH   4   5
ENDBRANCH   3   4
ENDBRANCH   2   3
ENDBRANCH   1   2
BRANCH   1  12
ATOM     12  C   UNL     1     124.662 116.880 109.783  1.00  0.00     0.000 C 
BRANCH  12  13
ATOM     13  C   UNL     1     125.636 117.333 108.684  1.00  0.00    -0.000 C 
BRANCH  13  14
ATOM     14  C   UNL     1     126.856 118.044 109.287  1.00  0.00    -0.000 C 
BRANCH  14  15
ATOM     15  C   UNL     1     127.757 117.099 110.105  1.00  0.00    -0.000 C 
BRANCH  15  16
ATOM     16  C   UNL     1     128.301 115.885 109.329  1.00  0.00    -0.000 C 
BRANCH  16  17
ATOM     17  C   UNL     1     127.846 114.513 109.861  1.00  0.00    -0.000 C 
BRANCH  17  18
ATOM     18  C   UNL     1     127.407 114.532 111.341  1.00  0.00    -0.000 C 
BRANCH  18  19
ATOM     19  C   UNL     1     127.773 113.238 112.082  1.00  0.00    -0.003 C 
ATOM     20  C   UNL     1     128.947 112.532 111.408  1.00  0.00     0.004 C 
ENDBRANCH  18  19
ENDBRANCH  17  18
ENDBRANCH  16  17
ENDBRANCH  15  16
ENDBRANCH  14  15
ENDBRANCH  13  14
ENDBRANCH  12  13
ENDBRANCH   1  12
TORSDOF 16
ENDMDL
MODEL 9
REMARK VINA RESULT:    -2.395     14.451     17.341
REMARK INTER + INTRA:          -7.494
REMARK INTER:                  -5.030
REMARK INTRA:                  -2.464
REMARK UNBOUND:                -2.859
REMARK SMILES CCCCCCCCCCCCCCCCCC(=O)[O-]
REMARK SMILES IDX 10 1 11 2 12 3 13 4 14 5 15 6 16 7 17 8 18 9 19 10 20 11
REMARK SMILES IDX 9 12 8 13 7 14 6 15 5 16 4 17 3 18 2 19 1 20
REMARK H PARENT
REMARK Flexibility Score: inf
ROOT
ATOM      1  C   UNL     1     119.556 108.093 121.512  1.00  0.00     0.000 C 
ENDROOT
BRANCH   1   2
ATOM      2  C   UNL     1     120.318 109.368 121.116  1.00  0.00     0.000 C 
BRANCH   2   3
ATOM      3  C   UNL     1     121.599 109.578 121.941  1.00  0.00     0.000 C 
BRANCH   3   4
ATOM      4  C   UNL     1     121.849 108.421 122.933  1.00  0.00     0.000 C 
BRANCH   4   5
ATOM      5  C   UNL     1     123.078 107.559 122.584  1.00  0.00     0.000 C 
BRANCH   5   6
ATOM      6  C   UNL     1     123.622 107.754 121.158  1.00  0.00     0.000 C 
BRANCH   6   7
ATOM      7  C   UNL     1     123.437 106.509 120.275  1.00  0.00     0.006 C 
BRANCH   7   8
ATOM      8  C   UNL     1     123.417 105.215 121.099  1.00  0.00     0.053 C 
BRANCH   8   9
ATOM      9  C   UNL     1     124.424 104.225 120.598  1.00  0.00     0.041 C 
ATOM     10  O   UNL     1     124.455 103.913 119.378  1.00  0.00    -0.550 OA
ATOM     11  O   UNL     1     125.350 103.671 121.474  1.00  0.00    -0.550 OA
ENDBRANCH   8   9
ENDBRANCH   7   8
ENDBRANCH   6   7
ENDBRANCH   5   6
ENDBRANCH   4   5
ENDBRANCH   3   4
ENDBRANCH   2   3
ENDBRANCH   1   2
BRANCH   1  12
ATOM     12  C   UNL     1     119.593 106.996 120.427  1.00  0.00     0.000 C 
BRANCH  12  13
ATOM     13  C   UNL     1     119.179 105.623 120.981  1.00  0.00    -0.000 C 
BRANCH  13  14
ATOM     14  C   UNL     1     119.922 105.309 122.288  1.00  0.00    -0.000 C 
BRANCH  14  15
ATOM     15  C   UNL     1     118.975 104.904 123.433  1.00  0.00    -0.000 C 
BRANCH  15  16
ATOM     16  C   UNL     1     117.651 104.257 122.984  1.00  0.00    -0.000 C 
BRANCH  16  17
ATOM     17  C   UNL     1     116.404 104.715 123.763  1.00  0.00    -0.000 C 
BRANCH  17  18
ATOM     18  C   UNL     1     115.255 105.219 122.863  1.00  0.00    -0.000 C 
BRANCH  18  19
ATOM     19  C   UNL     1     115.153 106.751 122.839  1.00  0.00    -0.003 C 
ATOM     20  C   UNL     1     115.888 107.333 121.635  1.00  0.00     0.004 C 
ENDBRANCH  18  19
ENDBRANCH  17  18
ENDBRANCH  16  17
ENDBRANCH  15  16
ENDBRANCH  14  15
ENDBRANCH  13  14
ENDBRANCH  12  13
ENDBRANCH   1  12
TORSDOF 16
ENDMDL
