MODEL 1
REMARK VINA RESULT:    -5.754      0.000      0.000
REMARK INTER + INTRA:          -8.712
REMARK INTER:                  -8.109
REMARK INTRA:                  -0.603
REMARK UNBOUND:                -0.603
REMARK SMILES COc1ccc(-c2cc(=O)c3c(OC)c(OC)c(OC)c(OC)c3o2)cc1OC
REMARK SMILES IDX 7 1 8 2 9 3 10 4 11 5 24 6 25 7 21 8 18 9 15 10 12 11 6 12
REMARK SMILES IDX 3 13 27 14 4 15 26 16 5 17 2 18 1 19 28 20 29 21 22 22 23 23
REMARK SMILES IDX 13 24 14 25 19 26 20 27 16 28 17 29
REMARK H PARENT
REMARK Flexibility Score: inf
ROOT
ATOM      1  C   UNL     1     -17.109  -2.051 -16.434  1.00  0.00     0.138 A 
ATOM      2  C   UNL     1     -18.202  -2.899 -16.237  1.00  0.00     0.100 A 
ATOM      3  C   UNL     1     -18.039  -4.269 -16.406  1.00  0.00     0.197 A 
ATOM      4  O   UNL     1     -19.034  -5.019 -16.211  1.00  0.00    -0.289 OA
ATOM      5  C   UNL     1     -16.776  -4.790 -16.782  1.00  0.00     0.115 A 
ATOM      6  C   UNL     1     -15.719  -3.868 -16.975  1.00  0.00     0.188 A 
ATOM      7  O   UNL     1     -15.935  -2.568 -16.780  1.00  0.00    -0.452 OA
ATOM      8  C   UNL     1     -14.440  -4.319 -17.373  1.00  0.00     0.209 A 
ATOM      9  C   UNL     1     -14.213  -5.707 -17.554  1.00  0.00     0.211 A 
ATOM     10  C   UNL     1     -15.252  -6.637 -17.293  1.00  0.00     0.208 A 
ATOM     11  C   UNL     1     -16.548  -6.175 -16.956  1.00  0.00     0.179 A 
ENDROOT
BRANCH   1  12
ATOM     12  C   UNL     1     -17.230  -0.586 -16.256  1.00  0.00     0.021 A 
ATOM     13  C   UNL     1     -17.461   2.200 -15.874  1.00  0.00     0.160 A 
ATOM     14  C   UNL     1     -16.700   1.702 -16.943  1.00  0.00     0.161 A 
ATOM     15  C   UNL     1     -18.096   1.304 -14.997  1.00  0.00     0.051 A 
ATOM     16  C   UNL     1     -16.585   0.310 -17.126  1.00  0.00     0.062 A 
ATOM     17  C   UNL     1     -17.983  -0.074 -15.190  1.00  0.00     0.016 A 
BRANCH  13  18
ATOM     18  O   UNL     1     -17.561   3.592 -15.720  1.00  0.00    -0.493 OA
ATOM     19  C   UNL     1     -18.411   4.430 -16.497  1.00  0.00     0.278 C 
ENDBRANCH  13  18
BRANCH  14  20
ATOM     20  O   UNL     1     -16.074   2.622 -17.799  1.00  0.00    -0.493 OA
ATOM     21  C   UNL     1     -14.715   3.035 -17.684  1.00  0.00     0.278 C 
ENDBRANCH  14  20
ENDBRANCH   1  12
BRANCH   8  22
ATOM     22  O   UNL     1     -13.365  -3.434 -17.588  1.00  0.00    -0.490 OA
ATOM     23  C   UNL     1     -13.025  -2.769 -18.800  1.00  0.00     0.278 C 
ENDBRANCH   8  22
BRANCH  11  24
ATOM     24  O   UNL     1     -17.643  -7.049 -16.777  1.00  0.00    -0.492 OA
ATOM     25  C   UNL     1     -17.843  -7.986 -15.723  1.00  0.00     0.278 C 
ENDBRANCH  11  24
BRANCH   9  26
ATOM     26  O   UNL     1     -12.978  -6.210 -18.009  1.00  0.00    -0.490 OA
ATOM     27  C   UNL     1     -12.566  -6.399 -19.358  1.00  0.00     0.279 C 
ENDBRANCH   9  26
BRANCH  10  28
ATOM     28  O   UNL     1     -15.045  -8.027 -17.362  1.00  0.00    -0.490 OA
ATOM     29  C   UNL     1     -15.050  -8.849 -18.526  1.00  0.00     0.278 C 
ENDBRANCH  10  28
TORSDOF 7
ENDMDL
MODEL 2
REMARK VINA RESULT:    -5.595      2.752      6.192
REMARK INTER + INTRA:          -8.487
REMARK INTER:                  -7.821
REMARK INTRA:                  -0.666
REMARK UNBOUND:                -0.603
REMARK SMILES COc1ccc(-c2cc(=O)c3c(OC)c(OC)c(OC)c(OC)c3o2)cc1OC
REMARK SMILES IDX 7 1 8 2 9 3 10 4 11 5 24 6 25 7 21 8 18 9 15 10 12 11 6 12
REMARK SMILES IDX 3 13 27 14 4 15 26 16 5 17 2 18 1 19 28 20 29 21 22 22 23 23
REMARK SMILES IDX 13 24 14 25 19 26 20 27 16 28 17 29
REMARK H PARENT
REMARK Flexibility Score: inf
ROOT
ATOM      1  C   UNL     1     -13.095  -3.443 -18.867  1.00  0.00     0.138 A 
ATOM      2  C   UNL     1     -13.066  -4.839 -18.892  1.00  0.00     0.100 A 
ATOM      3  C   UNL     1     -14.144  -5.552 -18.377  1.00  0.00     0.197 A 
ATOM      4  O   UNL     1     -14.104  -6.811 -18.421  1.00  0.00    -0.289 OA
ATOM      5  C   UNL     1     -15.251  -4.860 -17.828  1.00  0.00     0.115 A 
ATOM      6  C   UNL     1     -15.204  -3.444 -17.828  1.00  0.00     0.188 A 
ATOM      7  O   UNL     1     -14.150  -2.820 -18.351  1.00  0.00    -0.452 OA
ATOM      8  C   UNL     1     -16.266  -2.693 -17.274  1.00  0.00     0.209 A 
ATOM      9  C   UNL     1     -17.395  -3.366 -16.741  1.00  0.00     0.211 A 
ATOM     10  C   UNL     1     -17.475  -4.781 -16.806  1.00  0.00     0.208 A 
ATOM     11  C   UNL     1     -16.381  -5.531 -17.303  1.00  0.00     0.179 A 
ENDROOT
BRANCH   1  12
ATOM     12  C   UNL     1     -11.977  -2.640 -19.411  1.00  0.00     0.021 A 
ATOM     13  C   UNL     1      -9.835  -1.143 -20.477  1.00  0.00     0.160 A 
ATOM     14  C   UNL     1     -11.013  -0.493 -20.081  1.00  0.00     0.161 A 
ATOM     15  C   UNL     1      -9.735  -2.539 -20.345  1.00  0.00     0.051 A 
ATOM     16  C   UNL     1     -12.081  -1.245 -19.554  1.00  0.00     0.062 A 
ATOM     17  C   UNL     1     -10.795  -3.277 -19.815  1.00  0.00     0.016 A 
BRANCH  13  18
ATOM     18  O   UNL     1      -8.786  -0.366 -20.994  1.00  0.00    -0.493 OA
ATOM     19  C   UNL     1      -7.888  -0.800 -22.010  1.00  0.00     0.278 C 
ENDBRANCH  13  18
BRANCH  14  20
ATOM     20  O   UNL     1     -11.085   0.902 -20.229  1.00  0.00    -0.493 OA
ATOM     21  C   UNL     1     -10.969   1.834 -19.158  1.00  0.00     0.278 C 
ENDBRANCH  14  20
ENDBRANCH   1  12
BRANCH   8  22
ATOM     22  O   UNL     1     -16.252  -1.285 -17.242  1.00  0.00    -0.490 OA
ATOM     23  C   UNL     1     -16.483  -0.396 -18.329  1.00  0.00     0.278 C 
ENDBRANCH   8  22
BRANCH  11  24
ATOM     24  O   UNL     1     -16.365  -6.942 -17.304  1.00  0.00    -0.492 OA
ATOM     25  C   UNL     1     -16.120  -7.810 -16.201  1.00  0.00     0.278 C 
ENDBRANCH  11  24
BRANCH   9  26
ATOM     26  O   UNL     1     -18.454  -2.674 -16.121  1.00  0.00    -0.490 OA
ATOM     27  C   UNL     1     -18.542  -2.266 -14.761  1.00  0.00     0.279 C 
ENDBRANCH   9  26
BRANCH  10  28
ATOM     28  O   UNL     1     -18.617  -5.485 -16.381  1.00  0.00    -0.490 OA
ATOM     29  C   UNL     1     -18.895  -5.982 -15.075  1.00  0.00     0.278 C 
ENDBRANCH  10  28
TORSDOF 7
ENDMDL
MODEL 3
REMARK VINA RESULT:    -5.534      1.823      2.997
REMARK INTER + INTRA:          -8.402
REMARK INTER:                  -7.584
REMARK INTRA:                  -0.817
REMARK UNBOUND:                -0.603
REMARK SMILES COc1ccc(-c2cc(=O)c3c(OC)c(OC)c(OC)c(OC)c3o2)cc1OC
REMARK SMILES IDX 7 1 8 2 9 3 10 4 11 5 24 6 25 7 21 8 18 9 15 10 12 11 6 12
REMARK SMILES IDX 3 13 27 14 4 15 26 16 5 17 2 18 1 19 28 20 29 21 22 22 23 23
REMARK SMILES IDX 13 24 14 25 19 26 20 27 16 28 17 29
REMARK H PARENT
REMARK Flexibility Score: inf
ROOT
ATOM      1  C   UNL     1     -15.683  -2.792 -17.424  1.00  0.00     0.138 A 
ATOM      2  C   UNL     1     -16.310  -4.038 -17.495  1.00  0.00     0.100 A 
ATOM      3  C   UNL     1     -15.621  -5.117 -18.038  1.00  0.00     0.197 A 
ATOM      4  O   UNL     1     -16.200  -6.237 -18.081  1.00  0.00    -0.289 OA
ATOM      5  C   UNL     1     -14.301  -4.942 -18.521  1.00  0.00     0.115 A 
ATOM      6  C   UNL     1     -13.736  -3.646 -18.426  1.00  0.00     0.188 A 
ATOM      7  O   UNL     1     -14.442  -2.658 -17.878  1.00  0.00    -0.452 OA
ATOM      8  C   UNL     1     -12.431  -3.398 -18.909  1.00  0.00     0.209 A 
ATOM      9  C   UNL     1     -11.678  -4.462 -19.468  1.00  0.00     0.211 A 
ATOM     10  C   UNL     1     -12.216  -5.774 -19.499  1.00  0.00     0.208 A 
ATOM     11  C   UNL     1     -13.547  -6.004 -19.071  1.00  0.00     0.179 A 
ENDROOT
BRANCH   1  12
ATOM     12  C   UNL     1     -16.372  -1.616 -16.845  1.00  0.00     0.021 A 
ATOM     13  C   UNL     1     -17.676   0.610 -15.701  1.00  0.00     0.160 A 
ATOM     14  C   UNL     1     -16.917   0.769 -16.870  1.00  0.00     0.161 A 
ATOM     15  C   UNL     1     -17.773  -0.660 -15.105  1.00  0.00     0.051 A 
ATOM     16  C   UNL     1     -16.265  -0.344 -17.434  1.00  0.00     0.062 A 
ATOM     17  C   UNL     1     -17.129  -1.760 -15.674  1.00  0.00     0.016 A 
BRANCH  13  18
ATOM     18  O   UNL     1     -18.319   1.737 -15.164  1.00  0.00    -0.493 OA
ATOM     19  C   UNL     1     -17.709   2.662 -14.270  1.00  0.00     0.278 C 
ENDBRANCH  13  18
BRANCH  14  20
ATOM     20  O   UNL     1     -16.835   2.050 -17.440  1.00  0.00    -0.493 OA
ATOM     21  C   UNL     1     -15.643   2.826 -17.512  1.00  0.00     0.278 C 
ENDBRANCH  14  20
ENDBRANCH   1  12
BRANCH   8  22
ATOM     22  O   UNL     1     -11.837  -2.122 -18.846  1.00  0.00    -0.490 OA
ATOM     23  C   UNL     1     -11.990  -1.054 -19.774  1.00  0.00     0.278 C 
ENDBRANCH   8  22
BRANCH  11  24
ATOM     24  O   UNL     1     -14.167  -7.269 -19.166  1.00  0.00    -0.492 OA
ATOM     25  C   UNL     1     -14.563  -7.956 -20.350  1.00  0.00     0.278 C 
ENDBRANCH  11  24
BRANCH   9  26
ATOM     26  O   UNL     1     -10.398  -4.262 -20.022  1.00  0.00    -0.490 OA
ATOM     27  C   UNL     1     -10.082  -3.903 -21.362  1.00  0.00     0.279 C 
ENDBRANCH   9  26
BRANCH  10  28
ATOM     28  O   UNL     1     -11.469  -6.877 -19.952  1.00  0.00    -0.490 OA
ATOM     29  C   UNL     1     -10.654  -7.752 -19.177  1.00  0.00     0.278 C 
ENDBRANCH  10  28
TORSDOF 7
ENDMDL
MODEL 4
REMARK VINA RESULT:    -5.419      3.411      6.354
REMARK INTER + INTRA:          -8.239
REMARK INTER:                  -7.536
REMARK INTRA:                  -0.703
REMARK UNBOUND:                -0.603
REMARK SMILES COc1ccc(-c2cc(=O)c3c(OC)c(OC)c(OC)c(OC)c3o2)cc1OC
REMARK SMILES IDX 7 1 8 2 9 3 10 4 11 5 24 6 25 7 21 8 18 9 15 10 12 11 6 12
REMARK SMILES IDX 3 13 27 14 4 15 26 16 5 17 2 18 1 19 28 20 29 21 22 22 23 23
REMARK SMILES IDX 13 24 14 25 19 26 20 27 16 28 17 29
REMARK H PARENT
REMARK Flexibility Score: inf
ROOT
ATOM      1  C   UNL     1     -12.550  -2.313 -19.547  1.00  0.00     0.138 A 
ATOM      2  C   UNL     1     -12.327  -3.638 -19.932  1.00  0.00     0.100 A 
ATOM      3  C   UNL     1     -13.243  -4.617 -19.563  1.00  0.00     0.197 A 
ATOM      4  O   UNL     1     -13.030  -5.804 -19.931  1.00  0.00    -0.289 OA
ATOM      5  C   UNL     1     -14.382  -4.267 -18.797  1.00  0.00     0.115 A 
ATOM      6  C   UNL     1     -14.534  -2.906 -18.435  1.00  0.00     0.188 A 
ATOM      7  O   UNL     1     -13.631  -2.013 -18.834  1.00  0.00    -0.452 OA
ATOM      8  C   UNL     1     -15.636  -2.493 -17.652  1.00  0.00     0.209 A 
ATOM      9  C   UNL     1     -16.607  -3.447 -17.253  1.00  0.00     0.211 A 
ATOM     10  C   UNL     1     -16.493  -4.797 -17.675  1.00  0.00     0.208 A 
ATOM     11  C   UNL     1     -15.354  -5.217 -18.405  1.00  0.00     0.179 A 
ENDROOT
BRANCH   1  12
ATOM     12  C   UNL     1     -11.609  -1.234 -19.924  1.00  0.00     0.021 A 
ATOM     13  C   UNL     1      -9.816   0.837 -20.601  1.00  0.00     0.160 A 
ATOM     14  C   UNL     1      -9.682  -0.425 -21.196  1.00  0.00     0.161 A 
ATOM     15  C   UNL     1     -10.841   1.057 -19.663  1.00  0.00     0.051 A 
ATOM     16  C   UNL     1     -10.576  -1.457 -20.852  1.00  0.00     0.062 A 
ATOM     17  C   UNL     1     -11.728   0.031 -19.332  1.00  0.00     0.016 A 
BRANCH  13  18
ATOM     18  O   UNL     1      -8.912   1.847 -20.967  1.00  0.00    -0.493 OA
ATOM     19  C   UNL     1      -9.255   2.993 -21.740  1.00  0.00     0.278 C 
ENDBRANCH  13  18
BRANCH  14  20
ATOM     20  O   UNL     1      -8.646  -0.616 -22.125  1.00  0.00    -0.493 OA
ATOM     21  C   UNL     1      -7.553  -1.511 -21.943  1.00  0.00     0.278 C 
ENDBRANCH  14  20
ENDBRANCH   1  12
BRANCH   8  22
ATOM     22  O   UNL     1     -15.818  -1.153 -17.259  1.00  0.00    -0.490 OA
ATOM     23  C   UNL     1     -16.422  -0.108 -18.014  1.00  0.00     0.278 C 
ENDBRANCH   8  22
BRANCH  11  24
ATOM     24  O   UNL     1     -15.140  -6.564 -18.770  1.00  0.00    -0.492 OA
ATOM     25  C   UNL     1     -14.865  -7.665 -17.909  1.00  0.00     0.278 C 
ENDBRANCH  11  24
BRANCH   9  26
ATOM     26  O   UNL     1     -17.692  -3.107 -16.421  1.00  0.00    -0.490 OA
ATOM     27  C   UNL     1     -18.961  -2.600 -16.820  1.00  0.00     0.279 C 
ENDBRANCH   9  26
BRANCH  10  28
ATOM     28  O   UNL     1     -17.482  -5.756 -17.387  1.00  0.00    -0.490 OA
ATOM     29  C   UNL     1     -17.751  -6.375 -16.133  1.00  0.00     0.278 C 
ENDBRANCH  10  28
TORSDOF 7
ENDMDL
MODEL 5
REMARK VINA RESULT:    -5.329      2.853      5.766
REMARK INTER + INTRA:          -8.113
REMARK INTER:                  -7.492
REMARK INTRA:                  -0.621
REMARK UNBOUND:                -0.603
REMARK SMILES COc1ccc(-c2cc(=O)c3c(OC)c(OC)c(OC)c(OC)c3o2)cc1OC
REMARK SMILES IDX 7 1 8 2 9 3 10 4 11 5 24 6 25 7 21 8 18 9 15 10 12 11 6 12
REMARK SMILES IDX 3 13 27 14 4 15 26 16 5 17 2 18 1 19 28 20 29 21 22 22 23 23
REMARK SMILES IDX 13 24 14 25 19 26 20 27 16 28 17 29
REMARK H PARENT
REMARK Flexibility Score: inf
ROOT
ATOM      1  C   UNL     1     -13.822  -2.597 -18.578  1.00  0.00     0.138 A 
ATOM      2  C   UNL     1     -14.885  -1.712 -18.383  1.00  0.00     0.100 A 
ATOM      3  C   UNL     1     -16.103  -2.203 -17.924  1.00  0.00     0.197 A 
ATOM      4  O   UNL     1     -17.046  -1.386 -17.742  1.00  0.00    -0.289 OA
ATOM      5  C   UNL     1     -16.256  -3.588 -17.669  1.00  0.00     0.115 A 
ATOM      6  C   UNL     1     -15.137  -4.424 -17.901  1.00  0.00     0.188 A 
ATOM      7  O   UNL     1     -13.992  -3.890 -18.324  1.00  0.00    -0.452 OA
ATOM      8  C   UNL     1     -15.230  -5.818 -17.689  1.00  0.00     0.209 A 
ATOM      9  C   UNL     1     -16.445  -6.374 -17.214  1.00  0.00     0.211 A 
ATOM     10  C   UNL     1     -17.544  -5.529 -16.914  1.00  0.00     0.208 A 
ATOM     11  C   UNL     1     -17.466  -4.141 -17.189  1.00  0.00     0.179 A 
ENDROOT
BRANCH   1  12
ATOM     12  C   UNL     1     -12.503  -2.121 -19.055  1.00  0.00     0.021 A 
ATOM     13  C   UNL     1      -9.982  -1.255 -19.981  1.00  0.00     0.160 A 
ATOM     14  C   UNL     1     -11.081  -0.385 -20.030  1.00  0.00     0.161 A 
ATOM     15  C   UNL     1     -10.150  -2.557 -19.477  1.00  0.00     0.051 A 
ATOM     16  C   UNL     1     -12.339  -0.824 -19.571  1.00  0.00     0.062 A 
ATOM     17  C   UNL     1     -11.397  -2.982 -19.017  1.00  0.00     0.016 A 
BRANCH  13  18
ATOM     18  O   UNL     1      -8.741  -0.788 -20.442  1.00  0.00    -0.493 OA
ATOM     19  C   UNL     1      -8.154  -1.154 -21.686  1.00  0.00     0.278 C 
ENDBRANCH  13  18
BRANCH  14  20
ATOM     20  O   UNL     1     -10.884   0.907 -20.543  1.00  0.00    -0.493 OA
ATOM     21  C   UNL     1     -10.533   2.043 -19.759  1.00  0.00     0.278 C 
ENDBRANCH  14  20
ENDBRANCH   1  12
BRANCH   8  22
ATOM     22  O   UNL     1     -14.145  -6.686 -17.920  1.00  0.00    -0.490 OA
ATOM     23  C   UNL     1     -13.802  -7.330 -19.142  1.00  0.00     0.278 C 
ENDBRANCH   8  22
BRANCH  11  24
ATOM     24  O   UNL     1     -18.559  -3.267 -16.999  1.00  0.00    -0.492 OA
ATOM     25  C   UNL     1     -19.108  -2.817 -15.764  1.00  0.00     0.278 C 
ENDBRANCH  11  24
BRANCH   9  26
ATOM     26  O   UNL     1     -16.616  -7.762 -17.043  1.00  0.00    -0.490 OA
ATOM     27  C   UNL     1     -16.166  -8.561 -15.955  1.00  0.00     0.279 C 
ENDBRANCH   9  26
BRANCH  10  28
ATOM     28  O   UNL     1     -18.734  -6.023 -16.348  1.00  0.00    -0.490 OA
ATOM     29  C   UNL     1     -18.953  -6.428 -15.001  1.00  0.00     0.278 C 
ENDBRANCH  10  28
TORSDOF 7
ENDMDL
MODEL 6
REMARK VINA RESULT:    -5.094      3.134      6.155
REMARK INTER + INTRA:          -7.781
REMARK INTER:                  -7.017
REMARK INTRA:                  -0.764
REMARK UNBOUND:                -0.603
REMARK SMILES COc1ccc(-c2cc(=O)c3c(OC)c(OC)c(OC)c(OC)c3o2)cc1OC
REMARK SMILES IDX 7 1 8 2 9 3 10 4 11 5 24 6 25 7 21 8 18 9 15 10 12 11 6 12
REMARK SMILES IDX 3 13 27 14 4 15 26 16 5 17 2 18 1 19 28 20 29 21 22 22 23 23
REMARK SMILES IDX 13 24 14 25 19 26 20 27 16 28 17 29
REMARK H PARENT
REMARK Flexibility Score: inf
ROOT
ATOM      1  C   UNL     1     -11.873  -2.846 -19.347  1.00  0.00     0.138 A 
ATOM      2  C   UNL     1     -11.486  -4.149 -19.667  1.00  0.00     0.100 A 
ATOM      3  C   UNL     1     -12.297  -5.213 -19.287  1.00  0.00     0.197 A 
ATOM      4  O   UNL     1     -11.936  -6.381 -19.598  1.00  0.00    -0.289 OA
ATOM      5  C   UNL     1     -13.497  -4.968 -18.577  1.00  0.00     0.115 A 
ATOM      6  C   UNL     1     -13.818  -3.621 -18.278  1.00  0.00     0.188 A 
ATOM      7  O   UNL     1     -13.008  -2.646 -18.684  1.00  0.00    -0.452 OA
ATOM      8  C   UNL     1     -14.989  -3.309 -17.551  1.00  0.00     0.209 A 
ATOM      9  C   UNL     1     -15.859  -4.353 -17.144  1.00  0.00     0.211 A 
ATOM     10  C   UNL     1     -15.575  -5.695 -17.504  1.00  0.00     0.208 A 
ATOM     11  C   UNL     1     -14.368  -6.008 -18.177  1.00  0.00     0.179 A 
ENDROOT
BRANCH   1  12
ATOM     12  C   UNL     1     -11.048  -1.680 -19.737  1.00  0.00     0.021 A 
ATOM     13  C   UNL     1      -9.470   0.524 -20.522  1.00  0.00     0.160 A 
ATOM     14  C   UNL     1     -10.571   0.719 -19.674  1.00  0.00     0.161 A 
ATOM     15  C   UNL     1      -9.168  -0.771 -20.979  1.00  0.00     0.051 A 
ATOM     16  C   UNL     1     -11.358  -0.384 -19.290  1.00  0.00     0.062 A 
ATOM     17  C   UNL     1      -9.948  -1.860 -20.588  1.00  0.00     0.016 A 
BRANCH  13  18
ATOM     18  O   UNL     1      -8.702   1.642 -20.885  1.00  0.00    -0.493 OA
ATOM     19  C   UNL     1      -8.819   2.332 -22.125  1.00  0.00     0.278 C 
ENDBRANCH  13  18
BRANCH  14  20
ATOM     20  O   UNL     1     -10.851   2.024 -19.238  1.00  0.00    -0.493 OA
ATOM     21  C   UNL     1     -11.969   2.383 -18.430  1.00  0.00     0.278 C 
ENDBRANCH  14  20
ENDBRANCH   1  12
BRANCH   8  22
ATOM     22  O   UNL     1     -15.338  -1.984 -17.222  1.00  0.00    -0.490 OA
ATOM     23  C   UNL     1     -16.103  -1.075 -18.006  1.00  0.00     0.278 C 
ENDBRANCH   8  22
BRANCH  11  24
ATOM     24  O   UNL     1     -13.988  -7.335 -18.477  1.00  0.00    -0.492 OA
ATOM     25  C   UNL     1     -14.579  -8.213 -19.430  1.00  0.00     0.278 C 
ENDBRANCH  11  24
BRANCH   9  26
ATOM     26  O   UNL     1     -17.007  -4.109 -16.365  1.00  0.00    -0.490 OA
ATOM     27  C   UNL     1     -18.331  -3.867 -16.828  1.00  0.00     0.279 C 
ENDBRANCH   9  26
BRANCH  10  28
ATOM     28  O   UNL     1     -16.458  -6.751 -17.208  1.00  0.00    -0.490 OA
ATOM     29  C   UNL     1     -16.447  -7.597 -16.063  1.00  0.00     0.278 C 
ENDBRANCH  10  28
TORSDOF 7
ENDMDL
MODEL 7
REMARK VINA RESULT:    -5.038      2.657      7.909
REMARK INTER + INTRA:          -7.703
REMARK INTER:                  -7.142
REMARK INTRA:                  -0.561
REMARK UNBOUND:                -0.603
REMARK SMILES COc1ccc(-c2cc(=O)c3c(OC)c(OC)c(OC)c(OC)c3o2)cc1OC
REMARK SMILES IDX 7 1 8 2 9 3 10 4 11 5 24 6 25 7 21 8 18 9 15 10 12 11 6 12
REMARK SMILES IDX 3 13 27 14 4 15 26 16 5 17 2 18 1 19 28 20 29 21 22 22 23 23
REMARK SMILES IDX 13 24 14 25 19 26 20 27 16 28 17 29
REMARK H PARENT
REMARK Flexibility Score: inf
ROOT
ATOM      1  C   UNL     1     -13.311  -4.685 -18.653  1.00  0.00     0.138 A 
ATOM      2  C   UNL     1     -13.519  -3.304 -18.615  1.00  0.00     0.100 A 
ATOM      3  C   UNL     1     -14.712  -2.809 -18.102  1.00  0.00     0.197 A 
ATOM      4  O   UNL     1     -14.875  -1.559 -18.065  1.00  0.00    -0.289 OA
ATOM      5  C   UNL     1     -15.705  -3.705 -17.633  1.00  0.00     0.115 A 
ATOM      6  C   UNL     1     -15.427  -5.091 -17.714  1.00  0.00     0.188 A 
ATOM      7  O   UNL     1     -14.257  -5.501 -18.200  1.00  0.00    -0.452 OA
ATOM      8  C   UNL     1     -16.384  -6.038 -17.284  1.00  0.00     0.209 A 
ATOM      9  C   UNL     1     -17.617  -5.592 -16.745  1.00  0.00     0.211 A 
ATOM     10  C   UNL     1     -17.867  -4.203 -16.598  1.00  0.00     0.208 A 
ATOM     11  C   UNL     1     -16.932  -3.259 -17.088  1.00  0.00     0.179 A 
ENDROOT
BRANCH   1  12
ATOM     12  C   UNL     1     -12.052  -5.259 -19.181  1.00  0.00     0.021 A 
ATOM     13  C   UNL     1      -9.672  -6.394 -20.186  1.00  0.00     0.160 A 
ATOM     14  C   UNL     1     -10.099  -5.141 -20.650  1.00  0.00     0.161 A 
ATOM     15  C   UNL     1     -10.441  -7.078 -19.228  1.00  0.00     0.051 A 
ATOM     16  C   UNL     1     -11.290  -4.581 -20.149  1.00  0.00     0.062 A 
ATOM     17  C   UNL     1     -11.616  -6.513 -18.730  1.00  0.00     0.016 A 
BRANCH  13  18
ATOM     18  O   UNL     1      -8.478  -6.924 -20.701  1.00  0.00    -0.493 OA
ATOM     19  C   UNL     1      -8.411  -7.901 -21.735  1.00  0.00     0.278 C 
ENDBRANCH  13  18
BRANCH  14  20
ATOM     20  O   UNL     1      -9.313  -4.485 -21.611  1.00  0.00    -0.493 OA
ATOM     21  C   UNL     1      -9.192  -3.070 -21.726  1.00  0.00     0.278 C 
ENDBRANCH  14  20
ENDBRANCH   1  12
BRANCH   8  22
ATOM     22  O   UNL     1     -16.152  -7.426 -17.360  1.00  0.00    -0.490 OA
ATOM     23  C   UNL     1     -15.751  -8.291 -16.303  1.00  0.00     0.278 C 
ENDBRANCH   8  22
BRANCH  11  24
ATOM     24  O   UNL     1     -17.169  -1.867 -17.055  1.00  0.00    -0.492 OA
ATOM     25  C   UNL     1     -18.085  -1.122 -17.852  1.00  0.00     0.278 C 
ENDBRANCH  11  24
BRANCH   9  26
ATOM     26  O   UNL     1     -18.633  -6.488 -16.358  1.00  0.00    -0.490 OA
ATOM     27  C   UNL     1     -18.896  -6.984 -15.050  1.00  0.00     0.279 C 
ENDBRANCH   9  26
BRANCH  10  28
ATOM     28  O   UNL     1     -19.033  -3.716 -15.978  1.00  0.00    -0.490 OA
ATOM     29  C   UNL     1     -19.124  -2.947 -14.782  1.00  0.00     0.278 C 
ENDBRANCH  10  28
TORSDOF 7
ENDMDL
MODEL 8
REMARK VINA RESULT:    -4.949      2.574      4.792
REMARK INTER + INTRA:          -7.578
REMARK INTER:                  -6.960
REMARK INTRA:                  -0.618
REMARK UNBOUND:                -0.603
REMARK SMILES COc1ccc(-c2cc(=O)c3c(OC)c(OC)c(OC)c(OC)c3o2)cc1OC
REMARK SMILES IDX 7 1 8 2 9 3 10 4 11 5 24 6 25 7 21 8 18 9 15 10 12 11 6 12
REMARK SMILES IDX 3 13 27 14 4 15 26 16 5 17 2 18 1 19 28 20 29 21 22 22 23 23
REMARK SMILES IDX 13 24 14 25 19 26 20 27 16 28 17 29
REMARK H PARENT
REMARK Flexibility Score: inf
ROOT
ATOM      1  C   UNL     1     -14.701  -3.096 -18.095  1.00  0.00     0.138 A 
ATOM      2  C   UNL     1     -14.897  -4.465 -17.901  1.00  0.00     0.100 A 
ATOM      3  C   UNL     1     -14.053  -5.370 -18.534  1.00  0.00     0.197 A 
ATOM      4  O   UNL     1     -14.238  -6.601 -18.335  1.00  0.00    -0.289 OA
ATOM      5  C   UNL     1     -13.013  -4.899 -19.373  1.00  0.00     0.115 A 
ATOM      6  C   UNL     1     -12.884  -3.497 -19.531  1.00  0.00     0.188 A 
ATOM      7  O   UNL     1     -13.714  -2.682 -18.883  1.00  0.00    -0.452 OA
ATOM      8  C   UNL     1     -11.882  -2.962 -20.372  1.00  0.00     0.209 A 
ATOM      9  C   UNL     1     -10.987  -3.837 -21.039  1.00  0.00     0.211 A 
ATOM     10  C   UNL     1     -11.071  -5.237 -20.826  1.00  0.00     0.208 A 
ATOM     11  C   UNL     1     -12.116  -5.771 -20.032  1.00  0.00     0.179 A 
ENDROOT
BRANCH   1  12
ATOM     12  C   UNL     1     -15.568  -2.093 -17.435  1.00  0.00     0.021 A 
ATOM     13  C   UNL     1     -17.232  -0.168 -16.215  1.00  0.00     0.160 A 
ATOM     14  C   UNL     1     -17.098  -1.440 -15.640  1.00  0.00     0.161 A 
ATOM     15  C   UNL     1     -16.540   0.134 -17.402  1.00  0.00     0.051 A 
ATOM     16  C   UNL     1     -16.269  -2.399 -16.255  1.00  0.00     0.062 A 
ATOM     17  C   UNL     1     -15.715  -0.819 -18.001  1.00  0.00     0.016 A 
BRANCH  13  18
ATOM     18  O   UNL     1     -18.061   0.769 -15.577  1.00  0.00    -0.493 OA
ATOM     19  C   UNL     1     -17.659   2.086 -15.216  1.00  0.00     0.278 C 
ENDBRANCH  13  18
BRANCH  14  20
ATOM     20  O   UNL     1     -17.805  -1.713 -14.458  1.00  0.00    -0.493 OA
ATOM     21  C   UNL     1     -19.039  -2.423 -14.402  1.00  0.00     0.278 C 
ENDBRANCH  14  20
ENDBRANCH   1  12
BRANCH   8  22
ATOM     22  O   UNL     1     -11.728  -1.575 -20.567  1.00  0.00    -0.490 OA
ATOM     23  C   UNL     1     -12.052  -0.828 -21.734  1.00  0.00     0.278 C 
ENDBRANCH   8  22
BRANCH  11  24
ATOM     24  O   UNL     1     -12.305  -7.160 -19.862  1.00  0.00    -0.492 OA
ATOM     25  C   UNL     1     -12.714  -8.108 -20.843  1.00  0.00     0.278 C 
ENDBRANCH  11  24
BRANCH   9  26
ATOM     26  O   UNL     1     -10.009  -3.365 -21.937  1.00  0.00    -0.490 OA
ATOM     27  C   UNL     1      -8.819  -2.652 -21.623  1.00  0.00     0.279 C 
ENDBRANCH   9  26
BRANCH  10  28
ATOM     28  O   UNL     1     -10.144  -6.135 -21.386  1.00  0.00    -0.490 OA
ATOM     29  C   UNL     1      -8.947  -6.630 -20.794  1.00  0.00     0.278 C 
ENDBRANCH  10  28
TORSDOF 7
ENDMDL
MODEL 9
REMARK VINA RESULT:    -4.912      2.915      6.296
REMARK INTER + INTRA:          -7.525
REMARK INTER:                  -6.809
REMARK INTRA:                  -0.716
REMARK UNBOUND:                -0.603
REMARK SMILES COc1ccc(-c2cc(=O)c3c(OC)c(OC)c(OC)c(OC)c3o2)cc1OC
REMARK SMILES IDX 7 1 8 2 9 3 10 4 11 5 24 6 25 7 21 8 18 9 15 10 12 11 6 12
REMARK SMILES IDX 3 13 27 14 4 15 26 16 5 17 2 18 1 19 28 20 29 21 22 22 23 23
REMARK SMILES IDX 13 24 14 25 19 26 20 27 16 28 17 29
REMARK H PARENT
REMARK Flexibility Score: inf
ROOT
ATOM      1  C   UNL     1     -14.094  -3.360 -18.464  1.00  0.00     0.138 A 
ATOM      2  C   UNL     1     -13.150  -2.361 -18.716  1.00  0.00     0.100 A 
ATOM      3  C   UNL     1     -11.997  -2.677 -19.425  1.00  0.00     0.197 A 
ATOM      4  O   UNL     1     -11.164  -1.759 -19.653  1.00  0.00    -0.289 OA
ATOM      5  C   UNL     1     -11.787  -4.003 -19.878  1.00  0.00     0.115 A 
ATOM      6  C   UNL     1     -12.782  -4.964 -19.575  1.00  0.00     0.188 A 
ATOM      7  O   UNL     1     -13.873  -4.594 -18.906  1.00  0.00    -0.452 OA
ATOM      8  C   UNL     1     -12.624  -6.309 -19.977  1.00  0.00     0.209 A 
ATOM      9  C   UNL     1     -11.471  -6.689 -20.710  1.00  0.00     0.211 A 
ATOM     10  C   UNL     1     -10.508  -5.714 -21.075  1.00  0.00     0.208 A 
ATOM     11  C   UNL     1     -10.640  -4.380 -20.615  1.00  0.00     0.179 A 
ENDROOT
BRANCH   1  12
ATOM     12  C   UNL     1     -15.341  -3.070 -17.721  1.00  0.00     0.021 A 
ATOM     13  C   UNL     1     -17.728  -2.486 -16.333  1.00  0.00     0.160 A 
ATOM     14  C   UNL     1     -17.305  -3.817 -16.466  1.00  0.00     0.161 A 
ATOM     15  C   UNL     1     -16.961  -1.454 -16.902  1.00  0.00     0.051 A 
ATOM     16  C   UNL     1     -16.115  -4.103 -17.164  1.00  0.00     0.062 A 
ATOM     17  C   UNL     1     -15.779  -1.745 -17.585  1.00  0.00     0.016 A 
BRANCH  13  18
ATOM     18  O   UNL     1     -18.916  -2.231 -15.629  1.00  0.00    -0.493 OA
ATOM     19  C   UNL     1     -18.993  -2.058 -14.218  1.00  0.00     0.278 C 
ENDBRANCH  13  18
BRANCH  14  20
ATOM     20  O   UNL     1     -18.095  -4.826 -15.892  1.00  0.00    -0.493 OA
ATOM     21  C   UNL     1     -18.410  -6.063 -16.524  1.00  0.00     0.278 C 
ENDBRANCH  14  20
ENDBRANCH   1  12
BRANCH   8  22
ATOM     22  O   UNL     1     -13.584  -7.298 -19.685  1.00  0.00    -0.490 OA
ATOM     23  C   UNL     1     -14.726  -7.646 -20.460  1.00  0.00     0.278 C 
ENDBRANCH   8  22
BRANCH  11  24
ATOM     24  O   UNL     1      -9.666  -3.389 -20.867  1.00  0.00    -0.492 OA
ATOM     25  C   UNL     1      -9.302  -2.828 -22.125  1.00  0.00     0.278 C 
ENDBRANCH  11  24
BRANCH   9  26
ATOM     26  O   UNL     1     -11.228  -8.025 -21.084  1.00  0.00    -0.490 OA
ATOM     27  C   UNL     1     -10.639  -9.051 -20.293  1.00  0.00     0.279 C 
ENDBRANCH   9  26
BRANCH  10  28
ATOM     28  O   UNL     1      -9.400  -6.024 -21.886  1.00  0.00    -0.490 OA
ATOM     29  C   UNL     1      -8.135  -6.531 -21.471  1.00  0.00     0.278 C 
ENDBRANCH  10  28
TORSDOF 7
ENDMDL
