MODEL 1
REMARK VINA RESULT:    -3.644      0.000      0.000
REMARK INTER + INTRA:          -5.882
REMARK INTER:                  -5.561
REMARK INTRA:                  -0.321
REMARK UNBOUND:                -0.321
REMARK SMILES CC1=CCC[C@H](C)C(=O)C[C@@H](C(C)C)C(=O)C1
REMARK SMILES IDX 8 1 9 2 6 3 7 4 5 5 4 6 3 7 2 8 1 9 10 11 11 12 15 13 16 14
REMARK SMILES IDX 17 15 12 17 13 18 14 19
REMARK H PARENT
REMARK Flexibility Score: 70.00
ROOT
ATOM      1  C   UNL     1      11.896  22.088  56.060  1.00  0.00     0.136 C 
ATOM      2  O   UNL     1      11.085  22.304  56.950  1.00  0.00    -0.299 OA
ENDROOT
BRANCH   1   3
ATOM      3  C   UNL     1      11.509  22.298  54.602  1.00  0.00     0.053 C 
ATOM      4  C   UNL     1      10.098  21.770  54.292  1.00  0.00     0.016 C 
BRANCH   3   5
ATOM      5  C   UNL     1      11.662  23.772  54.166  1.00  0.00     0.015 C 
BRANCH   5   6
ATOM      6  C   UNL     1      12.902  24.020  53.285  1.00  0.00     0.028 C 
BRANCH   6   7
ATOM      7  C   UNL     1      13.846  25.043  53.865  1.00  0.00    -0.028 C 
ATOM      8  C   UNL     1      14.812  24.807  54.790  1.00  0.00    -0.070 CG0
ATOM      9  C   UNL     1      15.559  26.005  55.325  1.00  0.00     0.039 C 
ATOM     10  G   UNL     1      15.239  23.418  55.260  1.00  0.00     0.000 G0
ENDBRANCH   6   7
ENDBRANCH   5   6
ENDBRANCH   3   5
ENDBRANCH   1   3
BRANCH   1  11
ATOM     11  C   UNL     1      13.273  21.593  56.432  1.00  0.00     0.087 C 
BRANCH  11  12
ATOM     12  C   UNL     1      14.008  22.530  57.431  1.00  0.00     0.066 C 
BRANCH  12  13
ATOM     13  C   UNL     1      15.196  23.226  56.775  1.00  0.00     0.140 C 
ATOM     14  O   UNL     1      16.168  23.513  57.461  1.00  0.00    -0.299 OA
BRANCH  13  15
ATOM     15  C   UNL     1      15.262  23.425  55.279  1.00  0.00     0.106 CG0
ATOM     16  G   UNL     1      14.809  24.798  54.792  1.00  0.00     0.000 G0
ENDBRANCH  13  15
ENDBRANCH  12  13
BRANCH  12  17
ATOM     17  C   UNL     1      14.456  21.786  58.730  1.00  0.00    -0.006 C 
ATOM     18  C   UNL     1      14.625  20.271  58.515  1.00  0.00     0.008 C 
ATOM     19  C   UNL     1      13.451  22.013  59.876  1.00  0.00     0.008 C 
ENDBRANCH  12  17
ENDBRANCH  11  12
ENDBRANCH   1  11
TORSDOF 1
ENDMDL
MODEL 2
REMARK VINA RESULT:    -3.613      2.430      5.129
REMARK INTER + INTRA:          -5.834
REMARK INTER:                  -5.560
REMARK INTRA:                  -0.274
REMARK UNBOUND:                -0.321
REMARK SMILES CC1=CCC[C@H](C)C(=O)C[C@@H](C(C)C)C(=O)C1
REMARK SMILES IDX 8 1 9 2 6 3 7 4 5 5 4 6 3 7 2 8 1 9 10 11 11 12 15 13 16 14
REMARK SMILES IDX 17 15 12 17 13 18 14 19
REMARK H PARENT
REMARK Flexibility Score: 70.00
ROOT
ATOM      1  C   UNL     1      13.397  22.465  58.212  1.00  0.00     0.136 C 
ATOM      2  O   UNL     1      12.329  22.838  58.679  1.00  0.00    -0.299 OA
ENDROOT
BRANCH   1   3
ATOM      3  C   UNL     1      14.366  21.658  59.065  1.00  0.00     0.053 C 
ATOM      4  C   UNL     1      14.713  22.369  60.384  1.00  0.00     0.016 C 
BRANCH   3   5
ATOM      5  C   UNL     1      13.858  20.222  59.322  1.00  0.00     0.015 C 
BRANCH   5   6
ATOM      6  C   UNL     1      13.835  19.349  58.052  1.00  0.00     0.028 C 
BRANCH   6   7
ATOM      7  C   UNL     1      15.193  19.192  57.416  1.00  0.00    -0.028 C 
ATOM      8  C   UNL     1      15.467  19.263  56.088  1.00  0.00    -0.070 CG0
ATOM      9  C   UNL     1      16.881  18.948  55.660  1.00  0.00     0.039 C 
ATOM     10  G   UNL     1      14.471  19.710  55.021  1.00  0.00     0.000 G0
ENDBRANCH   6   7
ENDBRANCH   5   6
ENDBRANCH   3   5
ENDBRANCH   1   3
BRANCH   1  11
ATOM     11  C   UNL     1      13.741  22.837  56.790  1.00  0.00     0.087 C 
BRANCH  11  12
ATOM     12  C   UNL     1      13.136  21.861  55.742  1.00  0.00     0.066 C 
BRANCH  12  13
ATOM     13  C   UNL     1      14.222  21.184  54.912  1.00  0.00     0.140 C 
ATOM     14  O   UNL     1      14.984  21.879  54.255  1.00  0.00    -0.299 OA
BRANCH  13  15
ATOM     15  C   UNL     1      14.472  19.697  55.010  1.00  0.00     0.106 CG0
ATOM     16  G   UNL     1      15.459  19.281  56.098  1.00  0.00     0.000 G0
ENDBRANCH  13  15
ENDBRANCH  12  13
BRANCH  12  17
ATOM     17  C   UNL     1      12.088  22.555  54.813  1.00  0.00    -0.006 C 
ATOM     18  C   UNL     1      11.756  23.989  55.266  1.00  0.00     0.008 C 
ATOM     19  C   UNL     1      10.779  21.744  54.745  1.00  0.00     0.008 C 
ENDBRANCH  12  17
ENDBRANCH  11  12
ENDBRANCH   1  11
TORSDOF 1
ENDMDL
MODEL 3
REMARK VINA RESULT:    -3.587      2.076      4.661
REMARK INTER + INTRA:          -5.796
REMARK INTER:                  -5.492
REMARK INTRA:                  -0.303
REMARK UNBOUND:                -0.321
REMARK SMILES CC1=CCC[C@H](C)C(=O)C[C@@H](C(C)C)C(=O)C1
REMARK SMILES IDX 8 1 9 2 6 3 7 4 5 5 4 6 3 7 2 8 1 9 10 11 11 12 15 13 16 14
REMARK SMILES IDX 17 15 12 17 13 18 14 19
REMARK H PARENT
REMARK Flexibility Score: 70.00
ROOT
ATOM      1  C   UNL     1      12.632  22.134  58.075  1.00  0.00     0.136 C 
ATOM      2  O   UNL     1      11.480  21.972  58.451  1.00  0.00    -0.299 OA
ENDROOT
BRANCH   1   3
ATOM      3  C   UNL     1      13.787  21.523  58.857  1.00  0.00     0.053 C 
ATOM      4  C   UNL     1      13.870  22.066  60.294  1.00  0.00     0.016 C 
BRANCH   3   5
ATOM      5  C   UNL     1      13.743  19.979  58.846  1.00  0.00     0.015 C 
BRANCH   5   6
ATOM      6  C   UNL     1      14.469  19.359  57.636  1.00  0.00     0.028 C 
BRANCH   6   7
ATOM      7  C   UNL     1      15.786  20.027  57.328  1.00  0.00    -0.028 C 
ATOM      8  C   UNL     1      16.142  20.585  56.142  1.00  0.00    -0.070 CG0
ATOM      9  C   UNL     1      17.561  21.086  56.017  1.00  0.00     0.039 C 
ATOM     10  G   UNL     1      15.190  20.805  54.969  1.00  0.00     0.000 G0
ENDBRANCH   6   7
ENDBRANCH   5   6
ENDBRANCH   3   5
ENDBRANCH   1   3
BRANCH   1  11
ATOM     11  C   UNL     1      12.887  22.966  56.841  1.00  0.00     0.087 C 
BRANCH  11  12
ATOM     12  C   UNL     1      12.978  22.116  55.542  1.00  0.00     0.066 C 
BRANCH  12  13
ATOM     13  C   UNL     1      14.399  22.088  54.989  1.00  0.00     0.140 C 
ATOM     14  O   UNL     1      14.942  23.143  54.693  1.00  0.00    -0.299 OA
BRANCH  13  15
ATOM     15  C   UNL     1      15.199  20.806  54.947  1.00  0.00     0.106 CG0
ATOM     16  G   UNL     1      16.146  20.600  56.126  1.00  0.00     0.000 G0
ENDBRANCH  13  15
ENDBRANCH  12  13
BRANCH  12  17
ATOM     17  C   UNL     1      11.971  22.591  54.445  1.00  0.00    -0.006 C 
ATOM     18  C   UNL     1      11.819  24.123  54.407  1.00  0.00     0.008 C 
ATOM     19  C   UNL     1      10.580  21.962  54.657  1.00  0.00     0.008 C 
ENDBRANCH  12  17
ENDBRANCH  11  12
ENDBRANCH   1  11
TORSDOF 1
ENDMDL
MODEL 4
REMARK VINA RESULT:    -3.585      3.127      4.571
REMARK INTER + INTRA:          -5.792
REMARK INTER:                  -5.686
REMARK INTRA:                  -0.106
REMARK UNBOUND:                -0.321
REMARK SMILES CC1=CCC[C@H](C)C(=O)C[C@@H](C(C)C)C(=O)C1
REMARK SMILES IDX 8 1 9 2 6 3 7 4 5 5 4 6 3 7 2 8 1 9 10 11 11 12 15 13 16 14
REMARK SMILES IDX 17 15 12 17 13 18 14 19
REMARK H PARENT
REMARK Flexibility Score: 70.00
ROOT
ATOM      1  C   UNL     1      14.308  20.505  59.069  1.00  0.00     0.136 C 
ATOM      2  O   UNL     1      14.010  19.808  60.029  1.00  0.00    -0.299 OA
ENDROOT
BRANCH   1   3
ATOM      3  C   UNL     1      14.473  22.010  59.235  1.00  0.00     0.053 C 
ATOM      4  C   UNL     1      13.267  22.653  59.941  1.00  0.00     0.016 C 
BRANCH   3   5
ATOM      5  C   UNL     1      15.795  22.375  59.946  1.00  0.00     0.015 C 
BRANCH   5   6
ATOM      6  C   UNL     1      16.858  22.954  58.993  1.00  0.00     0.028 C 
BRANCH   6   7
ATOM      7  C   UNL     1      16.273  23.504  57.716  1.00  0.00    -0.028 C 
ATOM      8  C   UNL     1      16.489  23.024  56.465  1.00  0.00    -0.070 CG0
ATOM      9  C   UNL     1      15.902  23.810  55.316  1.00  0.00     0.039 C 
ATOM     10  G   UNL     1      17.213  21.717  56.152  1.00  0.00     0.000 G0
ENDBRANCH   6   7
ENDBRANCH   5   6
ENDBRANCH   3   5
ENDBRANCH   1   3
BRANCH   1  11
ATOM     11  C   UNL     1      14.488  19.851  57.720  1.00  0.00     0.087 C 
BRANCH  11  12
ATOM     12  C   UNL     1      15.980  19.696  57.312  1.00  0.00     0.066 C 
BRANCH  12  13
ATOM     13  C   UNL     1      16.306  20.502  56.060  1.00  0.00     0.140 C 
ATOM     14  O   UNL     1      15.725  20.238  55.016  1.00  0.00    -0.299 OA
BRANCH  13  15
ATOM     15  C   UNL     1      17.209  21.712  56.119  1.00  0.00     0.106 CG0
ATOM     16  G   UNL     1      16.508  23.021  56.473  1.00  0.00     0.000 G0
ENDBRANCH  13  15
ENDBRANCH  12  13
BRANCH  12  17
ATOM     17  C   UNL     1      16.397  18.201  57.127  1.00  0.00    -0.006 C 
ATOM     18  C   UNL     1      17.759  18.051  56.424  1.00  0.00     0.008 C 
ATOM     19  C   UNL     1      15.339  17.422  56.322  1.00  0.00     0.008 C 
ENDBRANCH  12  17
ENDBRANCH  11  12
ENDBRANCH   1  11
TORSDOF 1
ENDMDL
MODEL 5
REMARK VINA RESULT:    -3.566      2.152      5.529
REMARK INTER + INTRA:          -5.763
REMARK INTER:                  -5.769
REMARK INTRA:                   0.006
REMARK UNBOUND:                -0.321
REMARK SMILES CC1=CCC[C@H](C)C(=O)C[C@@H](C(C)C)C(=O)C1
REMARK SMILES IDX 8 1 9 2 6 3 7 4 5 5 4 6 3 7 2 8 1 9 10 11 11 12 15 13 16 14
REMARK SMILES IDX 17 15 12 17 13 18 14 19
REMARK H PARENT
REMARK Flexibility Score: 70.00
ROOT
ATOM      1  C   UNL     1      15.946  22.629  57.931  1.00  0.00     0.136 C 
ATOM      2  O   UNL     1      16.651  23.619  57.793  1.00  0.00    -0.299 OA
ENDROOT
BRANCH   1   3
ATOM      3  C   UNL     1      15.877  21.918  59.276  1.00  0.00     0.053 C 
ATOM      4  C   UNL     1      16.505  22.750  60.407  1.00  0.00     0.016 C 
BRANCH   3   5
ATOM      5  C   UNL     1      14.437  21.489  59.632  1.00  0.00     0.015 C 
BRANCH   5   6
ATOM      6  C   UNL     1      13.531  22.671  60.030  1.00  0.00     0.028 C 
BRANCH   6   7
ATOM      7  C   UNL     1      12.072  22.422  59.742  1.00  0.00    -0.028 C 
ATOM      8  C   UNL     1      11.544  22.052  58.547  1.00  0.00    -0.070 CG0
ATOM      9  C   UNL     1      10.038  21.982  58.453  1.00  0.00     0.039 C 
ATOM     10  G   UNL     1      12.365  21.632  57.331  1.00  0.00     0.000 G0
ENDBRANCH   6   7
ENDBRANCH   5   6
ENDBRANCH   3   5
ENDBRANCH   1   3
BRANCH   1  11
ATOM     11  C   UNL     1      15.168  22.116  56.743  1.00  0.00     0.087 C 
BRANCH  11  12
ATOM     12  C   UNL     1      14.180  23.166  56.162  1.00  0.00     0.066 C 
BRANCH  12  13
ATOM     13  C   UNL     1      12.729  22.747  56.371  1.00  0.00     0.140 C 
ATOM     14  O   UNL     1      11.861  23.242  55.666  1.00  0.00    -0.299 OA
BRANCH  13  15
ATOM     15  C   UNL     1      12.364  21.626  57.317  1.00  0.00     0.106 CG0
ATOM     16  G   UNL     1      11.556  22.053  58.540  1.00  0.00     0.000 G0
ENDBRANCH  13  15
ENDBRANCH  12  13
BRANCH  12  17
ATOM     17  C   UNL     1      14.451  23.473  54.654  1.00  0.00    -0.006 C 
ATOM     18  C   UNL     1      14.955  22.239  53.882  1.00  0.00     0.008 C 
ATOM     19  C   UNL     1      15.478  24.610  54.492  1.00  0.00     0.008 C 
ENDBRANCH  12  17
ENDBRANCH  11  12
ENDBRANCH   1  11
TORSDOF 1
ENDMDL
MODEL 6
REMARK VINA RESULT:    -3.516      1.666      4.087
REMARK INTER + INTRA:          -5.686
REMARK INTER:                  -5.406
REMARK INTRA:                  -0.280
REMARK UNBOUND:                -0.321
REMARK SMILES CC1=CCC[C@H](C)C(=O)C[C@@H](C(C)C)C(=O)C1
REMARK SMILES IDX 8 1 9 2 6 3 7 4 5 5 4 6 3 7 2 8 1 9 10 11 11 12 15 13 16 14
REMARK SMILES IDX 17 15 12 17 13 18 14 19
REMARK H PARENT
REMARK Flexibility Score: 70.00
ROOT
ATOM      1  C   UNL     1      12.943  21.485  58.307  1.00  0.00     0.136 C 
ATOM      2  O   UNL     1      12.751  20.280  58.391  1.00  0.00    -0.299 OA
ENDROOT
BRANCH   1   3
ATOM      3  C   UNL     1      14.258  22.088  58.784  1.00  0.00     0.053 C 
ATOM      4  C   UNL     1      14.328  22.195  60.316  1.00  0.00     0.016 C 
BRANCH   3   5
ATOM      5  C   UNL     1      15.481  21.331  58.220  1.00  0.00     0.015 C 
BRANCH   5   6
ATOM      6  C   UNL     1      15.780  21.670  56.747  1.00  0.00     0.028 C 
BRANCH   6   7
ATOM      7  C   UNL     1      15.989  23.145  56.508  1.00  0.00    -0.028 C 
ATOM      8  C   UNL     1      15.275  23.926  55.658  1.00  0.00    -0.070 CG0
ATOM      9  C   UNL     1      15.740  25.352  55.481  1.00  0.00     0.039 C 
ATOM     10  G   UNL     1      14.004  23.484  54.937  1.00  0.00     0.000 G0
ENDBRANCH   6   7
ENDBRANCH   5   6
ENDBRANCH   3   5
ENDBRANCH   1   3
BRANCH   1  11
ATOM     11  C   UNL     1      11.848  22.361  57.747  1.00  0.00     0.087 C 
BRANCH  11  12
ATOM     12  C   UNL     1      11.889  22.470  56.197  1.00  0.00     0.066 C 
BRANCH  12  13
ATOM     13  C   UNL     1      12.707  23.673  55.740  1.00  0.00     0.140 C 
ATOM     14  O   UNL     1      12.397  24.787  56.139  1.00  0.00    -0.299 OA
BRANCH  13  15
ATOM     15  C   UNL     1      13.977  23.500  54.940  1.00  0.00     0.106 CG0
ATOM     16  G   UNL     1      15.253  23.939  55.655  1.00  0.00     0.000 G0
ENDBRANCH  13  15
ENDBRANCH  12  13
BRANCH  12  17
ATOM     17  C   UNL     1      10.461  22.505  55.562  1.00  0.00    -0.006 C 
ATOM     18  C   UNL     1       9.369  22.030  56.538  1.00  0.00     0.008 C 
ATOM     19  C   UNL     1      10.396  21.638  54.289  1.00  0.00     0.008 C 
ENDBRANCH  12  17
ENDBRANCH  11  12
ENDBRANCH   1  11
TORSDOF 1
ENDMDL
MODEL 7
REMARK VINA RESULT:    -3.462      2.558      3.718
REMARK INTER + INTRA:          -5.605
REMARK INTER:                  -5.301
REMARK INTRA:                  -0.304
REMARK UNBOUND:                -0.321
REMARK SMILES CC1=CCC[C@H](C)C(=O)C[C@@H](C(C)C)C(=O)C1
REMARK SMILES IDX 8 1 9 2 6 3 7 4 5 5 4 6 3 7 2 8 1 9 10 11 11 12 15 13 16 14
REMARK SMILES IDX 17 15 12 17 13 18 14 19
REMARK H PARENT
REMARK Flexibility Score: 70.00
ROOT
ATOM      1  C   UNL     1      12.418  22.556  56.329  1.00  0.00     0.136 C 
ATOM      2  O   UNL     1      12.495  23.765  56.500  1.00  0.00    -0.299 OA
ENDROOT
BRANCH   1   3
ATOM      3  C   UNL     1      12.225  21.990  54.929  1.00  0.00     0.053 C 
ATOM      4  C   UNL     1      10.938  22.507  54.265  1.00  0.00     0.016 C 
BRANCH   3   5
ATOM      5  C   UNL     1      13.455  22.235  54.028  1.00  0.00     0.015 C 
BRANCH   5   6
ATOM      6  C   UNL     1      14.766  21.693  54.629  1.00  0.00     0.028 C 
BRANCH   6   7
ATOM      7  C   UNL     1      14.859  20.188  54.594  1.00  0.00    -0.028 C 
ATOM      8  C   UNL     1      15.331  19.392  55.587  1.00  0.00    -0.070 CG0
ATOM      9  C   UNL     1      15.451  17.917  55.287  1.00  0.00     0.039 C 
ATOM     10  G   UNL     1      15.670  19.874  56.995  1.00  0.00     0.000 G0
ENDBRANCH   6   7
ENDBRANCH   5   6
ENDBRANCH   3   5
ENDBRANCH   1   3
BRANCH   1  11
ATOM     11  C   UNL     1      12.498  21.643  57.530  1.00  0.00     0.087 C 
BRANCH  11  12
ATOM     12  C   UNL     1      13.938  21.511  58.100  1.00  0.00     0.066 C 
BRANCH  12  13
ATOM     13  C   UNL     1      14.491  20.103  57.907  1.00  0.00     0.140 C 
ATOM     14  O   UNL     1      13.879  19.156  58.383  1.00  0.00    -0.299 OA
BRANCH  13  15
ATOM     15  C   UNL     1      15.682  19.842  57.014  1.00  0.00     0.106 CG0
ATOM     16  G   UNL     1      15.337  19.394  55.596  1.00  0.00     0.000 G0
ENDBRANCH  13  15
ENDBRANCH  12  13
BRANCH  12  17
ATOM     17  C   UNL     1      14.028  21.935  59.601  1.00  0.00    -0.006 C 
ATOM     18  C   UNL     1      12.836  22.806  60.041  1.00  0.00     0.008 C 
ATOM     19  C   UNL     1      15.333  22.706  59.885  1.00  0.00     0.008 C 
ENDBRANCH  12  17
ENDBRANCH  11  12
ENDBRANCH   1  11
TORSDOF 1
ENDMDL
MODEL 8
REMARK VINA RESULT:    -3.438      1.937      2.830
REMARK INTER + INTRA:          -5.568
REMARK INTER:                  -5.499
REMARK INTRA:                  -0.069
REMARK UNBOUND:                -0.321
REMARK SMILES CC1=CCC[C@H](C)C(=O)C[C@@H](C(C)C)C(=O)C1
REMARK SMILES IDX 8 1 9 2 6 3 7 4 5 5 4 6 3 7 2 8 1 9 10 11 11 12 15 13 16 14
REMARK SMILES IDX 17 15 12 17 13 18 14 19
REMARK H PARENT
REMARK Flexibility Score: 70.00
ROOT
ATOM      1  C   UNL     1      12.135  22.125  58.885  1.00  0.00     0.136 C 
ATOM      2  O   UNL     1      11.992  23.097  59.614  1.00  0.00    -0.299 OA
ENDROOT
BRANCH   1   3
ATOM      3  C   UNL     1      11.095  21.806  57.820  1.00  0.00     0.053 C 
ATOM      4  C   UNL     1       9.665  21.801  58.385  1.00  0.00     0.016 C 
BRANCH   3   5
ATOM      5  C   UNL     1      11.208  22.744  56.597  1.00  0.00     0.015 C 
BRANCH   5   6
ATOM      6  C   UNL     1      11.739  22.036  55.336  1.00  0.00     0.028 C 
BRANCH   6   7
ATOM      7  C   UNL     1      13.061  22.584  54.860  1.00  0.00    -0.028 C 
ATOM      8  C   UNL     1      14.288  22.226  55.319  1.00  0.00    -0.070 CG0
ATOM      9  C   UNL     1      15.473  22.998  54.789  1.00  0.00     0.039 C 
ATOM     10  G   UNL     1      14.550  21.058  56.266  1.00  0.00     0.000 G0
ENDBRANCH   6   7
ENDBRANCH   5   6
ENDBRANCH   3   5
ENDBRANCH   1   3
BRANCH   1  11
ATOM     11  C   UNL     1      13.345  21.242  59.076  1.00  0.00     0.087 C 
BRANCH  11  12
ATOM     12  C   UNL     1      14.683  21.963  58.753  1.00  0.00     0.066 C 
BRANCH  12  13
ATOM     13  C   UNL     1      15.347  21.385  57.508  1.00  0.00     0.140 C 
ATOM     14  O   UNL     1      16.527  21.068  57.558  1.00  0.00    -0.299 OA
BRANCH  13  15
ATOM     15  C   UNL     1      14.542  21.053  56.273  1.00  0.00     0.106 CG0
ATOM     16  G   UNL     1      14.311  22.224  55.321  1.00  0.00     0.000 G0
ENDBRANCH  13  15
ENDBRANCH  12  13
BRANCH  12  17
ATOM     17  C   UNL     1      15.676  21.950  59.961  1.00  0.00    -0.006 C 
ATOM     18  C   UNL     1      14.955  22.057  61.318  1.00  0.00     0.008 C 
ATOM     19  C   UNL     1      16.699  23.098  59.853  1.00  0.00     0.008 C 
ENDBRANCH  12  17
ENDBRANCH  11  12
ENDBRANCH   1  11
TORSDOF 1
ENDMDL
MODEL 9
REMARK VINA RESULT:    -3.215      2.646      4.223
REMARK INTER + INTRA:          -5.227
REMARK INTER:                  -5.284
REMARK INTRA:                   0.057
REMARK UNBOUND:                -0.321
REMARK SMILES CC1=CCC[C@H](C)C(=O)C[C@@H](C(C)C)C(=O)C1
REMARK SMILES IDX 8 1 9 2 6 3 7 4 5 5 4 6 3 7 2 8 1 9 10 11 11 12 15 13 16 14
REMARK SMILES IDX 17 15 12 17 13 18 14 19
REMARK H PARENT
REMARK Flexibility Score: 70.00
ROOT
ATOM      1  C   UNL     1      12.972  22.038  54.881  1.00  0.00     0.136 C 
ATOM      2  O   UNL     1      12.437  21.698  53.835  1.00  0.00    -0.299 OA
ENDROOT
BRANCH   1   3
ATOM      3  C   UNL     1      12.321  23.090  55.769  1.00  0.00     0.053 C 
ATOM      4  C   UNL     1      12.214  24.456  55.071  1.00  0.00     0.016 C 
BRANCH   3   5
ATOM      5  C   UNL     1      10.948  22.629  56.305  1.00  0.00     0.015 C 
BRANCH   5   6
ATOM      6  C   UNL     1      11.033  21.935  57.678  1.00  0.00     0.028 C 
BRANCH   6   7
ATOM      7  C   UNL     1      12.125  22.492  58.557  1.00  0.00    -0.028 C 
ATOM      8  C   UNL     1      13.180  21.799  59.058  1.00  0.00    -0.070 CG0
ATOM      9  C   UNL     1      14.086  22.528  60.022  1.00  0.00     0.039 C 
ATOM     10  G   UNL     1      13.549  20.373  58.655  1.00  0.00     0.000 G0
ENDBRANCH   6   7
ENDBRANCH   5   6
ENDBRANCH   3   5
ENDBRANCH   1   3
BRANCH   1  11
ATOM     11  C   UNL     1      14.292  21.413  55.262  1.00  0.00     0.087 C 
BRANCH  11  12
ATOM     12  C   UNL     1      14.132  20.100  56.079  1.00  0.00     0.066 C 
BRANCH  12  13
ATOM     13  C   UNL     1      14.573  20.282  57.527  1.00  0.00     0.140 C 
ATOM     14  O   UNL     1      15.756  20.485  57.765  1.00  0.00    -0.299 OA
BRANCH  13  15
ATOM     15  C   UNL     1      13.565  20.375  58.649  1.00  0.00     0.106 CG0
ATOM     16  G   UNL     1      13.182  21.796  59.054  1.00  0.00     0.000 G0
ENDBRANCH  13  15
ENDBRANCH  12  13
BRANCH  12  17
ATOM     17  C   UNL     1      14.879  18.893  55.425  1.00  0.00    -0.006 C 
ATOM     18  C   UNL     1      15.375  17.872  56.466  1.00  0.00     0.008 C 
ATOM     19  C   UNL     1      16.084  19.370  54.589  1.00  0.00     0.008 C 
ENDBRANCH  12  17
ENDBRANCH  11  12
ENDBRANCH   1  11
TORSDOF 1
ENDMDL
