MODEL 1
REMARK VINA RESULT:    -4.460      0.000      0.000
REMARK INTER + INTRA:         -10.705
REMARK INTER:                  -8.632
REMARK INTRA:                  -2.073
REMARK UNBOUND:                -2.073
REMARK SMILES CCCCCCCCCCCCCCCCCC(=O)[O-]
REMARK SMILES IDX 10 1 11 2 12 3 13 4 14 5 15 6 16 7 17 8 18 9 19 10 20 11
REMARK SMILES IDX 9 12 8 13 7 14 6 15 5 16 4 17 3 18 2 19 1 20
REMARK H PARENT
REMARK Flexibility Score: inf
ROOT
ATOM      1  C   UNL     1      -1.928   8.056 -34.576  1.00  0.00     0.000 C 
ENDROOT
BRANCH   1   2
ATOM      2  C   UNL     1      -3.169   8.922 -34.860  1.00  0.00     0.000 C 
BRANCH   2   3
ATOM      3  C   UNL     1      -4.464   8.315 -34.294  1.00  0.00     0.000 C 
BRANCH   3   4
ATOM      4  C   UNL     1      -5.366   7.724 -35.389  1.00  0.00     0.000 C 
BRANCH   4   5
ATOM      5  C   UNL     1      -6.162   6.502 -34.899  1.00  0.00     0.000 C 
BRANCH   5   6
ATOM      6  C   UNL     1      -6.500   6.577 -33.401  1.00  0.00     0.000 C 
BRANCH   6   7
ATOM      7  C   UNL     1      -7.705   5.704 -33.022  1.00  0.00     0.006 C 
BRANCH   7   8
ATOM      8  C   UNL     1      -8.514   5.320 -34.264  1.00  0.00     0.053 C 
BRANCH   8   9
ATOM      9  C   UNL     1      -8.480   3.839 -34.477  1.00  0.00     0.041 C 
ATOM     10  O   UNL     1      -9.484   3.244 -34.949  1.00  0.00    -0.550 OA
ATOM     11  O   UNL     1      -7.325   3.121 -34.193  1.00  0.00    -0.550 OA
ENDBRANCH   8   9
ENDBRANCH   7   8
ENDBRANCH   6   7
ENDBRANCH   5   6
ENDBRANCH   4   5
ENDBRANCH   3   4
ENDBRANCH   2   3
ENDBRANCH   1   2
BRANCH   1  12
ATOM     12  C   UNL     1      -1.298   7.394 -35.815  1.00  0.00     0.000 C 
BRANCH  12  13
ATOM     13  C   UNL     1      -1.717   8.068 -37.133  1.00  0.00    -0.000 C 
BRANCH  13  14
ATOM     14  C   UNL     1      -2.468   7.107 -38.069  1.00  0.00    -0.000 C 
BRANCH  14  15
ATOM     15  C   UNL     1      -2.962   5.844 -37.349  1.00  0.00    -0.000 C 
BRANCH  15  16
ATOM     16  C   UNL     1      -3.728   4.928 -38.315  1.00  0.00    -0.000 C 
BRANCH  16  17
ATOM     17  C   UNL     1      -3.898   3.500 -37.772  1.00  0.00    -0.000 C 
BRANCH  17  18
ATOM     18  C   UNL     1      -5.363   3.155 -37.465  1.00  0.00    -0.000 C 
BRANCH  18  19
ATOM     19  C   UNL     1      -6.283   4.343 -37.772  1.00  0.00    -0.003 C 
ATOM     20  C   UNL     1      -7.736   3.896 -37.908  1.00  0.00     0.004 C 
ENDBRANCH  18  19
ENDBRANCH  17  18
ENDBRANCH  16  17
ENDBRANCH  15  16
ENDBRANCH  14  15
ENDBRANCH  13  14
ENDBRANCH  12  13
ENDBRANCH   1  12
TORSDOF 16
ENDMDL
MODEL 2
REMARK VINA RESULT:    -4.440      3.014      5.963
REMARK INTER + INTRA:         -10.666
REMARK INTER:                  -8.684
REMARK INTRA:                  -1.982
REMARK UNBOUND:                -2.073
REMARK SMILES CCCCCCCCCCCCCCCCCC(=O)[O-]
REMARK SMILES IDX 10 1 11 2 12 3 13 4 14 5 15 6 16 7 17 8 18 9 19 10 20 11
REMARK SMILES IDX 9 12 8 13 7 14 6 15 5 16 4 17 3 18 2 19 1 20
REMARK H PARENT
REMARK Flexibility Score: inf
ROOT
ATOM      1  C   UNL     1      -4.175   5.935 -37.723  1.00  0.00     0.000 C 
ENDROOT
BRANCH   1   2
ATOM      2  C   UNL     1      -2.659   6.177 -37.594  1.00  0.00     0.000 C 
BRANCH   2   3
ATOM      3  C   UNL     1      -2.260   7.633 -37.889  1.00  0.00     0.000 C 
BRANCH   3   4
ATOM      4  C   UNL     1      -1.395   8.244 -36.775  1.00  0.00     0.000 C 
BRANCH   4   5
ATOM      5  C   UNL     1      -1.101   7.243 -35.644  1.00  0.00     0.000 C 
BRANCH   5   6
ATOM      6  C   UNL     1      -1.440   7.804 -34.254  1.00  0.00     0.000 C 
BRANCH   6   7
ATOM      7  C   UNL     1      -2.604   8.805 -34.287  1.00  0.00     0.006 C 
BRANCH   7   8
ATOM      8  C   UNL     1      -2.287  10.040 -33.439  1.00  0.00     0.053 C 
BRANCH   8   9
ATOM      9  C   UNL     1      -3.523  10.853 -33.210  1.00  0.00     0.041 C 
ATOM     10  O   UNL     1      -3.481  11.878 -32.479  1.00  0.00    -0.550 OA
ATOM     11  O   UNL     1      -4.712  10.503 -33.838  1.00  0.00    -0.550 OA
ENDBRANCH   8   9
ENDBRANCH   7   8
ENDBRANCH   6   7
ENDBRANCH   5   6
ENDBRANCH   4   5
ENDBRANCH   3   4
ENDBRANCH   2   3
ENDBRANCH   1   2
BRANCH   1  12
ATOM     12  C   UNL     1      -5.064   7.064 -37.170  1.00  0.00     0.000 C 
BRANCH  12  13
ATOM     13  C   UNL     1      -5.979   6.600 -36.023  1.00  0.00    -0.000 C 
BRANCH  13  14
ATOM     14  C   UNL     1      -5.943   7.558 -34.821  1.00  0.00    -0.000 C 
BRANCH  14  15
ATOM     15  C   UNL     1      -5.732   6.825 -33.487  1.00  0.00    -0.000 C 
BRANCH  15  16
ATOM     16  C   UNL     1      -7.008   6.870 -32.632  1.00  0.00    -0.000 C 
BRANCH  16  17
ATOM     17  C   UNL     1      -7.825   5.572 -32.717  1.00  0.00    -0.000 C 
BRANCH  17  18
ATOM     18  C   UNL     1      -8.723   5.518 -33.962  1.00  0.00    -0.000 C 
BRANCH  18  19
ATOM     19  C   UNL     1      -8.728   4.111 -34.575  1.00  0.00    -0.003 C 
ATOM     20  C   UNL     1      -7.338   3.484 -34.531  1.00  0.00     0.004 C 
ENDBRANCH  18  19
ENDBRANCH  17  18
ENDBRANCH  16  17
ENDBRANCH  15  16
ENDBRANCH  14  15
ENDBRANCH  13  14
ENDBRANCH  12  13
ENDBRANCH   1  12
TORSDOF 16
ENDMDL
MODEL 3
REMARK VINA RESULT:    -4.392      2.742      5.527
REMARK INTER + INTRA:         -10.574
REMARK INTER:                  -8.275
REMARK INTRA:                  -2.298
REMARK UNBOUND:                -2.073
REMARK SMILES CCCCCCCCCCCCCCCCCC(=O)[O-]
REMARK SMILES IDX 10 1 11 2 12 3 13 4 14 5 15 6 16 7 17 8 18 9 19 10 20 11
REMARK SMILES IDX 9 12 8 13 7 14 6 15 5 16 4 17 3 18 2 19 1 20
REMARK H PARENT
REMARK Flexibility Score: inf
ROOT
ATOM      1  C   UNL     1      -4.235   5.615 -37.705  1.00  0.00     0.000 C 
ENDROOT
BRANCH   1   2
ATOM      2  C   UNL     1      -2.751   6.012 -37.598  1.00  0.00     0.000 C 
BRANCH   2   3
ATOM      3  C   UNL     1      -2.482   7.452 -38.068  1.00  0.00     0.000 C 
BRANCH   3   4
ATOM      4  C   UNL     1      -1.494   8.195 -37.154  1.00  0.00     0.000 C 
BRANCH   4   5
ATOM      5  C   UNL     1      -1.332   7.512 -35.785  1.00  0.00     0.000 C 
BRANCH   5   6
ATOM      6  C   UNL     1      -1.921   8.343 -34.635  1.00  0.00     0.000 C 
BRANCH   6   7
ATOM      7  C   UNL     1      -3.438   8.156 -34.485  1.00  0.00     0.006 C 
BRANCH   7   8
ATOM      8  C   UNL     1      -4.193   9.389 -34.990  1.00  0.00     0.053 C 
BRANCH   8   9
ATOM      9  C   UNL     1      -4.707  10.198 -33.841  1.00  0.00     0.041 C 
ATOM     10  O   UNL     1      -5.947  10.302 -33.644  1.00  0.00    -0.550 OA
ATOM     11  O   UNL     1      -3.817  10.801 -32.961  1.00  0.00    -0.550 OA
ENDBRANCH   8   9
ENDBRANCH   7   8
ENDBRANCH   6   7
ENDBRANCH   5   6
ENDBRANCH   4   5
ENDBRANCH   3   4
ENDBRANCH   2   3
ENDBRANCH   1   2
BRANCH   1  12
ATOM     12  C   UNL     1      -5.235   6.725 -37.335  1.00  0.00     0.000 C 
BRANCH  12  13
ATOM     13  C   UNL     1      -6.593   6.177 -36.863  1.00  0.00    -0.000 C 
BRANCH  13  14
ATOM     14  C   UNL     1      -6.961   4.852 -37.550  1.00  0.00    -0.000 C 
BRANCH  14  15
ATOM     15  C   UNL     1      -7.676   3.874 -36.605  1.00  0.00    -0.000 C 
BRANCH  15  16
ATOM     16  C   UNL     1      -6.817   3.587 -35.364  1.00  0.00    -0.000 C 
BRANCH  16  17
ATOM     17  C   UNL     1      -7.608   3.716 -34.052  1.00  0.00    -0.000 C 
BRANCH  17  18
ATOM     18  C   UNL     1      -8.384   5.038 -33.956  1.00  0.00    -0.000 C 
BRANCH  18  19
ATOM     19  C   UNL     1      -7.874   5.890 -32.787  1.00  0.00    -0.003 C 
ATOM     20  C   UNL     1      -6.572   6.599 -33.146  1.00  0.00     0.004 C 
ENDBRANCH  18  19
ENDBRANCH  17  18
ENDBRANCH  16  17
ENDBRANCH  15  16
ENDBRANCH  14  15
ENDBRANCH  13  14
ENDBRANCH  12  13
ENDBRANCH   1  12
TORSDOF 16
ENDMDL
MODEL 4
REMARK VINA RESULT:    -4.350     15.646     16.776
REMARK INTER + INTRA:         -10.493
REMARK INTER:                  -8.480
REMARK INTRA:                  -2.013
REMARK UNBOUND:                -2.073
REMARK SMILES CCCCCCCCCCCCCCCCCC(=O)[O-]
REMARK SMILES IDX 10 1 11 2 12 3 13 4 14 5 15 6 16 7 17 8 18 9 19 10 20 11
REMARK SMILES IDX 9 12 8 13 7 14 6 15 5 16 4 17 3 18 2 19 1 20
REMARK H PARENT
REMARK Flexibility Score: inf
ROOT
ATOM      1  C   UNL     1      -9.950   2.109 -21.648  1.00  0.00     0.000 C 
ENDROOT
BRANCH   1   2
ATOM      2  C   UNL     1     -11.410   1.659 -21.845  1.00  0.00     0.000 C 
BRANCH   2   3
ATOM      3  C   UNL     1     -12.239   1.739 -20.551  1.00  0.00     0.000 C 
BRANCH   3   4
ATOM      4  C   UNL     1     -13.578   2.468 -20.754  1.00  0.00     0.000 C 
BRANCH   4   5
ATOM      5  C   UNL     1     -14.044   2.442 -22.220  1.00  0.00     0.000 C 
BRANCH   5   6
ATOM      6  C   UNL     1     -15.504   2.895 -22.384  1.00  0.00     0.000 C 
BRANCH   6   7
ATOM      7  C   UNL     1     -15.686   4.402 -22.152  1.00  0.00     0.006 C 
BRANCH   7   8
ATOM      8  C   UNL     1     -14.969   5.212 -23.235  1.00  0.00     0.053 C 
BRANCH   8   9
ATOM      9  C   UNL     1     -15.953   6.011 -24.032  1.00  0.00     0.041 C 
ATOM     10  O   UNL     1     -15.940   5.958 -25.290  1.00  0.00    -0.550 OA
ATOM     11  O   UNL     1     -16.911   6.781 -23.385  1.00  0.00    -0.550 OA
ENDBRANCH   8   9
ENDBRANCH   7   8
ENDBRANCH   6   7
ENDBRANCH   5   6
ENDBRANCH   4   5
ENDBRANCH   3   4
ENDBRANCH   2   3
ENDBRANCH   1   2
BRANCH   1  12
ATOM     12  C   UNL     1      -9.449   2.077 -20.192  1.00  0.00     0.000 C 
BRANCH  12  13
ATOM     13  C   UNL     1      -8.257   1.125 -19.989  1.00  0.00    -0.000 C 
BRANCH  13  14
ATOM     14  C   UNL     1      -8.587  -0.321 -20.394  1.00  0.00    -0.000 C 
BRANCH  14  15
ATOM     15  C   UNL     1      -9.745  -0.915 -19.578  1.00  0.00    -0.000 C 
BRANCH  15  16
ATOM     16  C   UNL     1     -10.703  -1.703 -20.484  1.00  0.00    -0.000 C 
BRANCH  16  17
ATOM     17  C   UNL     1     -10.120  -1.959 -21.884  1.00  0.00    -0.000 C 
BRANCH  17  18
ATOM     18  C   UNL     1     -11.112  -1.624 -23.008  1.00  0.00    -0.000 C 
BRANCH  18  19
ATOM     19  C   UNL     1     -12.559  -1.845 -22.547  1.00  0.00    -0.003 C 
ATOM     20  C   UNL     1     -13.199  -3.020 -23.280  1.00  0.00     0.004 C 
ENDBRANCH  18  19
ENDBRANCH  17  18
ENDBRANCH  16  17
ENDBRANCH  15  16
ENDBRANCH  14  15
ENDBRANCH  13  14
ENDBRANCH  12  13
ENDBRANCH   1  12
TORSDOF 16
ENDMDL
MODEL 5
REMARK VINA RESULT:    -4.279      1.932      5.049
REMARK INTER + INTRA:         -10.354
REMARK INTER:                  -8.519
REMARK INTRA:                  -1.835
REMARK UNBOUND:                -2.073
REMARK SMILES CCCCCCCCCCCCCCCCCC(=O)[O-]
REMARK SMILES IDX 10 1 11 2 12 3 13 4 14 5 15 6 16 7 17 8 18 9 19 10 20 11
REMARK SMILES IDX 9 12 8 13 7 14 6 15 5 16 4 17 3 18 2 19 1 20
REMARK H PARENT
REMARK Flexibility Score: inf
ROOT
ATOM      1  C   UNL     1      -3.493   3.917 -38.222  1.00  0.00     0.000 C 
ENDROOT
BRANCH   1   2
ATOM      2  C   UNL     1      -4.242   2.722 -37.602  1.00  0.00     0.000 C 
BRANCH   2   3
ATOM      3  C   UNL     1      -5.731   3.015 -37.352  1.00  0.00     0.000 C 
BRANCH   3   4
ATOM      4  C   UNL     1      -6.043   3.260 -35.867  1.00  0.00     0.000 C 
BRANCH   4   5
ATOM      5  C   UNL     1      -7.553   3.372 -35.594  1.00  0.00     0.000 C 
BRANCH   5   6
ATOM      6  C   UNL     1      -7.943   4.721 -34.969  1.00  0.00     0.000 C 
BRANCH   6   7
ATOM      7  C   UNL     1      -7.746   4.746 -33.446  1.00  0.00     0.006 C 
BRANCH   7   8
ATOM      8  C   UNL     1      -8.120   6.115 -32.869  1.00  0.00     0.053 C 
BRANCH   8   9
ATOM      9  C   UNL     1      -6.898   6.837 -32.394  1.00  0.00     0.041 C 
ATOM     10  O   UNL     1      -5.771   6.279 -32.451  1.00  0.00    -0.550 OA
ATOM     11  O   UNL     1      -6.998   8.142 -31.927  1.00  0.00    -0.550 OA
ENDBRANCH   8   9
ENDBRANCH   7   8
ENDBRANCH   6   7
ENDBRANCH   5   6
ENDBRANCH   4   5
ENDBRANCH   3   4
ENDBRANCH   2   3
ENDBRANCH   1   2
BRANCH   1  12
ATOM     12  C   UNL     1      -4.389   5.084 -38.674  1.00  0.00     0.000 C 
BRANCH  12  13
ATOM     13  C   UNL     1      -4.143   6.375 -37.874  1.00  0.00    -0.000 C 
BRANCH  13  14
ATOM     14  C   UNL     1      -5.362   6.781 -37.028  1.00  0.00    -0.000 C 
BRANCH  14  15
ATOM     15  C   UNL     1      -4.967   7.474 -35.716  1.00  0.00    -0.000 C 
BRANCH  15  16
ATOM     16  C   UNL     1      -4.373   8.864 -35.991  1.00  0.00    -0.000 C 
BRANCH  16  17
ATOM     17  C   UNL     1      -2.847   8.905 -35.807  1.00  0.00    -0.000 C 
BRANCH  17  18
ATOM     18  C   UNL     1      -2.426   8.817 -34.333  1.00  0.00    -0.000 C 
BRANCH  18  19
ATOM     19  C   UNL     1      -1.314   7.779 -34.140  1.00  0.00    -0.003 C 
ATOM     20  C   UNL     1      -0.877   7.183 -35.475  1.00  0.00     0.004 C 
ENDBRANCH  18  19
ENDBRANCH  17  18
ENDBRANCH  16  17
ENDBRANCH  15  16
ENDBRANCH  14  15
ENDBRANCH  13  14
ENDBRANCH  12  13
ENDBRANCH   1  12
TORSDOF 16
ENDMDL
MODEL 6
REMARK VINA RESULT:    -4.263      2.481      4.967
REMARK INTER + INTRA:         -10.324
REMARK INTER:                  -8.384
REMARK INTRA:                  -1.940
REMARK UNBOUND:                -2.073
REMARK SMILES CCCCCCCCCCCCCCCCCC(=O)[O-]
REMARK SMILES IDX 10 1 11 2 12 3 13 4 14 5 15 6 16 7 17 8 18 9 19 10 20 11
REMARK SMILES IDX 9 12 8 13 7 14 6 15 5 16 4 17 3 18 2 19 1 20
REMARK H PARENT
REMARK Flexibility Score: inf
ROOT
ATOM      1  C   UNL     1      -3.004   5.885 -37.505  1.00  0.00     0.000 C 
ENDROOT
BRANCH   1   2
ATOM      2  C   UNL     1      -2.702   7.264 -38.121  1.00  0.00     0.000 C 
BRANCH   2   3
ATOM      3  C   UNL     1      -1.817   8.142 -37.219  1.00  0.00     0.000 C 
BRANCH   3   4
ATOM      4  C   UNL     1      -1.171   7.346 -36.073  1.00  0.00     0.000 C 
BRANCH   4   5
ATOM      5  C   UNL     1      -1.549   7.899 -34.688  1.00  0.00     0.000 C 
BRANCH   5   6
ATOM      6  C   UNL     1      -2.829   8.750 -34.719  1.00  0.00     0.000 C 
BRANCH   6   7
ATOM      7  C   UNL     1      -4.061   7.983 -34.216  1.00  0.00     0.006 C 
BRANCH   7   8
ATOM      8  C   UNL     1      -5.353   8.700 -34.622  1.00  0.00     0.053 C 
BRANCH   8   9
ATOM      9  C   UNL     1      -5.729   9.726 -33.599  1.00  0.00     0.041 C 
ATOM     10  O   UNL     1      -5.455  10.940 -33.791  1.00  0.00    -0.550 OA
ATOM     11  O   UNL     1      -6.419   9.348 -32.454  1.00  0.00    -0.550 OA
ENDBRANCH   8   9
ENDBRANCH   7   8
ENDBRANCH   6   7
ENDBRANCH   5   6
ENDBRANCH   4   5
ENDBRANCH   3   4
ENDBRANCH   2   3
ENDBRANCH   1   2
BRANCH   1  12
ATOM     12  C   UNL     1      -3.898   4.971 -38.362  1.00  0.00     0.000 C 
BRANCH  12  13
ATOM     13  C   UNL     1      -3.545   3.480 -38.217  1.00  0.00    -0.000 C 
BRANCH  13  14
ATOM     14  C   UNL     1      -4.654   2.681 -37.513  1.00  0.00    -0.000 C 
BRANCH  14  15
ATOM     15  C   UNL     1      -5.981   3.451 -37.436  1.00  0.00    -0.000 C 
BRANCH  15  16
ATOM     16  C   UNL     1      -6.372   3.720 -35.975  1.00  0.00    -0.000 C 
BRANCH  16  17
ATOM     17  C   UNL     1      -6.553   5.217 -35.675  1.00  0.00    -0.000 C 
BRANCH  17  18
ATOM     18  C   UNL     1      -7.905   5.528 -35.015  1.00  0.00    -0.000 C 
BRANCH  18  19
ATOM     19  C   UNL     1      -7.956   4.983 -33.582  1.00  0.00    -0.003 C 
ATOM     20  C   UNL     1      -7.501   6.035 -32.575  1.00  0.00     0.004 C 
ENDBRANCH  18  19
ENDBRANCH  17  18
ENDBRANCH  16  17
ENDBRANCH  15  16
ENDBRANCH  14  15
ENDBRANCH  13  14
ENDBRANCH  12  13
ENDBRANCH   1  12
TORSDOF 16
ENDMDL
MODEL 7
REMARK VINA RESULT:    -4.260      0.998      4.212
REMARK INTER + INTRA:         -10.318
REMARK INTER:                  -8.481
REMARK INTRA:                  -1.837
REMARK UNBOUND:                -2.073
REMARK SMILES CCCCCCCCCCCCCCCCCC(=O)[O-]
REMARK SMILES IDX 10 1 11 2 12 3 13 4 14 5 15 6 16 7 17 8 18 9 19 10 20 11
REMARK SMILES IDX 9 12 8 13 7 14 6 15 5 16 4 17 3 18 2 19 1 20
REMARK H PARENT
REMARK Flexibility Score: inf
ROOT
ATOM      1  C   UNL     1      -2.943   7.302 -37.800  1.00  0.00     0.000 C 
ENDROOT
BRANCH   1   2
ATOM      2  C   UNL     1      -2.761   5.787 -37.588  1.00  0.00     0.000 C 
BRANCH   2   3
ATOM      3  C   UNL     1      -3.799   4.948 -38.353  1.00  0.00     0.000 C 
BRANCH   3   4
ATOM      4  C   UNL     1      -3.794   3.472 -37.926  1.00  0.00     0.000 C 
BRANCH   4   5
ATOM      5  C   UNL     1      -5.140   3.028 -37.328  1.00  0.00     0.000 C 
BRANCH   5   6
ATOM      6  C   UNL     1      -6.202   4.139 -37.373  1.00  0.00     0.000 C 
BRANCH   6   7
ATOM      7  C   UNL     1      -6.592   4.641 -35.975  1.00  0.00     0.006 C 
BRANCH   7   8
ATOM      8  C   UNL     1      -7.152   3.500 -35.120  1.00  0.00     0.053 C 
BRANCH   8   9
ATOM      9  C   UNL     1      -8.619   3.686 -34.890  1.00  0.00     0.041 C 
ATOM     10  O   UNL     1      -9.061   4.795 -34.489  1.00  0.00    -0.550 OA
ATOM     11  O   UNL     1      -9.503   2.648 -35.159  1.00  0.00    -0.550 OA
ENDBRANCH   8   9
ENDBRANCH   7   8
ENDBRANCH   6   7
ENDBRANCH   5   6
ENDBRANCH   4   5
ENDBRANCH   3   4
ENDBRANCH   2   3
ENDBRANCH   1   2
BRANCH   1  12
ATOM     12  C   UNL     1      -1.852   8.184 -37.165  1.00  0.00     0.000 C 
BRANCH  12  13
ATOM     13  C   UNL     1      -1.269   7.581 -35.876  1.00  0.00    -0.000 C 
BRANCH  13  14
ATOM     14  C   UNL     1      -1.942   8.139 -34.611  1.00  0.00    -0.000 C 
BRANCH  14  15
ATOM     15  C   UNL     1      -2.758   9.410 -34.887  1.00  0.00    -0.000 C 
BRANCH  15  16
ATOM     16  C   UNL     1      -4.169   9.294 -34.289  1.00  0.00    -0.000 C 
BRANCH  16  17
ATOM     17  C   UNL     1      -5.015   8.207 -34.971  1.00  0.00    -0.000 C 
BRANCH  17  18
ATOM     18  C   UNL     1      -5.396   7.068 -34.014  1.00  0.00    -0.000 C 
BRANCH  18  19
ATOM     19  C   UNL     1      -6.727   7.363 -33.311  1.00  0.00    -0.003 C 
ATOM     20  C   UNL     1      -6.826   6.622 -31.981  1.00  0.00     0.004 C 
ENDBRANCH  18  19
ENDBRANCH  17  18
ENDBRANCH  16  17
ENDBRANCH  15  16
ENDBRANCH  14  15
ENDBRANCH  13  14
ENDBRANCH  12  13
ENDBRANCH   1  12
TORSDOF 16
ENDMDL
MODEL 8
REMARK VINA RESULT:    -4.205     11.933     13.701
REMARK INTER + INTRA:         -10.211
REMARK INTER:                  -7.520
REMARK INTRA:                  -2.691
REMARK UNBOUND:                -2.073
REMARK SMILES CCCCCCCCCCCCCCCCCC(=O)[O-]
REMARK SMILES IDX 10 1 11 2 12 3 13 4 14 5 15 6 16 7 17 8 18 9 19 10 20 11
REMARK SMILES IDX 9 12 8 13 7 14 6 15 5 16 4 17 3 18 2 19 1 20
REMARK H PARENT
REMARK Flexibility Score: inf
ROOT
ATOM      1  C   UNL     1      -8.741  -2.710 -29.269  1.00  0.00     0.000 C 
ENDROOT
BRANCH   1   2
ATOM      2  C   UNL     1      -9.765  -2.762 -28.120  1.00  0.00     0.000 C 
BRANCH   2   3
ATOM      3  C   UNL     1      -9.168  -2.339 -26.767  1.00  0.00     0.000 C 
BRANCH   3   4
ATOM      4  C   UNL     1      -8.800  -3.541 -25.883  1.00  0.00     0.000 C 
BRANCH   4   5
ATOM      5  C   UNL     1      -7.321  -3.942 -26.021  1.00  0.00     0.000 C 
BRANCH   5   6
ATOM      6  C   UNL     1      -7.119  -5.152 -26.947  1.00  0.00     0.000 C 
BRANCH   6   7
ATOM      7  C   UNL     1      -5.991  -4.935 -27.966  1.00  0.00     0.006 C 
BRANCH   7   8
ATOM      8  C   UNL     1      -5.388  -3.534 -27.825  1.00  0.00     0.053 C 
BRANCH   8   9
ATOM      9  C   UNL     1      -3.898  -3.588 -27.950  1.00  0.00     0.041 C 
ATOM     10  O   UNL     1      -3.182  -2.747 -27.346  1.00  0.00    -0.550 OA
ATOM     11  O   UNL     1      -3.297  -4.592 -28.699  1.00  0.00    -0.550 OA
ENDBRANCH   8   9
ENDBRANCH   7   8
ENDBRANCH   6   7
ENDBRANCH   5   6
ENDBRANCH   4   5
ENDBRANCH   3   4
ENDBRANCH   2   3
ENDBRANCH   1   2
BRANCH   1  12
ATOM     12  C   UNL     1      -8.867  -3.841 -30.306  1.00  0.00     0.000 C 
BRANCH  12  13
ATOM     13  C   UNL     1      -9.921  -4.894 -29.920  1.00  0.00    -0.000 C 
BRANCH  13  14
ATOM     14  C   UNL     1     -11.123  -4.898 -30.879  1.00  0.00    -0.000 C 
BRANCH  14  15
ATOM     15  C   UNL     1     -11.162  -3.657 -31.784  1.00  0.00    -0.000 C 
BRANCH  15  16
ATOM     16  C   UNL     1     -12.271  -2.692 -31.340  1.00  0.00    -0.000 C 
BRANCH  16  17
ATOM     17  C   UNL     1     -13.266  -3.340 -30.364  1.00  0.00    -0.000 C 
BRANCH  17  18
ATOM     18  C   UNL     1     -13.316  -2.622 -29.007  1.00  0.00    -0.000 C 
BRANCH  18  19
ATOM     19  C   UNL     1     -13.311  -3.631 -27.851  1.00  0.00    -0.003 C 
ATOM     20  C   UNL     1     -13.937  -4.957 -28.272  1.00  0.00     0.004 C 
ENDBRANCH  18  19
ENDBRANCH  17  18
ENDBRANCH  16  17
ENDBRANCH  15  16
ENDBRANCH  14  15
ENDBRANCH  13  14
ENDBRANCH  12  13
ENDBRANCH   1  12
TORSDOF 16
ENDMDL
MODEL 9
REMARK VINA RESULT:    -4.204      2.886      5.704
REMARK INTER + INTRA:         -10.209
REMARK INTER:                  -7.961
REMARK INTRA:                  -2.248
REMARK UNBOUND:                -2.073
REMARK SMILES CCCCCCCCCCCCCCCCCC(=O)[O-]
REMARK SMILES IDX 10 1 11 2 12 3 13 4 14 5 15 6 16 7 17 8 18 9 19 10 20 11
REMARK SMILES IDX 9 12 8 13 7 14 6 15 5 16 4 17 3 18 2 19 1 20
REMARK H PARENT
REMARK Flexibility Score: inf
ROOT
ATOM      1  C   UNL     1      -5.215   6.664 -36.227  1.00  0.00     0.000 C 
ENDROOT
BRANCH   1   2
ATOM      2  C   UNL     1      -4.640   7.603 -37.305  1.00  0.00     0.000 C 
BRANCH   2   3
ATOM      3  C   UNL     1      -3.191   7.257 -37.687  1.00  0.00     0.000 C 
BRANCH   3   4
ATOM      4  C   UNL     1      -2.162   8.126 -36.947  1.00  0.00     0.000 C 
BRANCH   4   5
ATOM      5  C   UNL     1      -1.187   7.289 -36.100  1.00  0.00     0.000 C 
BRANCH   5   6
ATOM      6  C   UNL     1      -1.200   7.688 -34.615  1.00  0.00     0.000 C 
BRANCH   6   7
ATOM      7  C   UNL     1      -2.544   8.287 -34.175  1.00  0.00     0.006 C 
BRANCH   7   8
ATOM      8  C   UNL     1      -2.358   9.709 -33.638  1.00  0.00     0.053 C 
BRANCH   8   9
ATOM      9  C   UNL     1      -3.592  10.524 -33.866  1.00  0.00     0.041 C 
ATOM     10  O   UNL     1      -3.969  11.359 -33.002  1.00  0.00    -0.550 OA
ATOM     11  O   UNL     1      -4.303  10.393 -35.053  1.00  0.00    -0.550 OA
ENDBRANCH   8   9
ENDBRANCH   7   8
ENDBRANCH   6   7
ENDBRANCH   5   6
ENDBRANCH   4   5
ENDBRANCH   3   4
ENDBRANCH   2   3
ENDBRANCH   1   2
BRANCH   1  12
ATOM     12  C   UNL     1      -6.078   7.354 -35.156  1.00  0.00     0.000 C 
BRANCH  12  13
ATOM     13  C   UNL     1      -5.993   6.667 -33.782  1.00  0.00    -0.000 C 
BRANCH  13  14
ATOM     14  C   UNL     1      -7.378   6.432 -33.157  1.00  0.00    -0.000 C 
BRANCH  14  15
ATOM     15  C   UNL     1      -8.227   5.434 -33.958  1.00  0.00    -0.000 C 
BRANCH  15  16
ATOM     16  C   UNL     1      -7.713   4.000 -33.765  1.00  0.00    -0.000 C 
BRANCH  16  17
ATOM     17  C   UNL     1      -7.632   3.215 -35.084  1.00  0.00    -0.000 C 
BRANCH  17  18
ATOM     18  C   UNL     1      -7.678   4.128 -36.319  1.00  0.00    -0.000 C 
BRANCH  18  19
ATOM     19  C   UNL     1      -6.862   3.532 -37.473  1.00  0.00    -0.003 C 
ATOM     20  C   UNL     1      -5.474   3.104 -37.006  1.00  0.00     0.004 C 
ENDBRANCH  18  19
ENDBRANCH  17  18
ENDBRANCH  16  17
ENDBRANCH  15  16
ENDBRANCH  14  15
ENDBRANCH  13  14
ENDBRANCH  12  13
ENDBRANCH   1  12
TORSDOF 16
ENDMDL
