MODEL 1
REMARK VINA RESULT:    -5.548      0.000      0.000
REMARK INTER + INTRA:          -5.911
REMARK INTER:                  -5.872
REMARK INTRA:                  -0.039
REMARK UNBOUND:                -0.039
REMARK SMILES COc1ccc2ccc(=O)oc2c1
REMARK SMILES IDX 3 1 13 2 12 3 6 4 5 5 4 6 7 7 8 8 9 9 10 10 11 11 2 12 1 13
REMARK H PARENT
REMARK Flexibility Score: inf
ROOT
ATOM      1  C   UNL     1       9.231 -17.268   7.738  1.00  0.00     0.122 A 
ATOM      2  C   UNL     1      10.065 -16.147   7.924  1.00  0.00     0.094 A 
ATOM      3  C   UNL     1      11.430 -16.225   7.623  1.00  0.00     0.142 A 
ATOM      4  C   UNL     1      11.972 -17.432   7.131  1.00  0.00     0.018 A 
ATOM      5  C   UNL     1      11.143 -18.546   6.947  1.00  0.00     0.016 A 
ATOM      6  C   UNL     1       9.782 -18.460   7.250  1.00  0.00     0.047 A 
ATOM      7  C   UNL     1      13.339 -17.479   6.840  1.00  0.00     0.019 A 
ATOM      8  C   UNL     1      14.121 -16.342   7.041  1.00  0.00     0.094 A 
ATOM      9  C   UNL     1      13.515 -15.180   7.532  1.00  0.00     0.336 A 
ATOM     10  O   UNL     1      14.204 -14.144   7.720  1.00  0.00    -0.246 OA
ATOM     11  O   UNL     1      12.211 -15.163   7.801  1.00  0.00    -0.423 OA
ENDROOT
BRANCH   1  12
ATOM     12  O   UNL     1       7.858 -17.239   8.025  1.00  0.00    -0.497 OA
ATOM     13  C   UNL     1       7.207 -16.190   8.735  1.00  0.00     0.278 C 
ENDBRANCH   1  12
TORSDOF 1
ENDMDL
MODEL 2
REMARK VINA RESULT:    -5.434      1.205      4.654
REMARK INTER + INTRA:          -5.791
REMARK INTER:                  -5.755
REMARK INTRA:                  -0.036
REMARK UNBOUND:                -0.039
REMARK SMILES COc1ccc2ccc(=O)oc2c1
REMARK SMILES IDX 3 1 13 2 12 3 6 4 5 5 4 6 7 7 8 8 9 9 10 10 11 11 2 12 1 13
REMARK H PARENT
REMARK Flexibility Score: inf
ROOT
ATOM      1  C   UNL     1      12.778 -16.594   7.433  1.00  0.00     0.122 A 
ATOM      2  C   UNL     1      11.620 -15.969   7.939  1.00  0.00     0.094 A 
ATOM      3  C   UNL     1      10.378 -16.605   7.848  1.00  0.00     0.142 A 
ATOM      4  C   UNL     1      10.284 -17.879   7.247  1.00  0.00     0.018 A 
ATOM      5  C   UNL     1      11.434 -18.500   6.743  1.00  0.00     0.016 A 
ATOM      6  C   UNL     1      12.671 -17.858   6.838  1.00  0.00     0.047 A 
ATOM      7  C   UNL     1       9.028 -18.490   7.170  1.00  0.00     0.019 A 
ATOM      8  C   UNL     1       7.913 -17.830   7.687  1.00  0.00     0.094 A 
ATOM      9  C   UNL     1       8.082 -16.569   8.268  1.00  0.00     0.336 A 
ATOM     10  O   UNL     1       7.089 -15.957   8.739  1.00  0.00    -0.246 OA
ATOM     11  O   UNL     1       9.289 -16.010   8.328  1.00  0.00    -0.423 OA
ENDROOT
BRANCH   1  12
ATOM     12  O   UNL     1      14.045 -15.996   7.500  1.00  0.00    -0.497 OA
ATOM     13  C   UNL     1      14.307 -14.629   7.199  1.00  0.00     0.278 C 
ENDBRANCH   1  12
TORSDOF 1
ENDMDL
MODEL 3
REMARK VINA RESULT:    -5.160      0.922      0.975
REMARK INTER + INTRA:          -5.500
REMARK INTER:                  -5.460
REMARK INTRA:                  -0.040
REMARK UNBOUND:                -0.039
REMARK SMILES COc1ccc2ccc(=O)oc2c1
REMARK SMILES IDX 3 1 13 2 12 3 6 4 5 5 4 6 7 7 8 8 9 9 10 10 11 11 2 12 1 13
REMARK H PARENT
REMARK Flexibility Score: inf
ROOT
ATOM      1  C   UNL     1       8.533 -17.193   8.201  1.00  0.00     0.122 A 
ATOM      2  C   UNL     1       9.486 -16.154   8.262  1.00  0.00     0.094 A 
ATOM      3  C   UNL     1      10.795 -16.371   7.819  1.00  0.00     0.142 A 
ATOM      4  C   UNL     1      11.163 -17.634   7.308  1.00  0.00     0.018 A 
ATOM      5  C   UNL     1      10.217 -18.666   7.248  1.00  0.00     0.016 A 
ATOM      6  C   UNL     1       8.912 -18.441   7.693  1.00  0.00     0.047 A 
ATOM      7  C   UNL     1      12.479 -17.821   6.873  1.00  0.00     0.019 A 
ATOM      8  C   UNL     1      13.382 -16.761   6.953  1.00  0.00     0.094 A 
ATOM      9  C   UNL     1      12.947 -15.537   7.471  1.00  0.00     0.336 A 
ATOM     10  O   UNL     1      13.747 -14.569   7.552  1.00  0.00    -0.246 OA
ATOM     11  O   UNL     1      11.688 -15.387   7.878  1.00  0.00    -0.423 OA
ENDROOT
BRANCH   1  12
ATOM     12  O   UNL     1       7.210 -17.024   8.634  1.00  0.00    -0.497 OA
ATOM     13  C   UNL     1       6.284 -18.088   8.827  1.00  0.00     0.278 C 
ENDBRANCH   1  12
TORSDOF 1
ENDMDL
MODEL 4
REMARK VINA RESULT:    -4.793      2.032      5.416
REMARK INTER + INTRA:          -5.112
REMARK INTER:                  -5.073
REMARK INTRA:                  -0.039
REMARK UNBOUND:                -0.039
REMARK SMILES COc1ccc2ccc(=O)oc2c1
REMARK SMILES IDX 3 1 13 2 12 3 6 4 5 5 4 6 7 7 8 8 9 9 10 10 11 11 2 12 1 13
REMARK H PARENT
REMARK Flexibility Score: inf
ROOT
ATOM      1  C   UNL     1      11.770 -18.062   7.084  1.00  0.00     0.122 A 
ATOM      2  C   UNL     1      10.518 -18.709   7.032  1.00  0.00     0.094 A 
ATOM      3  C   UNL     1       9.374 -18.072   7.524  1.00  0.00     0.142 A 
ATOM      4  C   UNL     1       9.473 -16.776   8.074  1.00  0.00     0.018 A 
ATOM      5  C   UNL     1      10.717 -16.133   8.127  1.00  0.00     0.016 A 
ATOM      6  C   UNL     1      11.855 -16.777   7.633  1.00  0.00     0.047 A 
ATOM      7  C   UNL     1       8.312 -16.165   8.559  1.00  0.00     0.019 A 
ATOM      8  C   UNL     1       7.098 -16.847   8.483  1.00  0.00     0.094 A 
ATOM      9  C   UNL     1       7.075 -18.130   7.925  1.00  0.00     0.336 A 
ATOM     10  O   UNL     1       5.990 -18.761   7.848  1.00  0.00    -0.246 OA
ATOM     11  O   UNL     1       8.196 -18.687   7.472  1.00  0.00    -0.423 OA
ENDROOT
BRANCH   1  12
ATOM     12  O   UNL     1      12.944 -18.660   6.604  1.00  0.00    -0.497 OA
ATOM     13  C   UNL     1      14.260 -18.276   6.992  1.00  0.00     0.278 C 
ENDBRANCH   1  12
TORSDOF 1
ENDMDL
MODEL 5
REMARK VINA RESULT:    -4.699      1.147      4.688
REMARK INTER + INTRA:          -5.013
REMARK INTER:                  -4.978
REMARK INTRA:                  -0.035
REMARK UNBOUND:                -0.039
REMARK SMILES COc1ccc2ccc(=O)oc2c1
REMARK SMILES IDX 3 1 13 2 12 3 6 4 5 5 4 6 7 7 8 8 9 9 10 10 11 11 2 12 1 13
REMARK H PARENT
REMARK Flexibility Score: inf
ROOT
ATOM      1  C   UNL     1      13.023 -15.678   7.694  1.00  0.00     0.122 A 
ATOM      2  C   UNL     1      11.618 -15.689   7.825  1.00  0.00     0.094 A 
ATOM      3  C   UNL     1      10.889 -16.838   7.501  1.00  0.00     0.142 A 
ATOM      4  C   UNL     1      11.563 -17.992   7.043  1.00  0.00     0.018 A 
ATOM      5  C   UNL     1      12.957 -17.980   6.913  1.00  0.00     0.016 A 
ATOM      6  C   UNL     1      13.678 -16.828   7.238  1.00  0.00     0.047 A 
ATOM      7  C   UNL     1      10.806 -19.125   6.727  1.00  0.00     0.019 A 
ATOM      8  C   UNL     1       9.420 -19.085   6.874  1.00  0.00     0.094 A 
ATOM      9  C   UNL     1       8.821 -17.907   7.333  1.00  0.00     0.336 A 
ATOM     10  O   UNL     1       7.572 -17.851   7.472  1.00  0.00    -0.246 OA
ATOM     11  O   UNL     1       9.565 -16.843   7.626  1.00  0.00    -0.423 OA
ENDROOT
BRANCH   1  12
ATOM     12  O   UNL     1      13.797 -14.550   8.005  1.00  0.00    -0.497 OA
ATOM     13  C   UNL     1      14.817 -14.018   7.167  1.00  0.00     0.278 C 
ENDBRANCH   1  12
TORSDOF 1
ENDMDL
MODEL 6
REMARK VINA RESULT:    -4.262      1.368      5.169
REMARK INTER + INTRA:          -4.550
REMARK INTER:                  -4.510
REMARK INTRA:                  -0.040
REMARK UNBOUND:                -0.039
REMARK SMILES COc1ccc2ccc(=O)oc2c1
REMARK SMILES IDX 3 1 13 2 12 3 6 4 5 5 4 6 7 7 8 8 9 9 10 10 11 11 2 12 1 13
REMARK H PARENT
REMARK Flexibility Score: inf
ROOT
ATOM      1  C   UNL     1      11.234 -16.514   7.894  1.00  0.00     0.122 A 
ATOM      2  C   UNL     1       9.944 -16.286   8.417  1.00  0.00     0.094 A 
ATOM      3  C   UNL     1       8.894 -17.157   8.107  1.00  0.00     0.142 A 
ATOM      4  C   UNL     1       9.127 -18.268   7.268  1.00  0.00     0.018 A 
ATOM      5  C   UNL     1      10.408 -18.494   6.748  1.00  0.00     0.016 A 
ATOM      6  C   UNL     1      11.452 -17.619   7.062  1.00  0.00     0.047 A 
ATOM      7  C   UNL     1       8.057 -19.121   6.976  1.00  0.00     0.019 A 
ATOM      8  C   UNL     1       6.801 -18.852   7.519  1.00  0.00     0.094 A 
ATOM      9  C   UNL     1       6.644 -17.732   8.343  1.00  0.00     0.336 A 
ATOM     10  O   UNL     1       5.518 -17.473   8.842  1.00  0.00    -0.246 OA
ATOM     11  O   UNL     1       7.680 -16.937   8.604  1.00  0.00    -0.423 OA
ENDROOT
BRANCH   1  12
ATOM     12  O   UNL     1      12.318 -15.669   8.176  1.00  0.00    -0.497 OA
ATOM     13  C   UNL     1      13.604 -15.784   7.577  1.00  0.00     0.278 C 
ENDBRANCH   1  12
TORSDOF 1
ENDMDL
MODEL 7
REMARK VINA RESULT:    -3.088      2.641      6.219
REMARK INTER + INTRA:          -3.307
REMARK INTER:                  -3.270
REMARK INTRA:                  -0.037
REMARK UNBOUND:                -0.039
REMARK SMILES COc1ccc2ccc(=O)oc2c1
REMARK SMILES IDX 3 1 13 2 12 3 6 4 5 5 4 6 7 7 8 8 9 9 10 10 11 11 2 12 1 13
REMARK H PARENT
REMARK Flexibility Score: inf
ROOT
ATOM      1  C   UNL     1       9.419 -17.593   7.222  1.00  0.00     0.122 A 
ATOM      2  C   UNL     1       8.694 -17.635   8.430  1.00  0.00     0.094 A 
ATOM      3  C   UNL     1       7.389 -18.139   8.453  1.00  0.00     0.142 A 
ATOM      4  C   UNL     1       6.796 -18.607   7.260  1.00  0.00     0.018 A 
ATOM      5  C   UNL     1       7.516 -18.564   6.059  1.00  0.00     0.016 A 
ATOM      6  C   UNL     1       8.819 -18.060   6.045  1.00  0.00     0.047 A 
ATOM      7  C   UNL     1       5.490 -19.104   7.314  1.00  0.00     0.019 A 
ATOM      8  C   UNL     1       4.816 -19.125   8.535  1.00  0.00     0.094 A 
ATOM      9  C   UNL     1       5.467 -18.644   9.677  1.00  0.00     0.336 A 
ATOM     10  O   UNL     1       4.875 -18.654  10.787  1.00  0.00    -0.246 OA
ATOM     11  O   UNL     1       6.710 -18.176   9.596  1.00  0.00    -0.423 OA
ENDROOT
BRANCH   1  12
ATOM     12  O   UNL     1      10.729 -17.097   7.149  1.00  0.00    -0.497 OA
ATOM     13  C   UNL     1      11.724 -17.301   8.147  1.00  0.00     0.278 C 
ENDBRANCH   1  12
TORSDOF 1
ENDMDL
