MODEL 1
REMARK VINA RESULT:    -5.124      0.000      0.000
REMARK INTER + INTRA:          -5.944
REMARK INTER:                  -5.723
REMARK INTRA:                  -0.221
REMARK UNBOUND:                -0.221
REMARK SMILES CC(C)c1ccc(C(=O)[O-])cc1
REMARK SMILES IDX 7 1 6 2 11 3 5 4 12 5 4 6 8 7 9 8 10 9 2 10 1 11 3 12
REMARK H PARENT
REMARK Flexibility Score: inf
ROOT
ATOM      1  C   UNL     1      36.480  19.156   7.990  1.00  0.00    -0.003 A 
ATOM      2  C   UNL     1      35.557  18.956   9.030  1.00  0.00     0.010 A 
ATOM      3  C   UNL     1      37.844  18.922   8.235  1.00  0.00     0.010 A 
ATOM      4  C   UNL     1      35.988  18.530  10.289  1.00  0.00     0.004 A 
ATOM      5  C   UNL     1      38.275  18.495   9.494  1.00  0.00     0.004 A 
ATOM      6  C   UNL     1      37.351  18.294  10.536  1.00  0.00    -0.045 A 
ENDROOT
BRANCH   1   7
ATOM      7  C   UNL     1      36.019  19.608   6.658  1.00  0.00     0.071 C 
ATOM      8  O   UNL     1      34.831  19.993   6.488  1.00  0.00    -0.545 OA
ATOM      9  O   UNL     1      36.890  19.613   5.575  1.00  0.00    -0.545 OA
ENDBRANCH   1   7
BRANCH   6  10
ATOM     10  C   UNL     1      37.805  17.833  11.909  1.00  0.00     0.013 C 
ATOM     11  C   UNL     1      39.307  18.071  12.103  1.00  0.00     0.012 C 
ATOM     12  C   UNL     1      36.991  18.510  13.017  1.00  0.00     0.012 C 
ENDBRANCH   6  10
TORSDOF 2
ENDMDL
MODEL 2
REMARK VINA RESULT:    -5.095      3.117      4.293
REMARK INTER + INTRA:          -5.912
REMARK INTER:                  -5.705
REMARK INTRA:                  -0.207
REMARK UNBOUND:                -0.221
REMARK SMILES CC(C)c1ccc(C(=O)[O-])cc1
REMARK SMILES IDX 7 1 6 2 11 3 5 4 12 5 4 6 8 7 9 8 10 9 2 10 1 11 3 12
REMARK H PARENT
REMARK Flexibility Score: inf
ROOT
ATOM      1  C   UNL     1      39.415  18.203  10.550  1.00  0.00    -0.003 A 
ATOM      2  C   UNL     1      38.233  18.220   9.790  1.00  0.00     0.010 A 
ATOM      3  C   UNL     1      39.323  18.182  11.952  1.00  0.00     0.010 A 
ATOM      4  C   UNL     1      36.985  18.215  10.420  1.00  0.00     0.004 A 
ATOM      5  C   UNL     1      38.076  18.177  12.582  1.00  0.00     0.004 A 
ATOM      6  C   UNL     1      36.891  18.193  11.822  1.00  0.00    -0.045 A 
ENDROOT
BRANCH   1   7
ATOM      7  C   UNL     1      40.734  18.208   9.879  1.00  0.00     0.071 C 
ATOM      8  O   UNL     1      40.951  17.461   8.888  1.00  0.00    -0.545 OA
ATOM      9  O   UNL     1      41.752  19.038  10.332  1.00  0.00    -0.545 OA
ENDBRANCH   1   7
BRANCH   6  10
ATOM     10  C   UNL     1      35.530  18.189  12.492  1.00  0.00     0.013 C 
ATOM     11  C   UNL     1      34.591  19.211  11.840  1.00  0.00     0.012 C 
ATOM     12  C   UNL     1      34.912  16.786  12.480  1.00  0.00     0.012 C 
ENDBRANCH   6  10
TORSDOF 2
ENDMDL
MODEL 3
REMARK VINA RESULT:    -5.061      9.533     11.124
REMARK INTER + INTRA:          -5.874
REMARK INTER:                  -5.665
REMARK INTRA:                  -0.208
REMARK UNBOUND:                -0.221
REMARK SMILES CC(C)c1ccc(C(=O)[O-])cc1
REMARK SMILES IDX 7 1 6 2 11 3 5 4 12 5 4 6 8 7 9 8 10 9 2 10 1 11 3 12
REMARK H PARENT
REMARK Flexibility Score: inf
ROOT
ATOM      1  C   UNL     1      32.284  13.684  15.611  1.00  0.00    -0.003 A 
ATOM      2  C   UNL     1      32.269  12.478  14.891  1.00  0.00     0.010 A 
ATOM      3  C   UNL     1      31.063  14.267  15.989  1.00  0.00     0.010 A 
ATOM      4  C   UNL     1      31.058  11.867  14.555  1.00  0.00     0.004 A 
ATOM      5  C   UNL     1      29.851  13.656  15.655  1.00  0.00     0.004 A 
ATOM      6  C   UNL     1      29.835  12.448  14.933  1.00  0.00    -0.045 A 
ENDROOT
BRANCH   1   7
ATOM      7  C   UNL     1      33.570  14.327  15.964  1.00  0.00     0.071 C 
ATOM      8  O   UNL     1      34.630  14.011  15.362  1.00  0.00    -0.545 OA
ATOM      9  O   UNL     1      33.625  15.290  16.965  1.00  0.00    -0.545 OA
ENDBRANCH   1   7
BRANCH   6  10
ATOM     10  C   UNL     1      28.527  11.774  14.562  1.00  0.00     0.013 C 
ATOM     11  C   UNL     1      27.566  11.737  15.756  1.00  0.00     0.012 C 
ATOM     12  C   UNL     1      27.878  12.455  13.351  1.00  0.00     0.012 C 
ENDBRANCH   6  10
TORSDOF 2
ENDMDL
MODEL 4
REMARK VINA RESULT:    -5.036      9.527     10.939
REMARK INTER + INTRA:          -5.846
REMARK INTER:                  -5.629
REMARK INTRA:                  -0.217
REMARK UNBOUND:                -0.221
REMARK SMILES CC(C)c1ccc(C(=O)[O-])cc1
REMARK SMILES IDX 7 1 6 2 11 3 5 4 12 5 4 6 8 7 9 8 10 9 2 10 1 11 3 12
REMARK H PARENT
REMARK Flexibility Score: inf
ROOT
ATOM      1  C   UNL     1      29.660  12.304  15.386  1.00  0.00    -0.003 A 
ATOM      2  C   UNL     1      29.823  13.405  16.243  1.00  0.00     0.010 A 
ATOM      3  C   UNL     1      30.786  11.779  14.729  1.00  0.00     0.010 A 
ATOM      4  C   UNL     1      31.086  13.970  16.440  1.00  0.00     0.004 A 
ATOM      5  C   UNL     1      32.049  12.344  14.926  1.00  0.00     0.004 A 
ATOM      6  C   UNL     1      32.214  13.446  15.784  1.00  0.00    -0.045 A 
ENDROOT
BRANCH   1   7
ATOM      7  C   UNL     1      28.320  11.709  15.181  1.00  0.00     0.071 C 
ATOM      8  O   UNL     1      27.486  11.671  16.124  1.00  0.00    -0.545 OA
ATOM      9  O   UNL     1      27.964  11.183  13.945  1.00  0.00    -0.545 OA
ENDBRANCH   1   7
BRANCH   6  10
ATOM     10  C   UNL     1      33.579  14.070  16.007  1.00  0.00     0.013 C 
ATOM     11  C   UNL     1      34.272  14.371  14.673  1.00  0.00     0.012 C 
ATOM     12  C   UNL     1      33.476  15.332  16.872  1.00  0.00     0.012 C 
ENDBRANCH   6  10
TORSDOF 2
ENDMDL
MODEL 5
REMARK VINA RESULT:    -5.032      3.111      4.330
REMARK INTER + INTRA:          -5.841
REMARK INTER:                  -5.636
REMARK INTRA:                  -0.206
REMARK UNBOUND:                -0.221
REMARK SMILES CC(C)c1ccc(C(=O)[O-])cc1
REMARK SMILES IDX 7 1 6 2 11 3 5 4 12 5 4 6 8 7 9 8 10 9 2 10 1 11 3 12
REMARK H PARENT
REMARK Flexibility Score: inf
ROOT
ATOM      1  C   UNL     1      39.362  18.149  10.607  1.00  0.00    -0.003 A 
ATOM      2  C   UNL     1      39.310  18.208  12.010  1.00  0.00     0.010 A 
ATOM      3  C   UNL     1      38.159  18.127   9.881  1.00  0.00     0.010 A 
ATOM      4  C   UNL     1      38.081  18.243  12.674  1.00  0.00     0.004 A 
ATOM      5  C   UNL     1      36.929  18.163  10.545  1.00  0.00     0.004 A 
ATOM      6  C   UNL     1      36.877  18.222  11.950  1.00  0.00    -0.045 A 
ENDROOT
BRANCH   1   7
ATOM      7  C   UNL     1      40.667  18.112   9.908  1.00  0.00     0.071 C 
ATOM      8  O   UNL     1      40.822  17.401   8.879  1.00  0.00    -0.545 OA
ATOM      9  O   UNL     1      41.739  18.862  10.377  1.00  0.00    -0.545 OA
ENDBRANCH   1   7
BRANCH   6  10
ATOM     10  C   UNL     1      35.549  18.260  12.684  1.00  0.00     0.013 C 
ATOM     11  C   UNL     1      34.571  19.227  12.006  1.00  0.00     0.012 C 
ATOM     12  C   UNL     1      34.944  16.857  12.806  1.00  0.00     0.012 C 
ENDBRANCH   6  10
TORSDOF 2
ENDMDL
MODEL 6
REMARK VINA RESULT:    -5.027      3.026      4.267
REMARK INTER + INTRA:          -5.835
REMARK INTER:                  -5.628
REMARK INTRA:                  -0.208
REMARK UNBOUND:                -0.221
REMARK SMILES CC(C)c1ccc(C(=O)[O-])cc1
REMARK SMILES IDX 7 1 6 2 11 3 5 4 12 5 4 6 8 7 9 8 10 9 2 10 1 11 3 12
REMARK H PARENT
REMARK Flexibility Score: inf
ROOT
ATOM      1  C   UNL     1      36.269  18.159  11.440  1.00  0.00    -0.003 A 
ATOM      2  C   UNL     1      36.484  18.382  10.069  1.00  0.00     0.010 A 
ATOM      3  C   UNL     1      37.379  18.010  12.288  1.00  0.00     0.010 A 
ATOM      4  C   UNL     1      37.783  18.454   9.558  1.00  0.00     0.004 A 
ATOM      5  C   UNL     1      38.678  18.083  11.777  1.00  0.00     0.004 A 
ATOM      6  C   UNL     1      38.894  18.306  10.405  1.00  0.00    -0.045 A 
ENDROOT
BRANCH   1   7
ATOM      7  C   UNL     1      34.891  18.084  11.977  1.00  0.00     0.071 C 
ATOM      8  O   UNL     1      34.372  16.970  12.252  1.00  0.00    -0.545 OA
ATOM      9  O   UNL     1      34.152  19.242  12.185  1.00  0.00    -0.545 OA
ENDBRANCH   1   7
BRANCH   6  10
ATOM     10  C   UNL     1      40.299  18.385   9.835  1.00  0.00     0.013 C 
ATOM     11  C   UNL     1      41.350  18.319  10.949  1.00  0.00     0.012 C 
ATOM     12  C   UNL     1      40.534  17.291   8.788  1.00  0.00     0.012 C 
ENDBRANCH   6  10
TORSDOF 2
ENDMDL
MODEL 7
REMARK VINA RESULT:    -4.991      3.168      4.674
REMARK INTER + INTRA:          -5.796
REMARK INTER:                  -5.585
REMARK INTRA:                  -0.211
REMARK UNBOUND:                -0.221
REMARK SMILES CC(C)c1ccc(C(=O)[O-])cc1
REMARK SMILES IDX 7 1 6 2 11 3 5 4 12 5 4 6 8 7 9 8 10 9 2 10 1 11 3 12
REMARK H PARENT
REMARK Flexibility Score: inf
ROOT
ATOM      1  C   UNL     1      38.078  18.123  11.115  1.00  0.00    -0.003 A 
ATOM      2  C   UNL     1      38.674  18.122   9.842  1.00  0.00     0.010 A 
ATOM      3  C   UNL     1      38.902  18.149  12.252  1.00  0.00     0.010 A 
ATOM      4  C   UNL     1      40.064  18.146   9.710  1.00  0.00     0.004 A 
ATOM      5  C   UNL     1      40.293  18.174  12.121  1.00  0.00     0.004 A 
ATOM      6  C   UNL     1      40.891  18.173  10.847  1.00  0.00    -0.045 A 
ENDROOT
BRANCH   1   7
ATOM      7  C   UNL     1      36.604  18.097  11.250  1.00  0.00     0.071 C 
ATOM      8  O   UNL     1      35.866  18.283  10.245  1.00  0.00    -0.545 OA
ATOM      9  O   UNL     1      36.013  17.865  12.486  1.00  0.00    -0.545 OA
ENDBRANCH   1   7
BRANCH   6  10
ATOM     10  C   UNL     1      42.400  18.199  10.688  1.00  0.00     0.013 C 
ATOM     11  C   UNL     1      42.871  17.108   9.719  1.00  0.00     0.012 C 
ATOM     12  C   UNL     1      42.885  19.583  10.241  1.00  0.00     0.012 C 
ENDBRANCH   6  10
TORSDOF 2
ENDMDL
MODEL 8
REMARK VINA RESULT:    -4.910      3.547      5.361
REMARK INTER + INTRA:          -5.705
REMARK INTER:                  -5.493
REMARK INTRA:                  -0.212
REMARK UNBOUND:                -0.221
REMARK SMILES CC(C)c1ccc(C(=O)[O-])cc1
REMARK SMILES IDX 7 1 6 2 11 3 5 4 12 5 4 6 8 7 9 8 10 9 2 10 1 11 3 12
REMARK H PARENT
REMARK Flexibility Score: inf
ROOT
ATOM      1  C   UNL     1      36.081  18.155  11.146  1.00  0.00    -0.003 A 
ATOM      2  C   UNL     1      36.233  18.500   9.792  1.00  0.00     0.010 A 
ATOM      3  C   UNL     1      35.060  18.764  11.894  1.00  0.00     0.010 A 
ATOM      4  C   UNL     1      35.381  19.435   9.199  1.00  0.00     0.004 A 
ATOM      5  C   UNL     1      34.207  19.699  11.301  1.00  0.00     0.004 A 
ATOM      6  C   UNL     1      34.358  20.045   9.945  1.00  0.00    -0.045 A 
ENDROOT
BRANCH   1   7
ATOM      7  C   UNL     1      36.987  17.164  11.770  1.00  0.00     0.071 C 
ATOM      8  O   UNL     1      38.103  17.520  12.234  1.00  0.00    -0.545 OA
ATOM      9  O   UNL     1      36.618  15.827  11.853  1.00  0.00    -0.545 OA
ENDBRANCH   1   7
BRANCH   6  10
ATOM     10  C   UNL     1      33.440  21.059   9.288  1.00  0.00     0.013 C 
ATOM     11  C   UNL     1      33.261  20.757   7.796  1.00  0.00     0.012 C 
ATOM     12  C   UNL     1      32.086  21.125  10.004  1.00  0.00     0.012 C 
ENDBRANCH   6  10
TORSDOF 2
ENDMDL
MODEL 9
REMARK VINA RESULT:    -4.894      1.284      2.160
REMARK INTER + INTRA:          -5.687
REMARK INTER:                  -5.479
REMARK INTRA:                  -0.208
REMARK UNBOUND:                -0.221
REMARK SMILES CC(C)c1ccc(C(=O)[O-])cc1
REMARK SMILES IDX 7 1 6 2 11 3 5 4 12 5 4 6 8 7 9 8 10 9 2 10 1 11 3 12
REMARK H PARENT
REMARK Flexibility Score: inf
ROOT
ATOM      1  C   UNL     1      35.423  19.432   8.152  1.00  0.00    -0.003 A 
ATOM      2  C   UNL     1      34.453  19.971   9.014  1.00  0.00     0.010 A 
ATOM      3  C   UNL     1      36.414  18.589   8.684  1.00  0.00     0.010 A 
ATOM      4  C   UNL     1      34.474  19.674  10.380  1.00  0.00     0.004 A 
ATOM      5  C   UNL     1      36.435  18.291  10.049  1.00  0.00     0.004 A 
ATOM      6  C   UNL     1      35.464  18.830  10.913  1.00  0.00    -0.045 A 
ENDROOT
BRANCH   1   7
ATOM      7  C   UNL     1      35.397  19.750   6.707  1.00  0.00     0.071 C 
ATOM      8  O   UNL     1      36.456  19.716   6.025  1.00  0.00    -0.545 OA
ATOM      9  O   UNL     1      34.204  20.091   6.082  1.00  0.00    -0.545 OA
ENDBRANCH   1   7
BRANCH   6  10
ATOM     10  C   UNL     1      35.474  18.517  12.398  1.00  0.00     0.013 C 
ATOM     11  C   UNL     1      34.783  17.179  12.684  1.00  0.00     0.012 C 
ATOM     12  C   UNL     1      36.902  18.531  12.956  1.00  0.00     0.012 C 
ENDBRANCH   6  10
TORSDOF 2
ENDMDL
