MODEL 1
REMARK VINA RESULT:    -4.768      0.000      0.000
REMARK INTER + INTRA:         -17.337
REMARK INTER:                 -12.573
REMARK INTRA:                  -4.765
REMARK UNBOUND:                -4.765
REMARK SMILES CCCCCCCCCCCCCCCCCCCCCCCCCCCCCC(=O)[O-]
REMARK SMILES IDX 16 1 17 2 18 3 19 4 20 5 21 6 22 7 23 8 24 9 25 10 26 11
REMARK SMILES IDX 27 12 28 13 29 14 30 15 31 16 32 17 15 18 14 19 13 20 12 21
REMARK SMILES IDX 11 22 10 23 9 24 8 25 7 26 6 27 5 28 4 29 3 30 2 31 1 32
REMARK H PARENT
REMARK Flexibility Score: inf
ROOT
ATOM      1  C   UNL     1      21.052  23.499   8.690  1.00  0.00     0.000 C 
ENDROOT
BRANCH   1   2
ATOM      2  C   UNL     1      21.299  22.688   7.401  1.00  0.00     0.000 C 
BRANCH   2   3
ATOM      3  C   UNL     1      21.814  21.252   7.618  1.00  0.00     0.000 C 
BRANCH   3   4
ATOM      4  C   UNL     1      22.189  20.501   6.328  1.00  0.00     0.000 C 
BRANCH   4   5
ATOM      5  C   UNL     1      23.194  19.363   6.576  1.00  0.00     0.000 C 
BRANCH   5   6
ATOM      6  C   UNL     1      23.759  18.774   5.271  1.00  0.00     0.000 C 
BRANCH   6   7
ATOM      7  C   UNL     1      23.662  17.239   5.165  1.00  0.00     0.000 C 
BRANCH   7   8
ATOM      8  C   UNL     1      22.283  16.639   5.510  1.00  0.00     0.000 C 
BRANCH   8   9
ATOM      9  C   UNL     1      21.269  16.626   4.351  1.00  0.00     0.000 C 
BRANCH   9  10
ATOM     10  C   UNL     1      20.565  17.978   4.161  1.00  0.00     0.000 C 
BRANCH  10  11
ATOM     11  C   UNL     1      19.044  17.795   4.069  1.00  0.00     0.000 C 
BRANCH  11  12
ATOM     12  C   UNL     1      18.557  16.487   4.718  1.00  0.00     0.000 C 
BRANCH  12  13
ATOM     13  C   UNL     1      17.533  16.658   5.857  1.00  0.00     0.006 C 
BRANCH  13  14
ATOM     14  C   UNL     1      18.128  16.480   7.268  1.00  0.00     0.053 C 
BRANCH  14  15
ATOM     15  C   UNL     1      18.307  15.037   7.637  1.00  0.00     0.041 C 
ATOM     16  O   UNL     1      19.351  14.662   8.236  1.00  0.00    -0.550 OA
ATOM     17  O   UNL     1      17.304  14.116   7.363  1.00  0.00    -0.550 OA
ENDBRANCH  14  15
ENDBRANCH  13  14
ENDBRANCH  12  13
ENDBRANCH  11  12
ENDBRANCH  10  11
ENDBRANCH   9  10
ENDBRANCH   8   9
ENDBRANCH   7   8
ENDBRANCH   6   7
ENDBRANCH   5   6
ENDBRANCH   4   5
ENDBRANCH   3   4
ENDBRANCH   2   3
ENDBRANCH   1   2
BRANCH   1  18
ATOM     18  C   UNL     1      20.601  22.669   9.906  1.00  0.00     0.000 C 
BRANCH  18  19
ATOM     19  C   UNL     1      19.405  23.298  10.640  1.00  0.00     0.000 C 
BRANCH  19  20
ATOM     20  C   UNL     1      18.088  22.535  10.408  1.00  0.00     0.000 C 
BRANCH  20  21
ATOM     21  C   UNL     1      18.075  21.073  10.900  1.00  0.00     0.000 C 
BRANCH  21  22
ATOM     22  C   UNL     1      17.079  20.142  10.184  1.00  0.00     0.000 C 
BRANCH  22  23
ATOM     23  C   UNL     1      17.019  20.380   8.665  1.00  0.00     0.000 C 
BRANCH  23  24
ATOM     24  C   UNL     1      18.335  20.018   7.953  1.00  0.00    -0.000 C 
BRANCH  24  25
ATOM     25  C   UNL     1      18.448  20.514   6.500  1.00  0.00    -0.000 C 
BRANCH  25  26
ATOM     26  C   UNL     1      17.216  21.313   6.047  1.00  0.00    -0.000 C 
BRANCH  26  27
ATOM     27  C   UNL     1      17.527  22.803   5.816  1.00  0.00    -0.000 C 
BRANCH  27  28
ATOM     28  C   UNL     1      16.882  23.732   6.867  1.00  0.00    -0.000 C 
BRANCH  28  29
ATOM     29  C   UNL     1      17.902  24.614   7.621  1.00  0.00    -0.000 C 
BRANCH  29  30
ATOM     30  C   UNL     1      17.248  25.632   8.574  1.00  0.00    -0.000 C 
BRANCH  30  31
ATOM     31  C   UNL     1      18.236  26.355   9.503  1.00  0.00    -0.003 C 
ATOM     32  C   UNL     1      19.212  27.253   8.745  1.00  0.00     0.004 C 
ENDBRANCH  30  31
ENDBRANCH  29  30
ENDBRANCH  28  29
ENDBRANCH  27  28
ENDBRANCH  26  27
ENDBRANCH  25  26
ENDBRANCH  24  25
ENDBRANCH  23  24
ENDBRANCH  22  23
ENDBRANCH  21  22
ENDBRANCH  20  21
ENDBRANCH  19  20
ENDBRANCH  18  19
ENDBRANCH   1  18
TORSDOF 28
ENDMDL
MODEL 2
REMARK VINA RESULT:    -4.248      3.514      5.167
REMARK INTER + INTRA:         -15.966
REMARK INTER:                 -12.289
REMARK INTRA:                  -3.676
REMARK UNBOUND:                -4.765
REMARK SMILES CCCCCCCCCCCCCCCCCCCCCCCCCCCCCC(=O)[O-]
REMARK SMILES IDX 16 1 17 2 18 3 19 4 20 5 21 6 22 7 23 8 24 9 25 10 26 11
REMARK SMILES IDX 27 12 28 13 29 14 30 15 31 16 32 17 15 18 14 19 13 20 12 21
REMARK SMILES IDX 11 22 10 23 9 24 8 25 7 26 6 27 5 28 4 29 3 30 2 31 1 32
REMARK H PARENT
REMARK Flexibility Score: inf
ROOT
ATOM      1  C   UNL     1      20.414  23.129  10.126  1.00  0.00     0.000 C 
ENDROOT
BRANCH   1   2
ATOM      2  C   UNL     1      20.971  23.034   8.690  1.00  0.00     0.000 C 
BRANCH   2   3
ATOM      3  C   UNL     1      21.796  21.768   8.389  1.00  0.00     0.000 C 
BRANCH   3   4
ATOM      4  C   UNL     1      21.317  20.962   7.168  1.00  0.00     0.000 C 
BRANCH   4   5
ATOM      5  C   UNL     1      22.480  20.355   6.367  1.00  0.00     0.000 C 
BRANCH   5   6
ATOM      6  C   UNL     1      22.068  19.940   4.943  1.00  0.00     0.000 C 
BRANCH   6   7
ATOM      7  C   UNL     1      21.713  18.448   4.785  1.00  0.00     0.000 C 
BRANCH   7   8
ATOM      8  C   UNL     1      22.804  17.578   4.125  1.00  0.00     0.000 C 
BRANCH   8   9
ATOM      9  C   UNL     1      24.075  17.373   4.971  1.00  0.00     0.000 C 
BRANCH   9  10
ATOM     10  C   UNL     1      25.168  16.593   4.223  1.00  0.00     0.000 C 
BRANCH  10  11
ATOM     11  C   UNL     1      26.563  16.994   4.723  1.00  0.00     0.000 C 
BRANCH  11  12
ATOM     12  C   UNL     1      27.656  15.987   4.321  1.00  0.00     0.000 C 
BRANCH  12  13
ATOM     13  C   UNL     1      28.064  14.984   5.418  1.00  0.00     0.006 C 
BRANCH  13  14
ATOM     14  C   UNL     1      29.341  14.185   5.095  1.00  0.00     0.053 C 
BRANCH  14  15
ATOM     15  C   UNL     1      29.042  12.810   4.575  1.00  0.00     0.041 C 
ATOM     16  O   UNL     1      29.976  12.075   4.154  1.00  0.00    -0.550 OA
ATOM     17  O   UNL     1      27.740  12.323   4.596  1.00  0.00    -0.550 OA
ENDBRANCH  14  15
ENDBRANCH  13  14
ENDBRANCH  12  13
ENDBRANCH  11  12
ENDBRANCH  10  11
ENDBRANCH   9  10
ENDBRANCH   8   9
ENDBRANCH   7   8
ENDBRANCH   6   7
ENDBRANCH   5   6
ENDBRANCH   4   5
ENDBRANCH   3   4
ENDBRANCH   2   3
ENDBRANCH   1   2
BRANCH   1  18
ATOM     18  C   UNL     1      19.422  22.018  10.516  1.00  0.00     0.000 C 
BRANCH  18  19
ATOM     19  C   UNL     1      18.209  22.555  11.294  1.00  0.00     0.000 C 
BRANCH  19  20
ATOM     20  C   UNL     1      16.876  21.944  10.826  1.00  0.00     0.000 C 
BRANCH  20  21
ATOM     21  C   UNL     1      16.972  20.524  10.230  1.00  0.00     0.000 C 
BRANCH  21  22
ATOM     22  C   UNL     1      16.881  20.443   8.696  1.00  0.00     0.000 C 
BRANCH  22  23
ATOM     23  C   UNL     1      17.438  19.125   8.129  1.00  0.00     0.000 C 
BRANCH  23  24
ATOM     24  C   UNL     1      18.018  19.284   6.711  1.00  0.00    -0.000 C 
BRANCH  24  25
ATOM     25  C   UNL     1      17.466  20.478   5.912  1.00  0.00    -0.000 C 
BRANCH  25  26
ATOM     26  C   UNL     1      18.541  21.174   5.062  1.00  0.00    -0.000 C 
BRANCH  26  27
ATOM     27  C   UNL     1      18.682  22.671   5.391  1.00  0.00    -0.000 C 
BRANCH  27  28
ATOM     28  C   UNL     1      17.576  23.196   6.333  1.00  0.00    -0.000 C 
BRANCH  28  29
ATOM     29  C   UNL     1      18.073  24.265   7.332  1.00  0.00    -0.000 C 
BRANCH  29  30
ATOM     30  C   UNL     1      17.079  24.546   8.475  1.00  0.00    -0.000 C 
BRANCH  30  31
ATOM     31  C   UNL     1      17.408  25.795   9.308  1.00  0.00    -0.003 C 
ATOM     32  C   UNL     1      18.673  26.507   8.832  1.00  0.00     0.004 C 
ENDBRANCH  30  31
ENDBRANCH  29  30
ENDBRANCH  28  29
ENDBRANCH  27  28
ENDBRANCH  26  27
ENDBRANCH  25  26
ENDBRANCH  24  25
ENDBRANCH  23  24
ENDBRANCH  22  23
ENDBRANCH  21  22
ENDBRANCH  20  21
ENDBRANCH  19  20
ENDBRANCH  18  19
ENDBRANCH   1  18
TORSDOF 28
ENDMDL
MODEL 3
REMARK VINA RESULT:    -4.118      6.186      8.406
REMARK INTER + INTRA:         -15.623
REMARK INTER:                 -13.379
REMARK INTRA:                  -2.244
REMARK UNBOUND:                -4.765
REMARK SMILES CCCCCCCCCCCCCCCCCCCCCCCCCCCCCC(=O)[O-]
REMARK SMILES IDX 16 1 17 2 18 3 19 4 20 5 21 6 22 7 23 8 24 9 25 10 26 11
REMARK SMILES IDX 27 12 28 13 29 14 30 15 31 16 32 17 15 18 14 19 13 20 12 21
REMARK SMILES IDX 11 22 10 23 9 24 8 25 7 26 6 27 5 28 4 29 3 30 2 31 1 32
REMARK H PARENT
REMARK Flexibility Score: inf
ROOT
ATOM      1  C   UNL     1      22.612  19.352   5.780  1.00  0.00     0.000 C 
ENDROOT
BRANCH   1   2
ATOM      2  C   UNL     1      23.869  19.170   4.905  1.00  0.00     0.000 C 
BRANCH   2   3
ATOM      3  C   UNL     1      24.756  17.965   5.274  1.00  0.00     0.000 C 
BRANCH   3   4
ATOM      4  C   UNL     1      24.738  16.815   4.252  1.00  0.00     0.000 C 
BRANCH   4   5
ATOM      5  C   UNL     1      26.080  16.068   4.178  1.00  0.00     0.000 C 
BRANCH   5   6
ATOM      6  C   UNL     1      27.084  16.542   5.243  1.00  0.00     0.000 C 
BRANCH   6   7
ATOM      7  C   UNL     1      28.551  16.592   4.768  1.00  0.00     0.000 C 
BRANCH   7   8
ATOM      8  C   UNL     1      29.063  15.312   4.074  1.00  0.00     0.000 C 
BRANCH   8   9
ATOM      9  C   UNL     1      28.869  14.013   4.877  1.00  0.00     0.000 C 
BRANCH   9  10
ATOM     10  C   UNL     1      30.198  13.330   5.234  1.00  0.00     0.000 C 
BRANCH  10  11
ATOM     11  C   UNL     1      30.680  13.767   6.626  1.00  0.00     0.000 C 
BRANCH  11  12
ATOM     12  C   UNL     1      31.360  12.630   7.409  1.00  0.00     0.000 C 
BRANCH  12  13
ATOM     13  C   UNL     1      32.301  13.082   8.542  1.00  0.00     0.006 C 
BRANCH  13  14
ATOM     14  C   UNL     1      32.606  11.986   9.581  1.00  0.00     0.053 C 
BRANCH  14  15
ATOM     15  C   UNL     1      33.785  11.142   9.197  1.00  0.00     0.041 C 
ATOM     16  O   UNL     1      33.923   9.988   9.684  1.00  0.00    -0.550 OA
ATOM     17  O   UNL     1      34.706  11.610   8.268  1.00  0.00    -0.550 OA
ENDBRANCH  14  15
ENDBRANCH  13  14
ENDBRANCH  12  13
ENDBRANCH  11  12
ENDBRANCH  10  11
ENDBRANCH   9  10
ENDBRANCH   8   9
ENDBRANCH   7   8
ENDBRANCH   6   7
ENDBRANCH   5   6
ENDBRANCH   4   5
ENDBRANCH   3   4
ENDBRANCH   2   3
ENDBRANCH   1   2
BRANCH   1  18
ATOM     18  C   UNL     1      21.371  19.882   5.038  1.00  0.00     0.000 C 
BRANCH  18  19
ATOM     19  C   UNL     1      20.362  20.558   5.982  1.00  0.00     0.000 C 
BRANCH  19  20
ATOM     20  C   UNL     1      20.771  21.989   6.374  1.00  0.00     0.000 C 
BRANCH  20  21
ATOM     21  C   UNL     1      19.608  22.992   6.527  1.00  0.00     0.000 C 
BRANCH  21  22
ATOM     22  C   UNL     1      18.374  22.712   5.651  1.00  0.00     0.000 C 
BRANCH  22  23
ATOM     23  C   UNL     1      17.175  22.177   6.454  1.00  0.00     0.000 C 
BRANCH  23  24
ATOM     24  C   UNL     1      17.127  22.728   7.891  1.00  0.00    -0.000 C 
BRANCH  24  25
ATOM     25  C   UNL     1      17.189  21.662   9.000  1.00  0.00    -0.000 C 
BRANCH  25  26
ATOM     26  C   UNL     1      18.613  21.435   9.530  1.00  0.00    -0.000 C 
BRANCH  26  27
ATOM     27  C   UNL     1      19.000  22.431  10.638  1.00  0.00    -0.000 C 
BRANCH  27  28
ATOM     28  C   UNL     1      19.859  23.609  10.128  1.00  0.00    -0.000 C 
BRANCH  28  29
ATOM     29  C   UNL     1      19.096  24.952  10.079  1.00  0.00    -0.000 C 
BRANCH  29  30
ATOM     30  C   UNL     1      19.271  25.708   8.748  1.00  0.00    -0.000 C 
BRANCH  30  31
ATOM     31  C   UNL     1      18.895  27.197   8.811  1.00  0.00    -0.003 C 
ATOM     32  C   UNL     1      17.404  27.421   9.056  1.00  0.00     0.004 C 
ENDBRANCH  30  31
ENDBRANCH  29  30
ENDBRANCH  28  29
ENDBRANCH  27  28
ENDBRANCH  26  27
ENDBRANCH  25  26
ENDBRANCH  24  25
ENDBRANCH  23  24
ENDBRANCH  22  23
ENDBRANCH  21  22
ENDBRANCH  20  21
ENDBRANCH  19  20
ENDBRANCH  18  19
ENDBRANCH   1  18
TORSDOF 28
ENDMDL
MODEL 4
REMARK VINA RESULT:    -4.072      4.161      9.887
REMARK INTER + INTRA:         -15.501
REMARK INTER:                 -12.985
REMARK INTRA:                  -2.516
REMARK UNBOUND:                -4.765
REMARK SMILES CCCCCCCCCCCCCCCCCCCCCCCCCCCCCC(=O)[O-]
REMARK SMILES IDX 16 1 17 2 18 3 19 4 20 5 21 6 22 7 23 8 24 9 25 10 26 11
REMARK SMILES IDX 27 12 28 13 29 14 30 15 31 16 32 17 15 18 14 19 13 20 12 21
REMARK SMILES IDX 11 22 10 23 9 24 8 25 7 26 6 27 5 28 4 29 3 30 2 31 1 32
REMARK H PARENT
REMARK Flexibility Score: inf
ROOT
ATOM      1  C   UNL     1      21.405  21.729   8.393  1.00  0.00     0.000 C 
ENDROOT
BRANCH   1   2
ATOM      2  C   UNL     1      21.659  22.831   9.442  1.00  0.00     0.000 C 
BRANCH   2   3
ATOM      3  C   UNL     1      20.404  23.337  10.179  1.00  0.00     0.000 C 
BRANCH   3   4
ATOM      4  C   UNL     1      19.592  24.398   9.415  1.00  0.00     0.000 C 
BRANCH   4   5
ATOM      5  C   UNL     1      18.111  24.013   9.262  1.00  0.00     0.000 C 
BRANCH   5   6
ATOM      6  C   UNL     1      17.352  24.942   8.299  1.00  0.00     0.000 C 
BRANCH   6   7
ATOM      7  C   UNL     1      17.209  24.401   6.862  1.00  0.00     0.000 C 
BRANCH   7   8
ATOM      8  C   UNL     1      16.891  22.895   6.753  1.00  0.00     0.000 C 
BRANCH   8   9
ATOM      9  C   UNL     1      18.120  21.974   6.642  1.00  0.00     0.000 C 
BRANCH   9  10
ATOM     10  C   UNL     1      19.167  22.497   5.648  1.00  0.00     0.000 C 
BRANCH  10  11
ATOM     11  C   UNL     1      19.417  21.475   4.529  1.00  0.00     0.000 C 
BRANCH  11  12
ATOM     12  C   UNL     1      18.556  20.207   4.672  1.00  0.00     0.000 C 
BRANCH  12  13
ATOM     13  C   UNL     1      19.331  18.921   5.022  1.00  0.00     0.006 C 
BRANCH  13  14
ATOM     14  C   UNL     1      19.169  18.469   6.486  1.00  0.00     0.053 C 
BRANCH  14  15
ATOM     15  C   UNL     1      18.810  17.017   6.602  1.00  0.00     0.041 C 
ATOM     16  O   UNL     1      17.646  16.627   6.315  1.00  0.00    -0.550 OA
ATOM     17  O   UNL     1      19.771  16.088   6.982  1.00  0.00    -0.550 OA
ENDBRANCH  14  15
ENDBRANCH  13  14
ENDBRANCH  12  13
ENDBRANCH  11  12
ENDBRANCH  10  11
ENDBRANCH   9  10
ENDBRANCH   8   9
ENDBRANCH   7   8
ENDBRANCH   6   7
ENDBRANCH   5   6
ENDBRANCH   4   5
ENDBRANCH   3   4
ENDBRANCH   2   3
ENDBRANCH   1   2
BRANCH   1  18
ATOM     18  C   UNL     1      22.642  20.897   8.007  1.00  0.00     0.000 C 
BRANCH  18  19
ATOM     19  C   UNL     1      22.388  19.989   6.792  1.00  0.00     0.000 C 
BRANCH  19  20
ATOM     20  C   UNL     1      23.643  19.217   6.345  1.00  0.00     0.000 C 
BRANCH  20  21
ATOM     21  C   UNL     1      23.862  19.137   4.820  1.00  0.00     0.000 C 
BRANCH  21  22
ATOM     22  C   UNL     1      25.082  18.313   4.369  1.00  0.00     0.000 C 
BRANCH  22  23
ATOM     23  C   UNL     1      25.057  16.866   4.892  1.00  0.00     0.000 C 
BRANCH  23  24
ATOM     24  C   UNL     1      26.371  16.111   4.619  1.00  0.00    -0.000 C 
BRANCH  24  25
ATOM     25  C   UNL     1      27.551  16.506   5.526  1.00  0.00    -0.000 C 
BRANCH  25  26
ATOM     26  C   UNL     1      28.841  15.741   5.192  1.00  0.00    -0.000 C 
BRANCH  26  27
ATOM     27  C   UNL     1      28.616  14.224   5.068  1.00  0.00    -0.000 C 
BRANCH  27  28
ATOM     28  C   UNL     1      29.925  13.406   5.113  1.00  0.00    -0.000 C 
BRANCH  28  29
ATOM     29  C   UNL     1      30.810  13.725   6.339  1.00  0.00    -0.000 C 
BRANCH  29  30
ATOM     30  C   UNL     1      30.959  12.540   7.313  1.00  0.00    -0.000 C 
BRANCH  30  31
ATOM     31  C   UNL     1      32.262  12.551   8.129  1.00  0.00    -0.003 C 
ATOM     32  C   UNL     1      33.307  13.511   7.562  1.00  0.00     0.004 C 
ENDBRANCH  30  31
ENDBRANCH  29  30
ENDBRANCH  28  29
ENDBRANCH  27  28
ENDBRANCH  26  27
ENDBRANCH  25  26
ENDBRANCH  24  25
ENDBRANCH  23  24
ENDBRANCH  22  23
ENDBRANCH  21  22
ENDBRANCH  20  21
ENDBRANCH  19  20
ENDBRANCH  18  19
ENDBRANCH   1  18
TORSDOF 28
ENDMDL
MODEL 5
REMARK VINA RESULT:    -3.964      5.079      7.087
REMARK INTER + INTRA:         -15.216
REMARK INTER:                 -12.721
REMARK INTRA:                  -2.495
REMARK UNBOUND:                -4.765
REMARK SMILES CCCCCCCCCCCCCCCCCCCCCCCCCCCCCC(=O)[O-]
REMARK SMILES IDX 16 1 17 2 18 3 19 4 20 5 21 6 22 7 23 8 24 9 25 10 26 11
REMARK SMILES IDX 27 12 28 13 29 14 30 15 31 16 32 17 15 18 14 19 13 20 12 21
REMARK SMILES IDX 11 22 10 23 9 24 8 25 7 26 6 27 5 28 4 29 3 30 2 31 1 32
REMARK H PARENT
REMARK Flexibility Score: inf
ROOT
ATOM      1  C   UNL     1      22.444  22.115   8.980  1.00  0.00     0.000 C 
ENDROOT
BRANCH   1   2
ATOM      2  C   UNL     1      23.175  20.812   8.598  1.00  0.00     0.000 C 
BRANCH   2   3
ATOM      3  C   UNL     1      22.548  20.026   7.430  1.00  0.00     0.000 C 
BRANCH   3   4
ATOM      4  C   UNL     1      23.562  19.395   6.460  1.00  0.00     0.000 C 
BRANCH   4   5
ATOM      5  C   UNL     1      23.047  18.090   5.830  1.00  0.00     0.000 C 
BRANCH   5   6
ATOM      6  C   UNL     1      23.648  17.823   4.439  1.00  0.00     0.000 C 
BRANCH   6   7
ATOM      7  C   UNL     1      24.562  16.583   4.361  1.00  0.00     0.000 C 
BRANCH   7   8
ATOM      8  C   UNL     1      26.076  16.875   4.420  1.00  0.00     0.000 C 
BRANCH   8   9
ATOM      9  C   UNL     1      26.980  15.742   3.899  1.00  0.00     0.000 C 
BRANCH   9  10
ATOM     10  C   UNL     1      27.554  14.872   5.028  1.00  0.00     0.000 C 
BRANCH  10  11
ATOM     11  C   UNL     1      29.036  14.560   4.777  1.00  0.00     0.000 C 
BRANCH  11  12
ATOM     12  C   UNL     1      29.876  14.562   6.067  1.00  0.00     0.000 C 
BRANCH  12  13
ATOM     13  C   UNL     1      30.791  13.337   6.259  1.00  0.00     0.006 C 
BRANCH  13  14
ATOM     14  C   UNL     1      31.408  13.228   7.667  1.00  0.00     0.053 C 
BRANCH  14  15
ATOM     15  C   UNL     1      32.710  12.481   7.667  1.00  0.00     0.041 C 
ATOM     16  O   UNL     1      33.791  13.093   7.452  1.00  0.00    -0.550 OA
ATOM     17  O   UNL     1      32.734  11.121   7.950  1.00  0.00    -0.550 OA
ENDBRANCH  14  15
ENDBRANCH  13  14
ENDBRANCH  12  13
ENDBRANCH  11  12
ENDBRANCH  10  11
ENDBRANCH   9  10
ENDBRANCH   8   9
ENDBRANCH   7   8
ENDBRANCH   6   7
ENDBRANCH   5   6
ENDBRANCH   4   5
ENDBRANCH   3   4
ENDBRANCH   2   3
ENDBRANCH   1   2
BRANCH   1  18
ATOM     18  C   UNL     1      20.910  22.063   8.858  1.00  0.00     0.000 C 
BRANCH  18  19
ATOM     19  C   UNL     1      20.343  23.229   8.031  1.00  0.00     0.000 C 
BRANCH  19  20
ATOM     20  C   UNL     1      20.042  22.841   6.572  1.00  0.00     0.000 C 
BRANCH  20  21
ATOM     21  C   UNL     1      19.924  21.327   6.301  1.00  0.00     0.000 C 
BRANCH  21  22
ATOM     22  C   UNL     1      18.491  20.764   6.299  1.00  0.00     0.000 C 
BRANCH  22  23
ATOM     23  C   UNL     1      17.440  21.792   6.751  1.00  0.00     0.000 C 
BRANCH  23  24
ATOM     24  C   UNL     1      16.925  21.529   8.178  1.00  0.00    -0.000 C 
BRANCH  24  25
ATOM     25  C   UNL     1      17.731  20.492   8.981  1.00  0.00    -0.000 C 
BRANCH  25  26
ATOM     26  C   UNL     1      17.425  20.536  10.486  1.00  0.00    -0.000 C 
BRANCH  26  27
ATOM     27  C   UNL     1      17.976  21.801  11.167  1.00  0.00    -0.000 C 
BRANCH  27  28
ATOM     28  C   UNL     1      16.877  22.685  11.797  1.00  0.00    -0.000 C 
BRANCH  28  29
ATOM     29  C   UNL     1      16.965  24.170  11.380  1.00  0.00    -0.000 C 
BRANCH  29  30
ATOM     30  C   UNL     1      17.722  24.392  10.056  1.00  0.00    -0.000 C 
BRANCH  30  31
ATOM     31  C   UNL     1      18.456  25.739   9.964  1.00  0.00    -0.003 C 
ATOM     32  C   UNL     1      18.149  26.493   8.672  1.00  0.00     0.004 C 
ENDBRANCH  30  31
ENDBRANCH  29  30
ENDBRANCH  28  29
ENDBRANCH  27  28
ENDBRANCH  26  27
ENDBRANCH  25  26
ENDBRANCH  24  25
ENDBRANCH  23  24
ENDBRANCH  22  23
ENDBRANCH  21  22
ENDBRANCH  20  21
ENDBRANCH  19  20
ENDBRANCH  18  19
ENDBRANCH   1  18
TORSDOF 28
ENDMDL
MODEL 6
REMARK VINA RESULT:    -3.920      4.537     10.092
REMARK INTER + INTRA:         -15.101
REMARK INTER:                 -11.428
REMARK INTRA:                  -3.674
REMARK UNBOUND:                -4.765
REMARK SMILES CCCCCCCCCCCCCCCCCCCCCCCCCCCCCC(=O)[O-]
REMARK SMILES IDX 16 1 17 2 18 3 19 4 20 5 21 6 22 7 23 8 24 9 25 10 26 11
REMARK SMILES IDX 27 12 28 13 29 14 30 15 31 16 32 17 15 18 14 19 13 20 12 21
REMARK SMILES IDX 11 22 10 23 9 24 8 25 7 26 6 27 5 28 4 29 3 30 2 31 1 32
REMARK H PARENT
REMARK Flexibility Score: inf
ROOT
ATOM      1  C   UNL     1      21.615  21.210   8.181  1.00  0.00     0.000 C 
ENDROOT
BRANCH   1   2
ATOM      2  C   UNL     1      21.282  22.350   7.197  1.00  0.00     0.000 C 
BRANCH   2   3
ATOM      3  C   UNL     1      21.385  21.980   5.704  1.00  0.00     0.000 C 
BRANCH   3   4
ATOM      4  C   UNL     1      20.076  21.470   5.075  1.00  0.00     0.000 C 
BRANCH   4   5
ATOM      5  C   UNL     1      20.243  20.106   4.386  1.00  0.00     0.000 C 
BRANCH   5   6
ATOM      6  C   UNL     1      19.219  19.065   4.873  1.00  0.00     0.000 C 
BRANCH   6   7
ATOM      7  C   UNL     1      19.424  18.594   6.327  1.00  0.00     0.000 C 
BRANCH   7   8
ATOM      8  C   UNL     1      18.342  19.053   7.327  1.00  0.00     0.000 C 
BRANCH   8   9
ATOM      9  C   UNL     1      17.060  19.617   6.688  1.00  0.00     0.000 C 
BRANCH   9  10
ATOM     10  C   UNL     1      16.921  21.135   6.873  1.00  0.00     0.000 C 
BRANCH  10  11
ATOM     11  C   UNL     1      17.756  21.620   8.066  1.00  0.00     0.000 C 
BRANCH  11  12
ATOM     12  C   UNL     1      17.317  23.001   8.585  1.00  0.00     0.000 C 
BRANCH  12  13
ATOM     13  C   UNL     1      17.781  24.201   7.736  1.00  0.00     0.006 C 
BRANCH  13  14
ATOM     14  C   UNL     1      19.066  24.876   8.252  1.00  0.00     0.053 C 
BRANCH  14  15
ATOM     15  C   UNL     1      18.784  26.121   9.041  1.00  0.00     0.041 C 
ATOM     16  O   UNL     1      19.074  26.173  10.267  1.00  0.00    -0.550 OA
ATOM     17  O   UNL     1      18.245  27.238   8.414  1.00  0.00    -0.550 OA
ENDBRANCH  14  15
ENDBRANCH  13  14
ENDBRANCH  12  13
ENDBRANCH  11  12
ENDBRANCH  10  11
ENDBRANCH   9  10
ENDBRANCH   8   9
ENDBRANCH   7   8
ENDBRANCH   6   7
ENDBRANCH   5   6
ENDBRANCH   4   5
ENDBRANCH   3   4
ENDBRANCH   2   3
ENDBRANCH   1   2
BRANCH   1  18
ATOM     18  C   UNL     1      22.985  20.540   7.964  1.00  0.00     0.000 C 
BRANCH  18  19
ATOM     19  C   UNL     1      22.884  19.241   7.148  1.00  0.00     0.000 C 
BRANCH  19  20
ATOM     20  C   UNL     1      23.952  19.140   6.044  1.00  0.00     0.000 C 
BRANCH  20  21
ATOM     21  C   UNL     1      23.536  18.338   4.793  1.00  0.00     0.000 C 
BRANCH  21  22
ATOM     22  C   UNL     1      24.228  16.974   4.620  1.00  0.00     0.000 C 
BRANCH  22  23
ATOM     23  C   UNL     1      25.732  17.096   4.319  1.00  0.00     0.000 C 
BRANCH  23  24
ATOM     24  C   UNL     1      26.488  15.767   4.509  1.00  0.00    -0.000 C 
BRANCH  24  25
ATOM     25  C   UNL     1      27.766  15.861   5.362  1.00  0.00    -0.000 C 
BRANCH  25  26
ATOM     26  C   UNL     1      29.041  15.985   4.513  1.00  0.00    -0.000 C 
BRANCH  26  27
ATOM     27  C   UNL     1      29.600  14.619   4.078  1.00  0.00    -0.000 C 
BRANCH  27  28
ATOM     28  C   UNL     1      29.057  13.441   4.915  1.00  0.00    -0.000 C 
BRANCH  28  29
ATOM     29  C   UNL     1      28.133  12.492   4.119  1.00  0.00    -0.000 C 
BRANCH  29  30
ATOM     30  C   UNL     1      27.804  11.186   4.867  1.00  0.00    -0.000 C 
BRANCH  30  31
ATOM     31  C   UNL     1      26.333  11.053   5.293  1.00  0.00    -0.003 C 
ATOM     32  C   UNL     1      25.468  12.210   4.798  1.00  0.00     0.004 C 
ENDBRANCH  30  31
ENDBRANCH  29  30
ENDBRANCH  28  29
ENDBRANCH  27  28
ENDBRANCH  26  27
ENDBRANCH  25  26
ENDBRANCH  24  25
ENDBRANCH  23  24
ENDBRANCH  22  23
ENDBRANCH  21  22
ENDBRANCH  20  21
ENDBRANCH  19  20
ENDBRANCH  18  19
ENDBRANCH   1  18
TORSDOF 28
ENDMDL
MODEL 7
REMARK VINA RESULT:    -3.902      2.808      8.591
REMARK INTER + INTRA:         -15.054
REMARK INTER:                 -12.064
REMARK INTRA:                  -2.990
REMARK UNBOUND:                -4.765
REMARK SMILES CCCCCCCCCCCCCCCCCCCCCCCCCCCCCC(=O)[O-]
REMARK SMILES IDX 16 1 17 2 18 3 19 4 20 5 21 6 22 7 23 8 24 9 25 10 26 11
REMARK SMILES IDX 27 12 28 13 29 14 30 15 31 16 32 17 15 18 14 19 13 20 12 21
REMARK SMILES IDX 11 22 10 23 9 24 8 25 7 26 6 27 5 28 4 29 3 30 2 31 1 32
REMARK H PARENT
REMARK Flexibility Score: inf
ROOT
ATOM      1  C   UNL     1      21.461  21.778   8.374  1.00  0.00     0.000 C 
ENDROOT
BRANCH   1   2
ATOM      2  C   UNL     1      21.720  22.802   9.499  1.00  0.00     0.000 C 
BRANCH   2   3
ATOM      3  C   UNL     1      20.461  23.299  10.236  1.00  0.00     0.000 C 
BRANCH   3   4
ATOM      4  C   UNL     1      19.645  24.359   9.475  1.00  0.00     0.000 C 
BRANCH   4   5
ATOM      5  C   UNL     1      18.181  23.941   9.264  1.00  0.00     0.000 C 
BRANCH   5   6
ATOM      6  C   UNL     1      17.478  24.768   8.173  1.00  0.00     0.000 C 
BRANCH   6   7
ATOM      7  C   UNL     1      17.393  24.076   6.797  1.00  0.00     0.000 C 
BRANCH   7   8
ATOM      8  C   UNL     1      17.873  22.610   6.765  1.00  0.00     0.000 C 
BRANCH   8   9
ATOM      9  C   UNL     1      19.264  22.393   6.141  1.00  0.00     0.000 C 
BRANCH   9  10
ATOM     10  C   UNL     1      19.195  22.000   4.657  1.00  0.00     0.000 C 
BRANCH  10  11
ATOM     11  C   UNL     1      19.625  20.540   4.457  1.00  0.00     0.000 C 
BRANCH  11  12
ATOM     12  C   UNL     1      18.435  19.566   4.402  1.00  0.00     0.000 C 
BRANCH  12  13
ATOM     13  C   UNL     1      18.044  18.926   5.748  1.00  0.00     0.006 C 
BRANCH  13  14
ATOM     14  C   UNL     1      19.214  18.247   6.485  1.00  0.00     0.053 C 
BRANCH  14  15
ATOM     15  C   UNL     1      19.098  16.751   6.493  1.00  0.00     0.041 C 
ATOM     16  O   UNL     1      19.981  16.051   7.057  1.00  0.00    -0.550 OA
ATOM     17  O   UNL     1      17.993  16.134   5.920  1.00  0.00    -0.550 OA
ENDBRANCH  14  15
ENDBRANCH  13  14
ENDBRANCH  12  13
ENDBRANCH  11  12
ENDBRANCH  10  11
ENDBRANCH   9  10
ENDBRANCH   8   9
ENDBRANCH   7   8
ENDBRANCH   6   7
ENDBRANCH   5   6
ENDBRANCH   4   5
ENDBRANCH   3   4
ENDBRANCH   2   3
ENDBRANCH   1   2
BRANCH   1  18
ATOM     18  C   UNL     1      22.657  20.871   8.030  1.00  0.00     0.000 C 
BRANCH  18  19
ATOM     19  C   UNL     1      22.411  20.021   6.772  1.00  0.00     0.000 C 
BRANCH  19  20
ATOM     20  C   UNL     1      23.559  19.040   6.474  1.00  0.00     0.000 C 
BRANCH  20  21
ATOM     21  C   UNL     1      23.981  18.946   4.992  1.00  0.00     0.000 C 
BRANCH  21  22
ATOM     22  C   UNL     1      24.040  17.522   4.410  1.00  0.00     0.000 C 
BRANCH  22  23
ATOM     23  C   UNL     1      22.901  16.618   4.916  1.00  0.00     0.000 C 
BRANCH  23  24
ATOM     24  C   UNL     1      23.252  15.121   4.839  1.00  0.00    -0.000 C 
BRANCH  24  25
ATOM     25  C   UNL     1      24.748  14.810   4.652  1.00  0.00    -0.000 C 
BRANCH  25  26
ATOM     26  C   UNL     1      25.011  13.337   4.304  1.00  0.00    -0.000 C 
BRANCH  26  27
ATOM     27  C   UNL     1      26.176  12.735   5.110  1.00  0.00    -0.000 C 
BRANCH  27  28
ATOM     28  C   UNL     1      27.526  12.779   4.360  1.00  0.00    -0.000 C 
BRANCH  28  29
ATOM     29  C   UNL     1      28.099  14.206   4.204  1.00  0.00    -0.000 C 
BRANCH  29  30
ATOM     30  C   UNL     1      29.016  14.629   5.367  1.00  0.00    -0.000 C 
BRANCH  30  31
ATOM     31  C   UNL     1      28.763  16.053   5.887  1.00  0.00    -0.003 C 
ATOM     32  C   UNL     1      27.721  16.808   5.063  1.00  0.00     0.004 C 
ENDBRANCH  30  31
ENDBRANCH  29  30
ENDBRANCH  28  29
ENDBRANCH  27  28
ENDBRANCH  26  27
ENDBRANCH  25  26
ENDBRANCH  24  25
ENDBRANCH  23  24
ENDBRANCH  22  23
ENDBRANCH  21  22
ENDBRANCH  20  21
ENDBRANCH  19  20
ENDBRANCH  18  19
ENDBRANCH   1  18
TORSDOF 28
ENDMDL
MODEL 8
REMARK VINA RESULT:    -3.872      6.840      9.473
REMARK INTER + INTRA:         -14.976
REMARK INTER:                 -12.559
REMARK INTRA:                  -2.417
REMARK UNBOUND:                -4.765
REMARK SMILES CCCCCCCCCCCCCCCCCCCCCCCCCCCCCC(=O)[O-]
REMARK SMILES IDX 16 1 17 2 18 3 19 4 20 5 21 6 22 7 23 8 24 9 25 10 26 11
REMARK SMILES IDX 27 12 28 13 29 14 30 15 31 16 32 17 15 18 14 19 13 20 12 21
REMARK SMILES IDX 11 22 10 23 9 24 8 25 7 26 6 27 5 28 4 29 3 30 2 31 1 32
REMARK H PARENT
REMARK Flexibility Score: inf
ROOT
ATOM      1  C   UNL     1      25.155  18.226   4.114  1.00  0.00     0.000 C 
ENDROOT
BRANCH   1   2
ATOM      2  C   UNL     1      25.903  16.880   4.209  1.00  0.00     0.000 C 
BRANCH   2   3
ATOM      3  C   UNL     1      26.907  16.769   5.373  1.00  0.00     0.000 C 
BRANCH   3   4
ATOM      4  C   UNL     1      28.375  16.594   4.943  1.00  0.00     0.000 C 
BRANCH   4   5
ATOM      5  C   UNL     1      29.057  15.404   5.638  1.00  0.00     0.000 C 
BRANCH   5   6
ATOM      6  C   UNL     1      29.619  14.376   4.640  1.00  0.00     0.000 C 
BRANCH   6   7
ATOM      7  C   UNL     1      28.801  13.073   4.530  1.00  0.00     0.000 C 
BRANCH   7   8
ATOM      8  C   UNL     1      29.634  11.781   4.396  1.00  0.00     0.000 C 
BRANCH   8   9
ATOM      9  C   UNL     1      29.540  10.817   5.593  1.00  0.00     0.000 C 
BRANCH   9  10
ATOM     10  C   UNL     1      30.917  10.374   6.109  1.00  0.00     0.000 C 
BRANCH  10  11
ATOM     11  C   UNL     1      31.201  10.973   7.494  1.00  0.00     0.000 C 
BRANCH  11  12
ATOM     12  C   UNL     1      31.190  12.512   7.496  1.00  0.00     0.000 C 
BRANCH  12  13
ATOM     13  C   UNL     1      32.305  13.177   8.326  1.00  0.00     0.006 C 
BRANCH  13  14
ATOM     14  C   UNL     1      33.503  13.668   7.491  1.00  0.00     0.053 C 
BRANCH  14  15
ATOM     15  C   UNL     1      34.652  12.704   7.515  1.00  0.00     0.041 C 
ATOM     16  O   UNL     1      35.586  12.812   6.675  1.00  0.00    -0.550 OA
ATOM     17  O   UNL     1      34.716  11.717   8.491  1.00  0.00    -0.550 OA
ENDBRANCH  14  15
ENDBRANCH  13  14
ENDBRANCH  12  13
ENDBRANCH  11  12
ENDBRANCH  10  11
ENDBRANCH   9  10
ENDBRANCH   8   9
ENDBRANCH   7   8
ENDBRANCH   6   7
ENDBRANCH   5   6
ENDBRANCH   4   5
ENDBRANCH   3   4
ENDBRANCH   2   3
ENDBRANCH   1   2
BRANCH   1  18
ATOM     18  C   UNL     1      24.400  18.644   5.389  1.00  0.00     0.000 C 
BRANCH  18  19
ATOM     19  C   UNL     1      22.893  18.346   5.308  1.00  0.00     0.000 C 
BRANCH  19  20
ATOM     20  C   UNL     1      22.048  19.598   5.010  1.00  0.00     0.000 C 
BRANCH  20  21
ATOM     21  C   UNL     1      20.983  19.430   3.906  1.00  0.00     0.000 C 
BRANCH  21  22
ATOM     22  C   UNL     1      19.831  20.451   3.935  1.00  0.00     0.000 C 
BRANCH  22  23
ATOM     23  C   UNL     1      19.505  20.949   5.355  1.00  0.00     0.000 C 
BRANCH  23  24
ATOM     24  C   UNL     1      18.965  22.391   5.370  1.00  0.00    -0.000 C 
BRANCH  24  25
ATOM     25  C   UNL     1      17.691  22.600   6.209  1.00  0.00    -0.000 C 
BRANCH  25  26
ATOM     26  C   UNL     1      17.561  24.033   6.747  1.00  0.00    -0.000 C 
BRANCH  26  27
ATOM     27  C   UNL     1      17.012  24.080   8.184  1.00  0.00    -0.000 C 
BRANCH  27  28
ATOM     28  C   UNL     1      17.993  24.718   9.192  1.00  0.00    -0.000 C 
BRANCH  28  29
ATOM     29  C   UNL     1      19.446  24.803   8.671  1.00  0.00    -0.000 C 
BRANCH  29  30
ATOM     30  C   UNL     1      20.316  23.601   9.082  1.00  0.00    -0.000 C 
BRANCH  30  31
ATOM     31  C   UNL     1      21.282  23.115   7.990  1.00  0.00    -0.003 C 
ATOM     32  C   UNL     1      21.903  21.757   8.311  1.00  0.00     0.004 C 
ENDBRANCH  30  31
ENDBRANCH  29  30
ENDBRANCH  28  29
ENDBRANCH  27  28
ENDBRANCH  26  27
ENDBRANCH  25  26
ENDBRANCH  24  25
ENDBRANCH  23  24
ENDBRANCH  22  23
ENDBRANCH  21  22
ENDBRANCH  20  21
ENDBRANCH  19  20
ENDBRANCH  18  19
ENDBRANCH   1  18
TORSDOF 28
ENDMDL
MODEL 9
REMARK VINA RESULT:    -3.832      5.217     10.726
REMARK INTER + INTRA:         -14.868
REMARK INTER:                 -11.330
REMARK INTRA:                  -3.538
REMARK UNBOUND:                -4.765
REMARK SMILES CCCCCCCCCCCCCCCCCCCCCCCCCCCCCC(=O)[O-]
REMARK SMILES IDX 16 1 17 2 18 3 19 4 20 5 21 6 22 7 23 8 24 9 25 10 26 11
REMARK SMILES IDX 27 12 28 13 29 14 30 15 31 16 32 17 15 18 14 19 13 20 12 21
REMARK SMILES IDX 11 22 10 23 9 24 8 25 7 26 6 27 5 28 4 29 3 30 2 31 1 32
REMARK H PARENT
REMARK Flexibility Score: inf
ROOT
ATOM      1  C   UNL     1      21.769  20.905   7.842  1.00  0.00     0.000 C 
ENDROOT
BRANCH   1   2
ATOM      2  C   UNL     1      21.363  22.002   6.837  1.00  0.00     0.000 C 
BRANCH   2   3
ATOM      3  C   UNL     1      21.510  21.617   5.351  1.00  0.00     0.000 C 
BRANCH   3   4
ATOM      4  C   UNL     1      20.183  21.332   4.626  1.00  0.00     0.000 C 
BRANCH   4   5
ATOM      5  C   UNL     1      20.125  19.914   4.034  1.00  0.00     0.000 C 
BRANCH   5   6
ATOM      6  C   UNL     1      19.077  19.024   4.724  1.00  0.00     0.000 C 
BRANCH   6   7
ATOM      7  C   UNL     1      19.459  18.567   6.148  1.00  0.00     0.000 C 
BRANCH   7   8
ATOM      8  C   UNL     1      18.483  19.001   7.262  1.00  0.00     0.000 C 
BRANCH   8   9
ATOM      9  C   UNL     1      17.472  20.089   6.858  1.00  0.00     0.000 C 
BRANCH   9  10
ATOM     10  C   UNL     1      17.773  21.450   7.503  1.00  0.00     0.000 C 
BRANCH  10  11
ATOM     11  C   UNL     1      18.219  21.278   8.962  1.00  0.00     0.000 C 
BRANCH  11  12
ATOM     12  C   UNL     1      18.289  22.610   9.730  1.00  0.00     0.000 C 
BRANCH  12  13
ATOM     13  C   UNL     1      19.495  23.505   9.386  1.00  0.00     0.006 C 
BRANCH  13  14
ATOM     14  C   UNL     1      19.177  24.630   8.383  1.00  0.00     0.053 C 
BRANCH  14  15
ATOM     15  C   UNL     1      18.884  25.937   9.059  1.00  0.00     0.041 C 
ATOM     16  O   UNL     1      18.399  26.896   8.400  1.00  0.00    -0.550 OA
ATOM     17  O   UNL     1      19.104  26.082  10.423  1.00  0.00    -0.550 OA
ENDBRANCH  14  15
ENDBRANCH  13  14
ENDBRANCH  12  13
ENDBRANCH  11  12
ENDBRANCH  10  11
ENDBRANCH   9  10
ENDBRANCH   8   9
ENDBRANCH   7   8
ENDBRANCH   6   7
ENDBRANCH   5   6
ENDBRANCH   4   5
ENDBRANCH   3   4
ENDBRANCH   2   3
ENDBRANCH   1   2
BRANCH   1  18
ATOM     18  C   UNL     1      23.149  20.269   7.592  1.00  0.00     0.000 C 
BRANCH  18  19
ATOM     19  C   UNL     1      23.062  18.979   6.759  1.00  0.00     0.000 C 
BRANCH  19  20
ATOM     20  C   UNL     1      23.967  19.005   5.514  1.00  0.00     0.000 C 
BRANCH  20  21
ATOM     21  C   UNL     1      23.648  17.943   4.441  1.00  0.00     0.000 C 
BRANCH  21  22
ATOM     22  C   UNL     1      24.549  16.695   4.457  1.00  0.00     0.000 C 
BRANCH  22  23
ATOM     23  C   UNL     1      26.042  17.028   4.286  1.00  0.00     0.000 C 
BRANCH  23  24
ATOM     24  C   UNL     1      26.915  16.438   5.409  1.00  0.00    -0.000 C 
BRANCH  24  25
ATOM     25  C   UNL     1      28.323  15.993   4.973  1.00  0.00    -0.000 C 
BRANCH  25  26
ATOM     26  C   UNL     1      28.357  14.548   4.453  1.00  0.00    -0.000 C 
BRANCH  26  27
ATOM     27  C   UNL     1      29.740  13.891   4.612  1.00  0.00    -0.000 C 
BRANCH  27  28
ATOM     28  C   UNL     1      30.428  14.233   5.952  1.00  0.00    -0.000 C 
BRANCH  28  29
ATOM     29  C   UNL     1      31.043  13.005   6.660  1.00  0.00    -0.000 C 
BRANCH  29  30
ATOM     30  C   UNL     1      30.395  11.670   6.247  1.00  0.00    -0.000 C 
BRANCH  30  31
ATOM     31  C   UNL     1      31.056  10.427   6.864  1.00  0.00    -0.003 C 
ATOM     32  C   UNL     1      31.548  10.665   8.290  1.00  0.00     0.004 C 
ENDBRANCH  30  31
ENDBRANCH  29  30
ENDBRANCH  28  29
ENDBRANCH  27  28
ENDBRANCH  26  27
ENDBRANCH  25  26
ENDBRANCH  24  25
ENDBRANCH  23  24
ENDBRANCH  22  23
ENDBRANCH  21  22
ENDBRANCH  20  21
ENDBRANCH  19  20
ENDBRANCH  18  19
ENDBRANCH   1  18
TORSDOF 28
ENDMDL
