MODEL 1
REMARK VINA RESULT:    -4.310      0.000      0.000
REMARK INTER + INTRA:          -6.811
REMARK INTER:                  -5.822
REMARK INTRA:                  -0.989
REMARK UNBOUND:                -0.989
REMARK SMILES C[C@H](O)[C@@H](O)[C@H](O)[C@H](O)C=O
REMARK SMILES IDX 4 1 2 2 1 3 3 4 6 6 8 7 10 8 11 9 9 10 7 12 5 14
REMARK H PARENT 3 5 9 11 7 13 5 15
REMARK Flexibility Score: inf
ROOT
ATOM      1  C   UNL     1      49.909  11.092  -7.320  1.00  0.00     0.174 C 
ENDROOT
BRANCH   1   2
ATOM      2  C   UNL     1      48.890  10.609  -6.255  1.00  0.00     0.142 C 
ATOM      3  C   UNL     1      49.533   9.685  -5.211  1.00  0.00     0.041 C 
BRANCH   2   4
ATOM      4  O   UNL     1      47.854   9.916  -6.902  1.00  0.00    -0.391 OA
ATOM      5  H   UNL     1      48.271   9.162  -7.395  1.00  0.00     0.211 HD
ENDBRANCH   2   4
ENDBRANCH   1   2
BRANCH   1   6
ATOM      6  C   UNL     1      49.403  12.296  -8.165  1.00  0.00     0.181 C 
BRANCH   6   7
ATOM      7  C   UNL     1      49.436  12.002  -9.689  1.00  0.00     0.209 C 
BRANCH   7   8
ATOM      8  C   UNL     1      48.091  11.540 -10.190  1.00  0.00     0.258 C 
ATOM      9  O   UNL     1      47.586  10.512  -9.766  1.00  0.00    -0.300 OA
ENDBRANCH   7   8
BRANCH   7  10
ATOM     10  O   UNL     1      49.864  13.124 -10.421  1.00  0.00    -0.383 OA
ATOM     11  H   UNL     1      50.553  12.819 -11.068  1.00  0.00     0.211 HD
ENDBRANCH   7  10
ENDBRANCH   6   7
BRANCH   6  12
ATOM     12  O   UNL     1      48.117  12.701  -7.756  1.00  0.00    -0.387 OA
ATOM     13  H   UNL     1      48.219  13.492  -7.166  1.00  0.00     0.211 HD
ENDBRANCH   6  12
ENDBRANCH   1   6
BRANCH   1  14
ATOM     14  O   UNL     1      50.293  10.023  -8.152  1.00  0.00    -0.388 OA
ATOM     15  H   UNL     1      51.176  10.245  -8.547  1.00  0.00     0.211 HD
ENDBRANCH   1  14
TORSDOF 8
ENDMDL
MODEL 2
REMARK VINA RESULT:    -4.292     21.117     23.412
REMARK INTER + INTRA:          -6.787
REMARK INTER:                  -5.808
REMARK INTRA:                  -0.979
REMARK UNBOUND:                -0.989
REMARK SMILES C[C@H](O)[C@@H](O)[C@H](O)[C@H](O)C=O
REMARK SMILES IDX 4 1 2 2 1 3 3 4 6 6 8 7 10 8 11 9 9 10 7 12 5 14
REMARK H PARENT 3 5 9 11 7 13 5 15
REMARK Flexibility Score: inf
ROOT
ATOM      1  C   UNL     1      34.950  -0.373   6.045  1.00  0.00     0.174 C 
ENDROOT
BRANCH   1   2
ATOM      2  C   UNL     1      35.686   0.371   4.900  1.00  0.00     0.142 C 
ATOM      3  C   UNL     1      36.741  -0.511   4.217  1.00  0.00     0.041 C 
BRANCH   2   4
ATOM      4  O   UNL     1      36.315   1.509   5.432  1.00  0.00    -0.391 OA
ATOM      5  H   UNL     1      36.409   1.360   6.410  1.00  0.00     0.211 HD
ENDBRANCH   2   4
ENDBRANCH   1   2
BRANCH   1   6
ATOM      6  C   UNL     1      33.669   0.357   6.541  1.00  0.00     0.181 C 
BRANCH   6   7
ATOM      7  C   UNL     1      33.677   0.583   8.077  1.00  0.00     0.209 C 
BRANCH   7   8
ATOM      8  C   UNL     1      34.178   1.961   8.430  1.00  0.00     0.258 C 
ATOM      9  O   UNL     1      35.294   2.324   8.093  1.00  0.00    -0.300 OA
ENDBRANCH   7   8
BRANCH   7  10
ATOM     10  O   UNL     1      32.402   0.376   8.633  1.00  0.00    -0.383 OA
ATOM     11  H   UNL     1      32.049   1.260   8.919  1.00  0.00     0.211 HD
ENDBRANCH   7  10
ENDBRANCH   6   7
BRANCH   6  12
ATOM     12  O   UNL     1      33.477   1.572   5.853  1.00  0.00    -0.387 OA
ATOM     13  H   UNL     1      32.916   1.386   5.057  1.00  0.00     0.211 HD
ENDBRANCH   6  12
ENDBRANCH   1   6
BRANCH   1  14
ATOM     14  O   UNL     1      35.832  -0.620   7.116  1.00  0.00    -0.388 OA
ATOM     15  H   UNL     1      35.673   0.073   7.808  1.00  0.00     0.211 HD
ENDBRANCH   1  14
TORSDOF 8
ENDMDL
MODEL 3
REMARK VINA RESULT:    -4.252     21.081     23.359
REMARK INTER + INTRA:          -6.733
REMARK INTER:                  -5.747
REMARK INTRA:                  -0.986
REMARK UNBOUND:                -0.989
REMARK SMILES C[C@H](O)[C@@H](O)[C@H](O)[C@H](O)C=O
REMARK SMILES IDX 4 1 2 2 1 3 3 4 6 6 8 7 10 8 11 9 9 10 7 12 5 14
REMARK H PARENT 3 5 9 11 7 13 5 15
REMARK Flexibility Score: inf
ROOT
ATOM      1  C   UNL     1      34.307   3.194   7.636  1.00  0.00     0.174 C 
ENDROOT
BRANCH   1   2
ATOM      2  C   UNL     1      35.405   3.739   6.685  1.00  0.00     0.142 C 
ATOM      3  C   UNL     1      35.215   5.230   6.372  1.00  0.00     0.041 C 
BRANCH   2   4
ATOM      4  O   UNL     1      35.364   3.011   5.485  1.00  0.00    -0.391 OA
ATOM      5  H   UNL     1      35.684   2.093   5.690  1.00  0.00     0.211 HD
ENDBRANCH   2   4
ENDBRANCH   1   2
BRANCH   1   6
ATOM      6  C   UNL     1      34.629   1.788   8.217  1.00  0.00     0.181 C 
BRANCH   6   7
ATOM      7  C   UNL     1      33.494   0.764   7.944  1.00  0.00     0.209 C 
BRANCH   7   8
ATOM      8  C   UNL     1      33.783  -0.065   6.718  1.00  0.00     0.258 C 
ATOM      9  O   UNL     1      33.921   0.463   5.626  1.00  0.00    -0.300 OA
ENDBRANCH   7   8
BRANCH   7  10
ATOM     10  O   UNL     1      33.279  -0.074   9.053  1.00  0.00    -0.383 OA
ATOM     11  H   UNL     1      32.325  -0.351   9.044  1.00  0.00     0.211 HD
ENDBRANCH   7  10
ENDBRANCH   6   7
BRANCH   6  12
ATOM     12  O   UNL     1      35.865   1.310   7.740  1.00  0.00    -0.387 OA
ATOM     13  H   UNL     1      35.802   1.231   6.754  1.00  0.00     0.211 HD
ENDBRANCH   6  12
ENDBRANCH   1   6
BRANCH   1  14
ATOM     14  O   UNL     1      33.055   3.196   6.992  1.00  0.00    -0.388 OA
ATOM     15  H   UNL     1      32.352   3.261   7.690  1.00  0.00     0.211 HD
ENDBRANCH   1  14
TORSDOF 8
ENDMDL
MODEL 4
REMARK VINA RESULT:    -4.180      1.891      3.576
REMARK INTER + INTRA:          -6.636
REMARK INTER:                  -5.645
REMARK INTRA:                  -0.991
REMARK UNBOUND:                -0.989
REMARK SMILES C[C@H](O)[C@@H](O)[C@H](O)[C@H](O)C=O
REMARK SMILES IDX 4 1 2 2 1 3 3 4 6 6 8 7 10 8 11 9 9 10 7 12 5 14
REMARK H PARENT 3 5 9 11 7 13 5 15
REMARK Flexibility Score: inf
ROOT
ATOM      1  C   UNL     1      46.593  11.724  -9.783  1.00  0.00     0.174 C 
ENDROOT
BRANCH   1   2
ATOM      2  C   UNL     1      45.736  10.832  -8.849  1.00  0.00     0.142 C 
ATOM      3  C   UNL     1      44.248  11.207  -8.890  1.00  0.00     0.041 C 
BRANCH   2   4
ATOM      4  O   UNL     1      46.206  10.972  -7.533  1.00  0.00    -0.391 OA
ATOM      5  H   UNL     1      45.433  11.252  -6.975  1.00  0.00     0.211 HD
ENDBRANCH   2   4
ENDBRANCH   1   2
BRANCH   1   6
ATOM      6  C   UNL     1      48.035  11.186 -10.009  1.00  0.00     0.181 C 
BRANCH   6   7
ATOM      7  C   UNL     1      49.120  12.229  -9.628  1.00  0.00     0.209 C 
BRANCH   7   8
ATOM      8  C   UNL     1      49.633  12.005  -8.228  1.00  0.00     0.258 C 
ATOM      9  O   UNL     1      48.889  12.112  -7.266  1.00  0.00    -0.300 OA
ENDBRANCH   7   8
BRANCH   7  10
ATOM     10  O   UNL     1      50.189  12.216 -10.542  1.00  0.00    -0.383 OA
ATOM     11  H   UNL     1      50.300  13.138 -10.893  1.00  0.00     0.211 HD
ENDBRANCH   7  10
ENDBRANCH   6   7
BRANCH   6  12
ATOM     12  O   UNL     1      48.238   9.973  -9.323  1.00  0.00    -0.387 OA
ATOM     13  H   UNL     1      47.392   9.456  -9.358  1.00  0.00     0.211 HD
ENDBRANCH   6  12
ENDBRANCH   1   6
BRANCH   1  14
ATOM     14  O   UNL     1      46.623  13.049  -9.305  1.00  0.00    -0.388 OA
ATOM     15  H   UNL     1      47.475  13.177  -8.813  1.00  0.00     0.211 HD
ENDBRANCH   1  14
TORSDOF 8
ENDMDL
MODEL 5
REMARK VINA RESULT:    -4.135     14.406     15.299
REMARK INTER + INTRA:          -6.575
REMARK INTER:                  -5.828
REMARK INTRA:                  -0.747
REMARK UNBOUND:                -0.989
REMARK SMILES C[C@H](O)[C@@H](O)[C@H](O)[C@H](O)C=O
REMARK SMILES IDX 4 1 2 2 1 3 3 4 6 6 8 7 10 8 11 9 9 10 7 12 5 14
REMARK H PARENT 3 5 9 11 7 13 5 15
REMARK Flexibility Score: inf
ROOT
ATOM      1  C   UNL     1      39.721   5.374   3.187  1.00  0.00     0.174 C 
ENDROOT
BRANCH   1   2
ATOM      2  C   UNL     1      40.180   3.917   2.914  1.00  0.00     0.142 C 
ATOM      3  C   UNL     1      41.208   3.429   3.945  1.00  0.00     0.041 C 
BRANCH   2   4
ATOM      4  O   UNL     1      40.752   3.856   1.633  1.00  0.00    -0.391 OA
ATOM      5  H   UNL     1      41.282   3.017   1.591  1.00  0.00     0.211 HD
ENDBRANCH   2   4
ENDBRANCH   1   2
BRANCH   1   6
ATOM      6  C   UNL     1      39.339   6.158   1.899  1.00  0.00     0.181 C 
BRANCH   6   7
ATOM      7  C   UNL     1      38.203   7.187   2.151  1.00  0.00     0.209 C 
BRANCH   7   8
ATOM      8  C   UNL     1      38.748   8.586   2.291  1.00  0.00     0.258 C 
ATOM      9  O   UNL     1      39.644   8.830   3.084  1.00  0.00    -0.300 OA
ENDBRANCH   7   8
BRANCH   7  10
ATOM     10  O   UNL     1      37.236   7.146   1.131  1.00  0.00    -0.383 OA
ATOM     11  H   UNL     1      37.702   7.288   0.266  1.00  0.00     0.211 HD
ENDBRANCH   7  10
ENDBRANCH   6   7
BRANCH   6  12
ATOM     12  O   UNL     1      40.466   6.780   1.328  1.00  0.00    -0.387 OA
ATOM     13  H   UNL     1      40.436   7.743   1.565  1.00  0.00     0.211 HD
ENDBRANCH   6  12
ENDBRANCH   1   6
BRANCH   1  14
ATOM     14  O   UNL     1      40.702   6.068   3.922  1.00  0.00    -0.388 OA
ATOM     15  H   UNL     1      41.593   5.780   3.591  1.00  0.00     0.211 HD
ENDBRANCH   1  14
TORSDOF 8
ENDMDL
MODEL 6
REMARK VINA RESULT:    -4.107      2.142      3.552
REMARK INTER + INTRA:          -6.537
REMARK INTER:                  -6.141
REMARK INTRA:                  -0.395
REMARK UNBOUND:                -0.989
REMARK SMILES C[C@H](O)[C@@H](O)[C@H](O)[C@H](O)C=O
REMARK SMILES IDX 4 1 2 2 1 3 3 4 6 6 8 7 10 8 11 9 9 10 7 12 5 14
REMARK H PARENT 3 5 9 11 7 13 5 15
REMARK Flexibility Score: inf
ROOT
ATOM      1  C   UNL     1      48.385  11.972  -9.759  1.00  0.00     0.174 C 
ENDROOT
BRANCH   1   2
ATOM      2  C   UNL     1      49.608  12.013  -8.805  1.00  0.00     0.142 C 
ATOM      3  C   UNL     1      49.206  11.827  -7.335  1.00  0.00     0.041 C 
BRANCH   2   4
ATOM      4  O   UNL     1      50.252  13.253  -8.950  1.00  0.00    -0.391 OA
ATOM      5  H   UNL     1      49.555  13.917  -9.194  1.00  0.00     0.211 HD
ENDBRANCH   2   4
ENDBRANCH   1   2
BRANCH   1   6
ATOM      6  C   UNL     1      47.098  11.402  -9.097  1.00  0.00     0.181 C 
BRANCH   6   7
ATOM      7  C   UNL     1      45.934  12.430  -9.092  1.00  0.00     0.209 C 
BRANCH   7   8
ATOM      8  C   UNL     1      44.638  11.791  -8.661  1.00  0.00     0.258 C 
ATOM      9  O   UNL     1      43.879  11.302  -9.484  1.00  0.00    -0.300 OA
ENDBRANCH   7   8
BRANCH   7  10
ATOM     10  O   UNL     1      46.226  13.533  -8.269  1.00  0.00    -0.383 OA
ATOM     11  H   UNL     1      45.365  13.958  -8.016  1.00  0.00     0.211 HD
ENDBRANCH   7  10
ENDBRANCH   6   7
BRANCH   6  12
ATOM     12  O   UNL     1      46.704  10.195  -9.707  1.00  0.00    -0.387 OA
ATOM     13  H   UNL     1      47.132   9.449  -9.213  1.00  0.00     0.211 HD
ENDBRANCH   6  12
ENDBRANCH   1   6
BRANCH   1  14
ATOM     14  O   UNL     1      48.702  11.261 -10.933  1.00  0.00    -0.388 OA
ATOM     15  H   UNL     1      48.761  10.298 -10.700  1.00  0.00     0.211 HD
ENDBRANCH   1  14
TORSDOF 8
ENDMDL
MODEL 7
REMARK VINA RESULT:    -4.037      1.464      3.784
REMARK INTER + INTRA:          -6.442
REMARK INTER:                  -6.060
REMARK INTRA:                  -0.382
REMARK UNBOUND:                -0.989
REMARK SMILES C[C@H](O)[C@@H](O)[C@H](O)[C@H](O)C=O
REMARK SMILES IDX 4 1 2 2 1 3 3 4 6 6 8 7 10 8 11 9 9 10 7 12 5 14
REMARK H PARENT 3 5 9 11 7 13 5 15
REMARK Flexibility Score: inf
ROOT
ATOM      1  C   UNL     1      48.361  11.256  -9.421  1.00  0.00     0.174 C 
ENDROOT
BRANCH   1   2
ATOM      2  C   UNL     1      46.853  11.620  -9.404  1.00  0.00     0.142 C 
ATOM      3  C   UNL     1      46.077  10.940 -10.541  1.00  0.00     0.041 C 
BRANCH   2   4
ATOM      4  O   UNL     1      46.723  13.012  -9.530  1.00  0.00    -0.391 OA
ATOM      5  H   UNL     1      47.539  13.418  -9.133  1.00  0.00     0.211 HD
ENDBRANCH   2   4
ENDBRANCH   1   2
BRANCH   1   6
ATOM      6  C   UNL     1      49.227  12.144  -8.484  1.00  0.00     0.181 C 
BRANCH   6   7
ATOM      7  C   UNL     1      50.175  11.303  -7.586  1.00  0.00     0.209 C 
BRANCH   7   8
ATOM      8  C   UNL     1      49.704  11.284  -6.154  1.00  0.00     0.258 C 
ATOM      9  O   UNL     1      48.818  12.036  -5.778  1.00  0.00    -0.300 OA
ENDBRANCH   7   8
BRANCH   7  10
ATOM     10  O   UNL     1      50.307   9.988  -8.068  1.00  0.00    -0.383 OA
ATOM     11  H   UNL     1      49.422   9.702  -8.415  1.00  0.00     0.211 HD
ENDBRANCH   7  10
ENDBRANCH   6   7
BRANCH   6  12
ATOM     12  O   UNL     1      49.949  13.106  -9.218  1.00  0.00    -0.387 OA
ATOM     13  H   UNL     1      49.394  13.377  -9.994  1.00  0.00     0.211 HD
ENDBRANCH   6  12
ENDBRANCH   1   6
BRANCH   1  14
ATOM     14  O   UNL     1      48.857  11.285 -10.739  1.00  0.00    -0.388 OA
ATOM     15  H   UNL     1      49.620  10.651 -10.793  1.00  0.00     0.211 HD
ENDBRANCH   1  14
TORSDOF 8
ENDMDL
MODEL 8
REMARK VINA RESULT:    -3.977      1.761      2.537
REMARK INTER + INTRA:          -6.362
REMARK INTER:                  -5.762
REMARK INTRA:                  -0.600
REMARK UNBOUND:                -0.989
REMARK SMILES C[C@H](O)[C@@H](O)[C@H](O)[C@H](O)C=O
REMARK SMILES IDX 4 1 2 2 1 3 3 4 6 6 8 7 10 8 11 9 9 10 7 12 5 14
REMARK H PARENT 3 5 9 11 7 13 5 15
REMARK Flexibility Score: inf
ROOT
ATOM      1  C   UNL     1      49.164  12.368  -8.436  1.00  0.00     0.174 C 
ENDROOT
BRANCH   1   2
ATOM      2  C   UNL     1      49.628  11.637  -7.149  1.00  0.00     0.142 C 
ATOM      3  C   UNL     1      49.978  10.166  -7.410  1.00  0.00     0.041 C 
BRANCH   2   4
ATOM      4  O   UNL     1      48.597  11.701  -6.197  1.00  0.00    -0.391 OA
ATOM      5  H   UNL     1      47.751  11.486  -6.670  1.00  0.00     0.211 HD
ENDBRANCH   2   4
ENDBRANCH   1   2
BRANCH   1   6
ATOM      6  C   UNL     1      48.569  11.417  -9.513  1.00  0.00     0.181 C 
BRANCH   6   7
ATOM      7  C   UNL     1      47.031  11.580  -9.658  1.00  0.00     0.209 C 
BRANCH   7   8
ATOM      8  C   UNL     1      46.289  10.537  -8.860  1.00  0.00     0.258 C 
ATOM      9  O   UNL     1      46.174  10.642  -7.650  1.00  0.00    -0.300 OA
ENDBRANCH   7   8
BRANCH   7  10
ATOM     10  O   UNL     1      46.613  12.868  -9.276  1.00  0.00    -0.383 OA
ATOM     11  H   UNL     1      46.484  13.402 -10.103  1.00  0.00     0.211 HD
ENDBRANCH   7  10
ENDBRANCH   6   7
BRANCH   6  12
ATOM     12  O   UNL     1      49.213  11.586 -10.754  1.00  0.00    -0.387 OA
ATOM     13  H   UNL     1      49.787  12.393 -10.693  1.00  0.00     0.211 HD
ENDBRANCH   6  12
ENDBRANCH   1   6
BRANCH   1  14
ATOM     14  O   UNL     1      50.218  13.134  -8.972  1.00  0.00    -0.388 OA
ATOM     15  H   UNL     1      50.358  13.918  -8.379  1.00  0.00     0.211 HD
ENDBRANCH   1  14
TORSDOF 8
ENDMDL
MODEL 9
REMARK VINA RESULT:    -3.902     22.503     23.054
REMARK INTER + INTRA:          -6.260
REMARK INTER:                  -5.604
REMARK INTRA:                  -0.656
REMARK UNBOUND:                -0.989
REMARK SMILES C[C@H](O)[C@@H](O)[C@H](O)[C@H](O)C=O
REMARK SMILES IDX 4 1 2 2 1 3 3 4 6 6 8 7 10 8 11 9 9 10 7 12 5 14
REMARK H PARENT 3 5 9 11 7 13 5 15
REMARK Flexibility Score: inf
ROOT
ATOM      1  C   UNL     1      35.115   2.002   7.525  1.00  0.00     0.174 C 
ENDROOT
BRANCH   1   2
ATOM      2  C   UNL     1      34.560   3.422   7.242  1.00  0.00     0.142 C 
ATOM      3  C   UNL     1      34.964   4.431   8.326  1.00  0.00     0.041 C 
BRANCH   2   4
ATOM      4  O   UNL     1      33.158   3.355   7.180  1.00  0.00    -0.391 OA
ATOM      5  H   UNL     1      32.841   4.221   6.811  1.00  0.00     0.211 HD
ENDBRANCH   2   4
ENDBRANCH   1   2
BRANCH   1   6
ATOM      6  C   UNL     1      34.839   0.985   6.381  1.00  0.00     0.181 C 
BRANCH   6   7
ATOM      7  C   UNL     1      35.680  -0.312   6.529  1.00  0.00     0.209 C 
BRANCH   7   8
ATOM      8  C   UNL     1      35.951  -0.949   5.190  1.00  0.00     0.258 C 
ATOM      9  O   UNL     1      35.034  -1.229   4.435  1.00  0.00    -0.300 OA
ENDBRANCH   7   8
BRANCH   7  10
ATOM     10  O   UNL     1      36.891  -0.065   7.201  1.00  0.00    -0.383 OA
ATOM     11  H   UNL     1      36.778   0.764   7.735  1.00  0.00     0.211 HD
ENDBRANCH   7  10
ENDBRANCH   6   7
BRANCH   6  12
ATOM     12  O   UNL     1      33.465   0.688   6.284  1.00  0.00    -0.387 OA
ATOM     13  H   UNL     1      33.009   1.478   5.895  1.00  0.00     0.211 HD
ENDBRANCH   6  12
ENDBRANCH   1   6
BRANCH   1  14
ATOM     14  O   UNL     1      34.623   1.519   8.754  1.00  0.00    -0.388 OA
ATOM     15  H   UNL     1      35.158   1.932   9.481  1.00  0.00     0.211 HD
ENDBRANCH   1  14
TORSDOF 8
ENDMDL
