MODEL 1
REMARK VINA RESULT:    -6.471      0.000      0.000
REMARK INTER + INTRA:          -7.601
REMARK INTER:                  -7.795
REMARK INTRA:                   0.194
REMARK UNBOUND:                 0.194
REMARK SMILES O=c1c(O)c(-c2ccc(O)c(O)c2)oc2cc(O)cc(O)c12
REMARK SMILES IDX 5 1 3 2 2 3 1 4 22 5 20 6 19 7 17 8 16 9 15 10 14 11 6 12
REMARK SMILES IDX 7 13 8 14 9 15 13 16 11 17 10 18 12 20 4 22 21 24 18 26
REMARK H PARENT 10 19 12 21 4 23 21 25 18 27
REMARK Flexibility Score: inf
ROOT
ATOM      1  C   UNL     1     -38.558  75.466 -25.969  1.00  0.00     0.180 A 
ATOM      2  C   UNL     1     -38.427  74.546 -27.023  1.00  0.00     0.208 A 
ATOM      3  C   UNL     1     -37.142  74.214 -27.482  1.00  0.00     0.238 A 
ATOM      4  O   UNL     1     -37.029  73.348 -28.389  1.00  0.00    -0.285 OA
ATOM      5  C   UNL     1     -36.006  74.818 -26.893  1.00  0.00     0.111 A 
ATOM      6  C   UNL     1     -34.659  74.586 -27.305  1.00  0.00     0.134 A 
ATOM      7  C   UNL     1     -33.606  75.139 -26.565  1.00  0.00     0.093 A 
ATOM      8  C   UNL     1     -33.851  75.965 -25.469  1.00  0.00     0.123 A 
ATOM      9  C   UNL     1     -35.165  76.248 -25.093  1.00  0.00     0.094 A 
ATOM     10  C   UNL     1     -36.237  75.682 -25.790  1.00  0.00     0.146 A 
ATOM     11  O   UNL     1     -37.471  75.967 -25.394  1.00  0.00    -0.452 OA
ENDROOT
BRANCH   1  12
ATOM     12  C   UNL     1     -39.879  75.885 -25.448  1.00  0.00     0.025 A 
ATOM     13  C   UNL     1     -40.104  76.050 -24.069  1.00  0.00     0.016 A 
ATOM     14  C   UNL     1     -41.366  76.422 -23.599  1.00  0.00     0.051 A 
ATOM     15  C   UNL     1     -42.424  76.621 -24.494  1.00  0.00     0.157 A 
ATOM     16  C   UNL     1     -40.950  76.065 -26.339  1.00  0.00     0.062 A 
ATOM     17  C   UNL     1     -42.215  76.438 -25.871  1.00  0.00     0.158 A 
BRANCH  15  18
ATOM     18  O   UNL     1     -43.681  76.995 -24.021  1.00  0.00    -0.504 OA
ATOM     19  H   UNL     1     -44.285  77.610 -24.552  1.00  0.00     0.293 HD
ENDBRANCH  15  18
BRANCH  17  20
ATOM     20  O   UNL     1     -43.249  76.622 -26.788  1.00  0.00    -0.504 OA
ATOM     21  H   UNL     1     -44.184  76.882 -26.499  1.00  0.00     0.293 HD
ENDBRANCH  17  20
ENDBRANCH   1  12
BRANCH   2  22
ATOM     22  O   UNL     1     -39.561  73.944 -27.576  1.00  0.00    -0.502 OA
ATOM     23  H   UNL     1     -39.695  73.851 -28.576  1.00  0.00     0.293 HD
ENDBRANCH   2  22
BRANCH   6  24
ATOM     24  O   UNL     1     -34.306  73.852 -28.440  1.00  0.00    -0.507 OA
ATOM     25  H   UNL     1     -33.367  73.560 -28.665  1.00  0.00     0.293 HD
ENDBRANCH   6  24
BRANCH   8  26
ATOM     26  O   UNL     1     -32.779  76.511 -24.766  1.00  0.00    -0.508 OA
ATOM     27  H   UNL     1     -32.142  75.928 -24.236  1.00  0.00     0.293 HD
ENDBRANCH   8  26
TORSDOF 6
ENDMDL
MODEL 2
REMARK VINA RESULT:    -6.229      0.688      1.487
REMARK INTER + INTRA:          -7.310
REMARK INTER:                  -7.309
REMARK INTRA:                  -0.001
REMARK UNBOUND:                 0.194
REMARK SMILES O=c1c(O)c(-c2ccc(O)c(O)c2)oc2cc(O)cc(O)c12
REMARK SMILES IDX 5 1 3 2 2 3 1 4 22 5 20 6 19 7 17 8 16 9 15 10 14 11 6 12
REMARK SMILES IDX 7 13 8 14 9 15 13 16 11 17 10 18 12 20 4 22 21 24 18 26
REMARK H PARENT 10 19 12 21 4 23 21 25 18 27
REMARK Flexibility Score: inf
ROOT
ATOM      1  C   UNL     1     -38.316  75.475 -26.083  1.00  0.00     0.180 A 
ATOM      2  C   UNL     1     -38.152  74.509 -27.090  1.00  0.00     0.208 A 
ATOM      3  C   UNL     1     -36.854  74.187 -27.519  1.00  0.00     0.238 A 
ATOM      4  O   UNL     1     -36.709  73.282 -28.382  1.00  0.00    -0.285 OA
ATOM      5  C   UNL     1     -35.739  74.846 -26.947  1.00  0.00     0.111 A 
ATOM      6  C   UNL     1     -34.383  74.628 -27.333  1.00  0.00     0.134 A 
ATOM      7  C   UNL     1     -33.352  75.240 -26.609  1.00  0.00     0.093 A 
ATOM      8  C   UNL     1     -33.629  76.111 -25.557  1.00  0.00     0.123 A 
ATOM      9  C   UNL     1     -34.954  76.379 -25.209  1.00  0.00     0.094 A 
ATOM     10  C   UNL     1     -36.003  75.755 -25.889  1.00  0.00     0.146 A 
ATOM     11  O   UNL     1     -37.249  76.028 -25.521  1.00  0.00    -0.452 OA
ENDROOT
BRANCH   1  12
ATOM     12  C   UNL     1     -39.654  75.885 -25.596  1.00  0.00     0.025 A 
ATOM     13  C   UNL     1     -40.686  76.221 -26.490  1.00  0.00     0.016 A 
ATOM     14  C   UNL     1     -41.933  76.629 -26.008  1.00  0.00     0.051 A 
ATOM     15  C   UNL     1     -42.162  76.721 -24.630  1.00  0.00     0.157 A 
ATOM     16  C   UNL     1     -39.883  75.999 -24.215  1.00  0.00     0.062 A 
ATOM     17  C   UNL     1     -41.130  76.406 -23.729  1.00  0.00     0.158 A 
BRANCH  15  18
ATOM     18  O   UNL     1     -43.408  77.125 -24.152  1.00  0.00    -0.504 OA
ATOM     19  H   UNL     1     -43.527  77.471 -23.207  1.00  0.00     0.293 HD
ENDBRANCH  15  18
BRANCH  17  20
ATOM     20  O   UNL     1     -41.324  76.494 -22.351  1.00  0.00    -0.504 OA
ATOM     21  H   UNL     1     -40.567  76.361 -21.692  1.00  0.00     0.293 HD
ENDBRANCH  17  20
ENDBRANCH   1  12
BRANCH   2  22
ATOM     22  O   UNL     1     -39.264  73.854 -27.625  1.00  0.00    -0.502 OA
ATOM     23  H   UNL     1     -39.896  74.301 -28.280  1.00  0.00     0.293 HD
ENDBRANCH   2  22
BRANCH   6  24
ATOM     24  O   UNL     1     -33.998  73.849 -28.427  1.00  0.00    -0.507 OA
ATOM     25  H   UNL     1     -33.057  73.530 -28.604  1.00  0.00     0.293 HD
ENDBRANCH   6  24
BRANCH   8  26
ATOM     26  O   UNL     1     -32.579  76.715 -24.869  1.00  0.00    -0.508 OA
ATOM     27  H   UNL     1     -32.147  76.273 -24.066  1.00  0.00     0.293 HD
ENDBRANCH   8  26
TORSDOF 6
ENDMDL
MODEL 3
REMARK VINA RESULT:    -5.605      1.598      6.847
REMARK INTER + INTRA:          -6.558
REMARK INTER:                  -6.305
REMARK INTRA:                  -0.252
REMARK UNBOUND:                 0.194
REMARK SMILES O=c1c(O)c(-c2ccc(O)c(O)c2)oc2cc(O)cc(O)c12
REMARK SMILES IDX 5 1 3 2 2 3 1 4 22 5 20 6 19 7 17 8 16 9 15 10 14 11 6 12
REMARK SMILES IDX 7 13 8 14 9 15 13 16 11 17 10 18 12 20 4 22 21 24 18 26
REMARK H PARENT 10 19 12 21 4 23 21 25 18 27
REMARK Flexibility Score: inf
ROOT
ATOM      1  C   UNL     1     -39.239  75.847 -25.483  1.00  0.00     0.180 A 
ATOM      2  C   UNL     1     -40.413  75.984 -26.242  1.00  0.00     0.208 A 
ATOM      3  C   UNL     1     -41.626  76.234 -25.580  1.00  0.00     0.238 A 
ATOM      4  O   UNL     1     -42.665  76.411 -26.268  1.00  0.00    -0.285 OA
ATOM      5  C   UNL     1     -41.652  76.326 -24.167  1.00  0.00     0.111 A 
ATOM      6  C   UNL     1     -42.830  76.536 -23.391  1.00  0.00     0.134 A 
ATOM      7  C   UNL     1     -42.719  76.740 -22.009  1.00  0.00     0.093 A 
ATOM      8  C   UNL     1     -41.483  76.678 -21.369  1.00  0.00     0.123 A 
ATOM      9  C   UNL     1     -40.330  76.413 -22.110  1.00  0.00     0.094 A 
ATOM     10  C   UNL     1     -40.404  76.241 -23.495  1.00  0.00     0.146 A 
ATOM     11  O   UNL     1     -39.284  76.002 -24.166  1.00  0.00    -0.452 OA
ENDROOT
BRANCH   1  12
ATOM     12  C   UNL     1     -37.927  75.558 -26.107  1.00  0.00     0.025 A 
ATOM     13  C   UNL     1     -36.950  76.559 -26.254  1.00  0.00     0.016 A 
ATOM     14  C   UNL     1     -35.728  76.269 -26.868  1.00  0.00     0.051 A 
ATOM     15  C   UNL     1     -35.470  74.983 -27.355  1.00  0.00     0.157 A 
ATOM     16  C   UNL     1     -37.671  74.275 -26.617  1.00  0.00     0.062 A 
ATOM     17  C   UNL     1     -36.448  73.981 -27.232  1.00  0.00     0.158 A 
BRANCH  15  18
ATOM     18  O   UNL     1     -34.249  74.696 -27.965  1.00  0.00    -0.504 OA
ATOM     19  H   UNL     1     -33.482  75.357 -27.952  1.00  0.00     0.293 HD
ENDBRANCH  15  18
BRANCH  17  20
ATOM     20  O   UNL     1     -36.224  72.692 -27.713  1.00  0.00    -0.504 OA
ATOM     21  H   UNL     1     -36.237  72.477 -28.703  1.00  0.00     0.293 HD
ENDBRANCH  17  20
ENDBRANCH   1  12
BRANCH   2  22
ATOM     22  O   UNL     1     -40.362  75.913 -27.636  1.00  0.00    -0.502 OA
ATOM     23  H   UNL     1     -39.543  75.583 -28.135  1.00  0.00     0.293 HD
ENDBRANCH   2  22
BRANCH   6  24
ATOM     24  O   UNL     1     -44.125  76.525 -23.917  1.00  0.00    -0.507 OA
ATOM     25  H   UNL     1     -44.880  75.953 -23.571  1.00  0.00     0.293 HD
ENDBRANCH   6  24
BRANCH   8  26
ATOM     26  O   UNL     1     -41.411  76.870 -19.991  1.00  0.00    -0.508 OA
ATOM     27  H   UNL     1     -40.871  76.252 -19.397  1.00  0.00     0.293 HD
ENDBRANCH   8  26
TORSDOF 6
ENDMDL
MODEL 4
REMARK VINA RESULT:    -5.527      1.699      6.825
REMARK INTER + INTRA:          -6.463
REMARK INTER:                  -6.915
REMARK INTRA:                   0.452
REMARK UNBOUND:                 0.194
REMARK SMILES O=c1c(O)c(-c2ccc(O)c(O)c2)oc2cc(O)cc(O)c12
REMARK SMILES IDX 5 1 3 2 2 3 1 4 22 5 20 6 19 7 17 8 16 9 15 10 14 11 6 12
REMARK SMILES IDX 7 13 8 14 9 15 13 16 11 17 10 18 12 20 4 22 21 24 18 26
REMARK H PARENT 10 19 12 21 4 23 21 25 18 27
REMARK Flexibility Score: inf
ROOT
ATOM      1  C   UNL     1     -37.020  76.031 -26.285  1.00  0.00     0.180 A 
ATOM      2  C   UNL     1     -38.037  75.739 -27.211  1.00  0.00     0.208 A 
ATOM      3  C   UNL     1     -39.371  75.728 -26.775  1.00  0.00     0.238 A 
ATOM      4  O   UNL     1     -40.281  75.521 -27.620  1.00  0.00    -0.285 OA
ATOM      5  C   UNL     1     -39.672  75.994 -25.418  1.00  0.00     0.111 A 
ATOM      6  C   UNL     1     -40.985  75.971 -24.859  1.00  0.00     0.134 A 
ATOM      7  C   UNL     1     -41.177  76.376 -23.532  1.00  0.00     0.093 A 
ATOM      8  C   UNL     1     -40.100  76.742 -22.727  1.00  0.00     0.123 A 
ATOM      9  C   UNL     1     -38.805  76.711 -23.245  1.00  0.00     0.094 A 
ATOM     10  C   UNL     1     -38.584  76.345 -24.576  1.00  0.00     0.146 A 
ATOM     11  O   UNL     1     -37.338  76.339 -25.034  1.00  0.00    -0.452 OA
ENDROOT
BRANCH   1  12
ATOM     12  C   UNL     1     -35.588  76.037 -26.663  1.00  0.00     0.025 A 
ATOM     13  C   UNL     1     -35.166  75.620 -27.939  1.00  0.00     0.016 A 
ATOM     14  C   UNL     1     -33.808  75.611 -28.265  1.00  0.00     0.051 A 
ATOM     15  C   UNL     1     -32.851  76.003 -27.321  1.00  0.00     0.157 A 
ATOM     16  C   UNL     1     -34.623  76.409 -25.713  1.00  0.00     0.062 A 
ATOM     17  C   UNL     1     -33.262  76.401 -26.037  1.00  0.00     0.158 A 
BRANCH  15  18
ATOM     18  O   UNL     1     -31.496  75.995 -27.650  1.00  0.00    -0.504 OA
ATOM     19  H   UNL     1     -31.158  75.544 -28.491  1.00  0.00     0.293 HD
ENDBRANCH  15  18
BRANCH  17  20
ATOM     20  O   UNL     1     -32.334  76.791 -25.072  1.00  0.00    -0.504 OA
ATOM     21  H   UNL     1     -31.675  76.138 -24.664  1.00  0.00     0.293 HD
ENDBRANCH  17  20
ENDBRANCH   1  12
BRANCH   2  22
ATOM     22  O   UNL     1     -37.720  75.502 -28.551  1.00  0.00    -0.502 OA
ATOM     23  H   UNL     1     -37.284  74.642 -28.864  1.00  0.00     0.293 HD
ENDBRANCH   2  22
BRANCH   6  24
ATOM     24  O   UNL     1     -42.119  75.534 -25.548  1.00  0.00    -0.507 OA
ATOM     25  H   UNL     1     -42.898  75.052 -25.125  1.00  0.00     0.293 HD
ENDBRANCH   6  24
BRANCH   8  26
ATOM     26  O   UNL     1     -40.327  77.125 -21.406  1.00  0.00    -0.508 OA
ATOM     27  H   UNL     1     -40.808  76.517 -20.754  1.00  0.00     0.293 HD
ENDBRANCH   8  26
TORSDOF 6
ENDMDL
MODEL 5
REMARK VINA RESULT:    -5.357      1.575      7.215
REMARK INTER + INTRA:          -6.259
REMARK INTER:                  -6.413
REMARK INTRA:                   0.154
REMARK UNBOUND:                 0.194
REMARK SMILES O=c1c(O)c(-c2ccc(O)c(O)c2)oc2cc(O)cc(O)c12
REMARK SMILES IDX 5 1 3 2 2 3 1 4 22 5 20 6 19 7 17 8 16 9 15 10 14 11 6 12
REMARK SMILES IDX 7 13 8 14 9 15 13 16 11 17 10 18 12 20 4 22 21 24 18 26
REMARK H PARENT 10 19 12 21 4 23 21 25 18 27
REMARK Flexibility Score: inf
ROOT
ATOM      1  C   UNL     1     -38.390  75.895 -25.852  1.00  0.00     0.180 A 
ATOM      2  C   UNL     1     -38.530  76.263 -24.503  1.00  0.00     0.208 A 
ATOM      3  C   UNL     1     -39.818  76.335 -23.948  1.00  0.00     0.238 A 
ATOM      4  O   UNL     1     -39.935  76.610 -22.725  1.00  0.00    -0.285 OA
ATOM      5  C   UNL     1     -40.949  76.056 -24.752  1.00  0.00     0.111 A 
ATOM      6  C   UNL     1     -42.302  76.137 -24.305  1.00  0.00     0.134 A 
ATOM      7  C   UNL     1     -43.335  75.713 -25.151  1.00  0.00     0.093 A 
ATOM      8  C   UNL     1     -43.071  75.272 -26.446  1.00  0.00     0.123 A 
ATOM      9  C   UNL     1     -41.757  75.245 -26.915  1.00  0.00     0.094 A 
ATOM     10  C   UNL     1     -40.701  75.628 -26.083  1.00  0.00     0.146 A 
ATOM     11  O   UNL     1     -39.464  75.577 -26.563  1.00  0.00    -0.452 OA
ENDROOT
BRANCH   1  12
ATOM     12  C   UNL     1     -37.067  75.821 -26.515  1.00  0.00     0.025 A 
ATOM     13  C   UNL     1     -36.047  76.744 -26.218  1.00  0.00     0.016 A 
ATOM     14  C   UNL     1     -34.816  76.669 -26.874  1.00  0.00     0.051 A 
ATOM     15  C   UNL     1     -34.589  75.684 -27.843  1.00  0.00     0.157 A 
ATOM     16  C   UNL     1     -36.842  74.849 -27.503  1.00  0.00     0.062 A 
ATOM     17  C   UNL     1     -35.609  74.771 -28.160  1.00  0.00     0.158 A 
BRANCH  15  18
ATOM     18  O   UNL     1     -33.357  75.610 -28.493  1.00  0.00    -0.504 OA
ATOM     19  H   UNL     1     -33.156  76.172 -29.311  1.00  0.00     0.293 HD
ENDBRANCH  15  18
BRANCH  17  20
ATOM     20  O   UNL     1     -35.417  73.783 -29.125  1.00  0.00    -0.504 OA
ATOM     21  H   UNL     1     -35.512  73.972 -30.116  1.00  0.00     0.293 HD
ENDBRANCH  17  20
ENDBRANCH   1  12
BRANCH   2  22
ATOM     22  O   UNL     1     -37.400  76.512 -23.721  1.00  0.00    -0.502 OA
ATOM     23  H   UNL     1     -37.442  76.583 -22.710  1.00  0.00     0.293 HD
ENDBRANCH   2  22
BRANCH   6  24
ATOM     24  O   UNL     1     -42.684  76.650 -23.062  1.00  0.00    -0.507 OA
ATOM     25  H   UNL     1     -42.187  76.491 -22.199  1.00  0.00     0.293 HD
ENDBRANCH   6  24
BRANCH   8  26
ATOM     26  O   UNL     1     -44.125  74.873 -27.265  1.00  0.00    -0.508 OA
ATOM     27  H   UNL     1     -44.414  75.424 -28.064  1.00  0.00     0.293 HD
ENDBRANCH   8  26
TORSDOF 6
ENDMDL
MODEL 6
REMARK VINA RESULT:    -5.352      1.265      1.366
REMARK INTER + INTRA:          -6.253
REMARK INTER:                  -6.786
REMARK INTRA:                   0.534
REMARK UNBOUND:                 0.194
REMARK SMILES O=c1c(O)c(-c2ccc(O)c(O)c2)oc2cc(O)cc(O)c12
REMARK SMILES IDX 5 1 3 2 2 3 1 4 22 5 20 6 19 7 17 8 16 9 15 10 14 11 6 12
REMARK SMILES IDX 7 13 8 14 9 15 13 16 11 17 10 18 12 20 4 22 21 24 18 26
REMARK H PARENT 10 19 12 21 4 23 21 25 18 27
REMARK Flexibility Score: inf
ROOT
ATOM      1  C   UNL     1     -38.380  76.197 -25.534  1.00  0.00     0.180 A 
ATOM      2  C   UNL     1     -38.474  75.909 -26.907  1.00  0.00     0.208 A 
ATOM      3  C   UNL     1     -37.297  75.831 -27.668  1.00  0.00     0.238 A 
ATOM      4  O   UNL     1     -37.383  75.518 -28.884  1.00  0.00    -0.285 OA
ATOM      5  C   UNL     1     -36.042  76.057 -27.052  1.00  0.00     0.111 A 
ATOM      6  C   UNL     1     -34.790  76.042 -27.734  1.00  0.00     0.134 A 
ATOM      7  C   UNL     1     -33.602  76.151 -27.000  1.00  0.00     0.093 A 
ATOM      8  C   UNL     1     -33.623  76.337 -25.619  1.00  0.00     0.123 A 
ATOM      9  C   UNL     1     -34.845  76.413 -24.948  1.00  0.00     0.094 A 
ATOM     10  C   UNL     1     -36.046  76.273 -25.649  1.00  0.00     0.146 A 
ATOM     11  O   UNL     1     -37.186  76.341 -24.972  1.00  0.00    -0.452 OA
ENDROOT
BRANCH   1  12
ATOM     12  C   UNL     1     -39.577  76.321 -24.671  1.00  0.00     0.025 A 
ATOM     13  C   UNL     1     -39.465  76.412 -23.272  1.00  0.00     0.016 A 
ATOM     14  C   UNL     1     -40.610  76.504 -22.477  1.00  0.00     0.051 A 
ATOM     15  C   UNL     1     -41.881  76.492 -23.063  1.00  0.00     0.157 A 
ATOM     16  C   UNL     1     -40.855  76.288 -25.252  1.00  0.00     0.062 A 
ATOM     17  C   UNL     1     -42.004  76.381 -24.458  1.00  0.00     0.158 A 
BRANCH  15  18
ATOM     18  O   UNL     1     -43.022  76.587 -22.266  1.00  0.00    -0.504 OA
ATOM     19  H   UNL     1     -43.912  76.211 -22.568  1.00  0.00     0.293 HD
ENDBRANCH  15  18
BRANCH  17  20
ATOM     20  O   UNL     1     -43.255  76.360 -25.072  1.00  0.00    -0.504 OA
ATOM     21  H   UNL     1     -43.773  77.209 -25.268  1.00  0.00     0.293 HD
ENDBRANCH  17  20
ENDBRANCH   1  12
BRANCH   2  22
ATOM     22  O   UNL     1     -39.720  75.667 -27.490  1.00  0.00    -0.502 OA
ATOM     23  H   UNL     1     -40.238  74.810 -27.332  1.00  0.00     0.293 HD
ENDBRANCH   2  22
BRANCH   6  24
ATOM     24  O   UNL     1     -34.658  75.953 -29.123  1.00  0.00    -0.507 OA
ATOM     25  H   UNL     1     -33.791  75.776 -29.607  1.00  0.00     0.293 HD
ENDBRANCH   6  24
BRANCH   8  26
ATOM     26  O   UNL     1     -32.422  76.457 -24.923  1.00  0.00    -0.508 OA
ATOM     27  H   UNL     1     -31.910  77.331 -24.896  1.00  0.00     0.293 HD
ENDBRANCH   8  26
TORSDOF 6
ENDMDL
MODEL 7
REMARK VINA RESULT:    -5.334      3.919      6.459
REMARK INTER + INTRA:          -6.232
REMARK INTER:                  -5.907
REMARK INTRA:                  -0.325
REMARK UNBOUND:                 0.194
REMARK SMILES O=c1c(O)c(-c2ccc(O)c(O)c2)oc2cc(O)cc(O)c12
REMARK SMILES IDX 5 1 3 2 2 3 1 4 22 5 20 6 19 7 17 8 16 9 15 10 14 11 6 12
REMARK SMILES IDX 7 13 8 14 9 15 13 16 11 17 10 18 12 20 4 22 21 24 18 26
REMARK H PARENT 10 19 12 21 4 23 21 25 18 27
REMARK Flexibility Score: inf
ROOT
ATOM      1  C   UNL     1     -39.673  76.096 -21.963  1.00  0.00     0.180 A 
ATOM      2  C   UNL     1     -41.026  75.879 -22.277  1.00  0.00     0.208 A 
ATOM      3  C   UNL     1     -41.440  75.987 -23.614  1.00  0.00     0.238 A 
ATOM      4  O   UNL     1     -42.641  75.738 -23.897  1.00  0.00    -0.285 OA
ATOM      5  C   UNL     1     -40.501  76.327 -24.618  1.00  0.00     0.111 A 
ATOM      6  C   UNL     1     -40.818  76.503 -25.998  1.00  0.00     0.134 A 
ATOM      7  C   UNL     1     -39.786  76.712 -26.922  1.00  0.00     0.093 A 
ATOM      8  C   UNL     1     -38.458  76.815 -26.509  1.00  0.00     0.123 A 
ATOM      9  C   UNL     1     -38.144  76.704 -25.153  1.00  0.00     0.094 A 
ATOM     10  C   UNL     1     -39.147  76.460 -24.212  1.00  0.00     0.146 A 
ATOM     11  O   UNL     1     -38.805  76.350 -22.934  1.00  0.00    -0.452 OA
ENDROOT
BRANCH   1  12
ATOM     12  C   UNL     1     -39.166  76.025 -20.574  1.00  0.00     0.025 A 
ATOM     13  C   UNL     1     -39.260  77.125 -19.702  1.00  0.00     0.016 A 
ATOM     14  C   UNL     1     -38.753  77.042 -18.403  1.00  0.00     0.051 A 
ATOM     15  C   UNL     1     -38.132  75.868 -17.959  1.00  0.00     0.157 A 
ATOM     16  C   UNL     1     -38.524  74.857 -20.130  1.00  0.00     0.062 A 
ATOM     17  C   UNL     1     -38.015  74.770 -18.829  1.00  0.00     0.158 A 
BRANCH  15  18
ATOM     18  O   UNL     1     -37.630  75.787 -16.661  1.00  0.00    -0.504 OA
ATOM     19  H   UNL     1     -38.177  76.081 -15.862  1.00  0.00     0.293 HD
ENDBRANCH  15  18
BRANCH  17  20
ATOM     20  O   UNL     1     -37.398  73.589 -18.421  1.00  0.00    -0.504 OA
ATOM     21  H   UNL     1     -37.918  72.731 -18.277  1.00  0.00     0.293 HD
ENDBRANCH  17  20
ENDBRANCH   1  12
BRANCH   2  22
ATOM     22  O   UNL     1     -41.932  75.522 -21.275  1.00  0.00    -0.502 OA
ATOM     23  H   UNL     1     -42.209  76.162 -20.539  1.00  0.00     0.293 HD
ENDBRANCH   2  22
BRANCH   6  24
ATOM     24  O   UNL     1     -42.120  76.511 -26.505  1.00  0.00    -0.507 OA
ATOM     25  H   UNL     1     -42.594  77.329 -26.857  1.00  0.00     0.293 HD
ENDBRANCH   6  24
BRANCH   8  26
ATOM     26  O   UNL     1     -37.459  77.038 -27.453  1.00  0.00    -0.508 OA
ATOM     27  H   UNL     1     -37.679  77.191 -28.431  1.00  0.00     0.293 HD
ENDBRANCH   8  26
TORSDOF 6
ENDMDL
MODEL 8
REMARK VINA RESULT:    -4.824      2.721      6.794
REMARK INTER + INTRA:          -5.617
REMARK INTER:                  -5.581
REMARK INTRA:                  -0.036
REMARK UNBOUND:                 0.194
REMARK SMILES O=c1c(O)c(-c2ccc(O)c(O)c2)oc2cc(O)cc(O)c12
REMARK SMILES IDX 5 1 3 2 2 3 1 4 22 5 20 6 19 7 17 8 16 9 15 10 14 11 6 12
REMARK SMILES IDX 7 13 8 14 9 15 13 16 11 17 10 18 12 20 4 22 21 24 18 26
REMARK H PARENT 10 19 12 21 4 23 21 25 18 27
REMARK Flexibility Score: inf
ROOT
ATOM      1  C   UNL     1     -38.984  76.159 -24.138  1.00  0.00     0.180 A 
ATOM      2  C   UNL     1     -40.362  76.142 -24.410  1.00  0.00     0.208 A 
ATOM      3  C   UNL     1     -41.268  76.248 -23.342  1.00  0.00     0.238 A 
ATOM      4  O   UNL     1     -42.500  76.289 -23.596  1.00  0.00    -0.285 OA
ATOM      5  C   UNL     1     -40.784  76.353 -22.015  1.00  0.00     0.111 A 
ATOM      6  C   UNL     1     -41.611  76.426 -20.855  1.00  0.00     0.134 A 
ATOM      7  C   UNL     1     -41.025  76.658 -19.604  1.00  0.00     0.093 A 
ATOM      8  C   UNL     1     -39.642  76.755 -19.462  1.00  0.00     0.123 A 
ATOM      9  C   UNL     1     -38.820  76.626 -20.583  1.00  0.00     0.094 A 
ATOM     10  C   UNL     1     -39.376  76.430 -21.850  1.00  0.00     0.146 A 
ATOM     11  O   UNL     1     -38.560  76.323 -22.891  1.00  0.00    -0.452 OA
ENDROOT
BRANCH   1  12
ATOM     12  C   UNL     1     -37.968  76.026 -25.208  1.00  0.00     0.025 A 
ATOM     13  C   UNL     1     -36.976  77.005 -25.401  1.00  0.00     0.016 A 
ATOM     14  C   UNL     1     -36.043  76.870 -26.432  1.00  0.00     0.051 A 
ATOM     15  C   UNL     1     -36.095  75.768 -27.294  1.00  0.00     0.157 A 
ATOM     16  C   UNL     1     -38.028  74.933 -26.088  1.00  0.00     0.062 A 
ATOM     17  C   UNL     1     -37.095  74.795 -27.122  1.00  0.00     0.158 A 
BRANCH  15  18
ATOM     18  O   UNL     1     -35.160  75.635 -28.320  1.00  0.00    -0.504 OA
ATOM     19  H   UNL     1     -35.417  75.768 -29.291  1.00  0.00     0.293 HD
ENDBRANCH  15  18
BRANCH  17  20
ATOM     20  O   UNL     1     -37.178  73.689 -27.966  1.00  0.00    -0.504 OA
ATOM     21  H   UNL     1     -37.331  72.752 -27.612  1.00  0.00     0.293 HD
ENDBRANCH  17  20
ENDBRANCH   1  12
BRANCH   2  22
ATOM     22  O   UNL     1     -40.819  76.061 -25.728  1.00  0.00    -0.502 OA
ATOM     23  H   UNL     1     -41.568  76.645 -26.082  1.00  0.00     0.293 HD
ENDBRANCH   2  22
BRANCH   6  24
ATOM     24  O   UNL     1     -42.997  76.249 -20.871  1.00  0.00    -0.507 OA
ATOM     25  H   UNL     1     -43.662  76.886 -20.459  1.00  0.00     0.293 HD
ENDBRANCH   6  24
BRANCH   8  26
ATOM     26  O   UNL     1     -39.094  76.971 -18.200  1.00  0.00    -0.508 OA
ATOM     27  H   UNL     1     -38.641  77.845 -17.961  1.00  0.00     0.293 HD
ENDBRANCH   8  26
TORSDOF 6
ENDMDL
MODEL 9
REMARK VINA RESULT:    -4.528      2.568      3.635
REMARK INTER + INTRA:          -5.260
REMARK INTER:                  -5.731
REMARK INTRA:                   0.471
REMARK UNBOUND:                 0.194
REMARK SMILES O=c1c(O)c(-c2ccc(O)c(O)c2)oc2cc(O)cc(O)c12
REMARK SMILES IDX 5 1 3 2 2 3 1 4 22 5 20 6 19 7 17 8 16 9 15 10 14 11 6 12
REMARK SMILES IDX 7 13 8 14 9 15 13 16 11 17 10 18 12 20 4 22 21 24 18 26
REMARK H PARENT 10 19 12 21 4 23 21 25 18 27
REMARK Flexibility Score: inf
ROOT
ATOM      1  C   UNL     1     -39.003  76.286 -24.042  1.00  0.00     0.180 A 
ATOM      2  C   UNL     1     -39.724  76.119 -25.236  1.00  0.00     0.208 A 
ATOM      3  C   UNL     1     -39.018  75.963 -26.441  1.00  0.00     0.238 A 
ATOM      4  O   UNL     1     -39.668  75.759 -27.500  1.00  0.00    -0.285 OA
ATOM      5  C   UNL     1     -37.603  75.992 -26.438  1.00  0.00     0.111 A 
ATOM      6  C   UNL     1     -36.788  75.883 -27.603  1.00  0.00     0.134 A 
ATOM      7  C   UNL     1     -35.396  75.794 -27.467  1.00  0.00     0.093 A 
ATOM      8  C   UNL     1     -34.788  75.874 -26.215  1.00  0.00     0.123 A 
ATOM      9  C   UNL     1     -35.573  76.040 -25.073  1.00  0.00     0.094 A 
ATOM     10  C   UNL     1     -36.966  76.096 -25.173  1.00  0.00     0.146 A 
ATOM     11  O   UNL     1     -37.676  76.244 -24.062  1.00  0.00    -0.452 OA
ENDROOT
BRANCH   1  12
ATOM     12  C   UNL     1     -39.675  76.482 -22.737  1.00  0.00     0.025 A 
ATOM     13  C   UNL     1     -41.078  76.508 -22.633  1.00  0.00     0.016 A 
ATOM     14  C   UNL     1     -41.690  76.718 -21.394  1.00  0.00     0.051 A 
ATOM     15  C   UNL     1     -40.914  76.918 -20.247  1.00  0.00     0.157 A 
ATOM     16  C   UNL     1     -38.902  76.704 -21.586  1.00  0.00     0.062 A 
ATOM     17  C   UNL     1     -39.512  76.914 -20.344  1.00  0.00     0.158 A 
BRANCH  15  18
ATOM     18  O   UNL     1     -41.528  77.125 -19.012  1.00  0.00    -0.504 OA
ATOM     19  H   UNL     1     -40.987  77.287 -18.171  1.00  0.00     0.293 HD
ENDBRANCH  15  18
BRANCH  17  20
ATOM     20  O   UNL     1     -38.711  77.117 -19.222  1.00  0.00    -0.504 OA
ATOM     21  H   UNL     1     -38.382  76.348 -18.649  1.00  0.00     0.293 HD
ENDBRANCH  17  20
ENDBRANCH   1  12
BRANCH   2  22
ATOM     22  O   UNL     1     -41.120  76.071 -25.215  1.00  0.00    -0.502 OA
ATOM     23  H   UNL     1     -41.656  75.523 -25.878  1.00  0.00     0.293 HD
ENDBRANCH   2  22
BRANCH   6  24
ATOM     24  O   UNL     1     -37.287  75.888 -28.909  1.00  0.00    -0.507 OA
ATOM     25  H   UNL     1     -37.231  75.110 -29.548  1.00  0.00     0.293 HD
ENDBRANCH   6  24
BRANCH   8  26
ATOM     26  O   UNL     1     -33.401  75.797 -26.118  1.00  0.00    -0.508 OA
ATOM     27  H   UNL     1     -32.800  76.476 -26.571  1.00  0.00     0.293 HD
ENDBRANCH   8  26
TORSDOF 6
ENDMDL
