MODEL 1
REMARK VINA RESULT:    -0.600      0.000      0.000
REMARK INTER + INTRA:          -1.520
REMARK INTER:                  -0.881
REMARK INTRA:                  -0.639
REMARK UNBOUND:                -0.639
REMARK SMILES Cc1cc2c(C(C)C)c(O)c(O)c(C=O)c2c(O)c1-c1c(C)cc2c(C(C)C)c(O)c(O)c(C=O)c2c1O
REMARK SMILES IDX 1 1 2 2 3 3 4 4 16 5 13 6 11 7 9 8 5 9 17 10 19 11 20 12
REMARK SMILES IDX 37 13 21 14 36 15 23 16 22 17 24 18 33 19 25 20 31 21 29 22
REMARK SMILES IDX 38 23 34 25 35 26 26 27 27 28 28 29 32 30 30 32 18 34 6 36
REMARK SMILES IDX 7 37 8 38 14 39 15 40 10 41 12 43
REMARK H PARENT 38 24 32 31 30 33 18 35 10 42 12 44
REMARK Flexibility Score: inf
ROOT
ATOM      1  C   UNL     1       8.083 -16.995  31.260  1.00  0.00     0.045 C 
ATOM      2  C   UNL     1       7.204 -17.539  30.159  1.00  0.00    -0.039 A 
ATOM      3  C   UNL     1       7.351 -17.045  28.861  1.00  0.00     0.013 A 
ATOM      4  C   UNL     1       6.551 -17.507  27.792  1.00  0.00    -0.006 A 
ATOM      5  C   UNL     1       5.677 -18.610  28.022  1.00  0.00     0.039 A 
ATOM      6  C   UNL     1       5.028 -19.216  26.907  1.00  0.00     0.072 A 
ATOM      7  C   UNL     1       5.215 -18.701  25.612  1.00  0.00     0.169 A 
ATOM      8  C   UNL     1       6.042 -17.582  25.402  1.00  0.00     0.162 A 
ATOM      9  C   UNL     1       6.629 -16.910  26.497  1.00  0.00     0.008 A 
ATOM     10  C   UNL     1       5.465 -19.052  29.361  1.00  0.00     0.132 A 
ATOM     11  C   UNL     1       6.246 -18.533  30.416  1.00  0.00     0.031 A 
ENDROOT
BRANCH  11  12
ATOM     12  C   UNL     1       6.063 -19.044  31.801  1.00  0.00     0.031 A 
ATOM     13  C   UNL     1       6.926 -20.039  32.308  1.00  0.00     0.132 A 
ATOM     14  C   UNL     1       5.007 -18.562  32.591  1.00  0.00    -0.039 A 
ATOM     15  C   UNL     1       6.769 -20.522  33.643  1.00  0.00     0.039 A 
ATOM     16  C   UNL     1       4.785 -19.111  33.854  1.00  0.00     0.013 A 
ATOM     17  C   UNL     1       4.053 -17.514  32.067  1.00  0.00     0.045 C 
ATOM     18  C   UNL     1       5.662 -20.064  34.420  1.00  0.00    -0.006 A 
ATOM     19  C   UNL     1       7.655 -21.487  34.206  1.00  0.00     0.072 A 
ATOM     20  C   UNL     1       5.431 -20.600  35.726  1.00  0.00     0.008 A 
ATOM     21  C   UNL     1       7.336 -22.103  35.430  1.00  0.00     0.169 A 
ATOM     22  C   UNL     1       6.181 -21.724  36.136  1.00  0.00     0.162 A 
BRANCH  13  23
ATOM     23  O   UNL     1       7.910 -20.579  31.473  1.00  0.00    -0.507 OA
ATOM     24  H   UNL     1       8.048 -21.571  31.329  1.00  0.00     0.293 HD
ENDBRANCH  13  23
BRANCH  19  25
ATOM     25  C   UNL     1       8.965 -21.810  33.591  1.00  0.00     0.264 C 
ATOM     26  O   UNL     1      10.040 -21.377  34.086  1.00  0.00    -0.298 OA
ENDBRANCH  19  25
BRANCH  20  27
ATOM     27  C   UNL     1       4.350 -20.026  36.662  1.00  0.00     0.017 C 
ATOM     28  C   UNL     1       3.057 -20.843  36.570  1.00  0.00     0.012 C 
ATOM     29  C   UNL     1       4.806 -19.864  38.125  1.00  0.00     0.012 C 
ENDBRANCH  20  27
BRANCH  21  30
ATOM     30  O   UNL     1       8.213 -23.060  35.952  1.00  0.00    -0.504 OA
ATOM     31  H   UNL     1       9.175 -23.166  35.656  1.00  0.00     0.293 HD
ENDBRANCH  21  30
BRANCH  22  32
ATOM     32  O   UNL     1       5.754 -22.466  37.241  1.00  0.00    -0.504 OA
ATOM     33  H   UNL     1       5.258 -23.344  37.176  1.00  0.00     0.293 HD
ENDBRANCH  22  32
ENDBRANCH  11  12
BRANCH  10  34
ATOM     34  O   UNL     1       4.454 -19.976  29.649  1.00  0.00    -0.507 OA
ATOM     35  H   UNL     1       4.377 -20.883  29.209  1.00  0.00     0.293 HD
ENDBRANCH  10  34
BRANCH   9  36
ATOM     36  C   UNL     1       7.358 -15.570  26.270  1.00  0.00     0.017 C 
ATOM     37  C   UNL     1       7.325 -14.705  27.533  1.00  0.00     0.012 C 
ATOM     38  C   UNL     1       8.793 -15.729  25.734  1.00  0.00     0.012 C 
ENDBRANCH   9  36
BRANCH   6  39
ATOM     39  C   UNL     1       4.244 -20.466  27.036  1.00  0.00     0.264 C 
ATOM     40  O   UNL     1       2.987 -20.449  26.965  1.00  0.00    -0.298 OA
ENDBRANCH   6  39
BRANCH   8  41
ATOM     41  O   UNL     1       6.330 -17.140  24.106  1.00  0.00    -0.504 OA
ATOM     42  H   UNL     1       7.145 -17.412  23.575  1.00  0.00     0.293 HD
ENDBRANCH   8  41
BRANCH   7  43
ATOM     43  O   UNL     1       4.562 -19.330  24.544  1.00  0.00    -0.504 OA
ATOM     44  H   UNL     1       4.985 -20.017  23.940  1.00  0.00     0.293 HD
ENDBRANCH   7  43
TORSDOF 11
ENDMDL
MODEL 2
REMARK VINA RESULT:    -0.447      2.291      9.004
REMARK INTER + INTRA:          -1.295
REMARK INTER:                  -0.328
REMARK INTRA:                  -0.968
REMARK UNBOUND:                -0.639
REMARK SMILES Cc1cc2c(C(C)C)c(O)c(O)c(C=O)c2c(O)c1-c1c(C)cc2c(C(C)C)c(O)c(O)c(C=O)c2c1O
REMARK SMILES IDX 1 1 2 2 3 3 4 4 16 5 13 6 11 7 9 8 5 9 17 10 19 11 20 12
REMARK SMILES IDX 37 13 21 14 36 15 23 16 22 17 24 18 33 19 25 20 31 21 29 22
REMARK SMILES IDX 38 23 34 25 35 26 26 27 27 28 28 29 32 30 30 32 18 34 6 36
REMARK SMILES IDX 7 37 8 38 14 39 15 40 10 41 12 43
REMARK H PARENT 38 24 32 31 30 33 18 35 10 42 12 44
REMARK Flexibility Score: inf
ROOT
ATOM      1  C   UNL     1       9.891 -20.197  31.123  1.00  0.00     0.045 C 
ATOM      2  C   UNL     1       9.056 -20.681  32.286  1.00  0.00    -0.039 A 
ATOM      3  C   UNL     1       9.692 -21.067  33.468  1.00  0.00     0.013 A 
ATOM      4  C   UNL     1       8.967 -21.539  34.585  1.00  0.00    -0.006 A 
ATOM      5  C   UNL     1       7.543 -21.476  34.549  1.00  0.00     0.039 A 
ATOM      6  C   UNL     1       6.812 -21.748  35.743  1.00  0.00     0.072 A 
ATOM      7  C   UNL     1       7.490 -22.116  36.919  1.00  0.00     0.169 A 
ATOM      8  C   UNL     1       8.892 -22.222  36.932  1.00  0.00     0.162 A 
ATOM      9  C   UNL     1       9.635 -22.042  35.743  1.00  0.00     0.008 A 
ATOM     10  C   UNL     1       6.899 -21.166  33.315  1.00  0.00     0.132 A 
ATOM     11  C   UNL     1       7.656 -20.747  32.200  1.00  0.00     0.031 A 
ENDROOT
BRANCH  11  12
ATOM     12  C   UNL     1       6.973 -20.366  30.935  1.00  0.00     0.031 A 
ATOM     13  C   UNL     1       6.725 -19.007  30.647  1.00  0.00     0.132 A 
ATOM     14  C   UNL     1       6.544 -21.362  30.044  1.00  0.00    -0.039 A 
ATOM     15  C   UNL     1       6.085 -18.630  29.427  1.00  0.00     0.039 A 
ATOM     16  C   UNL     1       5.823 -21.003  28.904  1.00  0.00     0.013 A 
ATOM     17  C   UNL     1       6.775 -22.826  30.336  1.00  0.00     0.045 C 
ATOM     18  C   UNL     1       5.606 -19.652  28.552  1.00  0.00    -0.006 A 
ATOM     19  C   UNL     1       5.867 -17.264  29.079  1.00  0.00     0.072 A 
ATOM     20  C   UNL     1       4.884 -19.302  27.367  1.00  0.00     0.008 A 
ATOM     21  C   UNL     1       5.037 -16.942  27.989  1.00  0.00     0.169 A 
ATOM     22  C   UNL     1       4.477 -17.960  27.198  1.00  0.00     0.162 A 
BRANCH  13  23
ATOM     23  O   UNL     1       7.070 -18.035  31.592  1.00  0.00    -0.507 OA
ATOM     24  H   UNL     1       7.426 -17.117  31.356  1.00  0.00     0.293 HD
ENDBRANCH  13  23
BRANCH  19  25
ATOM     25  C   UNL     1       6.558 -16.152  29.774  1.00  0.00     0.264 C 
ATOM     26  O   UNL     1       5.911 -15.302  30.442  1.00  0.00    -0.298 OA
ENDBRANCH  19  25
BRANCH  20  27
ATOM     27  C   UNL     1       4.488 -20.354  26.315  1.00  0.00     0.017 C 
ATOM     28  C   UNL     1       3.118 -20.962  26.638  1.00  0.00     0.012 C 
ATOM     29  C   UNL     1       4.543 -19.844  24.862  1.00  0.00     0.012 C 
ENDBRANCH  20  27
BRANCH  21  30
ATOM     30  O   UNL     1       4.824 -15.594  27.680  1.00  0.00    -0.504 OA
ATOM     31  H   UNL     1       5.553 -14.893  27.678  1.00  0.00     0.293 HD
ENDBRANCH  21  30
BRANCH  22  32
ATOM     32  O   UNL     1       3.500 -17.656  26.246  1.00  0.00    -0.504 OA
ATOM     33  H   UNL     1       3.287 -18.237  25.447  1.00  0.00     0.293 HD
ENDBRANCH  22  32
ENDBRANCH  11  12
BRANCH  10  34
ATOM     34  O   UNL     1       5.513 -21.312  33.184  1.00  0.00    -0.507 OA
ATOM     35  H   UNL     1       5.070 -22.055  32.659  1.00  0.00     0.293 HD
ENDBRANCH  10  34
BRANCH   9  36
ATOM     36  C   UNL     1      11.142 -22.366  35.727  1.00  0.00     0.017 C 
ATOM     37  C   UNL     1      11.923 -21.391  36.614  1.00  0.00     0.012 C 
ATOM     38  C   UNL     1      11.465 -23.830  36.080  1.00  0.00     0.012 C 
ENDBRANCH   9  36
BRANCH   6  39
ATOM     39  C   UNL     1       5.349 -21.538  35.837  1.00  0.00     0.264 C 
ATOM     40  O   UNL     1       4.872 -20.385  36.003  1.00  0.00    -0.298 OA
ENDBRANCH   6  39
BRANCH   8  41
ATOM     41  O   UNL     1       9.580 -22.467  38.125  1.00  0.00    -0.504 OA
ATOM     42  H   UNL     1       9.155 -22.828  38.967  1.00  0.00     0.293 HD
ENDBRANCH   8  41
BRANCH   7  43
ATOM     43  O   UNL     1       6.733 -22.369  38.071  1.00  0.00    -0.504 OA
ATOM     44  H   UNL     1       6.771 -23.224  38.603  1.00  0.00     0.293 HD
ENDBRANCH   7  43
TORSDOF 11
ENDMDL
MODEL 3
REMARK VINA RESULT:     0.546     12.537     15.441
REMARK INTER + INTRA:           0.163
REMARK INTER:                  -3.949
REMARK INTRA:                   4.112
REMARK UNBOUND:                -0.639
REMARK SMILES Cc1cc2c(C(C)C)c(O)c(O)c(C=O)c2c(O)c1-c1c(C)cc2c(C(C)C)c(O)c(O)c(C=O)c2c1O
REMARK SMILES IDX 1 1 2 2 3 3 4 4 16 5 13 6 11 7 9 8 5 9 17 10 19 11 20 12
REMARK SMILES IDX 37 13 21 14 36 15 23 16 22 17 24 18 33 19 25 20 31 21 29 22
REMARK SMILES IDX 38 23 34 25 35 26 26 27 27 28 28 29 32 30 30 32 18 34 6 36
REMARK SMILES IDX 7 37 8 38 14 39 15 40 10 41 12 43
REMARK H PARENT 38 24 32 31 30 33 18 35 10 42 12 44
REMARK Flexibility Score: inf
ROOT
ATOM      1  C   UNL     1       1.906 -14.364  21.617  1.00  0.00     0.045 C 
ATOM      2  C   UNL     1       1.166 -13.308  20.830  1.00  0.00    -0.039 A 
ATOM      3  C   UNL     1      -0.134 -12.964  21.204  1.00  0.00     0.013 A 
ATOM      4  C   UNL     1      -0.882 -11.993  20.500  1.00  0.00    -0.006 A 
ATOM      5  C   UNL     1      -0.232 -11.244  19.476  1.00  0.00     0.039 A 
ATOM      6  C   UNL     1      -0.907 -10.124  18.909  1.00  0.00     0.072 A 
ATOM      7  C   UNL     1      -2.211  -9.798  19.326  1.00  0.00     0.169 A 
ATOM      8  C   UNL     1      -2.862 -10.572  20.303  1.00  0.00     0.162 A 
ATOM      9  C   UNL     1      -2.250 -11.736  20.820  1.00  0.00     0.008 A 
ATOM     10  C   UNL     1       1.062 -11.656  19.039  1.00  0.00     0.132 A 
ATOM     11  C   UNL     1       1.762 -12.667  19.732  1.00  0.00     0.031 A 
ENDROOT
BRANCH  11  12
ATOM     12  C   UNL     1       3.135 -13.047  19.308  1.00  0.00     0.031 A 
ATOM     13  C   UNL     1       3.452 -14.402  19.069  1.00  0.00     0.132 A 
ATOM     14  C   UNL     1       4.127 -12.061  19.181  1.00  0.00    -0.039 A 
ATOM     15  C   UNL     1       4.764 -14.775  18.645  1.00  0.00     0.039 A 
ATOM     16  C   UNL     1       5.435 -12.436  18.872  1.00  0.00     0.013 A 
ATOM     17  C   UNL     1       3.823 -10.607  19.452  1.00  0.00     0.045 C 
ATOM     18  C   UNL     1       5.779 -13.772  18.568  1.00  0.00    -0.006 A 
ATOM     19  C   UNL     1       5.105 -16.126  18.342  1.00  0.00     0.072 A 
ATOM     20  C   UNL     1       7.122 -14.134  18.232  1.00  0.00     0.008 A 
ATOM     21  C   UNL     1       6.452 -16.484  18.152  1.00  0.00     0.169 A 
ATOM     22  C   UNL     1       7.459 -15.505  18.190  1.00  0.00     0.162 A 
BRANCH  13  23
ATOM     23  O   UNL     1       2.480 -15.381  19.297  1.00  0.00    -0.507 OA
ATOM     24  H   UNL     1       2.425 -16.254  18.788  1.00  0.00     0.293 HD
ENDBRANCH  13  23
BRANCH  19  25
ATOM     25  C   UNL     1       4.075 -17.171  18.130  1.00  0.00     0.264 C 
ATOM     26  O   UNL     1       4.372 -18.395  18.174  1.00  0.00    -0.298 OA
ENDBRANCH  19  25
BRANCH  20  27
ATOM     27  C   UNL     1       8.211 -13.075  17.981  1.00  0.00     0.017 C 
ATOM     28  C   UNL     1       7.605 -11.669  17.929  1.00  0.00     0.012 C 
ATOM     29  C   UNL     1       9.390 -13.138  18.971  1.00  0.00     0.012 C 
ENDBRANCH  20  27
BRANCH  21  30
ATOM     30  O   UNL     1       6.761 -17.821  17.875  1.00  0.00    -0.504 OA
ATOM     31  H   UNL     1       6.068 -18.538  17.706  1.00  0.00     0.293 HD
ENDBRANCH  21  30
BRANCH  22  32
ATOM     32  O   UNL     1       8.806 -15.878  18.201  1.00  0.00    -0.504 OA
ATOM     33  H   UNL     1       9.338 -16.105  17.373  1.00  0.00     0.293 HD
ENDBRANCH  22  32
ENDBRANCH  11  12
BRANCH  10  34
ATOM     34  O   UNL     1       1.634 -11.090  17.893  1.00  0.00    -0.507 OA
ATOM     35  H   UNL     1       1.100 -10.667  17.146  1.00  0.00     0.293 HD
ENDBRANCH  10  34
BRANCH   9  36
ATOM     36  C   UNL     1      -3.057 -12.684  21.730  1.00  0.00     0.017 C 
ATOM     37  C   UNL     1      -3.855 -13.695  20.901  1.00  0.00     0.012 C 
ATOM     38  C   UNL     1      -2.204 -13.386  22.804  1.00  0.00     0.012 C 
ENDBRANCH   9  36
BRANCH   6  39
ATOM     39  C   UNL     1      -0.241  -9.195  17.968  1.00  0.00     0.264 C 
ATOM     40  O   UNL     1       0.452  -8.233  18.393  1.00  0.00    -0.298 OA
ENDBRANCH   6  39
BRANCH   8  41
ATOM     41  O   UNL     1      -4.106 -10.183  20.810  1.00  0.00    -0.504 OA
ATOM     42  H   UNL     1      -4.995 -10.519  20.468  1.00  0.00     0.293 HD
ENDBRANCH   8  41
BRANCH   7  43
ATOM     43  O   UNL     1      -2.836  -8.687  18.746  1.00  0.00    -0.504 OA
ATOM     44  H   UNL     1      -3.538  -8.124  19.200  1.00  0.00     0.293 HD
ENDBRANCH   7  43
TORSDOF 11
ENDMDL
MODEL 4
REMARK VINA RESULT:     0.705      0.458      9.090
REMARK INTER + INTRA:           0.396
REMARK INTER:                   1.074
REMARK INTRA:                  -0.678
REMARK UNBOUND:                -0.639
REMARK SMILES Cc1cc2c(C(C)C)c(O)c(O)c(C=O)c2c(O)c1-c1c(C)cc2c(C(C)C)c(O)c(O)c(C=O)c2c1O
REMARK SMILES IDX 1 1 2 2 3 3 4 4 16 5 13 6 11 7 9 8 5 9 17 10 19 11 20 12
REMARK SMILES IDX 37 13 21 14 36 15 23 16 22 17 24 18 33 19 25 20 31 21 29 22
REMARK SMILES IDX 38 23 34 25 35 26 26 27 27 28 28 29 32 30 30 32 18 34 6 36
REMARK SMILES IDX 7 37 8 38 14 39 15 40 10 41 12 43
REMARK H PARENT 38 24 32 31 30 33 18 35 10 42 12 44
REMARK Flexibility Score: inf
ROOT
ATOM      1  C   UNL     1       3.854 -17.551  32.054  1.00  0.00     0.045 C 
ATOM      2  C   UNL     1       4.882 -18.526  32.577  1.00  0.00    -0.039 A 
ATOM      3  C   UNL     1       4.716 -19.074  33.851  1.00  0.00     0.013 A 
ATOM      4  C   UNL     1       5.650 -19.982  34.400  1.00  0.00    -0.006 A 
ATOM      5  C   UNL     1       6.705 -20.460  33.568  1.00  0.00     0.039 A 
ATOM      6  C   UNL     1       7.521 -21.530  34.040  1.00  0.00     0.072 A 
ATOM      7  C   UNL     1       7.311 -22.068  35.322  1.00  0.00     0.169 A 
ATOM      8  C   UNL     1       6.298 -21.557  36.154  1.00  0.00     0.162 A 
ATOM      9  C   UNL     1       5.531 -20.442  35.746  1.00  0.00     0.008 A 
ATOM     10  C   UNL     1       6.922 -19.834  32.305  1.00  0.00     0.132 A 
ATOM     11  C   UNL     1       5.997 -18.892  31.807  1.00  0.00     0.031 A 
ENDROOT
BRANCH  11  12
ATOM     12  C   UNL     1       6.197 -18.291  30.461  1.00  0.00     0.031 A 
ATOM     13  C   UNL     1       5.501 -18.805  29.346  1.00  0.00     0.132 A 
ATOM     14  C   UNL     1       7.106 -17.234  30.295  1.00  0.00    -0.039 A 
ATOM     15  C   UNL     1       5.673 -18.223  28.053  1.00  0.00     0.039 A 
ATOM     16  C   UNL     1       7.357 -16.736  29.015  1.00  0.00     0.013 A 
ATOM     17  C   UNL     1       7.882 -16.678  31.465  1.00  0.00     0.045 C 
ATOM     18  C   UNL     1       6.638 -17.183  27.885  1.00  0.00    -0.006 A 
ATOM     19  C   UNL     1       4.946 -18.681  26.915  1.00  0.00     0.072 A 
ATOM     20  C   UNL     1       6.893 -16.645  26.584  1.00  0.00     0.008 A 
ATOM     21  C   UNL     1       5.307 -18.241  25.628  1.00  0.00     0.169 A 
ATOM     22  C   UNL     1       6.337 -17.299  25.463  1.00  0.00     0.162 A 
BRANCH  13  23
ATOM     23  O   UNL     1       4.675 -19.922  29.513  1.00  0.00    -0.507 OA
ATOM     24  H   UNL     1       3.787 -20.044  29.043  1.00  0.00     0.293 HD
ENDBRANCH  13  23
BRANCH  19  25
ATOM     25  C   UNL     1       3.749 -19.548  27.040  1.00  0.00     0.264 C 
ATOM     26  O   UNL     1       3.790 -20.763  26.709  1.00  0.00    -0.298 OA
ENDBRANCH  19  25
BRANCH  20  27
ATOM     27  C   UNL     1       7.802 -15.420  26.374  1.00  0.00     0.017 C 
ATOM     28  C   UNL     1       7.793 -14.514  27.610  1.00  0.00     0.012 C 
ATOM     29  C   UNL     1       9.242 -15.769  25.949  1.00  0.00     0.012 C 
ENDBRANCH  20  27
BRANCH  21  30
ATOM     30  O   UNL     1       4.590 -18.721  24.527  1.00  0.00    -0.504 OA
ATOM     31  H   UNL     1       3.689 -18.361  24.239  1.00  0.00     0.293 HD
ENDBRANCH  21  30
BRANCH  22  32
ATOM     32  O   UNL     1       6.831 -17.012  24.187  1.00  0.00    -0.504 OA
ATOM     33  H   UNL     1       6.753 -17.635  23.396  1.00  0.00     0.293 HD
ENDBRANCH  22  32
ENDBRANCH  11  12
BRANCH  10  34
ATOM     34  O   UNL     1       8.074 -20.121  31.563  1.00  0.00    -0.507 OA
ATOM     35  H   UNL     1       8.428 -21.056  31.409  1.00  0.00     0.293 HD
ENDBRANCH  10  34
BRANCH   9  36
ATOM     36  C   UNL     1       4.573 -19.767  36.748  1.00  0.00     0.017 C 
ATOM     37  C   UNL     1       3.269 -20.559  36.881  1.00  0.00     0.012 C 
ATOM     38  C   UNL     1       5.208 -19.494  38.124  1.00  0.00     0.012 C 
ENDBRANCH   9  36
BRANCH   6  39
ATOM     39  C   UNL     1       8.522 -22.197  33.177  1.00  0.00     0.264 C 
ATOM     40  O   UNL     1       9.741 -21.887  33.243  1.00  0.00    -0.298 OA
ENDBRANCH   6  39
BRANCH   8  41
ATOM     41  O   UNL     1       6.004 -22.166  37.378  1.00  0.00    -0.504 OA
ATOM     42  H   UNL     1       6.214 -23.128  37.606  1.00  0.00     0.293 HD
ENDBRANCH   8  41
BRANCH   7  43
ATOM     43  O   UNL     1       8.133 -23.121  35.744  1.00  0.00    -0.504 OA
ATOM     44  H   UNL     1       8.266 -23.982  35.235  1.00  0.00     0.293 HD
ENDBRANCH   7  43
TORSDOF 11
ENDMDL
MODEL 5
REMARK VINA RESULT:     1.497      2.227      3.226
REMARK INTER + INTRA:           1.558
REMARK INTER:                   1.180
REMARK INTRA:                   0.378
REMARK UNBOUND:                -0.639
REMARK SMILES Cc1cc2c(C(C)C)c(O)c(O)c(C=O)c2c(O)c1-c1c(C)cc2c(C(C)C)c(O)c(O)c(C=O)c2c1O
REMARK SMILES IDX 1 1 2 2 3 3 4 4 16 5 13 6 11 7 9 8 5 9 17 10 19 11 20 12
REMARK SMILES IDX 37 13 21 14 36 15 23 16 22 17 24 18 33 19 25 20 31 21 29 22
REMARK SMILES IDX 38 23 34 25 35 26 26 27 27 28 28 29 32 30 30 32 18 34 6 36
REMARK SMILES IDX 7 37 8 38 14 39 15 40 10 41 12 43
REMARK H PARENT 38 24 32 31 30 33 18 35 10 42 12 44
REMARK Flexibility Score: inf
ROOT
ATOM      1  C   UNL     1       6.520 -20.408  29.414  1.00  0.00     0.045 C 
ATOM      2  C   UNL     1       6.829 -18.930  29.456  1.00  0.00    -0.039 A 
ATOM      3  C   UNL     1       7.247 -18.287  28.289  1.00  0.00     0.013 A 
ATOM      4  C   UNL     1       7.562 -16.909  28.268  1.00  0.00    -0.006 A 
ATOM      5  C   UNL     1       7.301 -16.133  29.435  1.00  0.00     0.039 A 
ATOM      6  C   UNL     1       7.414 -14.714  29.356  1.00  0.00     0.072 A 
ATOM      7  C   UNL     1       7.819 -14.101  28.157  1.00  0.00     0.169 A 
ATOM      8  C   UNL     1       8.121 -14.879  27.024  1.00  0.00     0.162 A 
ATOM      9  C   UNL     1       8.100 -16.290  27.099  1.00  0.00     0.008 A 
ATOM     10  C   UNL     1       6.960 -16.805  30.646  1.00  0.00     0.132 A 
ATOM     11  C   UNL     1       6.703 -18.192  30.644  1.00  0.00     0.031 A 
ENDROOT
BRANCH  11  12
ATOM     12  C   UNL     1       6.287 -18.875  31.898  1.00  0.00     0.031 A 
ATOM     13  C   UNL     1       7.135 -19.831  32.498  1.00  0.00     0.132 A 
ATOM     14  C   UNL     1       5.034 -18.594  32.465  1.00  0.00    -0.039 A 
ATOM     15  C   UNL     1       6.751 -20.478  33.712  1.00  0.00     0.039 A 
ATOM     16  C   UNL     1       4.612 -19.304  33.590  1.00  0.00     0.013 A 
ATOM     17  C   UNL     1       4.096 -17.593  31.834  1.00  0.00     0.045 C 
ATOM     18  C   UNL     1       5.454 -20.224  34.253  1.00  0.00    -0.006 A 
ATOM     19  C   UNL     1       7.605 -21.409  34.375  1.00  0.00     0.072 A 
ATOM     20  C   UNL     1       5.012 -20.928  35.418  1.00  0.00     0.008 A 
ATOM     21  C   UNL     1       7.105 -22.191  35.432  1.00  0.00     0.169 A 
ATOM     22  C   UNL     1       5.787 -22.012  35.886  1.00  0.00     0.162 A 
BRANCH  13  23
ATOM     23  O   UNL     1       8.335 -20.171  31.866  1.00  0.00    -0.507 OA
ATOM     24  H   UNL     1       8.550 -19.948  30.902  1.00  0.00     0.293 HD
ENDBRANCH  13  23
BRANCH  19  25
ATOM     25  C   UNL     1       9.047 -21.527  34.049  1.00  0.00     0.264 C 
ATOM     26  O   UNL     1       9.930 -21.322  34.924  1.00  0.00    -0.298 OA
ENDBRANCH  19  25
BRANCH  20  27
ATOM     27  C   UNL     1       3.692 -20.575  36.129  1.00  0.00     0.017 C 
ATOM     28  C   UNL     1       2.603 -21.602  35.801  1.00  0.00     0.012 C 
ATOM     29  C   UNL     1       3.830 -20.376  37.651  1.00  0.00     0.012 C 
ENDBRANCH  20  27
BRANCH  21  30
ATOM     30  O   UNL     1       7.958 -23.110  36.053  1.00  0.00    -0.504 OA
ATOM     31  H   UNL     1       8.941 -23.208  35.830  1.00  0.00     0.293 HD
ENDBRANCH  21  30
BRANCH  22  32
ATOM     32  O   UNL     1       5.224 -22.915  36.792  1.00  0.00    -0.504 OA
ATOM     33  H   UNL     1       5.193 -23.915  36.651  1.00  0.00     0.293 HD
ENDBRANCH  22  32
ENDBRANCH  11  12
BRANCH  10  34
ATOM     34  O   UNL     1       6.916 -16.102  31.856  1.00  0.00    -0.507 OA
ATOM     35  H   UNL     1       6.148 -15.507  32.135  1.00  0.00     0.293 HD
ENDBRANCH  10  34
BRANCH   9  36
ATOM     36  C   UNL     1       8.632 -17.126  25.917  1.00  0.00     0.017 C 
ATOM     37  C   UNL     1       7.968 -16.705  24.603  1.00  0.00     0.012 C 
ATOM     38  C   UNL     1      10.168 -17.122  25.798  1.00  0.00     0.012 C 
ENDBRANCH   9  36
BRANCH   6  39
ATOM     39  C   UNL     1       6.997 -13.827  30.466  1.00  0.00     0.264 C 
ATOM     40  O   UNL     1       5.813 -13.843  30.896  1.00  0.00    -0.298 OA
ENDBRANCH   6  39
BRANCH   8  41
ATOM     41  O   UNL     1       8.405 -14.273  25.796  1.00  0.00    -0.504 OA
ATOM     42  H   UNL     1       9.329 -14.006  25.489  1.00  0.00     0.293 HD
ENDBRANCH   8  41
BRANCH   7  43
ATOM     43  O   UNL     1       7.912 -12.704  28.122  1.00  0.00    -0.504 OA
ATOM     44  H   UNL     1       7.276 -12.100  27.625  1.00  0.00     0.293 HD
ENDBRANCH   7  43
TORSDOF 11
ENDMDL
MODEL 6
REMARK VINA RESULT:     1.777      2.301      4.602
REMARK INTER + INTRA:           1.970
REMARK INTER:                   2.870
REMARK INTRA:                  -0.900
REMARK UNBOUND:                -0.639
REMARK SMILES Cc1cc2c(C(C)C)c(O)c(O)c(C=O)c2c(O)c1-c1c(C)cc2c(C(C)C)c(O)c(O)c(C=O)c2c1O
REMARK SMILES IDX 1 1 2 2 3 3 4 4 16 5 13 6 11 7 9 8 5 9 17 10 19 11 20 12
REMARK SMILES IDX 37 13 21 14 36 15 23 16 22 17 24 18 33 19 25 20 31 21 29 22
REMARK SMILES IDX 38 23 34 25 35 26 26 27 27 28 28 29 32 30 30 32 18 34 6 36
REMARK SMILES IDX 7 37 8 38 14 39 15 40 10 41 12 43
REMARK H PARENT 38 24 32 31 30 33 18 35 10 42 12 44
REMARK Flexibility Score: inf
ROOT
ATOM      1  C   UNL     1       6.291 -22.799  30.372  1.00  0.00     0.045 C 
ATOM      2  C   UNL     1       6.233 -21.326  30.042  1.00  0.00    -0.039 A 
ATOM      3  C   UNL     1       5.596 -20.913  28.871  1.00  0.00     0.013 A 
ATOM      4  C   UNL     1       5.520 -19.550  28.503  1.00  0.00    -0.006 A 
ATOM      5  C   UNL     1       5.976 -18.568  29.430  1.00  0.00     0.039 A 
ATOM      6  C   UNL     1       5.710 -17.193  29.162  1.00  0.00     0.072 A 
ATOM      7  C   UNL     1       5.049 -16.818  27.979  1.00  0.00     0.169 A 
ATOM      8  C   UNL     1       4.645 -17.792  27.047  1.00  0.00     0.162 A 
ATOM      9  C   UNL     1       4.971 -19.152  27.246  1.00  0.00     0.008 A 
ATOM     10  C   UNL     1       6.703 -18.994  30.581  1.00  0.00     0.132 A 
ATOM     11  C   UNL     1       6.806 -20.366  30.893  1.00  0.00     0.031 A 
ENDROOT
BRANCH  11  12
ATOM     12  C   UNL     1       7.512 -20.799  32.128  1.00  0.00     0.031 A 
ATOM     13  C   UNL     1       6.784 -21.030  33.316  1.00  0.00     0.132 A 
ATOM     14  C   UNL     1       8.908 -20.943  32.122  1.00  0.00    -0.039 A 
ATOM     15  C   UNL     1       7.451 -21.464  34.502  1.00  0.00     0.039 A 
ATOM     16  C   UNL     1       9.574 -21.261  33.307  1.00  0.00     0.013 A 
ATOM     17  C   UNL     1       9.716 -20.681  30.874  1.00  0.00     0.045 C 
ATOM     18  C   UNL     1       8.877 -21.558  34.500  1.00  0.00    -0.006 A 
ATOM     19  C   UNL     1       6.742 -21.758  35.703  1.00  0.00     0.072 A 
ATOM     20  C   UNL     1       9.575 -21.902  35.700  1.00  0.00     0.008 A 
ATOM     21  C   UNL     1       7.447 -21.958  36.904  1.00  0.00     0.169 A 
ATOM     22  C   UNL     1       8.853 -21.937  36.914  1.00  0.00     0.162 A 
BRANCH  13  23
ATOM     23  O   UNL     1       5.407 -20.786  33.330  1.00  0.00    -0.507 OA
ATOM     24  H   UNL     1       4.703 -21.507  33.233  1.00  0.00     0.293 HD
ENDBRANCH  13  23
BRANCH  19  25
ATOM     25  C   UNL     1       5.272 -21.953  35.724  1.00  0.00     0.264 C 
ATOM     26  O   UNL     1       4.514 -21.119  36.289  1.00  0.00    -0.298 OA
ENDBRANCH  19  25
BRANCH  20  27
ATOM     27  C   UNL     1      11.091 -22.171  35.711  1.00  0.00     0.017 C 
ATOM     28  C   UNL     1      11.835 -21.078  36.485  1.00  0.00     0.012 C 
ATOM     29  C   UNL     1      11.478 -23.574  36.217  1.00  0.00     0.012 C 
ENDBRANCH  20  27
BRANCH  21  30
ATOM     30  O   UNL     1       6.726 -22.227  38.073  1.00  0.00    -0.504 OA
ATOM     31  H   UNL     1       5.888 -22.792  38.101  1.00  0.00     0.293 HD
ENDBRANCH  21  30
BRANCH  22  32
ATOM     32  O   UNL     1       9.550 -21.934  38.125  1.00  0.00    -0.504 OA
ATOM     33  H   UNL     1      10.552 -22.034  38.202  1.00  0.00     0.293 HD
ENDBRANCH  22  32
ENDBRANCH  11  12
BRANCH  10  34
ATOM     34  O   UNL     1       7.355 -18.057  31.392  1.00  0.00    -0.507 OA
ATOM     35  H   UNL     1       7.126 -17.894  32.363  1.00  0.00     0.293 HD
ENDBRANCH  10  34
BRANCH   9  36
ATOM     36  C   UNL     1       4.707 -20.174  26.122  1.00  0.00     0.017 C 
ATOM     37  C   UNL     1       5.660 -21.368  26.229  1.00  0.00     0.012 C 
ATOM     38  C   UNL     1       3.238 -20.632  26.035  1.00  0.00     0.012 C 
ENDBRANCH   9  36
BRANCH   6  39
ATOM     39  C   UNL     1       5.996 -16.128  30.150  1.00  0.00     0.264 C 
ATOM     40  O   UNL     1       6.874 -15.255  29.922  1.00  0.00    -0.298 OA
ENDBRANCH   6  39
BRANCH   8  41
ATOM     41  O   UNL     1       3.881 -17.438  25.930  1.00  0.00    -0.504 OA
ATOM     42  H   UNL     1       3.040 -16.880  25.964  1.00  0.00     0.293 HD
ENDBRANCH   8  41
BRANCH   7  43
ATOM     43  O   UNL     1       4.804 -15.457  27.757  1.00  0.00    -0.504 OA
ATOM     44  H   UNL     1       4.500 -15.066  26.879  1.00  0.00     0.293 HD
ENDBRANCH   7  43
TORSDOF 11
ENDMDL
