MODEL 1
REMARK VINA RESULT:    -6.628      0.000      0.000
REMARK INTER + INTRA:         -14.385
REMARK INTER:                 -12.441
REMARK INTRA:                  -1.945
REMARK UNBOUND:                -1.945
REMARK SMILES CCCCCCCCC=CCCCCCCCC(=O)[O-]
REMARK SMILES IDX 10 1 9 2 11 3 12 4 13 5 14 6 15 7 16 8 17 9 18 10 19 11
REMARK SMILES IDX 20 12 8 13 7 14 6 15 5 16 4 17 3 18 2 19 1 20
REMARK H PARENT
REMARK Flexibility Score: inf
ROOT
ATOM      1  C   UNL     1     131.025 127.505 127.331  1.00  0.00    -0.031 C 
ATOM      2  C   UNL     1     129.774 127.981 127.179  1.00  0.00    -0.031 C 
ENDROOT
BRANCH   1   3
ATOM      3  C   UNL     1     131.797 126.763 126.267  1.00  0.00     0.027 C 
BRANCH   3   4
ATOM      4  C   UNL     1     131.120 125.438 125.891  1.00  0.00     0.004 C 
BRANCH   4   5
ATOM      5  C   UNL     1     131.183 124.405 127.031  1.00  0.00     0.000 C 
BRANCH   5   6
ATOM      6  C   UNL     1     129.959 123.466 127.032  1.00  0.00     0.000 C 
BRANCH   6   7
ATOM      7  C   UNL     1     128.613 124.205 127.165  1.00  0.00     0.000 C 
BRANCH   7   8
ATOM      8  C   UNL     1     128.433 124.991 128.474  1.00  0.00     0.006 C 
BRANCH   8   9
ATOM      9  C   UNL     1     126.992 125.475 128.682  1.00  0.00     0.053 C 
BRANCH   9  10
ATOM     10  C   UNL     1     126.104 124.327 129.046  1.00  0.00     0.041 C 
ATOM     11  O   UNL     1     124.885 124.346 128.735  1.00  0.00    -0.550 OA
ATOM     12  O   UNL     1     126.612 123.260 129.775  1.00  0.00    -0.550 OA
ENDBRANCH   9  10
ENDBRANCH   8   9
ENDBRANCH   7   8
ENDBRANCH   6   7
ENDBRANCH   5   6
ENDBRANCH   4   5
ENDBRANCH   3   4
ENDBRANCH   1   3
BRANCH   2  13
ATOM     13  C   UNL     1     128.913 127.759 125.961  1.00  0.00     0.027 C 
BRANCH  13  14
ATOM     14  C   UNL     1     129.326 128.706 124.829  1.00  0.00     0.004 C 
BRANCH  14  15
ATOM     15  C   UNL     1     129.598 127.929 123.536  1.00  0.00     0.000 C 
BRANCH  15  16
ATOM     16  C   UNL     1     128.642 126.735 123.400  1.00  0.00     0.000 C 
BRANCH  16  17
ATOM     17  C   UNL     1     127.732 126.834 122.163  1.00  0.00    -0.000 C 
BRANCH  17  18
ATOM     18  C   UNL     1     127.773 128.190 121.428  1.00  0.00    -0.000 C 
BRANCH  18  19
ATOM     19  C   UNL     1     126.697 129.199 121.865  1.00  0.00    -0.003 C 
ATOM     20  C   UNL     1     125.381 128.531 122.259  1.00  0.00     0.004 C 
ENDBRANCH  18  19
ENDBRANCH  17  18
ENDBRANCH  16  17
ENDBRANCH  15  16
ENDBRANCH  14  15
ENDBRANCH  13  14
ENDBRANCH   2  13
TORSDOF 15
ENDMDL
MODEL 2
REMARK VINA RESULT:    -6.315      1.541      2.798
REMARK INTER + INTRA:         -13.797
REMARK INTER:                 -12.247
REMARK INTRA:                  -1.549
REMARK UNBOUND:                -1.945
REMARK SMILES CCCCCCCCC=CCCCCCCCC(=O)[O-]
REMARK SMILES IDX 10 1 9 2 11 3 12 4 13 5 14 6 15 7 16 8 17 9 18 10 19 11
REMARK SMILES IDX 20 12 8 13 7 14 6 15 5 16 4 17 3 18 2 19 1 20
REMARK H PARENT
REMARK Flexibility Score: inf
ROOT
ATOM      1  C   UNL     1     131.153 124.849 127.336  1.00  0.00    -0.031 C 
ATOM      2  C   UNL     1     131.596 126.054 126.934  1.00  0.00    -0.031 C 
ENDROOT
BRANCH   1   3
ATOM      3  C   UNL     1     130.125 124.022 126.603  1.00  0.00     0.027 C 
BRANCH   3   4
ATOM      4  C   UNL     1     128.885 123.754 127.467  1.00  0.00     0.004 C 
BRANCH   4   5
ATOM      5  C   UNL     1     128.179 125.053 127.894  1.00  0.00     0.000 C 
BRANCH   5   6
ATOM      6  C   UNL     1     127.487 124.915 129.267  1.00  0.00     0.000 C 
BRANCH   6   7
ATOM      7  C   UNL     1     126.333 123.893 129.277  1.00  0.00     0.000 C 
BRANCH   7   8
ATOM      8  C   UNL     1     124.971 124.452 128.831  1.00  0.00     0.006 C 
BRANCH   8   9
ATOM      9  C   UNL     1     124.575 125.725 129.588  1.00  0.00     0.053 C 
BRANCH   9  10
ATOM     10  C   UNL     1     123.439 126.410 128.898  1.00  0.00     0.041 C 
ATOM     11  O   UNL     1     122.702 125.770 128.103  1.00  0.00    -0.550 OA
ATOM     12  O   UNL     1     123.225 127.769 129.093  1.00  0.00    -0.550 OA
ENDBRANCH   9  10
ENDBRANCH   8   9
ENDBRANCH   7   8
ENDBRANCH   6   7
ENDBRANCH   5   6
ENDBRANCH   4   5
ENDBRANCH   3   4
ENDBRANCH   1   3
BRANCH   2  13
ATOM     13  C   UNL     1     131.064 126.811 125.743  1.00  0.00     0.027 C 
BRANCH  13  14
ATOM     14  C   UNL     1     129.994 127.818 126.178  1.00  0.00     0.004 C 
BRANCH  14  15
ATOM     15  C   UNL     1     128.727 127.675 125.326  1.00  0.00     0.000 C 
BRANCH  15  16
ATOM     16  C   UNL     1     129.053 127.798 123.831  1.00  0.00     0.000 C 
BRANCH  16  17
ATOM     17  C   UNL     1     128.390 126.699 122.981  1.00  0.00    -0.000 C 
BRANCH  17  18
ATOM     18  C   UNL     1     127.149 127.150 122.184  1.00  0.00    -0.000 C 
BRANCH  18  19
ATOM     19  C   UNL     1     127.100 128.651 121.852  1.00  0.00    -0.003 C 
ATOM     20  C   UNL     1     125.720 129.267 122.082  1.00  0.00     0.004 C 
ENDBRANCH  18  19
ENDBRANCH  17  18
ENDBRANCH  16  17
ENDBRANCH  15  16
ENDBRANCH  14  15
ENDBRANCH  13  14
ENDBRANCH   2  13
TORSDOF 15
ENDMDL
MODEL 3
REMARK VINA RESULT:    -6.211      2.692      6.199
REMARK INTER + INTRA:         -13.602
REMARK INTER:                 -11.761
REMARK INTRA:                  -1.841
REMARK UNBOUND:                -1.945
REMARK SMILES CCCCCCCCC=CCCCCCCCC(=O)[O-]
REMARK SMILES IDX 10 1 9 2 11 3 12 4 13 5 14 6 15 7 16 8 17 9 18 10 19 11
REMARK SMILES IDX 20 12 8 13 7 14 6 15 5 16 4 17 3 18 2 19 1 20
REMARK H PARENT
REMARK Flexibility Score: inf
ROOT
ATOM      1  C   UNL     1     131.269 127.716 126.981  1.00  0.00    -0.031 C 
ATOM      2  C   UNL     1     131.909 126.700 126.373  1.00  0.00    -0.031 C 
ENDROOT
BRANCH   1   3
ATOM      3  C   UNL     1     129.812 127.702 127.376  1.00  0.00     0.027 C 
BRANCH   3   4
ATOM      4  C   UNL     1     128.888 127.675 126.150  1.00  0.00     0.004 C 
BRANCH   4   5
ATOM      5  C   UNL     1     129.283 128.728 125.099  1.00  0.00     0.000 C 
BRANCH   5   6
ATOM      6  C   UNL     1     129.475 128.109 123.699  1.00  0.00     0.000 C 
BRANCH   6   7
ATOM      7  C   UNL     1     128.683 126.803 123.487  1.00  0.00     0.000 C 
BRANCH   7   8
ATOM      8  C   UNL     1     127.489 126.920 122.525  1.00  0.00     0.006 C 
BRANCH   8   9
ATOM      9  C   UNL     1     127.475 128.246 121.754  1.00  0.00     0.053 C 
BRANCH   9  10
ATOM     10  C   UNL     1     126.170 128.949 121.947  1.00  0.00     0.041 C 
ATOM     11  O   UNL     1     126.109 130.204 121.878  1.00  0.00    -0.550 OA
ATOM     12  O   UNL     1     125.028 128.221 122.258  1.00  0.00    -0.550 OA
ENDBRANCH   9  10
ENDBRANCH   8   9
ENDBRANCH   7   8
ENDBRANCH   6   7
ENDBRANCH   5   6
ENDBRANCH   4   5
ENDBRANCH   3   4
ENDBRANCH   1   3
BRANCH   2  13
ATOM     13  C   UNL     1     131.248 125.429 125.902  1.00  0.00     0.027 C 
BRANCH  13  14
ATOM     14  C   UNL     1     131.133 124.421 127.051  1.00  0.00     0.004 C 
BRANCH  14  15
ATOM     15  C   UNL     1     130.041 123.385 126.765  1.00  0.00     0.000 C 
BRANCH  15  16
ATOM     16  C   UNL     1     128.644 124.007 126.898  1.00  0.00     0.000 C 
BRANCH  16  17
ATOM     17  C   UNL     1     128.171 124.112 128.359  1.00  0.00    -0.000 C 
BRANCH  17  18
ATOM     18  C   UNL     1     127.384 125.394 128.701  1.00  0.00    -0.000 C 
BRANCH  18  19
ATOM     19  C   UNL     1     126.077 125.167 129.478  1.00  0.00    -0.003 C 
ATOM     20  C   UNL     1     125.159 124.142 128.813  1.00  0.00     0.004 C 
ENDBRANCH  18  19
ENDBRANCH  17  18
ENDBRANCH  16  17
ENDBRANCH  15  16
ENDBRANCH  14  15
ENDBRANCH  13  14
ENDBRANCH   2  13
TORSDOF 15
ENDMDL
MODEL 4
REMARK VINA RESULT:    -6.047      2.938      6.138
REMARK INTER + INTRA:         -13.294
REMARK INTER:                 -11.541
REMARK INTRA:                  -1.753
REMARK UNBOUND:                -1.945
REMARK SMILES CCCCCCCCC=CCCCCCCCC(=O)[O-]
REMARK SMILES IDX 10 1 9 2 11 3 12 4 13 5 14 6 15 7 16 8 17 9 18 10 19 11
REMARK SMILES IDX 20 12 8 13 7 14 6 15 5 16 4 17 3 18 2 19 1 20
REMARK H PARENT
REMARK Flexibility Score: inf
ROOT
ATOM      1  C   UNL     1     131.916 125.843 127.115  1.00  0.00    -0.031 C 
ATOM      2  C   UNL     1     131.283 124.655 127.083  1.00  0.00    -0.031 C 
ENDROOT
BRANCH   1   3
ATOM      3  C   UNL     1     131.441 127.090 126.407  1.00  0.00     0.027 C 
BRANCH   3   4
ATOM      4  C   UNL     1     130.406 127.860 127.240  1.00  0.00     0.004 C 
BRANCH   4   5
ATOM      5  C   UNL     1     129.066 128.023 126.500  1.00  0.00     0.000 C 
BRANCH   5   6
ATOM      6  C   UNL     1     129.230 127.918 124.969  1.00  0.00     0.000 C 
BRANCH   6   7
ATOM      7  C   UNL     1     128.305 126.871 124.318  1.00  0.00     0.000 C 
BRANCH   7   8
ATOM      8  C   UNL     1     128.381 126.805 122.784  1.00  0.00     0.006 C 
BRANCH   8   9
ATOM      9  C   UNL     1     126.999 126.830 122.119  1.00  0.00     0.053 C 
BRANCH   9  10
ATOM     10  C   UNL     1     126.434 128.214 122.146  1.00  0.00     0.041 C 
ATOM     11  O   UNL     1     125.197 128.391 122.301  1.00  0.00    -0.550 OA
ATOM     12  O   UNL     1     127.265 129.309 121.947  1.00  0.00    -0.550 OA
ENDBRANCH   9  10
ENDBRANCH   8   9
ENDBRANCH   7   8
ENDBRANCH   6   7
ENDBRANCH   5   6
ENDBRANCH   4   5
ENDBRANCH   3   4
ENDBRANCH   1   3
BRANCH   2  13
ATOM     13  C   UNL     1     130.058 124.357 126.255  1.00  0.00     0.027 C 
BRANCH  13  14
ATOM     14  C   UNL     1     128.966 123.716 127.119  1.00  0.00     0.004 C 
BRANCH  14  15
ATOM     15  C   UNL     1     128.278 124.765 128.001  1.00  0.00     0.000 C 
BRANCH  15  16
ATOM     16  C   UNL     1     127.164 124.130 128.844  1.00  0.00     0.000 C 
BRANCH  16  17
ATOM     17  C   UNL     1     126.269 125.172 129.538  1.00  0.00    -0.000 C 
BRANCH  17  18
ATOM     18  C   UNL     1     124.778 125.117 129.148  1.00  0.00    -0.000 C 
BRANCH  18  19
ATOM     19  C   UNL     1     124.050 126.471 129.167  1.00  0.00    -0.003 C 
ATOM     20  C   UNL     1     122.636 126.396 128.594  1.00  0.00     0.004 C 
ENDBRANCH  18  19
ENDBRANCH  17  18
ENDBRANCH  16  17
ENDBRANCH  15  16
ENDBRANCH  14  15
ENDBRANCH  13  14
ENDBRANCH   2  13
TORSDOF 15
ENDMDL
MODEL 5
REMARK VINA RESULT:    -6.025      2.446      4.157
REMARK INTER + INTRA:         -13.252
REMARK INTER:                 -11.820
REMARK INTRA:                  -1.433
REMARK UNBOUND:                -1.945
REMARK SMILES CCCCCCCCC=CCCCCCCCC(=O)[O-]
REMARK SMILES IDX 10 1 9 2 11 3 12 4 13 5 14 6 15 7 16 8 17 9 18 10 19 11
REMARK SMILES IDX 20 12 8 13 7 14 6 15 5 16 4 17 3 18 2 19 1 20
REMARK H PARENT
REMARK Flexibility Score: inf
ROOT
ATOM      1  C   UNL     1     128.742 124.107 127.377  1.00  0.00    -0.031 C 
ATOM      2  C   UNL     1     129.995 124.084 126.886  1.00  0.00    -0.031 C 
ENDROOT
BRANCH   1   3
ATOM      3  C   UNL     1     128.107 125.296 128.058  1.00  0.00     0.027 C 
BRANCH   3   4
ATOM      4  C   UNL     1     127.488 124.915 129.409  1.00  0.00     0.004 C 
BRANCH   4   5
ATOM      5  C   UNL     1     126.448 123.788 129.278  1.00  0.00     0.000 C 
BRANCH   5   6
ATOM      6  C   UNL     1     125.058 124.323 128.874  1.00  0.00     0.000 C 
BRANCH   6   7
ATOM      7  C   UNL     1     124.630 125.582 129.654  1.00  0.00     0.000 C 
BRANCH   7   8
ATOM      8  C   UNL     1     123.595 126.467 128.938  1.00  0.00     0.006 C 
BRANCH   8   9
ATOM      9  C   UNL     1     123.233 127.723 129.740  1.00  0.00     0.053 C 
BRANCH   9  10
ATOM     10  C   UNL     1     122.423 127.358 130.943  1.00  0.00     0.041 C 
ATOM     11  O   UNL     1     122.903 127.504 132.097  1.00  0.00    -0.550 OA
ATOM     12  O   UNL     1     121.158 126.808 130.788  1.00  0.00    -0.550 OA
ENDBRANCH   9  10
ENDBRANCH   8   9
ENDBRANCH   7   8
ENDBRANCH   6   7
ENDBRANCH   5   6
ENDBRANCH   4   5
ENDBRANCH   3   4
ENDBRANCH   1   3
BRANCH   2  13
ATOM     13  C   UNL     1     130.994 125.205 127.028  1.00  0.00     0.027 C 
BRANCH  13  14
ATOM     14  C   UNL     1     130.996 126.089 125.776  1.00  0.00     0.004 C 
BRANCH  14  15
ATOM     15  C   UNL     1     130.301 127.428 126.050  1.00  0.00     0.000 C 
BRANCH  15  16
ATOM     16  C   UNL     1     129.000 127.547 125.243  1.00  0.00     0.000 C 
BRANCH  16  17
ATOM     17  C   UNL     1     129.033 126.744 123.931  1.00  0.00    -0.000 C 
BRANCH  17  18
ATOM     18  C   UNL     1     127.799 126.926 123.023  1.00  0.00    -0.000 C 
BRANCH  18  19
ATOM     19  C   UNL     1     127.927 128.037 121.967  1.00  0.00    -0.003 C 
ATOM     20  C   UNL     1     126.716 128.969 121.935  1.00  0.00     0.004 C 
ENDBRANCH  18  19
ENDBRANCH  17  18
ENDBRANCH  16  17
ENDBRANCH  15  16
ENDBRANCH  14  15
ENDBRANCH  13  14
ENDBRANCH   2  13
TORSDOF 15
ENDMDL
MODEL 6
REMARK VINA RESULT:    -5.982      3.070      6.122
REMARK INTER + INTRA:         -13.173
REMARK INTER:                 -11.325
REMARK INTRA:                  -1.848
REMARK UNBOUND:                -1.945
REMARK SMILES CCCCCCCCC=CCCCCCCCC(=O)[O-]
REMARK SMILES IDX 10 1 9 2 11 3 12 4 13 5 14 6 15 7 16 8 17 9 18 10 19 11
REMARK SMILES IDX 20 12 8 13 7 14 6 15 5 16 4 17 3 18 2 19 1 20
REMARK H PARENT
REMARK Flexibility Score: inf
ROOT
ATOM      1  C   UNL     1     130.307 123.692 126.744  1.00  0.00    -0.031 C 
ATOM      2  C   UNL     1     129.137 123.698 127.410  1.00  0.00    -0.031 C 
ENDROOT
BRANCH   1   3
ATOM      3  C   UNL     1     130.885 124.877 126.010  1.00  0.00     0.027 C 
BRANCH   3   4
ATOM      4  C   UNL     1     131.749 125.752 126.928  1.00  0.00     0.004 C 
BRANCH   4   5
ATOM      5  C   UNL     1     131.496 127.255 126.712  1.00  0.00     0.000 C 
BRANCH   5   6
ATOM      6  C   UNL     1     130.206 127.733 127.411  1.00  0.00     0.000 C 
BRANCH   6   7
ATOM      7  C   UNL     1     129.204 128.417 126.460  1.00  0.00     0.000 C 
BRANCH   7   8
ATOM      8  C   UNL     1     129.530 128.272 124.963  1.00  0.00     0.006 C 
BRANCH   8   9
ATOM      9  C   UNL     1     128.603 127.282 124.247  1.00  0.00     0.053 C 
BRANCH   9  10
ATOM     10  C   UNL     1     127.954 127.935 123.069  1.00  0.00     0.041 C 
ATOM     11  O   UNL     1     128.650 128.567 122.232  1.00  0.00    -0.550 OA
ATOM     12  O   UNL     1     126.574 127.891 122.922  1.00  0.00    -0.550 OA
ENDBRANCH   9  10
ENDBRANCH   8   9
ENDBRANCH   7   8
ENDBRANCH   6   7
ENDBRANCH   5   6
ENDBRANCH   4   5
ENDBRANCH   3   4
ENDBRANCH   1   3
BRANCH   2  13
ATOM     13  C   UNL     1     128.174 124.859 127.442  1.00  0.00     0.027 C 
BRANCH  13  14
ATOM     14  C   UNL     1     127.841 125.244 128.887  1.00  0.00     0.004 C 
BRANCH  14  15
ATOM     15  C   UNL     1     127.080 124.116 129.595  1.00  0.00     0.000 C 
BRANCH  15  16
ATOM     16  C   UNL     1     125.599 124.117 129.194  1.00  0.00     0.000 C 
BRANCH  16  17
ATOM     17  C   UNL     1     124.893 125.448 129.507  1.00  0.00    -0.000 C 
BRANCH  17  18
ATOM     18  C   UNL     1     123.544 125.658 128.789  1.00  0.00    -0.000 C 
BRANCH  18  19
ATOM     19  C   UNL     1     122.638 126.735 129.409  1.00  0.00    -0.003 C 
ATOM     20  C   UNL     1     122.686 128.061 128.651  1.00  0.00     0.004 C 
ENDBRANCH  18  19
ENDBRANCH  17  18
ENDBRANCH  16  17
ENDBRANCH  15  16
ENDBRANCH  14  15
ENDBRANCH  13  14
ENDBRANCH   2  13
TORSDOF 15
ENDMDL
MODEL 7
REMARK VINA RESULT:    -5.614      3.104      6.127
REMARK INTER + INTRA:         -12.481
REMARK INTER:                 -11.066
REMARK INTRA:                  -1.415
REMARK UNBOUND:                -1.945
REMARK SMILES CCCCCCCCC=CCCCCCCCC(=O)[O-]
REMARK SMILES IDX 10 1 9 2 11 3 12 4 13 5 14 6 15 7 16 8 17 9 18 10 19 11
REMARK SMILES IDX 20 12 8 13 7 14 6 15 5 16 4 17 3 18 2 19 1 20
REMARK H PARENT
REMARK Flexibility Score: inf
ROOT
ATOM      1  C   UNL     1     130.133 126.453 127.814  1.00  0.00    -0.031 C 
ATOM      2  C   UNL     1     128.969 125.833 128.080  1.00  0.00    -0.031 C 
ENDROOT
BRANCH   1   3
ATOM      3  C   UNL     1     131.284 125.835 127.058  1.00  0.00     0.027 C 
BRANCH   3   4
ATOM      4  C   UNL     1     131.559 126.567 125.737  1.00  0.00     0.004 C 
BRANCH   4   5
ATOM      5  C   UNL     1     131.152 125.731 124.510  1.00  0.00     0.000 C 
BRANCH   5   6
ATOM      6  C   UNL     1     130.025 126.403 123.697  1.00  0.00     0.000 C 
BRANCH   6   7
ATOM      7  C   UNL     1     129.422 127.643 124.386  1.00  0.00     0.000 C 
BRANCH   7   8
ATOM      8  C   UNL     1     128.727 128.636 123.439  1.00  0.00     0.006 C 
BRANCH   8   9
ATOM      9  C   UNL     1     128.266 127.983 122.130  1.00  0.00     0.053 C 
BRANCH   9  10
ATOM     10  C   UNL     1     126.782 127.800 122.132  1.00  0.00     0.041 C 
ATOM     11  O   UNL     1     126.278 126.709 121.759  1.00  0.00    -0.550 OA
ATOM     12  O   UNL     1     125.953 128.853 122.496  1.00  0.00    -0.550 OA
ENDBRANCH   9  10
ENDBRANCH   8   9
ENDBRANCH   7   8
ENDBRANCH   6   7
ENDBRANCH   5   6
ENDBRANCH   4   5
ENDBRANCH   3   4
ENDBRANCH   1   3
BRANCH   2  13
ATOM     13  C   UNL     1     128.670 124.392 127.753  1.00  0.00     0.027 C 
BRANCH  13  14
ATOM     14  C   UNL     1     127.615 123.828 128.711  1.00  0.00     0.004 C 
BRANCH  14  15
ATOM     15  C   UNL     1     126.542 124.877 129.024  1.00  0.00     0.000 C 
BRANCH  15  16
ATOM     16  C   UNL     1     125.133 124.284 128.874  1.00  0.00     0.000 C 
BRANCH  16  17
ATOM     17  C   UNL     1     124.026 125.352 128.916  1.00  0.00    -0.000 C 
BRANCH  17  18
ATOM     18  C   UNL     1     124.508 126.779 129.249  1.00  0.00    -0.000 C 
BRANCH  18  19
ATOM     19  C   UNL     1     123.403 127.848 129.278  1.00  0.00    -0.003 C 
ATOM     20  C   UNL     1     122.398 127.697 128.137  1.00  0.00     0.004 C 
ENDBRANCH  18  19
ENDBRANCH  17  18
ENDBRANCH  16  17
ENDBRANCH  15  16
ENDBRANCH  14  15
ENDBRANCH  13  14
ENDBRANCH   2  13
TORSDOF 15
ENDMDL
MODEL 8
REMARK VINA RESULT:    -5.530      3.741      5.756
REMARK INTER + INTRA:         -12.323
REMARK INTER:                 -11.156
REMARK INTRA:                  -1.168
REMARK UNBOUND:                -1.945
REMARK SMILES CCCCCCCCC=CCCCCCCCC(=O)[O-]
REMARK SMILES IDX 10 1 9 2 11 3 12 4 13 5 14 6 15 7 16 8 17 9 18 10 19 11
REMARK SMILES IDX 20 12 8 13 7 14 6 15 5 16 4 17 3 18 2 19 1 20
REMARK H PARENT
REMARK Flexibility Score: inf
ROOT
ATOM      1  C   UNL     1     127.487 125.386 128.791  1.00  0.00    -0.031 C 
ATOM      2  C   UNL     1     128.486 125.226 127.902  1.00  0.00    -0.031 C 
ENDROOT
BRANCH   1   3
ATOM      3  C   UNL     1     126.645 124.264 129.349  1.00  0.00     0.027 C 
BRANCH   3   4
ATOM      4  C   UNL     1     125.165 124.422 128.975  1.00  0.00     0.004 C 
BRANCH   4   5
ATOM      5  C   UNL     1     124.669 125.869 129.148  1.00  0.00     0.000 C 
BRANCH   5   6
ATOM      6  C   UNL     1     123.751 126.025 130.379  1.00  0.00     0.000 C 
BRANCH   6   7
ATOM      7  C   UNL     1     123.054 127.398 130.459  1.00  0.00     0.000 C 
BRANCH   7   8
ATOM      8  C   UNL     1     122.384 127.705 131.809  1.00  0.00     0.006 C 
BRANCH   8   9
ATOM      9  C   UNL     1     123.126 128.784 132.608  1.00  0.00     0.053 C 
BRANCH   9  10
ATOM     10  C   UNL     1     123.199 128.406 134.052  1.00  0.00     0.041 C 
ATOM     11  O   UNL     1     122.355 127.612 134.543  1.00  0.00    -0.550 OA
ATOM     12  O   UNL     1     124.169 128.971 134.870  1.00  0.00    -0.550 OA
ENDBRANCH   9  10
ENDBRANCH   8   9
ENDBRANCH   7   8
ENDBRANCH   6   7
ENDBRANCH   5   6
ENDBRANCH   4   5
ENDBRANCH   3   4
ENDBRANCH   1   3
BRANCH   2  13
ATOM     13  C   UNL     1     128.852 123.916 127.250  1.00  0.00     0.027 C 
BRANCH  13  14
ATOM     14  C   UNL     1     130.365 123.833 127.019  1.00  0.00     0.004 C 
BRANCH  14  15
ATOM     15  C   UNL     1     130.979 125.232 126.892  1.00  0.00     0.000 C 
BRANCH  15  16
ATOM     16  C   UNL     1     131.189 125.609 125.419  1.00  0.00     0.000 C 
BRANCH  16  17
ATOM     17  C   UNL     1     130.246 126.730 124.947  1.00  0.00    -0.000 C 
BRANCH  17  18
ATOM     18  C   UNL     1     128.992 126.252 124.186  1.00  0.00    -0.000 C 
BRANCH  18  19
ATOM     19  C   UNL     1     128.026 127.369 123.757  1.00  0.00    -0.003 C 
ATOM     20  C   UNL     1     128.746 128.593 123.191  1.00  0.00     0.004 C 
ENDBRANCH  18  19
ENDBRANCH  17  18
ENDBRANCH  16  17
ENDBRANCH  15  16
ENDBRANCH  14  15
ENDBRANCH  13  14
ENDBRANCH   2  13
TORSDOF 15
ENDMDL
MODEL 9
REMARK VINA RESULT:    -5.446      3.656      5.856
REMARK INTER + INTRA:         -12.166
REMARK INTER:                 -10.931
REMARK INTRA:                  -1.235
REMARK UNBOUND:                -1.945
REMARK SMILES CCCCCCCCC=CCCCCCCCC(=O)[O-]
REMARK SMILES IDX 10 1 9 2 11 3 12 4 13 5 14 6 15 7 16 8 17 9 18 10 19 11
REMARK SMILES IDX 20 12 8 13 7 14 6 15 5 16 4 17 3 18 2 19 1 20
REMARK H PARENT
REMARK Flexibility Score: inf
ROOT
ATOM      1  C   UNL     1     127.354 125.328 128.581  1.00  0.00    -0.031 C 
ATOM      2  C   UNL     1     128.493 125.181 127.878  1.00  0.00    -0.031 C 
ENDROOT
BRANCH   1   3
ATOM      3  C   UNL     1     126.526 124.189 129.124  1.00  0.00     0.027 C 
BRANCH   3   4
ATOM      4  C   UNL     1     125.022 124.438 128.943  1.00  0.00     0.004 C 
BRANCH   4   5
ATOM      5  C   UNL     1     124.604 125.847 129.401  1.00  0.00     0.000 C 
BRANCH   5   6
ATOM      6  C   UNL     1     123.249 126.276 128.800  1.00  0.00     0.000 C 
BRANCH   6   7
ATOM      7  C   UNL     1     122.508 127.334 129.641  1.00  0.00     0.000 C 
BRANCH   7   8
ATOM      8  C   UNL     1     121.699 126.772 130.822  1.00  0.00     0.006 C 
BRANCH   8   9
ATOM      9  C   UNL     1     120.204 126.636 130.505  1.00  0.00     0.053 C 
BRANCH   9  10
ATOM     10  C   UNL     1     119.487 125.987 131.646  1.00  0.00     0.041 C 
ATOM     11  O   UNL     1     118.255 126.185 131.815  1.00  0.00    -0.550 OA
ATOM     12  O   UNL     1     120.189 125.206 132.554  1.00  0.00    -0.550 OA
ENDBRANCH   9  10
ENDBRANCH   8   9
ENDBRANCH   7   8
ENDBRANCH   6   7
ENDBRANCH   5   6
ENDBRANCH   4   5
ENDBRANCH   3   4
ENDBRANCH   1   3
BRANCH   2  13
ATOM     13  C   UNL     1     129.065 123.858 127.438  1.00  0.00     0.027 C 
BRANCH  13  14
ATOM     14  C   UNL     1     130.394 124.062 126.702  1.00  0.00     0.004 C 
BRANCH  14  15
ATOM     15  C   UNL     1     131.079 125.357 127.156  1.00  0.00     0.000 C 
BRANCH  15  16
ATOM     16  C   UNL     1     131.675 126.112 125.959  1.00  0.00     0.000 C 
BRANCH  16  17
ATOM     17  C   UNL     1     130.724 126.166 124.751  1.00  0.00    -0.000 C 
BRANCH  17  18
ATOM     18  C   UNL     1     129.725 127.342 124.758  1.00  0.00    -0.000 C 
BRANCH  18  19
ATOM     19  C   UNL     1     128.290 126.977 124.343  1.00  0.00    -0.003 C 
ATOM     20  C   UNL     1     128.142 126.760 122.838  1.00  0.00     0.004 C 
ENDBRANCH  18  19
ENDBRANCH  17  18
ENDBRANCH  16  17
ENDBRANCH  15  16
ENDBRANCH  14  15
ENDBRANCH  13  14
ENDBRANCH   2  13
TORSDOF 15
ENDMDL
