MODEL 1
REMARK VINA RESULT:   140.136      0.000      0.000
REMARK INTER + INTRA:         144.232
REMARK INTER:                 144.232
REMARK INTRA:                   0.000
REMARK UNBOUND:                 0.000
REMARK SMILES C[C@H]1CC[C@@]2(OC1)O[C@H]1C[C@@H]3[C@@H]4CC=C5C[C@H](O)CC[C@]5(C)[C@H]4CC[C@]3(C)[C@H]1[C@@H]2C
REMARK SMILES IDX 1 1 2 2 3 3 4 4 5 5 29 6 28 7 9 8 8 9 10 10 11 11 26 12
REMARK SMILES IDX 25 13 24 14 23 15 12 16 13 17 14 18 15 19 21 20 20 21 19 22
REMARK SMILES IDX 17 23 16 24 22 25 27 26 30 27 6 28 7 29 18 30
REMARK H PARENT 18 31
REMARK Flexibility Score: inf
ROOT
ATOM      1  C   UNL     1     -41.412  29.912 -22.185  1.00  0.00     0.010 C 
ATOM      2  C   UNL     1     -39.954  29.547 -22.506  1.00  0.00     0.012 C 
ATOM      3  C   UNL     1     -39.005  30.736 -22.298  1.00  0.00     0.011 C 
ATOM      4  C   UNL     1     -38.765  31.006 -20.809  1.00  0.00     0.066 C 
ATOM      5  C   UNL     1     -38.396  29.706 -20.054  1.00  0.00     0.171 C 
ATOM      6  C   UNL     1     -38.266  29.993 -18.531  1.00  0.00     0.052 C 
ATOM      7  C   UNL     1     -36.934  29.325 -18.141  1.00  0.00     0.033 C 
ATOM      8  C   UNL     1     -36.576  28.560 -19.397  1.00  0.00     0.126 C 
ATOM      9  O   UNL     1     -37.131  29.249 -20.489  1.00  0.00    -0.346 OA
ATOM     10  C   UNL     1     -35.065  28.527 -19.490  1.00  0.00     0.037 C 
ATOM     11  C   UNL     1     -34.572  29.798 -18.797  1.00  0.00     0.002 C 
ATOM     12  C   UNL     1     -35.686  30.226 -17.787  1.00  0.00    -0.024 C 
ATOM     13  C   UNL     1     -35.255  29.976 -16.304  1.00  0.00     0.008 C 
ATOM     14  C   UNL     1     -34.454  28.678 -16.120  1.00  0.00     0.005 C 
ATOM     15  C   UNL     1     -33.146  28.646 -16.967  1.00  0.00     0.003 C 
ATOM     16  C   UNL     1     -33.175  29.671 -18.130  1.00  0.00     0.000 C 
ATOM     17  C   UNL     1     -32.062  29.336 -19.128  1.00  0.00     0.031 C 
ATOM     18  C   UNL     1     -30.735  29.179 -18.432  1.00  0.00    -0.027 C 
ATOM     19  C   UNL     1     -30.603  28.835 -17.126  1.00  0.00    -0.065 C 
ATOM     20  C   UNL     1     -31.800  28.762 -16.155  1.00  0.00    -0.008 C 
ATOM     21  C   UNL     1     -31.634  27.491 -15.261  1.00  0.00     0.014 C 
ATOM     22  C   UNL     1     -30.227  27.326 -14.661  1.00  0.00     0.033 C 
ATOM     23  C   UNL     1     -29.139  27.338 -15.743  1.00  0.00     0.118 C 
ATOM     24  C   UNL     1     -29.210  28.631 -16.566  1.00  0.00     0.063 C 
ATOM     25  C   UNL     1     -31.788  30.032 -15.263  1.00  0.00     0.016 C 
ATOM     26  C   UNL     1     -35.925  31.750 -17.940  1.00  0.00     0.012 C 
ATOM     27  C   UNL     1     -39.439  29.448 -17.697  1.00  0.00     0.014 C 
ATOM     28  O   UNL     1     -39.383  28.701 -20.285  1.00  0.00    -0.349 OA
ATOM     29  C   UNL     1     -39.478  28.357 -21.658  1.00  0.00     0.167 C 
ENDROOT
BRANCH  23  30
ATOM     30  O   UNL     1     -29.290  26.218 -16.577  1.00  0.00    -0.393 OA
ATOM     31  H   UNL     1     -30.231  26.221 -16.895  1.00  0.00     0.210 HD
ENDBRANCH  23  30
TORSDOF 1
ENDMDL
MODEL 2
REMARK VINA RESULT:   140.874      3.218      6.353
REMARK INTER + INTRA:         144.992
REMARK INTER:                 144.992
REMARK INTRA:                   0.000
REMARK UNBOUND:                 0.000
REMARK SMILES C[C@H]1CC[C@@]2(OC1)O[C@H]1C[C@@H]3[C@@H]4CC=C5C[C@H](O)CC[C@]5(C)[C@H]4CC[C@]3(C)[C@H]1[C@@H]2C
REMARK SMILES IDX 1 1 2 2 3 3 4 4 5 5 29 6 28 7 9 8 8 9 10 10 11 11 26 12
REMARK SMILES IDX 25 13 24 14 23 15 12 16 13 17 14 18 15 19 21 20 20 21 19 22
REMARK SMILES IDX 17 23 16 24 22 25 27 26 30 27 6 28 7 29 18 30
REMARK H PARENT 18 31
REMARK Flexibility Score: inf
ROOT
ATOM      1  C   UNL     1     -46.224  32.379 -24.002  1.00  0.00     0.010 C 
ATOM      2  C   UNL     1     -45.840  32.185 -22.527  1.00  0.00     0.012 C 
ATOM      3  C   UNL     1     -45.572  30.711 -22.191  1.00  0.00     0.011 C 
ATOM      4  C   UNL     1     -44.227  30.244 -22.755  1.00  0.00     0.066 C 
ATOM      5  C   UNL     1     -43.093  31.236 -22.398  1.00  0.00     0.171 C 
ATOM      6  C   UNL     1     -41.764  30.793 -23.074  1.00  0.00     0.052 C 
ATOM      7  C   UNL     1     -40.728  30.866 -21.938  1.00  0.00     0.033 C 
ATOM      8  C   UNL     1     -41.509  31.541 -20.830  1.00  0.00     0.126 C 
ATOM      9  O   UNL     1     -42.864  31.211 -21.003  1.00  0.00    -0.346 OA
ATOM     10  C   UNL     1     -40.985  31.002 -19.515  1.00  0.00     0.037 C 
ATOM     11  C   UNL     1     -40.489  29.585 -19.808  1.00  0.00     0.002 C 
ATOM     12  C   UNL     1     -40.142  29.530 -21.331  1.00  0.00    -0.024 C 
ATOM     13  C   UNL     1     -38.597  29.470 -21.575  1.00  0.00     0.008 C 
ATOM     14  C   UNL     1     -37.798  30.344 -20.596  1.00  0.00     0.005 C 
ATOM     15  C   UNL     1     -38.022  29.946 -19.106  1.00  0.00     0.003 C 
ATOM     16  C   UNL     1     -39.315  29.112 -18.908  1.00  0.00     0.000 C 
ATOM     17  C   UNL     1     -39.674  29.081 -17.420  1.00  0.00     0.031 C 
ATOM     18  C   UNL     1     -38.494  28.660 -16.582  1.00  0.00    -0.027 C 
ATOM     19  C   UNL     1     -37.202  28.815 -16.966  1.00  0.00    -0.065 C 
ATOM     20  C   UNL     1     -36.800  29.257 -18.389  1.00  0.00    -0.008 C 
ATOM     21  C   UNL     1     -35.630  30.287 -18.273  1.00  0.00     0.014 C 
ATOM     22  C   UNL     1     -34.501  29.851 -17.323  1.00  0.00     0.033 C 
ATOM     23  C   UNL     1     -35.030  29.517 -15.923  1.00  0.00     0.118 C 
ATOM     24  C   UNL     1     -36.104  28.424 -15.998  1.00  0.00     0.063 C 
ATOM     25  C   UNL     1     -36.317  28.007 -19.174  1.00  0.00     0.016 C 
ATOM     26  C   UNL     1     -40.746  28.232 -21.924  1.00  0.00     0.012 C 
ATOM     27  C   UNL     1     -41.357  31.671 -24.270  1.00  0.00     0.014 C 
ATOM     28  O   UNL     1     -43.442  32.557 -22.811  1.00  0.00    -0.349 OA
ATOM     29  C   UNL     1     -44.609  33.027 -22.156  1.00  0.00     0.167 C 
ENDROOT
BRANCH  23  30
ATOM     30  O   UNL     1     -35.553  30.676 -15.326  1.00  0.00    -0.393 OA
ATOM     31  H   UNL     1     -35.222  31.447 -15.857  1.00  0.00     0.210 HD
ENDBRANCH  23  30
TORSDOF 1
ENDMDL
MODEL 3
REMARK VINA RESULT:   141.161      2.342      9.087
REMARK INTER + INTRA:         145.287
REMARK INTER:                 145.287
REMARK INTRA:                   0.000
REMARK UNBOUND:                 0.000
REMARK SMILES C[C@H]1CC[C@@]2(OC1)O[C@H]1C[C@@H]3[C@@H]4CC=C5C[C@H](O)CC[C@]5(C)[C@H]4CC[C@]3(C)[C@H]1[C@@H]2C
REMARK SMILES IDX 1 1 2 2 3 3 4 4 5 5 29 6 28 7 9 8 8 9 10 10 11 11 26 12
REMARK SMILES IDX 25 13 24 14 23 15 12 16 13 17 14 18 15 19 21 20 20 21 19 22
REMARK SMILES IDX 17 23 16 24 22 25 27 26 30 27 6 28 7 29 18 30
REMARK H PARENT 18 31
REMARK Flexibility Score: inf
ROOT
ATOM      1  C   UNL     1     -30.637  30.295 -17.246  1.00  0.00     0.010 C 
ATOM      2  C   UNL     1     -31.350  30.713 -18.542  1.00  0.00     0.012 C 
ATOM      3  C   UNL     1     -31.915  29.505 -19.302  1.00  0.00     0.011 C 
ATOM      4  C   UNL     1     -33.167  28.948 -18.618  1.00  0.00     0.066 C 
ATOM      5  C   UNL     1     -34.178  30.075 -18.292  1.00  0.00     0.171 C 
ATOM      6  C   UNL     1     -35.386  29.495 -17.502  1.00  0.00     0.052 C 
ATOM      7  C   UNL     1     -36.614  30.071 -18.229  1.00  0.00     0.033 C 
ATOM      8  C   UNL     1     -35.989  31.067 -19.183  1.00  0.00     0.126 C 
ATOM      9  O   UNL     1     -34.698  30.605 -19.494  1.00  0.00    -0.346 OA
ATOM     10  C   UNL     1     -36.859  31.115 -20.421  1.00  0.00     0.037 C 
ATOM     11  C   UNL     1     -37.502  29.732 -20.539  1.00  0.00     0.002 C 
ATOM     12  C   UNL     1     -37.521  29.116 -19.102  1.00  0.00    -0.024 C 
ATOM     13  C   UNL     1     -38.969  29.071 -18.508  1.00  0.00     0.008 C 
ATOM     14  C   UNL     1     -39.807  30.306 -18.869  1.00  0.00     0.005 C 
ATOM     15  C   UNL     1     -39.971  30.501 -20.406  1.00  0.00     0.003 C 
ATOM     16  C   UNL     1     -38.900  29.723 -21.214  1.00  0.00     0.000 C 
ATOM     17  C   UNL     1     -38.875  30.245 -22.654  1.00  0.00     0.031 C 
ATOM     18  C   UNL     1     -40.257  30.261 -23.253  1.00  0.00    -0.027 C 
ATOM     19  C   UNL     1     -41.396  30.342 -22.521  1.00  0.00    -0.065 C 
ATOM     20  C   UNL     1     -41.412  30.226 -20.982  1.00  0.00    -0.008 C 
ATOM     21  C   UNL     1     -42.400  31.297 -20.417  1.00  0.00     0.014 C 
ATOM     22  C   UNL     1     -43.759  31.339 -21.136  1.00  0.00     0.033 C 
ATOM     23  C   UNL     1     -43.599  31.537 -22.648  1.00  0.00     0.118 C 
ATOM     24  C   UNL     1     -42.723  30.430 -23.249  1.00  0.00     0.063 C 
ATOM     25  C   UNL     1     -41.910  28.805 -20.602  1.00  0.00     0.016 C 
ATOM     26  C   UNL     1     -37.021  27.652 -19.190  1.00  0.00     0.012 C 
ATOM     27  C   UNL     1     -35.385  29.869 -16.009  1.00  0.00     0.014 C 
ATOM     28  O   UNL     1     -33.543  31.107 -17.537  1.00  0.00    -0.349 OA
ATOM     29  C   UNL     1     -32.482  31.714 -18.257  1.00  0.00     0.167 C 
ENDROOT
BRANCH  23  30
ATOM     30  O   UNL     1     -43.037  32.799 -22.904  1.00  0.00    -0.393 OA
ATOM     31  H   UNL     1     -43.529  33.451 -22.340  1.00  0.00     0.210 HD
ENDBRANCH  23  30
TORSDOF 1
ENDMDL
MODEL 4
REMARK VINA RESULT:   143.078      2.890      5.053
REMARK INTER + INTRA:         147.260
REMARK INTER:                 147.260
REMARK INTRA:                   0.000
REMARK UNBOUND:                 0.000
REMARK SMILES C[C@H]1CC[C@@]2(OC1)O[C@H]1C[C@@H]3[C@@H]4CC=C5C[C@H](O)CC[C@]5(C)[C@H]4CC[C@]3(C)[C@H]1[C@@H]2C
REMARK SMILES IDX 1 1 2 2 3 3 4 4 5 5 29 6 28 7 9 8 8 9 10 10 11 11 26 12
REMARK SMILES IDX 25 13 24 14 23 15 12 16 13 17 14 18 15 19 21 20 20 21 19 22
REMARK SMILES IDX 17 23 16 24 22 25 27 26 30 27 6 28 7 29 18 30
REMARK H PARENT 18 31
REMARK Flexibility Score: inf
ROOT
ATOM      1  C   UNL     1     -36.873  33.334 -19.532  1.00  0.00     0.010 C 
ATOM      2  C   UNL     1     -36.825  32.045 -18.696  1.00  0.00     0.012 C 
ATOM      3  C   UNL     1     -36.297  30.853 -19.507  1.00  0.00     0.011 C 
ATOM      4  C   UNL     1     -34.783  30.947 -19.719  1.00  0.00     0.066 C 
ATOM      5  C   UNL     1     -34.046  31.240 -18.390  1.00  0.00     0.171 C 
ATOM      6  C   UNL     1     -32.526  31.437 -18.654  1.00  0.00     0.052 C 
ATOM      7  C   UNL     1     -31.847  30.554 -17.592  1.00  0.00     0.033 C 
ATOM      8  C   UNL     1     -33.014  30.141 -16.720  1.00  0.00     0.126 C 
ATOM      9  O   UNL     1     -34.164  30.126 -17.528  1.00  0.00    -0.346 OA
ATOM     10  C   UNL     1     -32.711  28.757 -16.185  1.00  0.00     0.037 C 
ATOM     11  C   UNL     1     -31.829  28.082 -17.237  1.00  0.00     0.002 C 
ATOM     12  C   UNL     1     -31.120  29.223 -18.036  1.00  0.00    -0.024 C 
ATOM     13  C   UNL     1     -29.595  29.313 -17.693  1.00  0.00     0.008 C 
ATOM     14  C   UNL     1     -29.296  29.060 -16.208  1.00  0.00     0.005 C 
ATOM     15  C   UNL     1     -29.771  27.658 -15.723  1.00  0.00     0.003 C 
ATOM     16  C   UNL     1     -30.831  27.037 -16.670  1.00  0.00     0.000 C 
ATOM     17  C   UNL     1     -31.522  25.870 -15.959  1.00  0.00     0.031 C 
ATOM     18  C   UNL     1     -30.516  24.905 -15.388  1.00  0.00    -0.027 C 
ATOM     19  C   UNL     1     -29.247  25.249 -15.053  1.00  0.00    -0.065 C 
ATOM     20  C   UNL     1     -28.630  26.618 -15.405  1.00  0.00    -0.008 C 
ATOM     21  C   UNL     1     -27.810  27.123 -14.174  1.00  0.00     0.014 C 
ATOM     22  C   UNL     1     -26.876  26.063 -13.566  1.00  0.00     0.033 C 
ATOM     23  C   UNL     1     -27.632  24.782 -13.189  1.00  0.00     0.118 C 
ATOM     24  C   UNL     1     -28.357  24.203 -14.411  1.00  0.00     0.063 C 
ATOM     25  C   UNL     1     -27.683  26.432 -16.621  1.00  0.00     0.016 C 
ATOM     26  C   UNL     1     -31.227  28.902 -19.548  1.00  0.00     0.012 C 
ATOM     27  C   UNL     1     -32.066  32.903 -18.551  1.00  0.00     0.014 C 
ATOM     28  O   UNL     1     -34.594  32.400 -17.764  1.00  0.00    -0.349 OA
ATOM     29  C   UNL     1     -35.963  32.230 -17.437  1.00  0.00     0.167 C 
ENDROOT
BRANCH  23  30
ATOM     30  O   UNL     1     -28.550  25.060 -12.163  1.00  0.00    -0.393 OA
ATOM     31  H   UNL     1     -28.416  24.368 -11.463  1.00  0.00     0.210 HD
ENDBRANCH  23  30
TORSDOF 1
ENDMDL
