MODEL 1
REMARK VINA RESULT:    -4.806      0.000      0.000
REMARK INTER + INTRA:         -10.977
REMARK INTER:                  -9.021
REMARK INTRA:                  -1.956
REMARK UNBOUND:                -1.956
REMARK SMILES CCCCCCCCC=CCCCCCCCC(=O)[O-]
REMARK SMILES IDX 10 1 9 2 11 3 12 4 13 5 14 6 15 7 16 8 17 9 18 10 19 11
REMARK SMILES IDX 20 12 8 13 7 14 6 15 5 16 4 17 3 18 2 19 1 20
REMARK H PARENT
REMARK Flexibility Score: inf
ROOT
ATOM      1  C   UNL     1       0.285  47.915  22.807  1.00  0.00    -0.031 C 
ATOM      2  C   UNL     1       1.020  48.050  21.693  1.00  0.00    -0.031 C 
ENDROOT
BRANCH   1   3
ATOM      3  C   UNL     1      -0.481  46.653  23.101  1.00  0.00     0.027 C 
BRANCH   3   4
ATOM      4  C   UNL     1      -0.452  46.313  24.597  1.00  0.00     0.004 C 
BRANCH   4   5
ATOM      5  C   UNL     1      -0.849  47.515  25.472  1.00  0.00     0.000 C 
BRANCH   5   6
ATOM      6  C   UNL     1      -2.362  47.784  25.462  1.00  0.00     0.000 C 
BRANCH   6   7
ATOM      7  C   UNL     1      -3.183  46.542  25.847  1.00  0.00     0.000 C 
BRANCH   7   8
ATOM      8  C   UNL     1      -4.079  46.041  24.699  1.00  0.00     0.006 C 
BRANCH   8   9
ATOM      9  C   UNL     1      -3.742  44.626  24.201  1.00  0.00     0.053 C 
BRANCH   9  10
ATOM     10  C   UNL     1      -4.973  43.831  23.892  1.00  0.00     0.041 C 
ATOM     11  O   UNL     1      -5.830  44.278  23.085  1.00  0.00    -0.550 OA
ATOM     12  O   UNL     1      -5.156  42.580  24.468  1.00  0.00    -0.550 OA
ENDBRANCH   9  10
ENDBRANCH   8   9
ENDBRANCH   7   8
ENDBRANCH   6   7
ENDBRANCH   5   6
ENDBRANCH   4   5
ENDBRANCH   3   4
ENDBRANCH   1   3
BRANCH   2  13
ATOM     13  C   UNL     1       1.832  49.289  21.431  1.00  0.00     0.027 C 
BRANCH  13  14
ATOM     14  C   UNL     1       1.221  50.510  22.136  1.00  0.00     0.004 C 
BRANCH  14  15
ATOM     15  C   UNL     1       2.169  51.127  23.176  1.00  0.00     0.000 C 
BRANCH  15  16
ATOM     16  C   UNL     1       1.437  51.595  24.443  1.00  0.00     0.000 C 
BRANCH  16  17
ATOM     17  C   UNL     1       1.187  50.423  25.399  1.00  0.00    -0.000 C 
BRANCH  17  18
ATOM     18  C   UNL     1       2.409  49.495  25.463  1.00  0.00    -0.000 C 
BRANCH  18  19
ATOM     19  C   UNL     1       2.496  48.725  26.790  1.00  0.00    -0.003 C 
ATOM     20  C   UNL     1       3.812  48.966  27.528  1.00  0.00     0.004 C 
ENDBRANCH  18  19
ENDBRANCH  17  18
ENDBRANCH  16  17
ENDBRANCH  15  16
ENDBRANCH  14  15
ENDBRANCH  13  14
ENDBRANCH   2  13
TORSDOF 15
ENDMDL
MODEL 2
REMARK VINA RESULT:    -4.703      1.238      1.791
REMARK INTER + INTRA:         -10.782
REMARK INTER:                  -9.469
REMARK INTRA:                  -1.314
REMARK UNBOUND:                -1.956
REMARK SMILES CCCCCCCCC=CCCCCCCCC(=O)[O-]
REMARK SMILES IDX 10 1 9 2 11 3 12 4 13 5 14 6 15 7 16 8 17 9 18 10 19 11
REMARK SMILES IDX 20 12 8 13 7 14 6 15 5 16 4 17 3 18 2 19 1 20
REMARK H PARENT
REMARK Flexibility Score: inf
ROOT
ATOM      1  C   UNL     1       0.180  48.012  22.769  1.00  0.00    -0.031 C 
ATOM      2  C   UNL     1       1.135  48.082  21.829  1.00  0.00    -0.031 C 
ENDROOT
BRANCH   1   3
ATOM      3  C   UNL     1      -0.504  46.714  23.107  1.00  0.00     0.027 C 
BRANCH   3   4
ATOM      4  C   UNL     1      -0.746  46.582  24.616  1.00  0.00     0.004 C 
BRANCH   4   5
ATOM      5  C   UNL     1      -2.237  46.390  24.948  1.00  0.00     0.000 C 
BRANCH   5   6
ATOM      6  C   UNL     1      -2.826  45.114  24.325  1.00  0.00     0.000 C 
BRANCH   6   7
ATOM      7  C   UNL     1      -4.348  45.014  24.516  1.00  0.00     0.000 C 
BRANCH   7   8
ATOM      8  C   UNL     1      -4.997  43.971  23.588  1.00  0.00     0.006 C 
BRANCH   8   9
ATOM      9  C   UNL     1      -6.400  44.350  23.088  1.00  0.00     0.053 C 
BRANCH   9  10
ATOM     10  C   UNL     1      -7.477  43.603  23.814  1.00  0.00     0.041 C 
ATOM     11  O   UNL     1      -8.687  43.903  23.636  1.00  0.00    -0.550 OA
ATOM     12  O   UNL     1      -7.146  42.552  24.659  1.00  0.00    -0.550 OA
ENDBRANCH   9  10
ENDBRANCH   8   9
ENDBRANCH   7   8
ENDBRANCH   6   7
ENDBRANCH   5   6
ENDBRANCH   4   5
ENDBRANCH   3   4
ENDBRANCH   1   3
BRANCH   2  13
ATOM     13  C   UNL     1       1.858  49.368  21.536  1.00  0.00     0.027 C 
BRANCH  13  14
ATOM     14  C   UNL     1       0.952  50.582  21.788  1.00  0.00     0.004 C 
BRANCH  14  15
ATOM     15  C   UNL     1       1.749  51.879  22.002  1.00  0.00     0.000 C 
BRANCH  15  16
ATOM     16  C   UNL     1       2.579  51.860  23.294  1.00  0.00     0.000 C 
BRANCH  16  17
ATOM     17  C   UNL     1       1.700  51.533  24.508  1.00  0.00    -0.000 C 
BRANCH  17  18
ATOM     18  C   UNL     1       2.489  50.743  25.562  1.00  0.00    -0.000 C 
BRANCH  18  19
ATOM     19  C   UNL     1       2.084  49.262  25.613  1.00  0.00    -0.003 C 
ATOM     20  C   UNL     1       2.731  48.512  26.777  1.00  0.00     0.004 C 
ENDBRANCH  18  19
ENDBRANCH  17  18
ENDBRANCH  16  17
ENDBRANCH  15  16
ENDBRANCH  14  15
ENDBRANCH  13  14
ENDBRANCH   2  13
TORSDOF 15
ENDMDL
MODEL 3
REMARK VINA RESULT:    -4.654      1.368      2.232
REMARK INTER + INTRA:         -10.692
REMARK INTER:                  -8.940
REMARK INTRA:                  -1.752
REMARK UNBOUND:                -1.956
REMARK SMILES CCCCCCCCC=CCCCCCCCC(=O)[O-]
REMARK SMILES IDX 10 1 9 2 11 3 12 4 13 5 14 6 15 7 16 8 17 9 18 10 19 11
REMARK SMILES IDX 20 12 8 13 7 14 6 15 5 16 4 17 3 18 2 19 1 20
REMARK H PARENT
REMARK Flexibility Score: inf
ROOT
ATOM      1  C   UNL     1      -0.179  48.281  23.462  1.00  0.00    -0.031 C 
ATOM      2  C   UNL     1       0.304  47.524  22.466  1.00  0.00    -0.031 C 
ENDROOT
BRANCH   1   3
ATOM      3  C   UNL     1      -0.908  47.679  24.633  1.00  0.00     0.027 C 
BRANCH   3   4
ATOM      4  C   UNL     1      -0.809  46.148  24.630  1.00  0.00     0.004 C 
BRANCH   4   5
ATOM      5  C   UNL     1      -2.180  45.480  24.417  1.00  0.00     0.000 C 
BRANCH   5   6
ATOM      6  C   UNL     1      -3.353  46.451  24.622  1.00  0.00     0.000 C 
BRANCH   6   7
ATOM      7  C   UNL     1      -4.710  45.729  24.689  1.00  0.00     0.000 C 
BRANCH   7   8
ATOM      8  C   UNL     1      -4.651  44.299  24.122  1.00  0.00     0.006 C 
BRANCH   8   9
ATOM      9  C   UNL     1      -6.003  43.569  24.097  1.00  0.00     0.053 C 
BRANCH   9  10
ATOM     10  C   UNL     1      -7.026  44.307  23.288  1.00  0.00     0.041 C 
ATOM     11  O   UNL     1      -6.871  44.448  22.046  1.00  0.00    -0.550 OA
ATOM     12  O   UNL     1      -8.167  44.809  23.901  1.00  0.00    -0.550 OA
ENDBRANCH   9  10
ENDBRANCH   8   9
ENDBRANCH   7   8
ENDBRANCH   6   7
ENDBRANCH   5   6
ENDBRANCH   4   5
ENDBRANCH   3   4
ENDBRANCH   1   3
BRANCH   2  13
ATOM     13  C   UNL     1       1.084  48.122  21.328  1.00  0.00     0.027 C 
BRANCH  13  14
ATOM     14  C   UNL     1       2.145  49.107  21.842  1.00  0.00     0.004 C 
BRANCH  14  15
ATOM     15  C   UNL     1       1.929  50.535  21.314  1.00  0.00     0.000 C 
BRANCH  15  16
ATOM     16  C   UNL     1       1.336  51.476  22.373  1.00  0.00     0.000 C 
BRANCH  16  17
ATOM     17  C   UNL     1       2.406  52.427  22.925  1.00  0.00    -0.000 C 
BRANCH  17  18
ATOM     18  C   UNL     1       2.893  51.964  24.306  1.00  0.00    -0.000 C 
BRANCH  18  19
ATOM     19  C   UNL     1       1.879  51.049  25.012  1.00  0.00    -0.003 C 
ATOM     20  C   UNL     1       2.508  49.753  25.523  1.00  0.00     0.004 C 
ENDBRANCH  18  19
ENDBRANCH  17  18
ENDBRANCH  16  17
ENDBRANCH  15  16
ENDBRANCH  14  15
ENDBRANCH  13  14
ENDBRANCH   2  13
TORSDOF 15
ENDMDL
MODEL 4
REMARK VINA RESULT:    -4.648      3.727      6.881
REMARK INTER + INTRA:         -10.680
REMARK INTER:                  -8.597
REMARK INTRA:                  -2.083
REMARK UNBOUND:                -1.956
REMARK SMILES CCCCCCCCC=CCCCCCCCC(=O)[O-]
REMARK SMILES IDX 10 1 9 2 11 3 12 4 13 5 14 6 15 7 16 8 17 9 18 10 19 11
REMARK SMILES IDX 20 12 8 13 7 14 6 15 5 16 4 17 3 18 2 19 1 20
REMARK H PARENT
REMARK Flexibility Score: inf
ROOT
ATOM      1  C   UNL     1       1.816  50.634  21.604  1.00  0.00    -0.031 C 
ATOM      2  C   UNL     1       0.957  49.605  21.551  1.00  0.00    -0.031 C 
ENDROOT
BRANCH   1   3
ATOM      3  C   UNL     1       1.351  52.061  21.484  1.00  0.00     0.027 C 
BRANCH   3   4
ATOM      4  C   UNL     1       1.698  52.873  22.737  1.00  0.00     0.004 C 
BRANCH   4   5
ATOM      5  C   UNL     1       2.768  52.180  23.600  1.00  0.00     0.000 C 
BRANCH   5   6
ATOM      6  C   UNL     1       2.344  52.033  25.070  1.00  0.00     0.000 C 
BRANCH   6   7
ATOM      7  C   UNL     1       1.528  50.754  25.322  1.00  0.00     0.000 C 
BRANCH   7   8
ATOM      8  C   UNL     1       2.395  49.482  25.300  1.00  0.00     0.006 C 
BRANCH   8   9
ATOM      9  C   UNL     1       2.182  48.547  26.502  1.00  0.00     0.053 C 
BRANCH   9  10
ATOM     10  C   UNL     1       2.984  48.973  27.693  1.00  0.00     0.041 C 
ATOM     11  O   UNL     1       4.241  49.028  27.626  1.00  0.00    -0.550 OA
ATOM     12  O   UNL     1       2.342  49.343  28.867  1.00  0.00    -0.550 OA
ENDBRANCH   9  10
ENDBRANCH   8   9
ENDBRANCH   7   8
ENDBRANCH   6   7
ENDBRANCH   5   6
ENDBRANCH   4   5
ENDBRANCH   3   4
ENDBRANCH   1   3
BRANCH   2  13
ATOM     13  C   UNL     1       1.416  48.185  21.731  1.00  0.00     0.027 C 
BRANCH  13  14
ATOM     14  C   UNL     1       0.300  47.314  22.326  1.00  0.00     0.004 C 
BRANCH  14  15
ATOM     15  C   UNL     1      -0.323  47.933  23.588  1.00  0.00     0.000 C 
BRANCH  15  16
ATOM     16  C   UNL     1      -0.615  46.891  24.678  1.00  0.00     0.000 C 
BRANCH  16  17
ATOM     17  C   UNL     1      -1.702  47.390  25.639  1.00  0.00    -0.000 C 
BRANCH  17  18
ATOM     18  C   UNL     1      -2.979  46.547  25.510  1.00  0.00    -0.000 C 
BRANCH  18  19
ATOM     19  C   UNL     1      -2.814  45.373  24.532  1.00  0.00    -0.003 C 
ATOM     20  C   UNL     1      -4.141  44.696  24.190  1.00  0.00     0.004 C 
ENDBRANCH  18  19
ENDBRANCH  17  18
ENDBRANCH  16  17
ENDBRANCH  15  16
ENDBRANCH  14  15
ENDBRANCH  13  14
ENDBRANCH   2  13
TORSDOF 15
ENDMDL
MODEL 5
REMARK VINA RESULT:    -4.616      1.076      1.948
REMARK INTER + INTRA:         -10.619
REMARK INTER:                  -8.731
REMARK INTRA:                  -1.888
REMARK UNBOUND:                -1.956
REMARK SMILES CCCCCCCCC=CCCCCCCCC(=O)[O-]
REMARK SMILES IDX 10 1 9 2 11 3 12 4 13 5 14 6 15 7 16 8 17 9 18 10 19 11
REMARK SMILES IDX 20 12 8 13 7 14 6 15 5 16 4 17 3 18 2 19 1 20
REMARK H PARENT
REMARK Flexibility Score: inf
ROOT
ATOM      1  C   UNL     1       1.872  49.464  21.732  1.00  0.00    -0.031 C 
ATOM      2  C   UNL     1       1.125  50.574  21.633  1.00  0.00    -0.031 C 
ENDROOT
BRANCH   1   3
ATOM      3  C   UNL     1       1.250  48.099  21.847  1.00  0.00     0.027 C 
BRANCH   3   4
ATOM      4  C   UNL     1       0.121  48.080  22.886  1.00  0.00     0.004 C 
BRANCH   4   5
ATOM      5  C   UNL     1      -0.404  46.657  23.147  1.00  0.00     0.000 C 
BRANCH   5   6
ATOM      6  C   UNL     1      -0.569  46.349  24.644  1.00  0.00     0.000 C 
BRANCH   6   7
ATOM      7  C   UNL     1      -2.017  46.532  25.126  1.00  0.00     0.000 C 
BRANCH   7   8
ATOM      8  C   UNL     1      -2.959  45.426  24.614  1.00  0.00     0.006 C 
BRANCH   8   9
ATOM      9  C   UNL     1      -4.446  45.817  24.595  1.00  0.00     0.053 C 
BRANCH   9  10
ATOM     10  C   UNL     1      -5.334  44.636  24.347  1.00  0.00     0.041 C 
ATOM     11  O   UNL     1      -5.267  44.010  23.256  1.00  0.00    -0.550 OA
ATOM     12  O   UNL     1      -6.210  44.205  25.334  1.00  0.00    -0.550 OA
ENDBRANCH   9  10
ENDBRANCH   8   9
ENDBRANCH   7   8
ENDBRANCH   6   7
ENDBRANCH   5   6
ENDBRANCH   4   5
ENDBRANCH   3   4
ENDBRANCH   1   3
BRANCH   2  13
ATOM     13  C   UNL     1       1.749  51.930  21.458  1.00  0.00     0.027 C 
BRANCH  13  14
ATOM     14  C   UNL     1       1.336  52.880  22.592  1.00  0.00     0.004 C 
BRANCH  14  15
ATOM     15  C   UNL     1       2.459  53.099  23.619  1.00  0.00     0.000 C 
BRANCH  15  16
ATOM     16  C   UNL     1       2.543  51.970  24.657  1.00  0.00     0.000 C 
BRANCH  16  17
ATOM     17  C   UNL     1       1.158  51.646  25.230  1.00  0.00    -0.000 C 
BRANCH  17  18
ATOM     18  C   UNL     1       1.093  50.192  25.722  1.00  0.00    -0.000 C 
BRANCH  18  19
ATOM     19  C   UNL     1       2.417  49.440  25.512  1.00  0.00    -0.003 C 
ATOM     20  C   UNL     1       2.726  48.461  26.644  1.00  0.00     0.004 C 
ENDBRANCH  18  19
ENDBRANCH  17  18
ENDBRANCH  16  17
ENDBRANCH  15  16
ENDBRANCH  14  15
ENDBRANCH  13  14
ENDBRANCH   2  13
TORSDOF 15
ENDMDL
MODEL 6
REMARK VINA RESULT:    -4.521      3.966      6.837
REMARK INTER + INTRA:         -10.441
REMARK INTER:                  -8.541
REMARK INTRA:                  -1.900
REMARK UNBOUND:                -1.956
REMARK SMILES CCCCCCCCC=CCCCCCCCC(=O)[O-]
REMARK SMILES IDX 10 1 9 2 11 3 12 4 13 5 14 6 15 7 16 8 17 9 18 10 19 11
REMARK SMILES IDX 20 12 8 13 7 14 6 15 5 16 4 17 3 18 2 19 1 20
REMARK H PARENT
REMARK Flexibility Score: inf
ROOT
ATOM      1  C   UNL     1       2.104  51.425  23.425  1.00  0.00    -0.031 C 
ATOM      2  C   UNL     1       1.651  51.554  22.169  1.00  0.00    -0.031 C 
ENDROOT
BRANCH   1   3
ATOM      3  C   UNL     1       1.923  52.515  24.447  1.00  0.00     0.027 C 
BRANCH   3   4
ATOM      4  C   UNL     1       0.672  52.282  25.304  1.00  0.00     0.004 C 
BRANCH   4   5
ATOM      5  C   UNL     1       0.925  51.269  26.435  1.00  0.00     0.000 C 
BRANCH   5   6
ATOM      6  C   UNL     1       0.480  49.844  26.068  1.00  0.00     0.000 C 
BRANCH   6   7
ATOM      7  C   UNL     1       1.635  48.831  26.134  1.00  0.00     0.000 C 
BRANCH   7   8
ATOM      8  C   UNL     1       2.992  49.495  26.437  1.00  0.00     0.006 C 
BRANCH   8   9
ATOM      9  C   UNL     1       3.681  48.981  27.711  1.00  0.00     0.053 C 
BRANCH   9  10
ATOM     10  C   UNL     1       3.191  49.686  28.939  1.00  0.00     0.041 C 
ATOM     11  O   UNL     1       2.054  49.420  29.412  1.00  0.00    -0.550 OA
ATOM     12  O   UNL     1       4.005  50.610  29.581  1.00  0.00    -0.550 OA
ENDBRANCH   9  10
ENDBRANCH   8   9
ENDBRANCH   7   8
ENDBRANCH   6   7
ENDBRANCH   5   6
ENDBRANCH   4   5
ENDBRANCH   3   4
ENDBRANCH   1   3
BRANCH   2  13
ATOM     13  C   UNL     1       1.779  50.440  21.168  1.00  0.00     0.027 C 
BRANCH  13  14
ATOM     14  C   UNL     1       2.132  49.113  21.858  1.00  0.00     0.004 C 
BRANCH  14  15
ATOM     15  C   UNL     1       1.028  48.055  21.702  1.00  0.00     0.000 C 
BRANCH  15  16
ATOM     16  C   UNL     1       0.099  47.982  22.923  1.00  0.00     0.000 C 
BRANCH  16  17
ATOM     17  C   UNL     1      -0.515  46.584  23.065  1.00  0.00    -0.000 C 
BRANCH  17  18
ATOM     18  C   UNL     1      -0.835  46.270  24.533  1.00  0.00    -0.000 C 
BRANCH  18  19
ATOM     19  C   UNL     1      -2.346  46.187  24.802  1.00  0.00    -0.003 C 
ATOM     20  C   UNL     1      -2.980  44.921  24.230  1.00  0.00     0.004 C 
ENDBRANCH  18  19
ENDBRANCH  17  18
ENDBRANCH  16  17
ENDBRANCH  15  16
ENDBRANCH  14  15
ENDBRANCH  13  14
ENDBRANCH   2  13
TORSDOF 15
ENDMDL
MODEL 7
REMARK VINA RESULT:    -4.503      3.597      7.495
REMARK INTER + INTRA:         -10.408
REMARK INTER:                  -8.847
REMARK INTRA:                  -1.560
REMARK UNBOUND:                -1.956
REMARK SMILES CCCCCCCCC=CCCCCCCCC(=O)[O-]
REMARK SMILES IDX 10 1 9 2 11 3 12 4 13 5 14 6 15 7 16 8 17 9 18 10 19 11
REMARK SMILES IDX 20 12 8 13 7 14 6 15 5 16 4 17 3 18 2 19 1 20
REMARK H PARENT
REMARK Flexibility Score: inf
ROOT
ATOM      1  C   UNL     1       1.130  48.430  21.701  1.00  0.00    -0.031 C 
ATOM      2  C   UNL     1       0.474  48.117  22.828  1.00  0.00    -0.031 C 
ENDROOT
BRANCH   1   3
ATOM      3  C   UNL     1       2.063  49.608  21.628  1.00  0.00     0.027 C 
BRANCH   3   4
ATOM      4  C   UNL     1       1.300  50.936  21.714  1.00  0.00     0.004 C 
BRANCH   4   5
ATOM      5  C   UNL     1       2.013  51.957  22.618  1.00  0.00     0.000 C 
BRANCH   5   6
ATOM      6  C   UNL     1       2.360  51.386  24.003  1.00  0.00     0.000 C 
BRANCH   6   7
ATOM      7  C   UNL     1       1.118  51.210  24.894  1.00  0.00     0.000 C 
BRANCH   7   8
ATOM      8  C   UNL     1       1.162  49.914  25.725  1.00  0.00     0.006 C 
BRANCH   8   9
ATOM      9  C   UNL     1       2.544  49.243  25.783  1.00  0.00     0.053 C 
BRANCH   9  10
ATOM     10  C   UNL     1       2.984  48.982  27.191  1.00  0.00     0.041 C 
ATOM     11  O   UNL     1       2.130  48.786  28.096  1.00  0.00    -0.550 OA
ATOM     12  O   UNL     1       4.337  48.920  27.497  1.00  0.00    -0.550 OA
ENDBRANCH   9  10
ENDBRANCH   8   9
ENDBRANCH   7   8
ENDBRANCH   6   7
ENDBRANCH   5   6
ENDBRANCH   4   5
ENDBRANCH   3   4
ENDBRANCH   1   3
BRANCH   2  13
ATOM     13  C   UNL     1      -0.411  46.904  22.914  1.00  0.00     0.027 C 
BRANCH  13  14
ATOM     14  C   UNL     1      -0.578  46.444  24.370  1.00  0.00     0.004 C 
BRANCH  14  15
ATOM     15  C   UNL     1      -1.893  45.683  24.602  1.00  0.00     0.000 C 
BRANCH  15  16
ATOM     16  C   UNL     1      -2.945  46.526  25.340  1.00  0.00     0.000 C 
BRANCH  16  17
ATOM     17  C   UNL     1      -4.323  46.385  24.682  1.00  0.00    -0.000 C 
BRANCH  17  18
ATOM     18  C   UNL     1      -4.607  44.923  24.307  1.00  0.00    -0.000 C 
BRANCH  18  19
ATOM     19  C   UNL     1      -6.110  44.608  24.259  1.00  0.00    -0.003 C 
ATOM     20  C   UNL     1      -6.647  44.504  22.832  1.00  0.00     0.004 C 
ENDBRANCH  18  19
ENDBRANCH  17  18
ENDBRANCH  16  17
ENDBRANCH  15  16
ENDBRANCH  14  15
ENDBRANCH  13  14
ENDBRANCH   2  13
TORSDOF 15
ENDMDL
MODEL 8
REMARK VINA RESULT:    -4.485      5.120      7.690
REMARK INTER + INTRA:         -10.373
REMARK INTER:                  -8.631
REMARK INTRA:                  -1.743
REMARK UNBOUND:                -1.956
REMARK SMILES CCCCCCCCC=CCCCCCCCC(=O)[O-]
REMARK SMILES IDX 10 1 9 2 11 3 12 4 13 5 14 6 15 7 16 8 17 9 18 10 19 11
REMARK SMILES IDX 20 12 8 13 7 14 6 15 5 16 4 17 3 18 2 19 1 20
REMARK H PARENT
REMARK Flexibility Score: inf
ROOT
ATOM      1  C   UNL     1       0.211  47.935  22.890  1.00  0.00    -0.031 C 
ATOM      2  C   UNL     1      -0.478  46.810  23.127  1.00  0.00    -0.031 C 
ENDROOT
BRANCH   1   3
ATOM      3  C   UNL     1       0.993  48.132  21.618  1.00  0.00     0.027 C 
BRANCH   3   4
ATOM      4  C   UNL     1       2.123  49.153  21.805  1.00  0.00     0.004 C 
BRANCH   4   5
ATOM      5  C   UNL     1       1.737  50.547  21.279  1.00  0.00     0.000 C 
BRANCH   5   6
ATOM      6  C   UNL     1       1.475  51.557  22.408  1.00  0.00     0.000 C 
BRANCH   6   7
ATOM      7  C   UNL     1       2.542  51.495  23.513  1.00  0.00     0.000 C 
BRANCH   7   8
ATOM      8  C   UNL     1       3.394  52.776  23.590  1.00  0.00     0.006 C 
BRANCH   8   9
ATOM      9  C   UNL     1       2.607  54.076  23.361  1.00  0.00     0.053 C 
BRANCH   9  10
ATOM     10  C   UNL     1       3.479  55.176  22.836  1.00  0.00     0.041 C 
ATOM     11  O   UNL     1       4.333  54.937  21.941  1.00  0.00    -0.550 OA
ATOM     12  O   UNL     1       3.325  56.472  23.311  1.00  0.00    -0.550 OA
ENDBRANCH   9  10
ENDBRANCH   8   9
ENDBRANCH   7   8
ENDBRANCH   6   7
ENDBRANCH   5   6
ENDBRANCH   4   5
ENDBRANCH   3   4
ENDBRANCH   1   3
BRANCH   2  13
ATOM     13  C   UNL     1      -1.306  46.640  24.371  1.00  0.00     0.027 C 
BRANCH  13  14
ATOM     14  C   UNL     1      -1.977  47.962  24.773  1.00  0.00     0.004 C 
BRANCH  14  15
ATOM     15  C   UNL     1      -1.512  48.465  26.149  1.00  0.00     0.000 C 
BRANCH  15  16
ATOM     16  C   UNL     1      -0.459  49.579  26.049  1.00  0.00     0.000 C 
BRANCH  16  17
ATOM     17  C   UNL     1       0.788  49.234  26.873  1.00  0.00    -0.000 C 
BRANCH  17  18
ATOM     18  C   UNL     1       1.954  48.827  25.960  1.00  0.00    -0.000 C 
BRANCH  18  19
ATOM     19  C   UNL     1       3.260  48.599  26.739  1.00  0.00    -0.003 C 
ATOM     20  C   UNL     1       3.353  49.457  28.000  1.00  0.00     0.004 C 
ENDBRANCH  18  19
ENDBRANCH  17  18
ENDBRANCH  16  17
ENDBRANCH  15  16
ENDBRANCH  14  15
ENDBRANCH  13  14
ENDBRANCH   2  13
TORSDOF 15
ENDMDL
MODEL 9
REMARK VINA RESULT:    -4.361      3.330      6.525
REMARK INTER + INTRA:         -10.141
REMARK INTER:                  -7.532
REMARK INTRA:                  -2.609
REMARK UNBOUND:                -1.956
REMARK SMILES CCCCCCCCC=CCCCCCCCC(=O)[O-]
REMARK SMILES IDX 10 1 9 2 11 3 12 4 13 5 14 6 15 7 16 8 17 9 18 10 19 11
REMARK SMILES IDX 20 12 8 13 7 14 6 15 5 16 4 17 3 18 2 19 1 20
REMARK H PARENT
REMARK Flexibility Score: inf
ROOT
ATOM      1  C   UNL     1       1.083  48.209  21.789  1.00  0.00    -0.031 C 
ATOM      2  C   UNL     1       0.250  48.046  22.828  1.00  0.00    -0.031 C 
ENDROOT
BRANCH   1   3
ATOM      3  C   UNL     1       1.877  49.473  21.601  1.00  0.00     0.027 C 
BRANCH   3   4
ATOM      4  C   UNL     1       0.982  50.717  21.675  1.00  0.00     0.004 C 
BRANCH   4   5
ATOM      5  C   UNL     1       1.794  52.003  21.911  1.00  0.00     0.000 C 
BRANCH   5   6
ATOM      6  C   UNL     1       2.794  51.869  23.071  1.00  0.00     0.000 C 
BRANCH   6   7
ATOM      7  C   UNL     1       2.285  52.527  24.365  1.00  0.00     0.000 C 
BRANCH   7   8
ATOM      8  C   UNL     1       2.073  51.512  25.504  1.00  0.00     0.006 C 
BRANCH   8   9
ATOM      9  C   UNL     1       2.376  50.055  25.121  1.00  0.00     0.053 C 
BRANCH   9  10
ATOM     10  C   UNL     1       2.081  49.106  26.242  1.00  0.00     0.041 C 
ATOM     11  O   UNL     1       0.890  48.858  26.567  1.00  0.00    -0.550 OA
ATOM     12  O   UNL     1       3.121  48.467  26.905  1.00  0.00    -0.550 OA
ENDBRANCH   9  10
ENDBRANCH   8   9
ENDBRANCH   7   8
ENDBRANCH   6   7
ENDBRANCH   5   6
ENDBRANCH   4   5
ENDBRANCH   3   4
ENDBRANCH   1   3
BRANCH   2  13
ATOM     13  C   UNL     1      -0.497  46.759  23.045  1.00  0.00     0.027 C 
BRANCH  13  14
ATOM     14  C   UNL     1      -0.515  46.374  24.532  1.00  0.00     0.004 C 
BRANCH  14  15
ATOM     15  C   UNL     1      -1.936  46.351  25.118  1.00  0.00     0.000 C 
BRANCH  15  16
ATOM     16  C   UNL     1      -2.810  47.504  24.602  1.00  0.00     0.000 C 
BRANCH  16  17
ATOM     17  C   UNL     1      -2.709  48.726  25.523  1.00  0.00    -0.000 C 
BRANCH  17  18
ATOM     18  C   UNL     1      -2.768  50.030  24.715  1.00  0.00    -0.000 C 
BRANCH  18  19
ATOM     19  C   UNL     1      -1.399  50.721  24.609  1.00  0.00    -0.003 C 
ATOM     20  C   UNL     1      -1.482  52.100  23.957  1.00  0.00     0.004 C 
ENDBRANCH  18  19
ENDBRANCH  17  18
ENDBRANCH  16  17
ENDBRANCH  15  16
ENDBRANCH  14  15
ENDBRANCH  13  14
ENDBRANCH   2  13
TORSDOF 15
ENDMDL
