MODEL 1
REMARK VINA RESULT:    -3.827      0.000      0.000
REMARK INTER + INTRA:         -14.795
REMARK INTER:                  -9.979
REMARK INTRA:                  -4.816
REMARK UNBOUND:                -4.816
REMARK SMILES CCCCCCCCCCCCCCCCCCCCCCCCCCCCCO
REMARK SMILES IDX 16 1 15 2 14 3 13 4 12 5 11 6 10 7 9 8 8 9 7 10 6 11 5 12
REMARK SMILES IDX 4 13 3 14 2 15 1 16 17 17 18 18 19 19 20 20 21 21 22 22
REMARK SMILES IDX 23 23 24 24 25 25 26 26 27 27 28 28 29 29 30 30
REMARK H PARENT 30 31
REMARK Flexibility Score: inf
ROOT
ATOM      1  C   UNL     1     139.335 129.972 114.516  1.00  0.00     0.000 C 
ENDROOT
BRANCH   1   2
ATOM      2  C   UNL     1     140.593 130.829 114.309  1.00  0.00     0.000 C 
BRANCH   2   3
ATOM      3  C   UNL     1     141.891 130.014 114.430  1.00  0.00     0.000 C 
BRANCH   3   4
ATOM      4  C   UNL     1     141.850 129.010 115.597  1.00  0.00     0.000 C 
BRANCH   4   5
ATOM      5  C   UNL     1     142.456 127.648 115.227  1.00  0.00     0.000 C 
BRANCH   5   6
ATOM      6  C   UNL     1     143.412 127.112 116.307  1.00  0.00     0.000 C 
BRANCH   6   7
ATOM      7  C   UNL     1     144.886 127.140 115.870  1.00  0.00     0.000 C 
BRANCH   7   8
ATOM      8  C   UNL     1     145.100 127.631 114.423  1.00  0.00    -0.000 C 
BRANCH   8   9
ATOM      9  C   UNL     1     145.617 129.077 114.366  1.00  0.00    -0.000 C 
BRANCH   9  10
ATOM     10  C   UNL     1     145.875 129.623 115.779  1.00  0.00    -0.000 C 
BRANCH  10  11
ATOM     11  C   UNL     1     146.568 130.995 115.770  1.00  0.00    -0.000 C 
BRANCH  11  12
ATOM     12  C   UNL     1     145.641 132.193 116.047  1.00  0.00    -0.000 C 
BRANCH  12  13
ATOM     13  C   UNL     1     144.288 131.802 116.679  1.00  0.00    -0.000 C 
BRANCH  13  14
ATOM     14  C   UNL     1     143.200 132.863 116.439  1.00  0.00    -0.000 C 
BRANCH  14  15
ATOM     15  C   UNL     1     143.755 134.142 115.793  1.00  0.00    -0.003 C 
ATOM     16  C   UNL     1     142.997 135.397 116.225  1.00  0.00     0.004 C 
ENDBRANCH  14  15
ENDBRANCH  13  14
ENDBRANCH  12  13
ENDBRANCH  11  12
ENDBRANCH  10  11
ENDBRANCH   9  10
ENDBRANCH   8   9
ENDBRANCH   7   8
ENDBRANCH   6   7
ENDBRANCH   5   6
ENDBRANCH   4   5
ENDBRANCH   3   4
ENDBRANCH   2   3
ENDBRANCH   1   2
BRANCH   1  17
ATOM     17  C   UNL     1     138.865 129.356 113.189  1.00  0.00     0.000 C 
BRANCH  17  18
ATOM     18  C   UNL     1     138.723 127.824 113.256  1.00  0.00     0.000 C 
BRANCH  18  19
ATOM     19  C   UNL     1     138.692 127.228 114.679  1.00  0.00     0.000 C 
BRANCH  19  20
ATOM     20  C   UNL     1     137.312 127.229 115.364  1.00  0.00     0.000 C 
BRANCH  20  21
ATOM     21  C   UNL     1     137.396 127.494 116.877  1.00  0.00     0.000 C 
BRANCH  21  22
ATOM     22  C   UNL     1     138.844 127.487 117.398  1.00  0.00     0.000 C 
BRANCH  22  23
ATOM     23  C   UNL     1     139.240 128.812 118.073  1.00  0.00     0.000 C 
BRANCH  23  24
ATOM     24  C   UNL     1     139.307 128.701 119.608  1.00  0.00     0.000 C 
BRANCH  24  25
ATOM     25  C   UNL     1     140.480 129.452 120.263  1.00  0.00     0.000 C 
BRANCH  25  26
ATOM     26  C   UNL     1     141.629 129.736 119.283  1.00  0.00     0.000 C 
BRANCH  26  27
ATOM     27  C   UNL     1     142.703 128.643 119.368  1.00  0.00     0.002 C 
BRANCH  27  28
ATOM     28  C   UNL     1     143.933 129.138 120.137  1.00  0.00     0.028 C 
BRANCH  28  29
ATOM     29  C   UNL     1     145.227 128.740 119.422  1.00  0.00     0.156 C 
BRANCH  29  30
ATOM     30  O   UNL     1     146.060 129.857 119.269  1.00  0.00    -0.396 OA
ATOM     31  H   UNL     1     145.827 130.486 120.001  1.00  0.00     0.210 HD
ENDBRANCH  29  30
ENDBRANCH  28  29
ENDBRANCH  27  28
ENDBRANCH  26  27
ENDBRANCH  25  26
ENDBRANCH  24  25
ENDBRANCH  23  24
ENDBRANCH  22  23
ENDBRANCH  21  22
ENDBRANCH  20  21
ENDBRANCH  19  20
ENDBRANCH  18  19
ENDBRANCH  17  18
ENDBRANCH   1  17
TORSDOF 28
ENDMDL
MODEL 2
REMARK VINA RESULT:    -3.799      1.812      2.748
REMARK INTER + INTRA:         -14.724
REMARK INTER:                  -9.283
REMARK INTRA:                  -5.441
REMARK UNBOUND:                -4.816
REMARK SMILES CCCCCCCCCCCCCCCCCCCCCCCCCCCCCO
REMARK SMILES IDX 16 1 15 2 14 3 13 4 12 5 11 6 10 7 9 8 8 9 7 10 6 11 5 12
REMARK SMILES IDX 4 13 3 14 2 15 1 16 17 17 18 18 19 19 20 20 21 21 22 22
REMARK SMILES IDX 23 23 24 24 25 25 26 26 27 27 28 28 29 29 30 30
REMARK H PARENT 30 31
REMARK Flexibility Score: inf
ROOT
ATOM      1  C   UNL     1     140.781 130.256 113.651  1.00  0.00     0.000 C 
ENDROOT
BRANCH   1   2
ATOM      2  C   UNL     1     142.095 129.911 114.367  1.00  0.00     0.000 C 
BRANCH   2   3
ATOM      3  C   UNL     1     141.914 128.831 115.447  1.00  0.00     0.000 C 
BRANCH   3   4
ATOM      4  C   UNL     1     142.635 127.518 115.094  1.00  0.00     0.000 C 
BRANCH   4   5
ATOM      5  C   UNL     1     144.049 127.440 115.692  1.00  0.00     0.000 C 
BRANCH   5   6
ATOM      6  C   UNL     1     145.150 127.624 114.634  1.00  0.00     0.000 C 
BRANCH   6   7
ATOM      7  C   UNL     1     145.607 129.086 114.493  1.00  0.00     0.000 C 
BRANCH   7   8
ATOM      8  C   UNL     1     146.021 129.742 115.828  1.00  0.00    -0.000 C 
BRANCH   8   9
ATOM      9  C   UNL     1     145.851 131.268 115.808  1.00  0.00    -0.000 C 
BRANCH   9  10
ATOM     10  C   UNL     1     145.318 131.778 117.155  1.00  0.00    -0.000 C 
BRANCH  10  11
ATOM     11  C   UNL     1     144.726 130.657 118.025  1.00  0.00    -0.000 C 
BRANCH  11  12
ATOM     12  C   UNL     1     143.187 130.599 118.051  1.00  0.00    -0.000 C 
BRANCH  12  13
ATOM     13  C   UNL     1     142.546 131.502 119.127  1.00  0.00    -0.000 C 
BRANCH  13  14
ATOM     14  C   UNL     1     141.023 131.309 119.224  1.00  0.00    -0.000 C 
BRANCH  14  15
ATOM     15  C   UNL     1     140.371 131.064 117.854  1.00  0.00    -0.003 C 
ATOM     16  C   UNL     1     140.170 132.353 117.058  1.00  0.00     0.004 C 
ENDBRANCH  14  15
ENDBRANCH  13  14
ENDBRANCH  12  13
ENDBRANCH  11  12
ENDBRANCH  10  11
ENDBRANCH   9  10
ENDBRANCH   8   9
ENDBRANCH   7   8
ENDBRANCH   6   7
ENDBRANCH   5   6
ENDBRANCH   4   5
ENDBRANCH   3   4
ENDBRANCH   2   3
ENDBRANCH   1   2
BRANCH   1  17
ATOM     17  C   UNL     1     139.572 129.701 114.421  1.00  0.00     0.000 C 
BRANCH  17  18
ATOM     18  C   UNL     1     138.753 128.687 113.601  1.00  0.00     0.000 C 
BRANCH  18  19
ATOM     19  C   UNL     1     138.514 127.326 114.287  1.00  0.00     0.000 C 
BRANCH  19  20
ATOM     20  C   UNL     1     137.300 127.269 115.233  1.00  0.00     0.000 C 
BRANCH  20  21
ATOM     21  C   UNL     1     137.694 127.359 116.717  1.00  0.00     0.000 C 
BRANCH  21  22
ATOM     22  C   UNL     1     139.191 127.086 116.948  1.00  0.00     0.000 C 
BRANCH  22  23
ATOM     23  C   UNL     1     139.658 127.487 118.358  1.00  0.00     0.000 C 
BRANCH  23  24
ATOM     24  C   UNL     1     141.175 127.307 118.555  1.00  0.00     0.000 C 
BRANCH  24  25
ATOM     25  C   UNL     1     141.692 127.647 119.965  1.00  0.00     0.000 C 
BRANCH  25  26
ATOM     26  C   UNL     1     143.225 127.721 120.037  1.00  0.00     0.000 C 
BRANCH  26  27
ATOM     27  C   UNL     1     143.677 128.579 121.225  1.00  0.00     0.002 C 
BRANCH  27  28
ATOM     28  C   UNL     1     142.473 129.107 122.014  1.00  0.00     0.028 C 
BRANCH  28  29
ATOM     29  C   UNL     1     142.539 128.668 123.479  1.00  0.00     0.156 C 
BRANCH  29  30
ATOM     30  O   UNL     1     143.283 129.589 124.229  1.00  0.00    -0.396 OA
ATOM     31  H   UNL     1     144.212 129.553 123.880  1.00  0.00     0.210 HD
ENDBRANCH  29  30
ENDBRANCH  28  29
ENDBRANCH  27  28
ENDBRANCH  26  27
ENDBRANCH  25  26
ENDBRANCH  24  25
ENDBRANCH  23  24
ENDBRANCH  22  23
ENDBRANCH  21  22
ENDBRANCH  20  21
ENDBRANCH  19  20
ENDBRANCH  18  19
ENDBRANCH  17  18
ENDBRANCH   1  17
TORSDOF 28
ENDMDL
MODEL 3
REMARK VINA RESULT:    -3.744      2.127      3.906
REMARK INTER + INTRA:         -14.579
REMARK INTER:                  -8.962
REMARK INTRA:                  -5.618
REMARK UNBOUND:                -4.816
REMARK SMILES CCCCCCCCCCCCCCCCCCCCCCCCCCCCCO
REMARK SMILES IDX 16 1 15 2 14 3 13 4 12 5 11 6 10 7 9 8 8 9 7 10 6 11 5 12
REMARK SMILES IDX 4 13 3 14 2 15 1 16 17 17 18 18 19 19 20 20 21 21 22 22
REMARK SMILES IDX 23 23 24 24 25 25 26 26 27 27 28 28 29 29 30 30
REMARK H PARENT 30 31
REMARK Flexibility Score: inf
ROOT
ATOM      1  C   UNL     1     141.391 131.090 115.217  1.00  0.00     0.000 C 
ENDROOT
BRANCH   1   2
ATOM      2  C   UNL     1     142.102 129.736 115.078  1.00  0.00     0.000 C 
BRANCH   2   3
ATOM      3  C   UNL     1     141.856 128.812 116.282  1.00  0.00     0.000 C 
BRANCH   3   4
ATOM      4  C   UNL     1     142.339 127.373 116.030  1.00  0.00     0.000 C 
BRANCH   4   5
ATOM      5  C   UNL     1     143.265 127.264 114.808  1.00  0.00     0.000 C 
BRANCH   5   6
ATOM      6  C   UNL     1     144.724 126.970 115.195  1.00  0.00     0.000 C 
BRANCH   6   7
ATOM      7  C   UNL     1     145.740 127.719 114.316  1.00  0.00     0.000 C 
BRANCH   7   8
ATOM      8  C   UNL     1     145.636 129.256 114.413  1.00  0.00    -0.000 C 
BRANCH   8   9
ATOM      9  C   UNL     1     145.938 129.776 115.826  1.00  0.00    -0.000 C 
BRANCH   9  10
ATOM     10  C   UNL     1     145.706 131.292 115.914  1.00  0.00    -0.000 C 
BRANCH  10  11
ATOM     11  C   UNL     1     144.620 131.671 116.933  1.00  0.00    -0.000 C 
BRANCH  11  12
ATOM     12  C   UNL     1     144.861 131.153 118.363  1.00  0.00    -0.000 C 
BRANCH  12  13
ATOM     13  C   UNL     1     143.701 130.301 118.922  1.00  0.00    -0.000 C 
BRANCH  13  14
ATOM     14  C   UNL     1     144.197 129.139 119.801  1.00  0.00    -0.000 C 
BRANCH  14  15
ATOM     15  C   UNL     1     144.204 127.797 119.054  1.00  0.00    -0.003 C 
ATOM     16  C   UNL     1     145.610 127.362 118.638  1.00  0.00     0.004 C 
ENDBRANCH  14  15
ENDBRANCH  13  14
ENDBRANCH  12  13
ENDBRANCH  11  12
ENDBRANCH  10  11
ENDBRANCH   9  10
ENDBRANCH   8   9
ENDBRANCH   7   8
ENDBRANCH   6   7
ENDBRANCH   5   6
ENDBRANCH   4   5
ENDBRANCH   3   4
ENDBRANCH   2   3
ENDBRANCH   1   2
BRANCH   1  17
ATOM     17  C   UNL     1     139.995 131.046 114.576  1.00  0.00     0.000 C 
BRANCH  17  18
ATOM     18  C   UNL     1     139.923 130.103 113.361  1.00  0.00     0.000 C 
BRANCH  18  19
ATOM     19  C   UNL     1     138.634 129.262 113.256  1.00  0.00     0.000 C 
BRANCH  19  20
ATOM     20  C   UNL     1     138.838 127.735 113.298  1.00  0.00     0.000 C 
BRANCH  20  21
ATOM     21  C   UNL     1     138.813 127.168 114.727  1.00  0.00     0.000 C 
BRANCH  21  22
ATOM     22  C   UNL     1     137.612 127.676 115.543  1.00  0.00     0.000 C 
BRANCH  22  23
ATOM     23  C   UNL     1     137.703 127.299 117.033  1.00  0.00     0.000 C 
BRANCH  23  24
ATOM     24  C   UNL     1     139.126 126.890 117.457  1.00  0.00     0.000 C 
BRANCH  24  25
ATOM     25  C   UNL     1     139.408 126.993 118.967  1.00  0.00     0.000 C 
BRANCH  25  26
ATOM     26  C   UNL     1     139.046 128.367 119.550  1.00  0.00     0.000 C 
BRANCH  26  27
ATOM     27  C   UNL     1     139.993 129.453 119.022  1.00  0.00     0.002 C 
BRANCH  27  28
ATOM     28  C   UNL     1     139.227 130.507 118.213  1.00  0.00     0.028 C 
BRANCH  28  29
ATOM     29  C   UNL     1     138.007 131.014 118.986  1.00  0.00     0.156 C 
BRANCH  29  30
ATOM     30  O   UNL     1     136.870 130.994 118.167  1.00  0.00    -0.396 OA
ATOM     31  H   UNL     1     136.511 131.920 118.158  1.00  0.00     0.210 HD
ENDBRANCH  29  30
ENDBRANCH  28  29
ENDBRANCH  27  28
ENDBRANCH  26  27
ENDBRANCH  25  26
ENDBRANCH  24  25
ENDBRANCH  23  24
ENDBRANCH  22  23
ENDBRANCH  21  22
ENDBRANCH  20  21
ENDBRANCH  19  20
ENDBRANCH  18  19
ENDBRANCH  17  18
ENDBRANCH   1  17
TORSDOF 28
ENDMDL
MODEL 4
REMARK VINA RESULT:    -3.742      1.883      6.522
REMARK INTER + INTRA:         -14.575
REMARK INTER:                  -9.386
REMARK INTRA:                  -5.189
REMARK UNBOUND:                -4.816
REMARK SMILES CCCCCCCCCCCCCCCCCCCCCCCCCCCCCO
REMARK SMILES IDX 16 1 15 2 14 3 13 4 12 5 11 6 10 7 9 8 8 9 7 10 6 11 5 12
REMARK SMILES IDX 4 13 3 14 2 15 1 16 17 17 18 18 19 19 20 20 21 21 22 22
REMARK SMILES IDX 23 23 24 24 25 25 26 26 27 27 28 28 29 29 30 30
REMARK H PARENT 30 31
REMARK Flexibility Score: inf
ROOT
ATOM      1  C   UNL     1     141.818 131.697 116.073  1.00  0.00     0.000 C 
ENDROOT
BRANCH   1   2
ATOM      2  C   UNL     1     142.499 131.756 117.449  1.00  0.00     0.000 C 
BRANCH   2   3
ATOM      3  C   UNL     1     142.825 130.361 118.008  1.00  0.00     0.000 C 
BRANCH   3   4
ATOM      4  C   UNL     1     143.765 130.418 119.226  1.00  0.00     0.000 C 
BRANCH   4   5
ATOM      5  C   UNL     1     143.302 129.508 120.374  1.00  0.00     0.000 C 
BRANCH   5   6
ATOM      6  C   UNL     1     143.550 128.018 120.085  1.00  0.00     0.000 C 
BRANCH   6   7
ATOM      7  C   UNL     1     142.251 127.226 119.859  1.00  0.00     0.000 C 
BRANCH   7   8
ATOM      8  C   UNL     1     141.144 127.538 120.888  1.00  0.00    -0.000 C 
BRANCH   8   9
ATOM      9  C   UNL     1     139.766 127.712 120.230  1.00  0.00    -0.000 C 
BRANCH   9  10
ATOM     10  C   UNL     1     139.707 129.017 119.421  1.00  0.00    -0.000 C 
BRANCH  10  11
ATOM     11  C   UNL     1     139.344 128.787 117.945  1.00  0.00    -0.000 C 
BRANCH  11  12
ATOM     12  C   UNL     1     138.252 127.728 117.701  1.00  0.00    -0.000 C 
BRANCH  12  13
ATOM     13  C   UNL     1     138.124 127.291 116.225  1.00  0.00    -0.000 C 
BRANCH  13  14
ATOM     14  C   UNL     1     137.480 128.377 115.346  1.00  0.00    -0.000 C 
BRANCH  14  15
ATOM     15  C   UNL     1     138.204 128.556 114.003  1.00  0.00    -0.003 C 
ATOM     16  C   UNL     1     138.625 127.225 113.379  1.00  0.00     0.004 C 
ENDBRANCH  14  15
ENDBRANCH  13  14
ENDBRANCH  12  13
ENDBRANCH  11  12
ENDBRANCH  10  11
ENDBRANCH   9  10
ENDBRANCH   8   9
ENDBRANCH   7   8
ENDBRANCH   6   7
ENDBRANCH   5   6
ENDBRANCH   4   5
ENDBRANCH   3   4
ENDBRANCH   2   3
ENDBRANCH   1   2
BRANCH   1  17
ATOM     17  C   UNL     1     142.602 130.792 115.111  1.00  0.00     0.000 C 
BRANCH  17  18
ATOM     18  C   UNL     1     141.720 129.721 114.443  1.00  0.00     0.000 C 
BRANCH  18  19
ATOM     19  C   UNL     1     141.553 128.412 115.243  1.00  0.00     0.000 C 
BRANCH  19  20
ATOM     20  C   UNL     1     142.719 127.413 115.121  1.00  0.00     0.000 C 
BRANCH  20  21
ATOM     21  C   UNL     1     143.504 127.249 116.433  1.00  0.00     0.000 C 
BRANCH  21  22
ATOM     22  C   UNL     1     144.990 127.617 116.282  1.00  0.00     0.000 C 
BRANCH  22  23
ATOM     23  C   UNL     1     145.364 128.005 114.840  1.00  0.00     0.000 C 
BRANCH  23  24
ATOM     24  C   UNL     1     145.918 129.439 114.735  1.00  0.00     0.000 C 
BRANCH  24  25
ATOM     25  C   UNL     1     146.045 130.186 116.075  1.00  0.00     0.000 C 
BRANCH  25  26
ATOM     26  C   UNL     1     146.719 131.559 115.930  1.00  0.00     0.000 C 
BRANCH  26  27
ATOM     27  C   UNL     1     145.672 132.672 115.793  1.00  0.00     0.002 C 
BRANCH  27  28
ATOM     28  C   UNL     1     146.313 134.055 115.955  1.00  0.00     0.028 C 
BRANCH  28  29
ATOM     29  C   UNL     1     145.818 135.021 114.875  1.00  0.00     0.156 C 
BRANCH  29  30
ATOM     30  O   UNL     1     146.718 135.052 113.802  1.00  0.00    -0.396 OA
ATOM     31  H   UNL     1     146.201 134.799 112.992  1.00  0.00     0.210 HD
ENDBRANCH  29  30
ENDBRANCH  28  29
ENDBRANCH  27  28
ENDBRANCH  26  27
ENDBRANCH  25  26
ENDBRANCH  24  25
ENDBRANCH  23  24
ENDBRANCH  22  23
ENDBRANCH  21  22
ENDBRANCH  20  21
ENDBRANCH  19  20
ENDBRANCH  18  19
ENDBRANCH  17  18
ENDBRANCH   1  17
TORSDOF 28
ENDMDL
MODEL 5
REMARK VINA RESULT:    -3.705      1.939      6.189
REMARK INTER + INTRA:         -14.477
REMARK INTER:                  -9.731
REMARK INTRA:                  -4.746
REMARK UNBOUND:                -4.816
REMARK SMILES CCCCCCCCCCCCCCCCCCCCCCCCCCCCCO
REMARK SMILES IDX 16 1 15 2 14 3 13 4 12 5 11 6 10 7 9 8 8 9 7 10 6 11 5 12
REMARK SMILES IDX 4 13 3 14 2 15 1 16 17 17 18 18 19 19 20 20 21 21 22 22
REMARK SMILES IDX 23 23 24 24 25 25 26 26 27 27 28 28 29 29 30 30
REMARK H PARENT 30 31
REMARK Flexibility Score: inf
ROOT
ATOM      1  C   UNL     1     140.697 130.354 114.687  1.00  0.00     0.000 C 
ENDROOT
BRANCH   1   2
ATOM      2  C   UNL     1     140.016 130.257 113.314  1.00  0.00     0.000 C 
BRANCH   2   3
ATOM      3  C   UNL     1     138.681 129.495 113.368  1.00  0.00     0.000 C 
BRANCH   3   4
ATOM      4  C   UNL     1     138.873 127.968 113.348  1.00  0.00     0.000 C 
BRANCH   4   5
ATOM      5  C   UNL     1     138.077 127.257 114.454  1.00  0.00     0.000 C 
BRANCH   5   6
ATOM      6  C   UNL     1     137.721 128.193 115.621  1.00  0.00     0.000 C 
BRANCH   6   7
ATOM      7  C   UNL     1     137.557 127.449 116.958  1.00  0.00     0.000 C 
BRANCH   7   8
ATOM      8  C   UNL     1     138.883 126.921 117.544  1.00  0.00    -0.000 C 
BRANCH   8   9
ATOM      9  C   UNL     1     139.877 128.050 117.855  1.00  0.00    -0.000 C 
BRANCH   9  10
ATOM     10  C   UNL     1     140.075 128.203 119.371  1.00  0.00    -0.000 C 
BRANCH  10  11
ATOM     11  C   UNL     1     141.258 127.379 119.905  1.00  0.00    -0.000 C 
BRANCH  11  12
ATOM     12  C   UNL     1     142.343 127.049 118.862  1.00  0.00    -0.000 C 
BRANCH  12  13
ATOM     13  C   UNL     1     143.685 127.773 119.108  1.00  0.00    -0.000 C 
BRANCH  13  14
ATOM     14  C   UNL     1     143.526 129.016 120.000  1.00  0.00    -0.000 C 
BRANCH  14  15
ATOM     15  C   UNL     1     143.755 130.327 119.232  1.00  0.00    -0.003 C 
ATOM     16  C   UNL     1     142.469 130.883 118.619  1.00  0.00     0.004 C 
ENDBRANCH  14  15
ENDBRANCH  13  14
ENDBRANCH  12  13
ENDBRANCH  11  12
ENDBRANCH  10  11
ENDBRANCH   9  10
ENDBRANCH   8   9
ENDBRANCH   7   8
ENDBRANCH   6   7
ENDBRANCH   5   6
ENDBRANCH   4   5
ENDBRANCH   3   4
ENDBRANCH   2   3
ENDBRANCH   1   2
BRANCH   1  17
ATOM     17  C   UNL     1     142.151 129.861 114.617  1.00  0.00     0.000 C 
BRANCH  17  18
ATOM     18  C   UNL     1     142.439 128.707 115.595  1.00  0.00     0.000 C 
BRANCH  18  19
ATOM     19  C   UNL     1     143.203 127.508 114.993  1.00  0.00     0.000 C 
BRANCH  19  20
ATOM     20  C   UNL     1     144.691 127.762 114.688  1.00  0.00     0.000 C 
BRANCH  20  21
ATOM     21  C   UNL     1     145.592 127.588 115.923  1.00  0.00     0.000 C 
BRANCH  21  22
ATOM     22  C   UNL     1     146.032 128.934 116.526  1.00  0.00     0.000 C 
BRANCH  22  23
ATOM     23  C   UNL     1     145.968 130.090 115.512  1.00  0.00     0.000 C 
BRANCH  23  24
ATOM     24  C   UNL     1     145.867 131.470 116.189  1.00  0.00     0.000 C 
BRANCH  24  25
ATOM     25  C   UNL     1     144.521 132.192 115.993  1.00  0.00     0.000 C 
BRANCH  25  26
ATOM     26  C   UNL     1     144.649 133.721 116.065  1.00  0.00     0.000 C 
BRANCH  26  27
ATOM     27  C   UNL     1     146.059 134.173 115.665  1.00  0.00     0.002 C 
BRANCH  27  28
ATOM     28  C   UNL     1     146.684 135.056 116.751  1.00  0.00     0.028 C 
BRANCH  28  29
ATOM     29  C   UNL     1     145.745 136.203 117.135  1.00  0.00     0.156 C 
BRANCH  29  30
ATOM     30  O   UNL     1     145.921 137.287 116.264  1.00  0.00    -0.396 OA
ATOM     31  H   UNL     1     146.059 138.088 116.834  1.00  0.00     0.210 HD
ENDBRANCH  29  30
ENDBRANCH  28  29
ENDBRANCH  27  28
ENDBRANCH  26  27
ENDBRANCH  25  26
ENDBRANCH  24  25
ENDBRANCH  23  24
ENDBRANCH  22  23
ENDBRANCH  21  22
ENDBRANCH  20  21
ENDBRANCH  19  20
ENDBRANCH  18  19
ENDBRANCH  17  18
ENDBRANCH   1  17
TORSDOF 28
ENDMDL
MODEL 6
REMARK VINA RESULT:    -3.685      1.773      5.997
REMARK INTER + INTRA:         -14.425
REMARK INTER:                  -9.938
REMARK INTRA:                  -4.487
REMARK UNBOUND:                -4.816
REMARK SMILES CCCCCCCCCCCCCCCCCCCCCCCCCCCCCO
REMARK SMILES IDX 16 1 15 2 14 3 13 4 12 5 11 6 10 7 9 8 8 9 7 10 6 11 5 12
REMARK SMILES IDX 4 13 3 14 2 15 1 16 17 17 18 18 19 19 20 20 21 21 22 22
REMARK SMILES IDX 23 23 24 24 25 25 26 26 27 27 28 28 29 29 30 30
REMARK H PARENT 30 31
REMARK Flexibility Score: inf
ROOT
ATOM      1  C   UNL     1     141.524 130.108 115.082  1.00  0.00     0.000 C 
ENDROOT
BRANCH   1   2
ATOM      2  C   UNL     1     140.612 130.239 113.853  1.00  0.00     0.000 C 
BRANCH   2   3
ATOM      3  C   UNL     1     139.184 129.734 114.119  1.00  0.00     0.000 C 
BRANCH   3   4
ATOM      4  C   UNL     1     138.838 128.483 113.292  1.00  0.00     0.000 C 
BRANCH   4   5
ATOM      5  C   UNL     1     138.500 127.268 114.170  1.00  0.00     0.000 C 
BRANCH   5   6
ATOM      6  C   UNL     1     137.370 127.558 115.173  1.00  0.00     0.000 C 
BRANCH   6   7
ATOM      7  C   UNL     1     137.795 127.339 116.635  1.00  0.00     0.000 C 
BRANCH   7   8
ATOM      8  C   UNL     1     139.276 126.941 116.801  1.00  0.00    -0.000 C 
BRANCH   8   9
ATOM      9  C   UNL     1     140.072 127.971 117.617  1.00  0.00    -0.000 C 
BRANCH   9  10
ATOM     10  C   UNL     1     141.130 127.280 118.490  1.00  0.00    -0.000 C 
BRANCH  10  11
ATOM     11  C   UNL     1     142.471 128.033 118.510  1.00  0.00    -0.000 C 
BRANCH  11  12
ATOM     12  C   UNL     1     142.389 129.494 118.989  1.00  0.00    -0.000 C 
BRANCH  12  13
ATOM     13  C   UNL     1     143.504 129.890 119.981  1.00  0.00    -0.000 C 
BRANCH  13  14
ATOM     14  C   UNL     1     144.160 128.666 120.644  1.00  0.00    -0.000 C 
BRANCH  14  15
ATOM     15  C   UNL     1     143.634 128.412 122.065  1.00  0.00    -0.003 C 
ATOM     16  C   UNL     1     142.427 129.285 122.411  1.00  0.00     0.004 C 
ENDBRANCH  14  15
ENDBRANCH  13  14
ENDBRANCH  12  13
ENDBRANCH  11  12
ENDBRANCH  10  11
ENDBRANCH   9  10
ENDBRANCH   8   9
ENDBRANCH   7   8
ENDBRANCH   6   7
ENDBRANCH   5   6
ENDBRANCH   4   5
ENDBRANCH   3   4
ENDBRANCH   2   3
ENDBRANCH   1   2
BRANCH   1  17
ATOM     17  C   UNL     1     142.855 129.434 114.709  1.00  0.00     0.000 C 
BRANCH  17  18
ATOM     18  C   UNL     1     142.923 127.960 115.150  1.00  0.00     0.000 C 
BRANCH  18  19
ATOM     19  C   UNL     1     144.213 127.213 114.752  1.00  0.00     0.000 C 
BRANCH  19  20
ATOM     20  C   UNL     1     145.528 127.920 115.132  1.00  0.00     0.000 C 
BRANCH  20  21
ATOM     21  C   UNL     1     145.681 128.121 116.650  1.00  0.00     0.000 C 
BRANCH  21  22
ATOM     22  C   UNL     1     145.802 129.605 117.040  1.00  0.00     0.000 C 
BRANCH  22  23
ATOM     23  C   UNL     1     146.170 130.505 115.847  1.00  0.00     0.000 C 
BRANCH  23  24
ATOM     24  C   UNL     1     145.791 131.981 116.077  1.00  0.00     0.000 C 
BRANCH  24  25
ATOM     25  C   UNL     1     144.307 132.227 116.404  1.00  0.00     0.000 C 
BRANCH  25  26
ATOM     26  C   UNL     1     144.098 132.868 117.784  1.00  0.00     0.000 C 
BRANCH  26  27
ATOM     27  C   UNL     1     145.061 134.044 117.994  1.00  0.00     0.002 C 
BRANCH  27  28
ATOM     28  C   UNL     1     144.478 135.065 118.978  1.00  0.00     0.028 C 
BRANCH  28  29
ATOM     29  C   UNL     1     144.147 134.408 120.321  1.00  0.00     0.156 C 
BRANCH  29  30
ATOM     30  O   UNL     1     145.294 134.335 121.122  1.00  0.00    -0.396 OA
ATOM     31  H   UNL     1     145.295 133.430 121.532  1.00  0.00     0.210 HD
ENDBRANCH  29  30
ENDBRANCH  28  29
ENDBRANCH  27  28
ENDBRANCH  26  27
ENDBRANCH  25  26
ENDBRANCH  24  25
ENDBRANCH  23  24
ENDBRANCH  22  23
ENDBRANCH  21  22
ENDBRANCH  20  21
ENDBRANCH  19  20
ENDBRANCH  18  19
ENDBRANCH  17  18
ENDBRANCH   1  17
TORSDOF 28
ENDMDL
MODEL 7
REMARK VINA RESULT:    -3.648      9.730     13.178
REMARK INTER + INTRA:         -14.328
REMARK INTER:                  -8.397
REMARK INTRA:                  -5.932
REMARK UNBOUND:                -4.816
REMARK SMILES CCCCCCCCCCCCCCCCCCCCCCCCCCCCCO
REMARK SMILES IDX 16 1 15 2 14 3 13 4 12 5 11 6 10 7 9 8 8 9 7 10 6 11 5 12
REMARK SMILES IDX 4 13 3 14 2 15 1 16 17 17 18 18 19 19 20 20 21 21 22 22
REMARK SMILES IDX 23 23 24 24 25 25 26 26 27 27 28 28 29 29 30 30
REMARK H PARENT 30 31
REMARK Flexibility Score: inf
ROOT
ATOM      1  C   UNL     1     132.484 130.239 117.252  1.00  0.00     0.000 C 
ENDROOT
BRANCH   1   2
ATOM      2  C   UNL     1     132.514 130.777 115.813  1.00  0.00     0.000 C 
BRANCH   2   3
ATOM      3  C   UNL     1     132.562 132.313 115.757  1.00  0.00     0.000 C 
BRANCH   3   4
ATOM      4  C   UNL     1     131.579 132.896 114.726  1.00  0.00     0.000 C 
BRANCH   4   5
ATOM      5  C   UNL     1     130.871 131.808 113.902  1.00  0.00     0.000 C 
BRANCH   5   6
ATOM      6  C   UNL     1     129.440 132.207 113.502  1.00  0.00     0.000 C 
BRANCH   6   7
ATOM      7  C   UNL     1     128.633 132.799 114.669  1.00  0.00     0.000 C 
BRANCH   7   8
ATOM      8  C   UNL     1     128.128 131.745 115.677  1.00  0.00    -0.000 C 
BRANCH   8   9
ATOM      9  C   UNL     1     128.097 132.279 117.117  1.00  0.00    -0.000 C 
BRANCH   9  10
ATOM     10  C   UNL     1     129.459 132.089 117.802  1.00  0.00    -0.000 C 
BRANCH  10  11
ATOM     11  C   UNL     1     130.065 133.412 118.300  1.00  0.00    -0.000 C 
BRANCH  11  12
ATOM     12  C   UNL     1     129.121 134.279 119.154  1.00  0.00    -0.000 C 
BRANCH  12  13
ATOM     13  C   UNL     1     129.081 135.763 118.729  1.00  0.00    -0.000 C 
BRANCH  13  14
ATOM     14  C   UNL     1     127.790 136.122 117.974  1.00  0.00    -0.000 C 
BRANCH  14  15
ATOM     15  C   UNL     1     127.936 135.974 116.452  1.00  0.00    -0.003 C 
ATOM     16  C   UNL     1     129.356 136.262 115.965  1.00  0.00     0.004 C 
ENDBRANCH  14  15
ENDBRANCH  13  14
ENDBRANCH  12  13
ENDBRANCH  11  12
ENDBRANCH  10  11
ENDBRANCH   9  10
ENDBRANCH   8   9
ENDBRANCH   7   8
ENDBRANCH   6   7
ENDBRANCH   5   6
ENDBRANCH   4   5
ENDBRANCH   3   4
ENDBRANCH   2   3
ENDBRANCH   1   2
BRANCH   1  17
ATOM     17  C   UNL     1     133.245 128.909 117.358  1.00  0.00     0.000 C 
BRANCH  17  18
ATOM     18  C   UNL     1     133.718 128.379 115.991  1.00  0.00     0.000 C 
BRANCH  18  19
ATOM     19  C   UNL     1     133.104 127.030 115.560  1.00  0.00     0.000 C 
BRANCH  19  20
ATOM     20  C   UNL     1     132.141 127.098 114.360  1.00  0.00     0.000 C 
BRANCH  20  21
ATOM     21  C   UNL     1     130.667 126.932 114.767  1.00  0.00     0.000 C 
BRANCH  21  22
ATOM     22  C   UNL     1     129.942 128.280 114.922  1.00  0.00     0.000 C 
BRANCH  22  23
ATOM     23  C   UNL     1     129.448 128.527 116.359  1.00  0.00     0.000 C 
BRANCH  23  24
ATOM     24  C   UNL     1     129.820 127.383 117.321  1.00  0.00     0.000 C 
BRANCH  24  25
ATOM     25  C   UNL     1     129.374 127.591 118.780  1.00  0.00     0.000 C 
BRANCH  25  26
ATOM     26  C   UNL     1     129.391 129.068 119.205  1.00  0.00     0.000 C 
BRANCH  26  27
ATOM     27  C   UNL     1     129.583 129.199 120.721  1.00  0.00     0.002 C 
BRANCH  27  28
ATOM     28  C   UNL     1     129.793 130.664 121.125  1.00  0.00     0.028 C 
BRANCH  28  29
ATOM     29  C   UNL     1     128.550 131.225 121.821  1.00  0.00     0.156 C 
BRANCH  29  30
ATOM     30  O   UNL     1     127.582 131.583 120.873  1.00  0.00    -0.396 OA
ATOM     31  H   UNL     1     128.044 132.143 120.195  1.00  0.00     0.210 HD
ENDBRANCH  29  30
ENDBRANCH  28  29
ENDBRANCH  27  28
ENDBRANCH  26  27
ENDBRANCH  25  26
ENDBRANCH  24  25
ENDBRANCH  23  24
ENDBRANCH  22  23
ENDBRANCH  21  22
ENDBRANCH  20  21
ENDBRANCH  19  20
ENDBRANCH  18  19
ENDBRANCH  17  18
ENDBRANCH   1  17
TORSDOF 28
ENDMDL
MODEL 8
REMARK VINA RESULT:    -3.635      1.669      2.949
REMARK INTER + INTRA:         -14.294
REMARK INTER:                  -9.348
REMARK INTRA:                  -4.946
REMARK UNBOUND:                -4.816
REMARK SMILES CCCCCCCCCCCCCCCCCCCCCCCCCCCCCO
REMARK SMILES IDX 16 1 15 2 14 3 13 4 12 5 11 6 10 7 9 8 8 9 7 10 6 11 5 12
REMARK SMILES IDX 4 13 3 14 2 15 1 16 17 17 18 18 19 19 20 20 21 21 22 22
REMARK SMILES IDX 23 23 24 24 25 25 26 26 27 27 28 28 29 29 30 30
REMARK H PARENT 30 31
REMARK Flexibility Score: inf
ROOT
ATOM      1  C   UNL     1     139.089 129.959 114.338  1.00  0.00     0.000 C 
ENDROOT
BRANCH   1   2
ATOM      2  C   UNL     1     140.437 130.696 114.367  1.00  0.00     0.000 C 
BRANCH   2   3
ATOM      3  C   UNL     1     141.635 129.734 114.439  1.00  0.00     0.000 C 
BRANCH   3   4
ATOM      4  C   UNL     1     141.785 129.081 115.825  1.00  0.00     0.000 C 
BRANCH   4   5
ATOM      5  C   UNL     1     142.268 127.625 115.744  1.00  0.00     0.000 C 
BRANCH   5   6
ATOM      6  C   UNL     1     143.307 127.285 116.826  1.00  0.00     0.000 C 
BRANCH   6   7
ATOM      7  C   UNL     1     144.750 127.284 116.292  1.00  0.00     0.000 C 
BRANCH   7   8
ATOM      8  C   UNL     1     144.850 127.456 114.762  1.00  0.00    -0.000 C 
BRANCH   8   9
ATOM      9  C   UNL     1     145.643 128.710 114.364  1.00  0.00    -0.000 C 
BRANCH   9  10
ATOM     10  C   UNL     1     145.931 129.590 115.591  1.00  0.00    -0.000 C 
BRANCH  10  11
ATOM     11  C   UNL     1     144.989 130.801 115.689  1.00  0.00    -0.000 C 
BRANCH  11  12
ATOM     12  C   UNL     1     144.838 131.394 117.102  1.00  0.00    -0.000 C 
BRANCH  12  13
ATOM     13  C   UNL     1     145.056 130.368 118.236  1.00  0.00    -0.000 C 
BRANCH  13  14
ATOM     14  C   UNL     1     143.766 130.082 119.023  1.00  0.00    -0.000 C 
BRANCH  14  15
ATOM     15  C   UNL     1     143.899 128.863 119.949  1.00  0.00    -0.003 C 
ATOM     16  C   UNL     1     145.344 128.382 120.088  1.00  0.00     0.004 C 
ENDBRANCH  14  15
ENDBRANCH  13  14
ENDBRANCH  12  13
ENDBRANCH  11  12
ENDBRANCH  10  11
ENDBRANCH   9  10
ENDBRANCH   8   9
ENDBRANCH   7   8
ENDBRANCH   6   7
ENDBRANCH   5   6
ENDBRANCH   4   5
ENDBRANCH   3   4
ENDBRANCH   2   3
ENDBRANCH   1   2
BRANCH   1  17
ATOM     17  C   UNL     1     138.885 129.238 112.997  1.00  0.00     0.000 C 
BRANCH  17  18
ATOM     18  C   UNL     1     138.505 127.756 113.165  1.00  0.00     0.000 C 
BRANCH  18  19
ATOM     19  C   UNL     1     138.637 127.201 114.599  1.00  0.00     0.000 C 
BRANCH  19  20
ATOM     20  C   UNL     1     137.365 127.300 115.463  1.00  0.00     0.000 C 
BRANCH  20  21
ATOM     21  C   UNL     1     137.648 127.119 116.964  1.00  0.00     0.000 C 
BRANCH  21  22
ATOM     22  C   UNL     1     139.153 127.103 117.284  1.00  0.00     0.000 C 
BRANCH  22  23
ATOM     23  C   UNL     1     139.490 127.832 118.597  1.00  0.00     0.000 C 
BRANCH  23  24
ATOM     24  C   UNL     1     140.371 126.987 119.537  1.00  0.00     0.000 C 
BRANCH  24  25
ATOM     25  C   UNL     1     139.856 126.875 120.983  1.00  0.00     0.000 C 
BRANCH  25  26
ATOM     26  C   UNL     1     138.950 128.048 121.387  1.00  0.00     0.000 C 
BRANCH  26  27
ATOM     27  C   UNL     1     139.759 129.154 122.077  1.00  0.00     0.002 C 
BRANCH  27  28
ATOM     28  C   UNL     1     139.587 130.495 121.355  1.00  0.00     0.028 C 
BRANCH  28  29
ATOM     29  C   UNL     1     140.944 131.143 121.066  1.00  0.00     0.156 C 
BRANCH  29  30
ATOM     30  O   UNL     1     141.856 130.837 122.086  1.00  0.00    -0.396 OA
ATOM     31  H   UNL     1     141.379 130.986 122.945  1.00  0.00     0.210 HD
ENDBRANCH  29  30
ENDBRANCH  28  29
ENDBRANCH  27  28
ENDBRANCH  26  27
ENDBRANCH  25  26
ENDBRANCH  24  25
ENDBRANCH  23  24
ENDBRANCH  22  23
ENDBRANCH  21  22
ENDBRANCH  20  21
ENDBRANCH  19  20
ENDBRANCH  18  19
ENDBRANCH  17  18
ENDBRANCH   1  17
TORSDOF 28
ENDMDL
MODEL 9
REMARK VINA RESULT:    -3.225      2.159      4.464
REMARK INTER + INTRA:         -13.226
REMARK INTER:                  -7.890
REMARK INTRA:                  -5.337
REMARK UNBOUND:                -4.816
REMARK SMILES CCCCCCCCCCCCCCCCCCCCCCCCCCCCCO
REMARK SMILES IDX 16 1 15 2 14 3 13 4 12 5 11 6 10 7 9 8 8 9 7 10 6 11 5 12
REMARK SMILES IDX 4 13 3 14 2 15 1 16 17 17 18 18 19 19 20 20 21 21 22 22
REMARK SMILES IDX 23 23 24 24 25 25 26 26 27 27 28 28 29 29 30 30
REMARK H PARENT 30 31
REMARK Flexibility Score: inf
ROOT
ATOM      1  C   UNL     1     141.086 130.400 115.741  1.00  0.00     0.000 C 
ENDROOT
BRANCH   1   2
ATOM      2  C   UNL     1     141.835 129.088 116.021  1.00  0.00     0.000 C 
BRANCH   2   3
ATOM      3  C   UNL     1     142.575 128.554 114.784  1.00  0.00     0.000 C 
BRANCH   3   4
ATOM      4  C   UNL     1     143.458 127.334 115.105  1.00  0.00     0.000 C 
BRANCH   4   5
ATOM      5  C   UNL     1     144.954 127.613 114.890  1.00  0.00     0.000 C 
BRANCH   5   6
ATOM      6  C   UNL     1     145.221 129.028 114.352  1.00  0.00     0.000 C 
BRANCH   6   7
ATOM      7  C   UNL     1     145.974 129.919 115.354  1.00  0.00     0.000 C 
BRANCH   7   8
ATOM      8  C   UNL     1     145.066 130.906 116.117  1.00  0.00    -0.000 C 
BRANCH   8   9
ATOM      9  C   UNL     1     144.822 130.475 117.571  1.00  0.00    -0.000 C 
BRANCH   9  10
ATOM     10  C   UNL     1     145.752 129.316 117.962  1.00  0.00    -0.000 C 
BRANCH  10  11
ATOM     11  C   UNL     1     145.167 128.432 119.075  1.00  0.00    -0.000 C 
BRANCH  11  12
ATOM     12  C   UNL     1     143.783 127.830 118.767  1.00  0.00    -0.000 C 
BRANCH  12  13
ATOM     13  C   UNL     1     142.827 127.812 119.979  1.00  0.00    -0.000 C 
BRANCH  13  14
ATOM     14  C   UNL     1     143.325 128.699 121.133  1.00  0.00    -0.000 C 
BRANCH  14  15
ATOM     15  C   UNL     1     142.441 128.592 122.385  1.00  0.00    -0.003 C 
ATOM     16  C   UNL     1     143.256 128.508 123.676  1.00  0.00     0.004 C 
ENDBRANCH  14  15
ENDBRANCH  13  14
ENDBRANCH  12  13
ENDBRANCH  11  12
ENDBRANCH  10  11
ENDBRANCH   9  10
ENDBRANCH   8   9
ENDBRANCH   7   8
ENDBRANCH   6   7
ENDBRANCH   5   6
ENDBRANCH   4   5
ENDBRANCH   3   4
ENDBRANCH   2   3
ENDBRANCH   1   2
BRANCH   1  17
ATOM     17  C   UNL     1     140.597 130.454 114.285  1.00  0.00     0.000 C 
BRANCH  17  18
ATOM     18  C   UNL     1     139.123 130.036 114.133  1.00  0.00     0.000 C 
BRANCH  18  19
ATOM     19  C   UNL     1     138.847 128.978 113.045  1.00  0.00     0.000 C 
BRANCH  19  20
ATOM     20  C   UNL     1     138.823 127.518 113.537  1.00  0.00     0.000 C 
BRANCH  20  21
ATOM     21  C   UNL     1     138.259 127.377 114.961  1.00  0.00     0.000 C 
BRANCH  21  22
ATOM     22  C   UNL     1     139.310 126.875 115.965  1.00  0.00     0.000 C 
BRANCH  22  23
ATOM     23  C   UNL     1     139.016 127.324 117.408  1.00  0.00     0.000 C 
BRANCH  23  24
ATOM     24  C   UNL     1     138.043 128.516 117.473  1.00  0.00     0.000 C 
BRANCH  24  25
ATOM     25  C   UNL     1     138.552 129.727 118.276  1.00  0.00     0.000 C 
BRANCH  25  26
ATOM     26  C   UNL     1     139.492 129.329 119.424  1.00  0.00     0.000 C 
BRANCH  26  27
ATOM     27  C   UNL     1     138.696 128.945 120.678  1.00  0.00     0.002 C 
BRANCH  27  28
ATOM     28  C   UNL     1     139.068 127.537 121.158  1.00  0.00     0.028 C 
BRANCH  28  29
ATOM     29  C   UNL     1     138.452 127.242 122.528  1.00  0.00     0.156 C 
BRANCH  29  30
ATOM     30  O   UNL     1     139.454 127.174 123.507  1.00  0.00    -0.396 OA
ATOM     31  H   UNL     1     140.320 127.280 123.032  1.00  0.00     0.210 HD
ENDBRANCH  29  30
ENDBRANCH  28  29
ENDBRANCH  27  28
ENDBRANCH  26  27
ENDBRANCH  25  26
ENDBRANCH  24  25
ENDBRANCH  23  24
ENDBRANCH  22  23
ENDBRANCH  21  22
ENDBRANCH  20  21
ENDBRANCH  19  20
ENDBRANCH  18  19
ENDBRANCH  17  18
ENDBRANCH   1  17
TORSDOF 28
ENDMDL
