MODEL 1
REMARK VINA RESULT:    -3.454      0.000      0.000
REMARK INTER + INTRA:          -5.090
REMARK INTER:                  -4.666
REMARK INTRA:                  -0.424
REMARK UNBOUND:                -0.424
REMARK SMILES CCCCCCCC(=O)[O-]
REMARK SMILES IDX 5 1 6 2 7 3 8 4 9 5 10 6 4 7 3 8 2 9 1 10
REMARK H PARENT
REMARK Flexibility Score: inf
ROOT
ATOM      1  C   UNL     1       7.662 -15.737  22.712  1.00  0.00     0.000 C 
ENDROOT
BRANCH   1   2
ATOM      2  C   UNL     1       8.268 -14.683  23.651  1.00  0.00     0.006 C 
BRANCH   2   3
ATOM      3  C   UNL     1       9.603 -15.141  24.253  1.00  0.00     0.053 C 
BRANCH   3   4
ATOM      4  C   UNL     1       9.416 -15.804  25.583  1.00  0.00     0.041 C 
ATOM      5  O   UNL     1      10.345 -16.489  26.087  1.00  0.00    -0.550 OA
ATOM      6  O   UNL     1       8.203 -15.692  26.251  1.00  0.00    -0.550 OA
ENDBRANCH   3   4
ENDBRANCH   2   3
ENDBRANCH   1   2
BRANCH   1   7
ATOM      7  C   UNL     1       6.259 -16.146  23.177  1.00  0.00     0.000 C 
BRANCH   7   8
ATOM      8  C   UNL     1       6.298 -17.481  23.935  1.00  0.00    -0.000 C 
BRANCH   8   9
ATOM      9  C   UNL     1       7.071 -18.569  23.175  1.00  0.00    -0.003 C 
ATOM     10  C   UNL     1       6.241 -19.831  22.942  1.00  0.00     0.004 C 
ENDBRANCH   8   9
ENDBRANCH   7   8
ENDBRANCH   1   7
TORSDOF 6
ENDMDL
MODEL 2
REMARK VINA RESULT:    -3.436      1.335      2.112
REMARK INTER + INTRA:          -5.066
REMARK INTER:                  -4.732
REMARK INTRA:                  -0.333
REMARK UNBOUND:                -0.424
REMARK SMILES CCCCCCCC(=O)[O-]
REMARK SMILES IDX 5 1 6 2 7 3 8 4 9 5 10 6 4 7 3 8 2 9 1 10
REMARK H PARENT
REMARK Flexibility Score: inf
ROOT
ATOM      1  C   UNL     1       6.293 -17.139  23.763  1.00  0.00     0.000 C 
ENDROOT
BRANCH   1   2
ATOM      2  C   UNL     1       7.467 -16.474  23.028  1.00  0.00     0.006 C 
BRANCH   2   3
ATOM      3  C   UNL     1       7.649 -15.006  23.435  1.00  0.00     0.053 C 
BRANCH   3   4
ATOM      4  C   UNL     1       8.827 -14.822  24.342  1.00  0.00     0.041 C 
ATOM      5  O   UNL     1       9.934 -14.445  23.875  1.00  0.00    -0.550 OA
ATOM      6  O   UNL     1       8.709 -15.097  25.699  1.00  0.00    -0.550 OA
ENDBRANCH   3   4
ENDBRANCH   2   3
ENDBRANCH   1   2
BRANCH   1   7
ATOM      7  C   UNL     1       6.777 -18.311  24.627  1.00  0.00     0.000 C 
BRANCH   7   8
ATOM      8  C   UNL     1       7.306 -19.457  23.753  1.00  0.00    -0.000 C 
BRANCH   8   9
ATOM      9  C   UNL     1       6.232 -20.030  22.817  1.00  0.00    -0.003 C 
ATOM     10  C   UNL     1       6.824 -20.718  21.588  1.00  0.00     0.004 C 
ENDBRANCH   8   9
ENDBRANCH   7   8
ENDBRANCH   1   7
TORSDOF 6
ENDMDL
MODEL 3
REMARK VINA RESULT:    -3.434      1.600      2.162
REMARK INTER + INTRA:          -5.062
REMARK INTER:                  -4.476
REMARK INTRA:                  -0.586
REMARK UNBOUND:                -0.424
REMARK SMILES CCCCCCCC(=O)[O-]
REMARK SMILES IDX 5 1 6 2 7 3 8 4 9 5 10 6 4 7 3 8 2 9 1 10
REMARK H PARENT
REMARK Flexibility Score: inf
ROOT
ATOM      1  C   UNL     1       7.401 -16.818  22.533  1.00  0.00     0.000 C 
ENDROOT
BRANCH   1   2
ATOM      2  C   UNL     1       6.778 -15.574  23.184  1.00  0.00     0.006 C 
BRANCH   2   3
ATOM      3  C   UNL     1       7.784 -14.422  23.312  1.00  0.00     0.053 C 
BRANCH   3   4
ATOM      4  C   UNL     1       8.863 -14.732  24.303  1.00  0.00     0.041 C 
ATOM      5  O   UNL     1      10.074 -14.673  23.961  1.00  0.00    -0.550 OA
ATOM      6  O   UNL     1       8.531 -15.118  25.595  1.00  0.00    -0.550 OA
ENDBRANCH   3   4
ENDBRANCH   2   3
ENDBRANCH   1   2
BRANCH   1   7
ATOM      7  C   UNL     1       6.985 -18.095  23.275  1.00  0.00     0.000 C 
BRANCH   7   8
ATOM      8  C   UNL     1       6.358 -17.760  24.636  1.00  0.00    -0.000 C 
BRANCH   8   9
ATOM      9  C   UNL     1       7.078 -18.452  25.804  1.00  0.00    -0.003 C 
ATOM     10  C   UNL     1       8.579 -18.608  25.564  1.00  0.00     0.004 C 
ENDBRANCH   8   9
ENDBRANCH   7   8
ENDBRANCH   1   7
TORSDOF 6
ENDMDL
MODEL 4
REMARK VINA RESULT:    -3.409      1.601      2.768
REMARK INTER + INTRA:          -5.029
REMARK INTER:                  -4.425
REMARK INTRA:                  -0.604
REMARK UNBOUND:                -0.424
REMARK SMILES CCCCCCCC(=O)[O-]
REMARK SMILES IDX 5 1 6 2 7 3 8 4 9 5 10 6 4 7 3 8 2 9 1 10
REMARK H PARENT
REMARK Flexibility Score: inf
ROOT
ATOM      1  C   UNL     1       7.145 -17.614  25.521  1.00  0.00     0.000 C 
ENDROOT
BRANCH   1   2
ATOM      2  C   UNL     1       7.946 -16.351  25.874  1.00  0.00     0.006 C 
BRANCH   2   3
ATOM      3  C   UNL     1       9.454 -16.543  25.663  1.00  0.00     0.053 C 
BRANCH   3   4
ATOM      4  C   UNL     1      10.006 -15.566  24.672  1.00  0.00     0.041 C 
ATOM      5  O   UNL     1       9.339 -14.548  24.346  1.00  0.00    -0.550 OA
ATOM      6  O   UNL     1      11.243 -15.796  24.083  1.00  0.00    -0.550 OA
ENDBRANCH   3   4
ENDBRANCH   2   3
ENDBRANCH   1   2
BRANCH   1   7
ATOM      7  C   UNL     1       6.313 -17.401  24.250  1.00  0.00     0.000 C 
BRANCH   7   8
ATOM      8  C   UNL     1       7.119 -17.769  22.996  1.00  0.00    -0.000 C 
BRANCH   8   9
ATOM      9  C   UNL     1       7.360 -16.564  22.075  1.00  0.00    -0.003 C 
ATOM     10  C   UNL     1       6.537 -15.340  22.475  1.00  0.00     0.004 C 
ENDBRANCH   8   9
ENDBRANCH   7   8
ENDBRANCH   1   7
TORSDOF 6
ENDMDL
MODEL 5
REMARK VINA RESULT:    -3.406      1.772      3.839
REMARK INTER + INTRA:          -5.024
REMARK INTER:                  -4.432
REMARK INTRA:                  -0.593
REMARK UNBOUND:                -0.424
REMARK SMILES CCCCCCCC(=O)[O-]
REMARK SMILES IDX 5 1 6 2 7 3 8 4 9 5 10 6 4 7 3 8 2 9 1 10
REMARK H PARENT
REMARK Flexibility Score: inf
ROOT
ATOM      1  C   UNL     1       7.555 -15.135  23.011  1.00  0.00     0.000 C 
ENDROOT
BRANCH   1   2
ATOM      2  C   UNL     1       6.531 -16.218  23.382  1.00  0.00     0.006 C 
BRANCH   2   3
ATOM      3  C   UNL     1       7.157 -17.619  23.420  1.00  0.00     0.053 C 
BRANCH   3   4
ATOM      4  C   UNL     1       6.973 -18.273  24.755  1.00  0.00     0.041 C 
ATOM      5  O   UNL     1       6.736 -17.574  25.776  1.00  0.00    -0.550 OA
ATOM      6  O   UNL     1       7.094 -19.652  24.877  1.00  0.00    -0.550 OA
ENDBRANCH   3   4
ENDBRANCH   2   3
ENDBRANCH   1   2
BRANCH   1   7
ATOM      7  C   UNL     1       8.365 -14.700  24.240  1.00  0.00     0.000 C 
BRANCH   7   8
ATOM      8  C   UNL     1       9.872 -14.754  23.953  1.00  0.00    -0.000 C 
BRANCH   8   9
ATOM      9  C   UNL     1      10.515 -16.069  24.419  1.00  0.00    -0.003 C 
ATOM     10  C   UNL     1      10.142 -16.432  25.856  1.00  0.00     0.004 C 
ENDBRANCH   8   9
ENDBRANCH   7   8
ENDBRANCH   1   7
TORSDOF 6
ENDMDL
MODEL 6
REMARK VINA RESULT:    -3.348     12.641     14.179
REMARK INTER + INTRA:          -4.947
REMARK INTER:                  -4.759
REMARK INTRA:                  -0.188
REMARK UNBOUND:                -0.424
REMARK SMILES CCCCCCCC(=O)[O-]
REMARK SMILES IDX 5 1 6 2 7 3 8 4 9 5 10 6 4 7 3 8 2 9 1 10
REMARK H PARENT
REMARK Flexibility Score: inf
ROOT
ATOM      1  C   UNL     1      19.531 -18.850  22.251  1.00  0.00     0.000 C 
ENDROOT
BRANCH   1   2
ATOM      2  C   UNL     1      20.087 -19.902  23.222  1.00  0.00     0.006 C 
BRANCH   2   3
ATOM      3  C   UNL     1      21.311 -20.630  22.649  1.00  0.00     0.053 C 
BRANCH   3   4
ATOM      4  C   UNL     1      21.827 -21.675  23.589  1.00  0.00     0.041 C 
ATOM      5  O   UNL     1      21.384 -21.743  24.767  1.00  0.00    -0.550 OA
ATOM      6  O   UNL     1      22.819 -22.555  23.175  1.00  0.00    -0.550 OA
ENDBRANCH   3   4
ENDBRANCH   2   3
ENDBRANCH   1   2
BRANCH   1   7
ATOM      7  C   UNL     1      20.635 -18.309  21.333  1.00  0.00     0.000 C 
BRANCH   7   8
ATOM      8  C   UNL     1      20.053 -17.372  20.265  1.00  0.00    -0.000 C 
BRANCH   8   9
ATOM      9  C   UNL     1      20.977 -16.184  19.956  1.00  0.00    -0.003 C 
ATOM     10  C   UNL     1      22.354 -16.620  19.458  1.00  0.00     0.004 C 
ENDBRANCH   8   9
ENDBRANCH   7   8
ENDBRANCH   1   7
TORSDOF 6
ENDMDL
MODEL 7
REMARK VINA RESULT:    -3.313      2.059      3.655
REMARK INTER + INTRA:          -4.899
REMARK INTER:                  -4.231
REMARK INTRA:                  -0.668
REMARK UNBOUND:                -0.424
REMARK SMILES CCCCCCCC(=O)[O-]
REMARK SMILES IDX 5 1 6 2 7 3 8 4 9 5 10 6 4 7 3 8 2 9 1 10
REMARK H PARENT
REMARK Flexibility Score: inf
ROOT
ATOM      1  C   UNL     1       9.755 -14.760  24.008  1.00  0.00     0.000 C 
ENDROOT
BRANCH   1   2
ATOM      2  C   UNL     1       8.363 -15.011  24.606  1.00  0.00     0.006 C 
BRANCH   2   3
ATOM      3  C   UNL     1       7.454 -15.797  23.652  1.00  0.00     0.053 C 
BRANCH   3   4
ATOM      4  C   UNL     1       6.880 -17.015  24.307  1.00  0.00     0.041 C 
ATOM      5  O   UNL     1       6.993 -17.178  25.551  1.00  0.00    -0.550 OA
ATOM      6  O   UNL     1       6.248 -17.986  23.540  1.00  0.00    -0.550 OA
ENDBRANCH   3   4
ENDBRANCH   2   3
ENDBRANCH   1   2
BRANCH   1   7
ATOM      7  C   UNL     1      10.714 -15.909  24.343  1.00  0.00     0.000 C 
BRANCH   7   8
ATOM      8  C   UNL     1      10.481 -16.420  25.773  1.00  0.00    -0.000 C 
BRANCH   8   9
ATOM      9  C   UNL     1      10.409 -17.953  25.847  1.00  0.00    -0.003 C 
ATOM     10  C   UNL     1      10.298 -18.607  24.471  1.00  0.00     0.004 C 
ENDBRANCH   8   9
ENDBRANCH   7   8
ENDBRANCH   1   7
TORSDOF 6
ENDMDL
MODEL 8
REMARK VINA RESULT:    -3.294      1.535      2.335
REMARK INTER + INTRA:          -4.873
REMARK INTER:                  -4.339
REMARK INTRA:                  -0.534
REMARK UNBOUND:                -0.424
REMARK SMILES CCCCCCCC(=O)[O-]
REMARK SMILES IDX 5 1 6 2 7 3 8 4 9 5 10 6 4 7 3 8 2 9 1 10
REMARK H PARENT
REMARK Flexibility Score: inf
ROOT
ATOM      1  C   UNL     1       7.588 -16.635  21.985  1.00  0.00     0.000 C 
ENDROOT
BRANCH   1   2
ATOM      2  C   UNL     1       6.906 -15.778  23.063  1.00  0.00     0.006 C 
BRANCH   2   3
ATOM      3  C   UNL     1       7.690 -14.495  23.367  1.00  0.00     0.053 C 
BRANCH   3   4
ATOM      4  C   UNL     1       8.858 -14.757  24.268  1.00  0.00     0.041 C 
ATOM      5  O   UNL     1       8.671 -15.052  25.478  1.00  0.00    -0.550 OA
ATOM      6  O   UNL     1      10.153 -14.645  23.778  1.00  0.00    -0.550 OA
ENDBRANCH   3   4
ENDBRANCH   2   3
ENDBRANCH   1   2
BRANCH   1   7
ATOM      7  C   UNL     1       7.526 -18.125  22.345  1.00  0.00     0.000 C 
BRANCH   7   8
ATOM      8  C   UNL     1       8.290 -18.409  23.646  1.00  0.00    -0.000 C 
BRANCH   8   9
ATOM      9  C   UNL     1       7.432 -19.148  24.684  1.00  0.00    -0.003 C 
ATOM     10  C   UNL     1       7.049 -18.266  25.871  1.00  0.00     0.004 C 
ENDBRANCH   8   9
ENDBRANCH   7   8
ENDBRANCH   1   7
TORSDOF 6
ENDMDL
MODEL 9
REMARK VINA RESULT:    -3.261      2.360      3.831
REMARK INTER + INTRA:          -4.828
REMARK INTER:                  -4.493
REMARK INTRA:                  -0.335
REMARK UNBOUND:                -0.424
REMARK SMILES CCCCCCCC(=O)[O-]
REMARK SMILES IDX 5 1 6 2 7 3 8 4 9 5 10 6 4 7 3 8 2 9 1 10
REMARK H PARENT
REMARK Flexibility Score: inf
ROOT
ATOM      1  C   UNL     1       8.145 -19.193  22.951  1.00  0.00     0.000 C 
ENDROOT
BRANCH   1   2
ATOM      2  C   UNL     1       7.392 -17.854  22.956  1.00  0.00     0.006 C 
BRANCH   2   3
ATOM      3  C   UNL     1       6.289 -17.814  24.022  1.00  0.00     0.053 C 
BRANCH   3   4
ATOM      4  C   UNL     1       6.856 -17.735  25.406  1.00  0.00     0.041 C 
ATOM      5  O   UNL     1       7.497 -16.714  25.772  1.00  0.00    -0.550 OA
ATOM      6  O   UNL     1       6.705 -18.804  26.281  1.00  0.00    -0.550 OA
ENDBRANCH   3   4
ENDBRANCH   2   3
ENDBRANCH   1   2
BRANCH   1   7
ATOM      7  C   UNL     1       7.178 -20.368  22.755  1.00  0.00     0.000 C 
BRANCH   7   8
ATOM      8  C   UNL     1       7.131 -20.803  21.283  1.00  0.00    -0.000 C 
BRANCH   8   9
ATOM      9  C   UNL     1       7.690 -22.218  21.068  1.00  0.00    -0.003 C 
ATOM     10  C   UNL     1       9.207 -22.232  20.881  1.00  0.00     0.004 C 
ENDBRANCH   8   9
ENDBRANCH   7   8
ENDBRANCH   1   7
TORSDOF 6
ENDMDL
