MODEL 1
REMARK VINA RESULT:    -6.883      0.000      0.000
REMARK INTER + INTRA:          -8.866
REMARK INTER:                  -8.493
REMARK INTRA:                  -0.373
REMARK UNBOUND:                -0.373
REMARK SMILES Oc1cc(O)c2cc(O)c(-c3cc(O)c(O)c(O)c3)[o+]c2c1
REMARK SMILES IDX 10 1 20 2 21 3 22 4 2 5 3 6 4 7 6 8 7 9 8 10 11 11 12 12
REMARK SMILES IDX 13 13 19 14 15 15 17 16 14 17 16 19 18 21 9 23 1 25 5 27
REMARK H PARENT 14 18 16 20 18 22 9 24 1 26 5 28
REMARK Flexibility Score: inf
ROOT
ATOM      1  C   UNL     1     -36.598 -13.107 -10.526  1.00  0.00     0.402 A 
ATOM      2  O   UNL     1     -35.634 -14.012 -10.685  1.00  0.00    -0.202 OA
ATOM      3  C   UNL     1     -35.543 -14.799 -11.754  1.00  0.00     0.368 A 
ATOM      4  C   UNL     1     -34.502 -15.727 -11.843  1.00  0.00     0.162 A 
ATOM      5  C   UNL     1     -34.397 -16.565 -12.961  1.00  0.00     0.128 A 
ATOM      6  C   UNL     1     -35.337 -16.471 -13.993  1.00  0.00     0.093 A 
ATOM      7  C   UNL     1     -36.388 -15.543 -13.917  1.00  0.00     0.136 A 
ATOM      8  C   UNL     1     -36.493 -14.703 -12.793  1.00  0.00     0.125 A 
ATOM      9  C   UNL     1     -37.514 -13.754 -12.669  1.00  0.00     0.078 A 
ATOM     10  C   UNL     1     -37.569 -12.938 -11.534  1.00  0.00     0.223 A 
ENDROOT
BRANCH   1  11
ATOM     11  C   UNL     1     -36.599 -12.295  -9.288  1.00  0.00     0.091 A 
ATOM     12  C   UNL     1     -37.415 -12.676  -8.215  1.00  0.00     0.068 A 
ATOM     13  C   UNL     1     -37.450 -11.919  -7.041  1.00  0.00     0.162 A 
ATOM     14  C   UNL     1     -35.843 -11.118  -9.186  1.00  0.00     0.068 A 
ATOM     15  C   UNL     1     -36.675 -10.751  -6.928  1.00  0.00     0.200 A 
ATOM     16  C   UNL     1     -35.869 -10.345  -8.019  1.00  0.00     0.162 A 
BRANCH  13  17
ATOM     17  O   UNL     1     -38.265 -12.347  -5.992  1.00  0.00    -0.504 OA
ATOM     18  H   UNL     1     -39.181 -11.951  -5.823  1.00  0.00     0.293 HD
ENDBRANCH  13  17
BRANCH  15  19
ATOM     19  O   UNL     1     -36.731 -10.028  -5.733  1.00  0.00    -0.502 OA
ATOM     20  H   UNL     1     -36.936 -10.435  -4.833  1.00  0.00     0.293 HD
ENDBRANCH  15  19
BRANCH  16  21
ATOM     21  O   UNL     1     -35.089  -9.187  -7.991  1.00  0.00    -0.504 OA
ATOM     22  H   UNL     1     -34.358  -8.979  -8.657  1.00  0.00     0.293 HD
ENDBRANCH  16  21
ENDBRANCH   1  11
BRANCH  10  23
ATOM     23  O   UNL     1     -38.554 -11.957 -11.427  1.00  0.00    -0.500 OA
ATOM     24  H   UNL     1     -38.320 -10.973 -11.367  1.00  0.00     0.294 HD
ENDBRANCH  10  23
BRANCH   5  25
ATOM     25  O   UNL     1     -33.362 -17.492 -13.058  1.00  0.00    -0.507 OA
ATOM     26  H   UNL     1     -32.474 -17.346 -12.593  1.00  0.00     0.293 HD
ENDBRANCH   5  25
BRANCH   7  27
ATOM     27  O   UNL     1     -37.318 -15.459 -14.953  1.00  0.00    -0.507 OA
ATOM     28  H   UNL     1     -37.064 -15.660 -15.914  1.00  0.00     0.293 HD
ENDBRANCH   7  27
TORSDOF 7
ENDMDL
MODEL 2
REMARK VINA RESULT:    -6.869      1.542      2.891
REMARK INTER + INTRA:          -8.849
REMARK INTER:                  -8.464
REMARK INTRA:                  -0.385
REMARK UNBOUND:                -0.373
REMARK SMILES Oc1cc(O)c2cc(O)c(-c3cc(O)c(O)c(O)c3)[o+]c2c1
REMARK SMILES IDX 10 1 20 2 21 3 22 4 2 5 3 6 4 7 6 8 7 9 8 10 11 11 12 12
REMARK SMILES IDX 13 13 19 14 15 15 17 16 14 17 16 19 18 21 9 23 1 25 5 27
REMARK H PARENT 14 18 16 20 18 22 9 24 1 26 5 28
REMARK Flexibility Score: inf
ROOT
ATOM      1  C   UNL     1     -36.114 -14.618 -10.619  1.00  0.00     0.402 A 
ATOM      2  O   UNL     1     -36.979 -14.803 -11.615  1.00  0.00    -0.202 OA
ATOM      3  C   UNL     1     -36.683 -15.481 -12.720  1.00  0.00     0.368 A 
ATOM      4  C   UNL     1     -37.648 -15.627 -13.721  1.00  0.00     0.162 A 
ATOM      5  C   UNL     1     -37.347 -16.335 -14.892  1.00  0.00     0.128 A 
ATOM      6  C   UNL     1     -36.078 -16.899 -15.059  1.00  0.00     0.093 A 
ATOM      7  C   UNL     1     -35.100 -16.762 -14.062  1.00  0.00     0.136 A 
ATOM      8  C   UNL     1     -35.402 -16.049 -12.887  1.00  0.00     0.125 A 
ATOM      9  C   UNL     1     -34.470 -15.888 -11.856  1.00  0.00     0.078 A 
ATOM     10  C   UNL     1     -34.822 -15.177 -10.705  1.00  0.00     0.223 A 
ENDROOT
BRANCH   1  11
ATOM     11  C   UNL     1     -36.557 -13.837  -9.442  1.00  0.00     0.091 A 
ATOM     12  C   UNL     1     -37.253 -14.480  -8.411  1.00  0.00     0.068 A 
ATOM     13  C   UNL     1     -37.700 -13.765  -7.296  1.00  0.00     0.162 A 
ATOM     14  C   UNL     1     -36.345 -12.451  -9.362  1.00  0.00     0.068 A 
ATOM     15  C   UNL     1     -37.468 -12.381  -7.204  1.00  0.00     0.200 A 
ATOM     16  C   UNL     1     -36.789 -11.719  -8.255  1.00  0.00     0.162 A 
BRANCH  13  17
ATOM     17  O   UNL     1     -38.374 -14.452  -6.286  1.00  0.00    -0.504 OA
ATOM     18  H   UNL     1     -39.239 -14.950  -6.455  1.00  0.00     0.293 HD
ENDBRANCH  13  17
BRANCH  15  19
ATOM     19  O   UNL     1     -37.922 -11.705  -6.068  1.00  0.00    -0.502 OA
ATOM     20  H   UNL     1     -37.901 -10.702  -5.958  1.00  0.00     0.293 HD
ENDBRANCH  15  19
BRANCH  16  21
ATOM     21  O   UNL     1     -36.542 -10.344  -8.246  1.00  0.00    -0.504 OA
ATOM     22  H   UNL     1     -37.087  -9.666  -8.759  1.00  0.00     0.293 HD
ENDBRANCH  16  21
ENDBRANCH   1  11
BRANCH  10  23
ATOM     23  O   UNL     1     -33.915 -15.055  -9.653  1.00  0.00    -0.500 OA
ATOM     24  H   UNL     1     -34.169 -14.607  -8.781  1.00  0.00     0.294 HD
ENDBRANCH  10  23
BRANCH   5  25
ATOM     25  O   UNL     1     -38.302 -16.486 -15.895  1.00  0.00    -0.507 OA
ATOM     26  H   UNL     1     -38.141 -16.144 -16.835  1.00  0.00     0.293 HD
ENDBRANCH   5  25
BRANCH   7  27
ATOM     27  O   UNL     1     -33.839 -17.330 -14.241  1.00  0.00    -0.507 OA
ATOM     28  H   UNL     1     -33.279 -17.640 -13.455  1.00  0.00     0.293 HD
ENDBRANCH   7  27
TORSDOF 7
ENDMDL
MODEL 3
REMARK VINA RESULT:    -6.863      0.153      1.812
REMARK INTER + INTRA:          -8.841
REMARK INTER:                  -8.458
REMARK INTRA:                  -0.383
REMARK UNBOUND:                -0.373
REMARK SMILES Oc1cc(O)c2cc(O)c(-c3cc(O)c(O)c(O)c3)[o+]c2c1
REMARK SMILES IDX 10 1 20 2 21 3 22 4 2 5 3 6 4 7 6 8 7 9 8 10 11 11 12 12
REMARK SMILES IDX 13 13 19 14 15 15 17 16 14 17 16 19 18 21 9 23 1 25 5 27
REMARK H PARENT 14 18 16 20 18 22 9 24 1 26 5 28
REMARK Flexibility Score: inf
ROOT
ATOM      1  C   UNL     1     -36.582 -13.039 -10.536  1.00  0.00     0.402 A 
ATOM      2  O   UNL     1     -35.574 -13.897 -10.687  1.00  0.00    -0.202 OA
ATOM      3  C   UNL     1     -35.434 -14.675 -11.757  1.00  0.00     0.368 A 
ATOM      4  C   UNL     1     -34.349 -15.552 -11.836  1.00  0.00     0.162 A 
ATOM      5  C   UNL     1     -34.192 -16.380 -12.956  1.00  0.00     0.128 A 
ATOM      6  C   UNL     1     -35.123 -16.327 -13.998  1.00  0.00     0.093 A 
ATOM      7  C   UNL     1     -36.217 -15.450 -13.933  1.00  0.00     0.136 A 
ATOM      8  C   UNL     1     -36.375 -14.619 -12.807  1.00  0.00     0.125 A 
ATOM      9  C   UNL     1     -37.440 -13.720 -12.692  1.00  0.00     0.078 A 
ATOM     10  C   UNL     1     -37.548 -12.912 -11.556  1.00  0.00     0.223 A 
ENDROOT
BRANCH   1  11
ATOM     11  C   UNL     1     -36.636 -12.233  -9.296  1.00  0.00     0.091 A 
ATOM     12  C   UNL     1     -35.845 -11.083  -9.188  1.00  0.00     0.068 A 
ATOM     13  C   UNL     1     -35.861 -10.312  -8.021  1.00  0.00     0.162 A 
ATOM     14  C   UNL     1     -37.421 -12.627  -8.201  1.00  0.00     0.068 A 
ATOM     15  C   UNL     1     -36.664 -10.693  -6.932  1.00  0.00     0.200 A 
ATOM     16  C   UNL     1     -37.446 -11.870  -7.024  1.00  0.00     0.162 A 
BRANCH  13  17
ATOM     17  O   UNL     1     -35.069  -9.164  -7.966  1.00  0.00    -0.504 OA
ATOM     18  H   UNL     1     -35.245  -8.416  -7.307  1.00  0.00     0.293 HD
ENDBRANCH  13  17
BRANCH  15  19
ATOM     19  O   UNL     1     -36.660  -9.889  -5.788  1.00  0.00    -0.502 OA
ATOM     20  H   UNL     1     -37.272 -10.024  -4.997  1.00  0.00     0.293 HD
ENDBRANCH  15  19
BRANCH  16  21
ATOM     21  O   UNL     1     -38.251 -12.325  -5.978  1.00  0.00    -0.504 OA
ATOM     22  H   UNL     1     -38.210 -13.259  -5.595  1.00  0.00     0.293 HD
ENDBRANCH  16  21
ENDBRANCH   1  11
BRANCH  10  23
ATOM     23  O   UNL     1     -38.579 -11.979 -11.457  1.00  0.00    -0.500 OA
ATOM     24  H   UNL     1     -38.476 -11.128 -10.916  1.00  0.00     0.294 HD
ENDBRANCH  10  23
BRANCH   5  25
ATOM     25  O   UNL     1     -33.114 -17.258 -13.044  1.00  0.00    -0.507 OA
ATOM     26  H   UNL     1     -32.458 -17.369 -12.279  1.00  0.00     0.293 HD
ENDBRANCH   5  25
BRANCH   7  27
ATOM     27  O   UNL     1     -37.138 -15.406 -14.979  1.00  0.00    -0.507 OA
ATOM     28  H   UNL     1     -38.086 -15.077 -14.840  1.00  0.00     0.293 HD
ENDBRANCH   7  27
TORSDOF 7
ENDMDL
MODEL 4
REMARK VINA RESULT:    -6.720      1.220      2.552
REMARK INTER + INTRA:          -8.665
REMARK INTER:                  -8.397
REMARK INTRA:                  -0.267
REMARK UNBOUND:                -0.373
REMARK SMILES Oc1cc(O)c2cc(O)c(-c3cc(O)c(O)c(O)c3)[o+]c2c1
REMARK SMILES IDX 10 1 20 2 21 3 22 4 2 5 3 6 4 7 6 8 7 9 8 10 11 11 12 12
REMARK SMILES IDX 13 13 19 14 15 15 17 16 14 17 16 19 18 21 9 23 1 25 5 27
REMARK H PARENT 14 18 16 20 18 22 9 24 1 26 5 28
REMARK Flexibility Score: inf
ROOT
ATOM      1  C   UNL     1     -36.404 -13.430 -10.329  1.00  0.00     0.402 A 
ATOM      2  O   UNL     1     -36.889 -13.051 -11.510  1.00  0.00    -0.202 OA
ATOM      3  C   UNL     1     -36.905 -13.843 -12.579  1.00  0.00     0.368 A 
ATOM      4  C   UNL     1     -37.428 -13.367 -13.784  1.00  0.00     0.162 A 
ATOM      5  C   UNL     1     -37.446 -14.190 -14.918  1.00  0.00     0.128 A 
ATOM      6  C   UNL     1     -36.942 -15.493 -14.843  1.00  0.00     0.093 A 
ATOM      7  C   UNL     1     -36.415 -15.984 -13.639  1.00  0.00     0.136 A 
ATOM      8  C   UNL     1     -36.395 -15.157 -12.500  1.00  0.00     0.125 A 
ATOM      9  C   UNL     1     -35.890 -15.597 -11.272  1.00  0.00     0.078 A 
ATOM     10  C   UNL     1     -35.900 -14.737 -10.169  1.00  0.00     0.223 A 
ENDROOT
BRANCH   1  11
ATOM     11  C   UNL     1     -36.433 -12.456  -9.215  1.00  0.00     0.091 A 
ATOM     12  C   UNL     1     -37.325 -12.649  -8.153  1.00  0.00     0.068 A 
ATOM     13  C   UNL     1     -37.387 -11.736  -7.097  1.00  0.00     0.162 A 
ATOM     14  C   UNL     1     -35.624 -11.309  -9.227  1.00  0.00     0.068 A 
ATOM     15  C   UNL     1     -36.561 -10.598  -7.096  1.00  0.00     0.200 A 
ATOM     16  C   UNL     1     -35.676 -10.381  -8.179  1.00  0.00     0.162 A 
BRANCH  13  17
ATOM     17  O   UNL     1     -38.280 -11.980  -6.053  1.00  0.00    -0.504 OA
ATOM     18  H   UNL     1     -38.374 -11.352  -5.263  1.00  0.00     0.293 HD
ENDBRANCH  13  17
BRANCH  15  19
ATOM     19  O   UNL     1     -36.647  -9.715  -6.015  1.00  0.00    -0.502 OA
ATOM     20  H   UNL     1     -37.014  -8.777  -6.077  1.00  0.00     0.293 HD
ENDBRANCH  15  19
BRANCH  16  21
ATOM     21  O   UNL     1     -34.841  -9.265  -8.260  1.00  0.00    -0.504 OA
ATOM     22  H   UNL     1     -35.170  -8.318  -8.384  1.00  0.00     0.293 HD
ENDBRANCH  16  21
ENDBRANCH   1  11
BRANCH  10  23
ATOM     23  O   UNL     1     -35.444 -15.185  -8.930  1.00  0.00    -0.500 OA
ATOM     24  H   UNL     1     -35.299 -16.170  -8.741  1.00  0.00     0.294 HD
ENDBRANCH  10  23
BRANCH   5  25
ATOM     25  O   UNL     1     -37.966 -13.725 -16.124  1.00  0.00    -0.507 OA
ATOM     26  H   UNL     1     -37.652 -12.853 -16.535  1.00  0.00     0.293 HD
ENDBRANCH   5  25
BRANCH   7  27
ATOM     27  O   UNL     1     -35.916 -17.285 -13.577  1.00  0.00    -0.507 OA
ATOM     28  H   UNL     1     -35.667 -17.800 -14.414  1.00  0.00     0.293 HD
ENDBRANCH   7  27
TORSDOF 7
ENDMDL
MODEL 5
REMARK VINA RESULT:    -6.679      1.273      2.213
REMARK INTER + INTRA:          -8.615
REMARK INTER:                  -8.237
REMARK INTRA:                  -0.378
REMARK UNBOUND:                -0.373
REMARK SMILES Oc1cc(O)c2cc(O)c(-c3cc(O)c(O)c(O)c3)[o+]c2c1
REMARK SMILES IDX 10 1 20 2 21 3 22 4 2 5 3 6 4 7 6 8 7 9 8 10 11 11 12 12
REMARK SMILES IDX 13 13 19 14 15 15 17 16 14 17 16 19 18 21 9 23 1 25 5 27
REMARK H PARENT 14 18 16 20 18 22 9 24 1 26 5 28
REMARK Flexibility Score: inf
ROOT
ATOM      1  C   UNL     1     -36.360 -13.300 -10.839  1.00  0.00     0.402 A 
ATOM      2  O   UNL     1     -35.212 -13.961 -10.974  1.00  0.00    -0.202 OA
ATOM      3  C   UNL     1     -34.763 -14.408 -12.144  1.00  0.00     0.368 A 
ATOM      4  C   UNL     1     -33.548 -15.097 -12.200  1.00  0.00     0.162 A 
ATOM      5  C   UNL     1     -33.066 -15.577 -13.425  1.00  0.00     0.128 A 
ATOM      6  C   UNL     1     -33.802 -15.364 -14.596  1.00  0.00     0.093 A 
ATOM      7  C   UNL     1     -35.022 -14.673 -14.555  1.00  0.00     0.136 A 
ATOM      8  C   UNL     1     -35.507 -14.192 -13.324  1.00  0.00     0.125 A 
ATOM      9  C   UNL     1     -36.712 -13.489 -13.224  1.00  0.00     0.078 A 
ATOM     10  C   UNL     1     -37.146 -13.026 -11.978  1.00  0.00     0.223 A 
ENDROOT
BRANCH   1  11
ATOM     11  C   UNL     1     -36.759 -12.860  -9.483  1.00  0.00     0.091 A 
ATOM     12  C   UNL     1     -36.382 -11.589  -9.033  1.00  0.00     0.068 A 
ATOM     13  C   UNL     1     -36.729 -11.153  -7.750  1.00  0.00     0.162 A 
ATOM     14  C   UNL     1     -37.460 -13.712  -8.615  1.00  0.00     0.068 A 
ATOM     15  C   UNL     1     -37.451 -11.997  -6.887  1.00  0.00     0.200 A 
ATOM     16  C   UNL     1     -37.812 -13.294  -7.326  1.00  0.00     0.162 A 
BRANCH  13  17
ATOM     17  O   UNL     1     -36.345  -9.873  -7.352  1.00  0.00    -0.504 OA
ATOM     18  H   UNL     1     -36.085  -9.154  -8.016  1.00  0.00     0.293 HD
ENDBRANCH  13  17
BRANCH  15  19
ATOM     19  O   UNL     1     -37.787 -11.520  -5.617  1.00  0.00    -0.502 OA
ATOM     20  H   UNL     1     -37.398 -11.875  -4.756  1.00  0.00     0.293 HD
ENDBRANCH  15  19
BRANCH  16  21
ATOM     21  O   UNL     1     -38.510 -14.196  -6.520  1.00  0.00    -0.504 OA
ATOM     22  H   UNL     1     -38.942 -13.954  -5.641  1.00  0.00     0.293 HD
ENDBRANCH  16  21
ENDBRANCH   1  11
BRANCH  10  23
ATOM     23  O   UNL     1     -38.321 -12.283 -11.878  1.00  0.00    -0.500 OA
ATOM     24  H   UNL     1     -38.469 -11.619 -11.127  1.00  0.00     0.294 HD
ENDBRANCH  10  23
BRANCH   5  25
ATOM     25  O   UNL     1     -31.856 -16.265 -13.491  1.00  0.00    -0.507 OA
ATOM     26  H   UNL     1     -31.417 -16.481 -14.379  1.00  0.00     0.293 HD
ENDBRANCH   5  25
BRANCH   7  27
ATOM     27  O   UNL     1     -35.746 -14.466 -15.729  1.00  0.00    -0.507 OA
ATOM     28  H   UNL     1     -36.718 -14.181 -15.712  1.00  0.00     0.293 HD
ENDBRANCH   7  27
TORSDOF 7
ENDMDL
MODEL 6
REMARK VINA RESULT:    -6.419      3.548      6.338
REMARK INTER + INTRA:          -8.293
REMARK INTER:                  -8.661
REMARK INTRA:                   0.368
REMARK UNBOUND:                -0.373
REMARK SMILES Oc1cc(O)c2cc(O)c(-c3cc(O)c(O)c(O)c3)[o+]c2c1
REMARK SMILES IDX 10 1 20 2 21 3 22 4 2 5 3 6 4 7 6 8 7 9 8 10 11 11 12 12
REMARK SMILES IDX 13 13 19 14 15 15 17 16 14 17 16 19 18 21 9 23 1 25 5 27
REMARK H PARENT 14 18 16 20 18 22 9 24 1 26 5 28
REMARK Flexibility Score: inf
ROOT
ATOM      1  C   UNL     1     -36.628 -12.561  -7.901  1.00  0.00     0.402 A 
ATOM      2  O   UNL     1     -35.735 -12.281  -8.850  1.00  0.00    -0.202 OA
ATOM      3  C   UNL     1     -35.171 -11.085  -8.989  1.00  0.00     0.368 A 
ATOM      4  C   UNL     1     -34.246 -10.872 -10.015  1.00  0.00     0.162 A 
ATOM      5  C   UNL     1     -33.648  -9.614 -10.175  1.00  0.00     0.128 A 
ATOM      6  C   UNL     1     -33.978  -8.570  -9.305  1.00  0.00     0.093 A 
ATOM      7  C   UNL     1     -34.905  -8.769  -8.271  1.00  0.00     0.136 A 
ATOM      8  C   UNL     1     -35.506 -10.032  -8.111  1.00  0.00     0.125 A 
ATOM      9  C   UNL     1     -36.430 -10.291  -7.093  1.00  0.00     0.078 A 
ATOM     10  C   UNL     1     -36.993 -11.565  -6.972  1.00  0.00     0.223 A 
ENDROOT
BRANCH   1  11
ATOM     11  C   UNL     1     -37.192 -13.929  -7.852  1.00  0.00     0.091 A 
ATOM     12  C   UNL     1     -38.367 -14.163  -7.127  1.00  0.00     0.068 A 
ATOM     13  C   UNL     1     -38.914 -15.447  -7.049  1.00  0.00     0.162 A 
ATOM     14  C   UNL     1     -36.544 -15.009  -8.470  1.00  0.00     0.068 A 
ATOM     15  C   UNL     1     -38.277 -16.528  -7.686  1.00  0.00     0.200 A 
ATOM     16  C   UNL     1     -37.074 -16.303  -8.398  1.00  0.00     0.162 A 
BRANCH  13  17
ATOM     17  O   UNL     1     -40.095 -15.629  -6.329  1.00  0.00    -0.504 OA
ATOM     18  H   UNL     1     -40.102 -15.757  -5.324  1.00  0.00     0.293 HD
ENDBRANCH  13  17
BRANCH  15  19
ATOM     19  O   UNL     1     -38.862 -17.794  -7.591  1.00  0.00    -0.502 OA
ATOM     20  H   UNL     1     -38.469 -18.562  -7.068  1.00  0.00     0.293 HD
ENDBRANCH  15  19
BRANCH  16  21
ATOM     21  O   UNL     1     -36.374 -17.327  -9.038  1.00  0.00    -0.504 OA
ATOM     22  H   UNL     1     -35.795 -17.194  -9.854  1.00  0.00     0.293 HD
ENDBRANCH  16  21
ENDBRANCH   1  11
BRANCH  10  23
ATOM     23  O   UNL     1     -37.876 -11.843  -5.930  1.00  0.00    -0.500 OA
ATOM     24  H   UNL     1     -38.102 -12.795  -5.665  1.00  0.00     0.294 HD
ENDBRANCH  10  23
BRANCH   5  25
ATOM     25  O   UNL     1     -32.724  -9.393 -11.194  1.00  0.00    -0.507 OA
ATOM     26  H   UNL     1     -32.971  -8.876 -12.030  1.00  0.00     0.293 HD
ENDBRANCH   5  25
BRANCH   7  27
ATOM     27  O   UNL     1     -35.224  -7.719  -7.410  1.00  0.00    -0.507 OA
ATOM     28  H   UNL     1     -36.180  -7.409  -7.281  1.00  0.00     0.293 HD
ENDBRANCH   7  27
TORSDOF 7
ENDMDL
MODEL 7
REMARK VINA RESULT:    -6.408      3.364      6.973
REMARK INTER + INTRA:          -8.280
REMARK INTER:                  -8.537
REMARK INTRA:                   0.256
REMARK UNBOUND:                -0.373
REMARK SMILES Oc1cc(O)c2cc(O)c(-c3cc(O)c(O)c(O)c3)[o+]c2c1
REMARK SMILES IDX 10 1 20 2 21 3 22 4 2 5 3 6 4 7 6 8 7 9 8 10 11 11 12 12
REMARK SMILES IDX 13 13 19 14 15 15 17 16 14 17 16 19 18 21 9 23 1 25 5 27
REMARK H PARENT 14 18 16 20 18 22 9 24 1 26 5 28
REMARK Flexibility Score: inf
ROOT
ATOM      1  C   UNL     1     -36.300 -12.415  -8.228  1.00  0.00     0.402 A 
ATOM      2  O   UNL     1     -36.559 -11.496  -7.299  1.00  0.00    -0.202 OA
ATOM      3  C   UNL     1     -36.044 -10.270  -7.325  1.00  0.00     0.368 A 
ATOM      4  C   UNL     1     -36.363  -9.365  -6.308  1.00  0.00     0.162 A 
ATOM      5  C   UNL     1     -35.824  -8.072  -6.321  1.00  0.00     0.128 A 
ATOM      6  C   UNL     1     -34.965  -7.684  -7.355  1.00  0.00     0.093 A 
ATOM      7  C   UNL     1     -34.637  -8.582  -8.383  1.00  0.00     0.136 A 
ATOM      8  C   UNL     1     -35.178  -9.882  -8.369  1.00  0.00     0.125 A 
ATOM      9  C   UNL     1     -34.893 -10.815  -9.371  1.00  0.00     0.078 A 
ATOM     10  C   UNL     1     -35.462 -12.091  -9.315  1.00  0.00     0.223 A 
ENDROOT
BRANCH   1  11
ATOM     11  C   UNL     1     -36.926 -13.749  -8.087  1.00  0.00     0.091 A 
ATOM     12  C   UNL     1     -38.043 -13.901  -7.256  1.00  0.00     0.068 A 
ATOM     13  C   UNL     1     -38.644 -15.152  -7.089  1.00  0.00     0.162 A 
ATOM     14  C   UNL     1     -36.390 -14.879  -8.724  1.00  0.00     0.068 A 
ATOM     15  C   UNL     1     -38.121 -16.282  -7.745  1.00  0.00     0.200 A 
ATOM     16  C   UNL     1     -36.976 -16.140  -8.565  1.00  0.00     0.162 A 
BRANCH  13  17
ATOM     17  O   UNL     1     -39.765 -15.252  -6.265  1.00  0.00    -0.504 OA
ATOM     18  H   UNL     1     -40.257 -14.437  -5.920  1.00  0.00     0.293 HD
ENDBRANCH  13  17
BRANCH  15  19
ATOM     19  O   UNL     1     -38.758 -17.512  -7.560  1.00  0.00    -0.502 OA
ATOM     20  H   UNL     1     -38.528 -18.166  -6.826  1.00  0.00     0.293 HD
ENDBRANCH  15  19
BRANCH  16  21
ATOM     21  O   UNL     1     -36.386 -17.217  -9.231  1.00  0.00    -0.504 OA
ATOM     22  H   UNL     1     -36.608 -17.489 -10.178  1.00  0.00     0.293 HD
ENDBRANCH  16  21
ENDBRANCH   1  11
BRANCH  10  23
ATOM     23  O   UNL     1     -35.221 -13.010 -10.336  1.00  0.00    -0.500 OA
ATOM     24  H   UNL     1     -34.284 -13.320 -10.561  1.00  0.00     0.294 HD
ENDBRANCH  10  23
BRANCH   5  25
ATOM     25  O   UNL     1     -36.136  -7.163  -5.313  1.00  0.00    -0.507 OA
ATOM     26  H   UNL     1     -36.055  -7.410  -4.333  1.00  0.00     0.293 HD
ENDBRANCH   5  25
BRANCH   7  27
ATOM     27  O   UNL     1     -33.780  -8.183  -9.409  1.00  0.00    -0.507 OA
ATOM     28  H   UNL     1     -33.099  -7.445  -9.275  1.00  0.00     0.293 HD
ENDBRANCH   7  27
TORSDOF 7
ENDMDL
MODEL 8
REMARK VINA RESULT:    -6.308      2.658      4.493
REMARK INTER + INTRA:          -8.157
REMARK INTER:                  -7.775
REMARK INTRA:                  -0.381
REMARK UNBOUND:                -0.373
REMARK SMILES Oc1cc(O)c2cc(O)c(-c3cc(O)c(O)c(O)c3)[o+]c2c1
REMARK SMILES IDX 10 1 20 2 21 3 22 4 2 5 3 6 4 7 6 8 7 9 8 10 11 11 12 12
REMARK SMILES IDX 13 13 19 14 15 15 17 16 14 17 16 19 18 21 9 23 1 25 5 27
REMARK H PARENT 14 18 16 20 18 22 9 24 1 26 5 28
REMARK Flexibility Score: inf
ROOT
ATOM      1  C   UNL     1     -36.186 -15.899  -9.650  1.00  0.00     0.402 A 
ATOM      2  O   UNL     1     -36.665 -15.744 -10.883  1.00  0.00    -0.202 OA
ATOM      3  C   UNL     1     -35.923 -15.893 -11.977  1.00  0.00     0.368 A 
ATOM      4  C   UNL     1     -36.502 -15.707 -13.235  1.00  0.00     0.162 A 
ATOM      5  C   UNL     1     -35.730 -15.857 -14.395  1.00  0.00     0.128 A 
ATOM      6  C   UNL     1     -34.376 -16.195 -14.293  1.00  0.00     0.093 A 
ATOM      7  C   UNL     1     -33.782 -16.385 -13.036  1.00  0.00     0.136 A 
ATOM      8  C   UNL     1     -34.557 -16.233 -11.871  1.00  0.00     0.125 A 
ATOM      9  C   UNL     1     -34.021 -16.419 -10.593  1.00  0.00     0.078 A 
ATOM     10  C   UNL     1     -34.836 -16.263  -9.467  1.00  0.00     0.223 A 
ENDROOT
BRANCH   1  11
ATOM     11  C   UNL     1     -37.108 -15.698  -8.509  1.00  0.00     0.091 A 
ATOM     12  C   UNL     1     -37.190 -14.438  -7.904  1.00  0.00     0.068 A 
ATOM     13  C   UNL     1     -38.039 -14.223  -6.814  1.00  0.00     0.162 A 
ATOM     14  C   UNL     1     -37.863 -16.759  -7.984  1.00  0.00     0.068 A 
ATOM     15  C   UNL     1     -38.812 -15.279  -6.300  1.00  0.00     0.200 A 
ATOM     16  C   UNL     1     -38.714 -16.563  -6.890  1.00  0.00     0.162 A 
BRANCH  13  17
ATOM     17  O   UNL     1     -38.099 -12.947  -6.254  1.00  0.00    -0.504 OA
ATOM     18  H   UNL     1     -38.938 -12.588  -5.814  1.00  0.00     0.293 HD
ENDBRANCH  13  17
BRANCH  15  19
ATOM     19  O   UNL     1     -39.656 -15.020  -5.216  1.00  0.00    -0.502 OA
ATOM     20  H   UNL     1     -40.522 -14.507  -5.281  1.00  0.00     0.293 HD
ENDBRANCH  15  19
BRANCH  16  21
ATOM     21  O   UNL     1     -39.433 -17.665  -6.423  1.00  0.00    -0.504 OA
ATOM     22  H   UNL     1     -39.357 -18.596  -6.807  1.00  0.00     0.293 HD
ENDBRANCH  16  21
ENDBRANCH   1  11
BRANCH  10  23
ATOM     23  O   UNL     1     -34.320 -16.495  -8.193  1.00  0.00    -0.500 OA
ATOM     24  H   UNL     1     -34.065 -15.733  -7.576  1.00  0.00     0.294 HD
ENDBRANCH  10  23
BRANCH   5  25
ATOM     25  O   UNL     1     -36.298 -15.675 -15.654  1.00  0.00    -0.507 OA
ATOM     26  H   UNL     1     -36.120 -16.320 -16.414  1.00  0.00     0.293 HD
ENDBRANCH   5  25
BRANCH   7  27
ATOM     27  O   UNL     1     -32.432 -16.722 -12.948  1.00  0.00    -0.507 OA
ATOM     28  H   UNL     1     -31.890 -16.965 -13.769  1.00  0.00     0.293 HD
ENDBRANCH   7  27
TORSDOF 7
ENDMDL
MODEL 9
REMARK VINA RESULT:    -6.248      4.983      5.934
REMARK INTER + INTRA:          -8.083
REMARK INTER:                  -7.747
REMARK INTRA:                  -0.336
REMARK UNBOUND:                -0.373
REMARK SMILES Oc1cc(O)c2cc(O)c(-c3cc(O)c(O)c(O)c3)[o+]c2c1
REMARK SMILES IDX 10 1 20 2 21 3 22 4 2 5 3 6 4 7 6 8 7 9 8 10 11 11 12 12
REMARK SMILES IDX 13 13 19 14 15 15 17 16 14 17 16 19 18 21 9 23 1 25 5 27
REMARK H PARENT 14 18 16 20 18 22 9 24 1 26 5 28
REMARK Flexibility Score: inf
ROOT
ATOM      1  C   UNL     1     -37.014 -16.749  -7.639  1.00  0.00     0.402 A 
ATOM      2  O   UNL     1     -35.797 -17.269  -7.487  1.00  0.00    -0.202 OA
ATOM      3  C   UNL     1     -35.580 -18.564  -7.271  1.00  0.00     0.368 A 
ATOM      4  C   UNL     1     -34.271 -19.029  -7.118  1.00  0.00     0.162 A 
ATOM      5  C   UNL     1     -34.029 -20.390  -6.886  1.00  0.00     0.128 A 
ATOM      6  C   UNL     1     -35.101 -21.285  -6.808  1.00  0.00     0.093 A 
ATOM      7  C   UNL     1     -36.420 -20.832  -6.961  1.00  0.00     0.136 A 
ATOM      8  C   UNL     1     -36.663 -19.465  -7.193  1.00  0.00     0.125 A 
ATOM      9  C   UNL     1     -37.956 -18.959  -7.361  1.00  0.00     0.078 A 
ATOM     10  C   UNL     1     -38.143 -17.593  -7.597  1.00  0.00     0.223 A 
ENDROOT
BRANCH   1  11
ATOM     11  C   UNL     1     -37.129 -15.291  -7.866  1.00  0.00     0.091 A 
ATOM     12  C   UNL     1     -36.723 -14.751  -9.092  1.00  0.00     0.068 A 
ATOM     13  C   UNL     1     -36.803 -13.375  -9.328  1.00  0.00     0.162 A 
ATOM     14  C   UNL     1     -37.583 -14.428  -6.856  1.00  0.00     0.068 A 
ATOM     15  C   UNL     1     -37.279 -12.512  -8.325  1.00  0.00     0.200 A 
ATOM     16  C   UNL     1     -37.666 -13.048  -7.073  1.00  0.00     0.162 A 
BRANCH  13  17
ATOM     17  O   UNL     1     -36.403 -12.885 -10.571  1.00  0.00    -0.504 OA
ATOM     18  H   UNL     1     -36.807 -12.051 -10.980  1.00  0.00     0.293 HD
ENDBRANCH  13  17
BRANCH  15  19
ATOM     19  O   UNL     1     -37.353 -11.144  -8.605  1.00  0.00    -0.502 OA
ATOM     20  H   UNL     1     -36.621 -10.617  -9.056  1.00  0.00     0.293 HD
ENDBRANCH  15  19
BRANCH  16  21
ATOM     21  O   UNL     1     -38.128 -12.253  -6.022  1.00  0.00    -0.504 OA
ATOM     22  H   UNL     1     -38.596 -11.367  -6.145  1.00  0.00     0.293 HD
ENDBRANCH  16  21
ENDBRANCH   1  11
BRANCH  10  23
ATOM     23  O   UNL     1     -39.425 -17.090  -7.815  1.00  0.00    -0.500 OA
ATOM     24  H   UNL     1     -39.944 -16.622  -7.082  1.00  0.00     0.294 HD
ENDBRANCH  10  23
BRANCH   5  25
ATOM     25  O   UNL     1     -32.728 -20.863  -6.732  1.00  0.00    -0.507 OA
ATOM     26  H   UNL     1     -31.933 -20.359  -7.108  1.00  0.00     0.293 HD
ENDBRANCH   5  25
BRANCH   7  27
ATOM     27  O   UNL     1     -37.480 -21.736  -6.883  1.00  0.00    -0.507 OA
ATOM     28  H   UNL     1     -37.519 -22.562  -7.468  1.00  0.00     0.293 HD
ENDBRANCH   7  27
TORSDOF 7
ENDMDL
