MODEL 1
REMARK VINA RESULT:    -3.554      0.000      0.000
REMARK INTER + INTRA:          -6.857
REMARK INTER:                  -5.632
REMARK INTRA:                  -1.224
REMARK UNBOUND:                -1.224
REMARK SMILES CCCCCCCCCCCC=O
REMARK SMILES IDX 7 1 6 2 5 3 4 4 3 5 2 6 1 7 8 8 9 9 10 10 11 11 12 12 13 13
REMARK H PARENT
REMARK Flexibility Score: inf
ROOT
ATOM      1  C   UNL     1     106.883 103.771 103.212  1.00  0.00     0.000 C 
ENDROOT
BRANCH   1   2
ATOM      2  C   UNL     1     106.530 104.058 104.681  1.00  0.00     0.000 C 
BRANCH   2   3
ATOM      3  C   UNL     1     107.459 105.109 105.315  1.00  0.00    -0.000 C 
BRANCH   3   4
ATOM      4  C   UNL     1     107.413 106.457 104.579  1.00  0.00    -0.000 C 
BRANCH   4   5
ATOM      5  C   UNL     1     108.806 107.070 104.371  1.00  0.00    -0.000 C 
BRANCH   5   6
ATOM      6  C   UNL     1     108.901 107.766 103.008  1.00  0.00    -0.003 C 
ATOM      7  C   UNL     1     108.522 106.817 101.875  1.00  0.00     0.004 C 
ENDBRANCH   5   6
ENDBRANCH   4   5
ENDBRANCH   3   4
ENDBRANCH   2   3
ENDBRANCH   1   2
BRANCH   1   8
ATOM      8  C   UNL     1     105.881 104.406 102.232  1.00  0.00     0.000 C 
BRANCH   8   9
ATOM      9  C   UNL     1     104.470 104.558 102.832  1.00  0.00     0.000 C 
BRANCH   9  10
ATOM     10  C   UNL     1     103.976 106.009 102.978  1.00  0.00     0.008 C 
BRANCH  10  11
ATOM     11  C   UNL     1     104.715 106.990 102.059  1.00  0.00     0.072 C 
BRANCH  11  12
ATOM     12  C   UNL     1     104.858 108.337 102.705  1.00  0.00     0.224 C 
ATOM     13  O   UNL     1     104.228 109.289 102.274  1.00  0.00    -0.303 OA
ENDBRANCH  11  12
ENDBRANCH  10  11
ENDBRANCH   9  10
ENDBRANCH   8   9
ENDBRANCH   1   8
TORSDOF 10
ENDMDL
MODEL 2
REMARK VINA RESULT:    -3.483      2.038      3.572
REMARK INTER + INTRA:          -6.743
REMARK INTER:                  -5.014
REMARK INTRA:                  -1.730
REMARK UNBOUND:                -1.224
REMARK SMILES CCCCCCCCCCCC=O
REMARK SMILES IDX 7 1 6 2 5 3 4 4 3 5 2 6 1 7 8 8 9 9 10 10 11 11 12 12 13 13
REMARK H PARENT
REMARK Flexibility Score: inf
ROOT
ATOM      1  C   UNL     1     106.276 103.754 101.905  1.00  0.00     0.000 C 
ENDROOT
BRANCH   1   2
ATOM      2  C   UNL     1     104.947 104.447 102.249  1.00  0.00     0.000 C 
BRANCH   2   3
ATOM      3  C   UNL     1     104.948 105.940 101.875  1.00  0.00    -0.000 C 
BRANCH   3   4
ATOM      4  C   UNL     1     104.721 106.853 103.091  1.00  0.00    -0.000 C 
BRANCH   4   5
ATOM      5  C   UNL     1     105.915 107.778 103.371  1.00  0.00    -0.000 C 
BRANCH   5   6
ATOM      6  C   UNL     1     107.023 107.573 102.332  1.00  0.00    -0.003 C 
ATOM      7  C   UNL     1     108.393 107.475 102.997  1.00  0.00     0.004 C 
ENDBRANCH   5   6
ENDBRANCH   4   5
ENDBRANCH   3   4
ENDBRANCH   2   3
ENDBRANCH   1   2
BRANCH   1   8
ATOM      8  C   UNL     1     107.323 103.900 103.023  1.00  0.00     0.000 C 
BRANCH   8   9
ATOM      9  C   UNL     1     106.714 103.788 104.433  1.00  0.00     0.000 C 
BRANCH   9  10
ATOM     10  C   UNL     1     107.126 104.901 105.414  1.00  0.00     0.008 C 
BRANCH  10  11
ATOM     11  C   UNL     1     105.994 105.313 106.363  1.00  0.00     0.072 C 
BRANCH  11  12
ATOM     12  C   UNL     1     104.695 104.676 105.968  1.00  0.00     0.224 C 
ATOM     13  O   UNL     1     103.652 105.054 106.477  1.00  0.00    -0.303 OA
ENDBRANCH  11  12
ENDBRANCH  10  11
ENDBRANCH   9  10
ENDBRANCH   8   9
ENDBRANCH   1   8
TORSDOF 10
ENDMDL
MODEL 3
REMARK VINA RESULT:    -3.479      2.203      4.249
REMARK INTER + INTRA:          -6.737
REMARK INTER:                  -5.440
REMARK INTRA:                  -1.297
REMARK UNBOUND:                -1.224
REMARK SMILES CCCCCCCCCCCC=O
REMARK SMILES IDX 7 1 6 2 5 3 4 4 3 5 2 6 1 7 8 8 9 9 10 10 11 11 12 12 13 13
REMARK H PARENT
REMARK Flexibility Score: inf
ROOT
ATOM      1  C   UNL     1     107.341 104.369 102.274  1.00  0.00     0.000 C 
ENDROOT
BRANCH   1   2
ATOM      2  C   UNL     1     105.861 104.032 102.023  1.00  0.00     0.000 C 
BRANCH   2   3
ATOM      3  C   UNL     1     104.969 104.370 103.231  1.00  0.00    -0.000 C 
BRANCH   3   4
ATOM      4  C   UNL     1     103.794 105.288 102.857  1.00  0.00    -0.000 C 
BRANCH   4   5
ATOM      5  C   UNL     1     104.231 106.502 102.023  1.00  0.00    -0.000 C 
BRANCH   5   6
ATOM      6  C   UNL     1     104.549 107.701 102.924  1.00  0.00    -0.003 C 
ATOM      7  C   UNL     1     104.754 108.970 102.102  1.00  0.00     0.004 C 
ENDBRANCH   5   6
ENDBRANCH   4   5
ENDBRANCH   3   4
ENDBRANCH   2   3
ENDBRANCH   1   2
BRANCH   1   8
ATOM      8  C   UNL     1     107.691 105.813 101.875  1.00  0.00     0.000 C 
BRANCH   8   9
ATOM      9  C   UNL     1     108.159 106.667 103.068  1.00  0.00     0.000 C 
BRANCH   9  10
ATOM     10  C   UNL     1     107.789 106.111 104.455  1.00  0.00     0.008 C 
BRANCH  10  11
ATOM     11  C   UNL     1     107.253 107.186 105.409  1.00  0.00     0.072 C 
BRANCH  11  12
ATOM     12  C   UNL     1     107.963 107.145 106.729  1.00  0.00     0.224 C 
ATOM     13  O   UNL     1     109.102 107.572 106.822  1.00  0.00    -0.303 OA
ENDBRANCH  11  12
ENDBRANCH  10  11
ENDBRANCH   9  10
ENDBRANCH   8   9
ENDBRANCH   1   8
TORSDOF 10
ENDMDL
MODEL 4
REMARK VINA RESULT:    -3.477      2.307      4.999
REMARK INTER + INTRA:          -6.735
REMARK INTER:                  -5.332
REMARK INTRA:                  -1.403
REMARK UNBOUND:                -1.224
REMARK SMILES CCCCCCCCCCCC=O
REMARK SMILES IDX 7 1 6 2 5 3 4 4 3 5 2 6 1 7 8 8 9 9 10 10 11 11 12 12 13 13
REMARK H PARENT
REMARK Flexibility Score: inf
ROOT
ATOM      1  C   UNL     1     107.001 107.520 102.434  1.00  0.00     0.000 C 
ENDROOT
BRANCH   1   2
ATOM      2  C   UNL     1     105.586 107.834 101.919  1.00  0.00     0.000 C 
BRANCH   2   3
ATOM      3  C   UNL     1     104.488 107.199 102.791  1.00  0.00    -0.000 C 
BRANCH   3   4
ATOM      4  C   UNL     1     104.247 105.719 102.451  1.00  0.00    -0.000 C 
BRANCH   4   5
ATOM      5  C   UNL     1     103.583 104.946 103.599  1.00  0.00    -0.000 C 
BRANCH   5   6
ATOM      6  C   UNL     1     103.803 105.656 104.939  1.00  0.00    -0.003 C 
ATOM      7  C   UNL     1     103.577 104.706 106.112  1.00  0.00     0.004 C 
ENDBRANCH   5   6
ENDBRANCH   4   5
ENDBRANCH   3   4
ENDBRANCH   2   3
ENDBRANCH   1   2
BRANCH   1   8
ATOM      8  C   UNL     1     107.037 107.293 103.956  1.00  0.00     0.000 C 
BRANCH   8   9
ATOM      9  C   UNL     1     107.910 106.091 104.362  1.00  0.00     0.000 C 
BRANCH   9  10
ATOM     10  C   UNL     1     107.216 105.055 105.265  1.00  0.00     0.008 C 
BRANCH  10  11
ATOM     11  C   UNL     1     106.944 103.724 104.551  1.00  0.00     0.072 C 
BRANCH  11  12
ATOM     12  C   UNL     1     107.354 103.787 103.109  1.00  0.00     0.224 C 
ATOM     13  O   UNL     1     106.768 103.111 102.280  1.00  0.00    -0.303 OA
ENDBRANCH  11  12
ENDBRANCH  10  11
ENDBRANCH   9  10
ENDBRANCH   8   9
ENDBRANCH   1   8
TORSDOF 10
ENDMDL
MODEL 5
REMARK VINA RESULT:    -3.408      2.351      3.902
REMARK INTER + INTRA:          -6.625
REMARK INTER:                  -5.412
REMARK INTRA:                  -1.213
REMARK UNBOUND:                -1.224
REMARK SMILES CCCCCCCCCCCC=O
REMARK SMILES IDX 7 1 6 2 5 3 4 4 3 5 2 6 1 7 8 8 9 9 10 10 11 11 12 12 13 13
REMARK H PARENT
REMARK Flexibility Score: inf
ROOT
ATOM      1  C   UNL     1     105.493 107.905 101.876  1.00  0.00     0.000 C 
ENDROOT
BRANCH   1   2
ATOM      2  C   UNL     1     106.781 107.992 102.710  1.00  0.00     0.000 C 
BRANCH   2   3
ATOM      3  C   UNL     1     107.879 107.043 102.197  1.00  0.00    -0.000 C 
BRANCH   3   4
ATOM      4  C   UNL     1     107.413 105.579 102.139  1.00  0.00    -0.000 C 
BRANCH   4   5
ATOM      5  C   UNL     1     107.424 104.897 103.516  1.00  0.00    -0.000 C 
BRANCH   5   6
ATOM      6  C   UNL     1     107.165 103.392 103.384  1.00  0.00    -0.003 C 
ATOM      7  C   UNL     1     107.395 102.915 101.953  1.00  0.00     0.004 C 
ENDBRANCH   5   6
ENDBRANCH   4   5
ENDBRANCH   3   4
ENDBRANCH   2   3
ENDBRANCH   1   2
BRANCH   1   8
ATOM      8  C   UNL     1     104.276 107.476 102.714  1.00  0.00     0.000 C 
BRANCH   8   9
ATOM      9  C   UNL     1     103.888 106.002 102.495  1.00  0.00     0.000 C 
BRANCH   9  10
ATOM     10  C   UNL     1     103.834 105.143 103.772  1.00  0.00     0.008 C 
BRANCH  10  11
ATOM     11  C   UNL     1     104.171 105.936 105.042  1.00  0.00     0.072 C 
BRANCH  11  12
ATOM     12  C   UNL     1     103.797 105.170 106.276  1.00  0.00     0.224 C 
ATOM     13  O   UNL     1     102.729 104.582 106.328  1.00  0.00    -0.303 OA
ENDBRANCH  11  12
ENDBRANCH  10  11
ENDBRANCH   9  10
ENDBRANCH   8   9
ENDBRANCH   1   8
TORSDOF 10
ENDMDL
MODEL 6
REMARK VINA RESULT:    -3.383      2.058      3.655
REMARK INTER + INTRA:          -6.585
REMARK INTER:                  -4.961
REMARK INTRA:                  -1.623
REMARK UNBOUND:                -1.224
REMARK SMILES CCCCCCCCCCCC=O
REMARK SMILES IDX 7 1 6 2 5 3 4 4 3 5 2 6 1 7 8 8 9 9 10 10 11 11 12 12 13 13
REMARK H PARENT
REMARK Flexibility Score: inf
ROOT
ATOM      1  C   UNL     1     106.047 103.890 102.293  1.00  0.00     0.000 C 
ENDROOT
BRANCH   1   2
ATOM      2  C   UNL     1     104.713 104.552 102.673  1.00  0.00     0.000 C 
BRANCH   2   3
ATOM      3  C   UNL     1     104.569 105.966 102.082  1.00  0.00    -0.000 C 
BRANCH   3   4
ATOM      4  C   UNL     1     104.557 107.059 103.163  1.00  0.00    -0.000 C 
BRANCH   4   5
ATOM      5  C   UNL     1     105.933 107.713 103.362  1.00  0.00    -0.000 C 
BRANCH   5   6
ATOM      6  C   UNL     1     106.800 107.559 102.107  1.00  0.00    -0.003 C 
ATOM      7  C   UNL     1     108.204 107.077 102.460  1.00  0.00     0.004 C 
ENDBRANCH   5   6
ENDBRANCH   4   5
ENDBRANCH   3   4
ENDBRANCH   2   3
ENDBRANCH   1   2
BRANCH   1   8
ATOM      8  C   UNL     1     106.964 103.671 103.511  1.00  0.00     0.000 C 
BRANCH   8   9
ATOM      9  C   UNL     1     106.339 104.169 104.827  1.00  0.00     0.000 C 
BRANCH   9  10
ATOM     10  C   UNL     1     107.321 104.841 105.804  1.00  0.00     0.008 C 
BRANCH  10  11
ATOM     11  C   UNL     1     106.726 106.071 106.501  1.00  0.00     0.072 C 
BRANCH  11  12
ATOM     12  C   UNL     1     107.723 107.189 106.576  1.00  0.00     0.224 C 
ATOM     13  O   UNL     1     108.747 107.136 105.916  1.00  0.00    -0.303 OA
ENDBRANCH  11  12
ENDBRANCH  10  11
ENDBRANCH   9  10
ENDBRANCH   8   9
ENDBRANCH   1   8
TORSDOF 10
ENDMDL
MODEL 7
REMARK VINA RESULT:    -3.363      2.473      3.766
REMARK INTER + INTRA:          -6.553
REMARK INTER:                  -5.049
REMARK INTRA:                  -1.504
REMARK UNBOUND:                -1.224
REMARK SMILES CCCCCCCCCCCC=O
REMARK SMILES IDX 7 1 6 2 5 3 4 4 3 5 2 6 1 7 8 8 9 9 10 10 11 11 12 12 13 13
REMARK H PARENT
REMARK Flexibility Score: inf
ROOT
ATOM      1  C   UNL     1     103.843 105.352 103.212  1.00  0.00     0.000 C 
ENDROOT
BRANCH   1   2
ATOM      2  C   UNL     1     103.886 105.252 104.746  1.00  0.00     0.000 C 
BRANCH   2   3
ATOM      3  C   UNL     1     104.463 106.519 105.402  1.00  0.00    -0.000 C 
BRANCH   3   4
ATOM      4  C   UNL     1     104.915 107.563 104.370  1.00  0.00    -0.000 C 
BRANCH   4   5
ATOM      5  C   UNL     1     106.444 107.682 104.274  1.00  0.00    -0.000 C 
BRANCH   5   6
ATOM      6  C   UNL     1     106.897 107.767 102.812  1.00  0.00    -0.003 C 
ATOM      7  C   UNL     1     108.368 107.387 102.667  1.00  0.00     0.004 C 
ENDBRANCH   5   6
ENDBRANCH   4   5
ENDBRANCH   3   4
ENDBRANCH   2   3
ENDBRANCH   1   2
BRANCH   1   8
ATOM      8  C   UNL     1     104.504 104.144 102.525  1.00  0.00     0.000 C 
BRANCH   8   9
ATOM      9  C   UNL     1     106.008 104.350 102.268  1.00  0.00     0.000 C 
BRANCH   9  10
ATOM     10  C   UNL     1     106.944 103.518 103.163  1.00  0.00     0.008 C 
BRANCH  10  11
ATOM     11  C   UNL     1     107.284 104.215 104.487  1.00  0.00     0.072 C 
BRANCH  11  12
ATOM     12  C   UNL     1     107.093 103.290 105.653  1.00  0.00     0.224 C 
ATOM     13  O   UNL     1     106.459 103.661 106.627  1.00  0.00    -0.303 OA
ENDBRANCH  11  12
ENDBRANCH  10  11
ENDBRANCH   9  10
ENDBRANCH   8   9
ENDBRANCH   1   8
TORSDOF 10
ENDMDL
MODEL 8
REMARK VINA RESULT:    -3.295      2.366      4.445
REMARK INTER + INTRA:          -6.445
REMARK INTER:                  -4.982
REMARK INTRA:                  -1.463
REMARK UNBOUND:                -1.224
REMARK SMILES CCCCCCCCCCCC=O
REMARK SMILES IDX 7 1 6 2 5 3 4 4 3 5 2 6 1 7 8 8 9 9 10 10 11 11 12 12 13 13
REMARK H PARENT
REMARK Flexibility Score: inf
ROOT
ATOM      1  C   UNL     1     104.617 107.853 103.162  1.00  0.00     0.000 C 
ENDROOT
BRANCH   1   2
ATOM      2  C   UNL     1     104.540 106.883 101.971  1.00  0.00     0.000 C 
BRANCH   2   3
ATOM      3  C   UNL     1     103.831 105.565 102.331  1.00  0.00    -0.000 C 
BRANCH   3   4
ATOM      4  C   UNL     1     104.811 104.479 102.804  1.00  0.00    -0.000 C 
BRANCH   4   5
ATOM      5  C   UNL     1     106.081 104.408 101.942  1.00  0.00    -0.000 C 
BRANCH   5   6
ATOM      6  C   UNL     1     107.295 104.003 102.786  1.00  0.00    -0.003 C 
ATOM      7  C   UNL     1     106.893 103.720 104.231  1.00  0.00     0.004 C 
ENDBRANCH   5   6
ENDBRANCH   4   5
ENDBRANCH   3   4
ENDBRANCH   2   3
ENDBRANCH   1   2
BRANCH   1   8
ATOM      8  C   UNL     1     106.007 107.865 103.822  1.00  0.00     0.000 C 
BRANCH   8   9
ATOM      9  C   UNL     1     106.023 107.173 105.198  1.00  0.00     0.000 C 
BRANCH   9  10
ATOM     10  C   UNL     1     104.677 107.173 105.944  1.00  0.00     0.008 C 
BRANCH  10  11
ATOM     11  C   UNL     1     104.572 106.057 106.993  1.00  0.00     0.072 C 
BRANCH  11  12
ATOM     12  C   UNL     1     103.921 104.833 106.420  1.00  0.00     0.224 C 
ATOM     13  O   UNL     1     102.925 104.941 105.725  1.00  0.00    -0.303 OA
ENDBRANCH  11  12
ENDBRANCH  10  11
ENDBRANCH   9  10
ENDBRANCH   8   9
ENDBRANCH   1   8
TORSDOF 10
ENDMDL
MODEL 9
REMARK VINA RESULT:    -3.248      2.227      4.450
REMARK INTER + INTRA:          -6.371
REMARK INTER:                  -4.879
REMARK INTRA:                  -1.492
REMARK UNBOUND:                -1.224
REMARK SMILES CCCCCCCCCCCC=O
REMARK SMILES IDX 7 1 6 2 5 3 4 4 3 5 2 6 1 7 8 8 9 9 10 10 11 11 12 12 13 13
REMARK H PARENT
REMARK Flexibility Score: inf
ROOT
ATOM      1  C   UNL     1     108.188 106.320 103.487  1.00  0.00     0.000 C 
ENDROOT
BRANCH   1   2
ATOM      2  C   UNL     1     108.221 107.474 102.471  1.00  0.00     0.000 C 
BRANCH   2   3
ATOM      3  C   UNL     1     106.827 107.799 101.904  1.00  0.00    -0.000 C 
BRANCH   3   4
ATOM      4  C   UNL     1     105.814 106.669 102.147  1.00  0.00    -0.000 C 
BRANCH   4   5
ATOM      5  C   UNL     1     104.573 107.139 102.921  1.00  0.00    -0.000 C 
BRANCH   5   6
ATOM      6  C   UNL     1     104.755 108.573 103.430  1.00  0.00    -0.003 C 
ATOM      7  C   UNL     1     105.005 108.598 104.935  1.00  0.00     0.004 C 
ENDBRANCH   5   6
ENDBRANCH   4   5
ENDBRANCH   3   4
ENDBRANCH   2   3
ENDBRANCH   1   2
BRANCH   1   8
ATOM      8  C   UNL     1     108.286 106.814 104.942  1.00  0.00     0.000 C 
BRANCH   8   9
ATOM      9  C   UNL     1     107.366 106.036 105.902  1.00  0.00     0.000 C 
BRANCH   9  10
ATOM     10  C   UNL     1     106.872 104.677 105.375  1.00  0.00     0.008 C 
BRANCH  10  11
ATOM     11  C   UNL     1     105.342 104.579 105.312  1.00  0.00     0.072 C 
BRANCH  11  12
ATOM     12  C   UNL     1     104.733 104.683 106.679  1.00  0.00     0.224 C 
ATOM     13  O   UNL     1     103.608 105.134 106.812  1.00  0.00    -0.303 OA
ENDBRANCH  11  12
ENDBRANCH  10  11
ENDBRANCH   9  10
ENDBRANCH   8   9
ENDBRANCH   1   8
TORSDOF 10
ENDMDL
