MODEL 1
REMARK VINA RESULT:    -4.069      0.000      0.000
REMARK INTER + INTRA:          -4.464
REMARK INTER:                  -4.307
REMARK INTRA:                  -0.157
REMARK UNBOUND:                -0.157
REMARK SMILES CC(C)[C@H]1CC[C@@H](C)CC1=O
REMARK SMILES IDX 8 1 7 2 6 3 5 4 4 5 10 6 11 7 9 8 2 9 1 10 3 11
REMARK H PARENT
REMARK Flexibility Score: inf
ROOT
ATOM      1  C   UNL     1     115.945 114.345 111.940  1.00  0.00     0.008 C 
ATOM      2  C   UNL     1     114.660 114.742 112.684  1.00  0.00    -0.007 C 
ATOM      3  C   UNL     1     113.833 115.781 111.891  1.00  0.00     0.004 C 
ATOM      4  C   UNL     1     114.476 117.183 111.878  1.00  0.00     0.012 C 
ATOM      5  C   UNL     1     114.752 117.706 113.309  1.00  0.00     0.058 C 
ATOM      6  C   UNL     1     115.542 116.636 114.042  1.00  0.00     0.136 C 
ATOM      7  O   UNL     1     116.656 116.850 114.496  1.00  0.00    -0.299 OA
ATOM      8  C   UNL     1     114.965 115.251 114.105  1.00  0.00     0.079 C 
ENDROOT
BRANCH   5   9
ATOM      9  C   UNL     1     115.456 119.103 113.330  1.00  0.00    -0.007 C 
ATOM     10  C   UNL     1     114.876 119.992 114.446  1.00  0.00     0.008 C 
ATOM     11  C   UNL     1     115.327 119.854 111.992  1.00  0.00     0.008 C 
ENDBRANCH   5   9
TORSDOF 1
ENDMDL
MODEL 2
REMARK VINA RESULT:    -4.040      2.895      5.076
REMARK INTER + INTRA:          -4.433
REMARK INTER:                  -4.273
REMARK INTRA:                  -0.160
REMARK UNBOUND:                -0.157
REMARK SMILES CC(C)[C@H]1CC[C@@H](C)CC1=O
REMARK SMILES IDX 8 1 7 2 6 3 5 4 4 5 10 6 11 7 9 8 2 9 1 10 3 11
REMARK H PARENT
REMARK Flexibility Score: inf
ROOT
ATOM      1  C   UNL     1     117.337 118.878 111.886  1.00  0.00     0.008 C 
ATOM      2  C   UNL     1     118.542 118.494 112.760  1.00  0.00    -0.007 C 
ATOM      3  C   UNL     1     119.468 117.481 112.049  1.00  0.00     0.004 C 
ATOM      4  C   UNL     1     118.858 116.068 111.951  1.00  0.00     0.012 C 
ATOM      5  C   UNL     1     118.439 115.521 113.337  1.00  0.00     0.058 C 
ATOM      6  C   UNL     1     117.555 116.567 113.994  1.00  0.00     0.136 C 
ATOM      7  O   UNL     1     116.402 116.327 114.322  1.00  0.00    -0.299 OA
ATOM      8  C   UNL     1     118.095 117.961 114.134  1.00  0.00     0.079 C 
ENDROOT
BRANCH   5   9
ATOM      9  C   UNL     1     117.764 114.112 113.267  1.00  0.00    -0.007 C 
ATOM     10  C   UNL     1     118.327 113.179 114.356  1.00  0.00     0.008 C 
ATOM     11  C   UNL     1     117.950 113.431 111.899  1.00  0.00     0.008 C 
ENDBRANCH   5   9
TORSDOF 1
ENDMDL
MODEL 3
REMARK VINA RESULT:    -4.032      2.418      3.193
REMARK INTER + INTRA:          -4.424
REMARK INTER:                  -4.267
REMARK INTRA:                  -0.157
REMARK UNBOUND:                -0.157
REMARK SMILES CC(C)[C@H]1CC[C@@H](C)CC1=O
REMARK SMILES IDX 8 1 7 2 6 3 5 4 4 5 10 6 11 7 9 8 2 9 1 10 3 11
REMARK H PARENT
REMARK Flexibility Score: inf
ROOT
ATOM      1  C   UNL     1     118.180 113.349 114.206  1.00  0.00     0.008 C 
ATOM      2  C   UNL     1     117.531 113.634 112.842  1.00  0.00    -0.007 C 
ATOM      3  C   UNL     1     118.502 114.361 111.883  1.00  0.00     0.004 C 
ATOM      4  C   UNL     1     118.751 115.832 112.275  1.00  0.00     0.012 C 
ATOM      5  C   UNL     1     117.429 116.630 112.398  1.00  0.00     0.058 C 
ATOM      6  C   UNL     1     116.512 115.855 113.328  1.00  0.00     0.136 C 
ATOM      7  O   UNL     1     116.090 116.336 114.369  1.00  0.00    -0.299 OA
ATOM      8  C   UNL     1     116.217 114.421 112.995  1.00  0.00     0.079 C 
ENDROOT
BRANCH   5   9
ATOM      9  C   UNL     1     117.643 118.112 112.849  1.00  0.00    -0.007 C 
ATOM     10  C   UNL     1     116.714 119.062 112.070  1.00  0.00     0.008 C 
ATOM     11  C   UNL     1     119.095 118.588 112.662  1.00  0.00     0.008 C 
ENDBRANCH   5   9
TORSDOF 1
ENDMDL
MODEL 4
REMARK VINA RESULT:    -4.031      2.689      3.645
REMARK INTER + INTRA:          -4.423
REMARK INTER:                  -4.263
REMARK INTRA:                  -0.160
REMARK UNBOUND:                -0.157
REMARK SMILES CC(C)[C@H]1CC[C@@H](C)CC1=O
REMARK SMILES IDX 8 1 7 2 6 3 5 4 4 5 10 6 11 7 9 8 2 9 1 10 3 11
REMARK H PARENT
REMARK Flexibility Score: inf
ROOT
ATOM      1  C   UNL     1     114.417 117.231 112.125  1.00  0.00     0.008 C 
ATOM      2  C   UNL     1     114.841 118.549 112.794  1.00  0.00    -0.007 C 
ATOM      3  C   UNL     1     115.842 119.341 111.922  1.00  0.00     0.004 C 
ATOM      4  C   UNL     1     117.245 118.701 111.878  1.00  0.00     0.012 C 
ATOM      5  C   UNL     1     117.829 118.488 113.296  1.00  0.00     0.058 C 
ATOM      6  C   UNL     1     116.793 117.731 114.109  1.00  0.00     0.136 C 
ATOM      7  O   UNL     1     117.030 116.637 114.601  1.00  0.00    -0.299 OA
ATOM      8  C   UNL     1     115.410 118.308 114.205  1.00  0.00     0.079 C 
ENDROOT
BRANCH   5   9
ATOM      9  C   UNL     1     119.228 117.789 113.289  1.00  0.00    -0.007 C 
ATOM     10  C   UNL     1     120.205 118.506 114.241  1.00  0.00     0.008 C 
ATOM     11  C   UNL     1     119.861 117.739 111.887  1.00  0.00     0.008 C 
ENDBRANCH   5   9
TORSDOF 1
ENDMDL
MODEL 5
REMARK VINA RESULT:    -4.011      2.578      3.610
REMARK INTER + INTRA:          -4.403
REMARK INTER:                  -4.239
REMARK INTRA:                  -0.163
REMARK UNBOUND:                -0.157
REMARK SMILES CC(C)[C@H]1CC[C@@H](C)CC1=O
REMARK SMILES IDX 8 1 7 2 6 3 5 4 4 5 10 6 11 7 9 8 2 9 1 10 3 11
REMARK H PARENT
REMARK Flexibility Score: inf
ROOT
ATOM      1  C   UNL     1     118.759 115.951 111.875  1.00  0.00     0.008 C 
ATOM      2  C   UNL     1     118.424 114.732 112.749  1.00  0.00    -0.007 C 
ATOM      3  C   UNL     1     117.424 113.780 112.050  1.00  0.00     0.004 C 
ATOM      4  C   UNL     1     115.994 114.352 111.979  1.00  0.00     0.012 C 
ATOM      5  C   UNL     1     115.458 114.749 113.376  1.00  0.00     0.058 C 
ATOM      6  C   UNL     1     116.491 115.658 114.020  1.00  0.00     0.136 C 
ATOM      7  O   UNL     1     116.225 116.802 114.358  1.00  0.00    -0.299 OA
ATOM      8  C   UNL     1     117.901 115.156 114.134  1.00  0.00     0.079 C 
ENDROOT
BRANCH   5   9
ATOM      9  C   UNL     1     114.030 115.385 113.333  1.00  0.00    -0.007 C 
ATOM     10  C   UNL     1     113.080 114.667 114.311  1.00  0.00     0.008 C 
ATOM     11  C   UNL     1     113.404 115.344 111.927  1.00  0.00     0.008 C 
ENDBRANCH   5   9
TORSDOF 1
ENDMDL
MODEL 6
REMARK VINA RESULT:    -4.002      1.003      4.067
REMARK INTER + INTRA:          -4.393
REMARK INTER:                  -4.234
REMARK INTRA:                  -0.159
REMARK UNBOUND:                -0.157
REMARK SMILES CC(C)[C@H]1CC[C@@H](C)CC1=O
REMARK SMILES IDX 8 1 7 2 6 3 5 4 4 5 10 6 11 7 9 8 2 9 1 10 3 11
REMARK H PARENT
REMARK Flexibility Score: inf
ROOT
ATOM      1  C   UNL     1     114.887 119.698 114.233  1.00  0.00     0.008 C 
ATOM      2  C   UNL     1     115.597 119.461 112.890  1.00  0.00    -0.007 C 
ATOM      3  C   UNL     1     114.683 118.733 111.877  1.00  0.00     0.004 C 
ATOM      4  C   UNL     1     114.456 117.248 112.226  1.00  0.00     0.012 C 
ATOM      5  C   UNL     1     115.791 116.479 112.384  1.00  0.00     0.058 C 
ATOM      6  C   UNL     1     116.651 117.255 113.367  1.00  0.00     0.136 C 
ATOM      7  O   UNL     1     117.043 116.760 114.414  1.00  0.00    -0.299 OA
ATOM      8  C   UNL     1     116.923 118.702 113.078  1.00  0.00     0.079 C 
ENDROOT
BRANCH   5   9
ATOM      9  C   UNL     1     115.597 114.982 112.793  1.00  0.00    -0.007 C 
ATOM     10  C   UNL     1     116.528 114.065 111.978  1.00  0.00     0.008 C 
ATOM     11  C   UNL     1     114.148 114.497 112.605  1.00  0.00     0.008 C 
ENDBRANCH   5   9
TORSDOF 1
ENDMDL
MODEL 7
REMARK VINA RESULT:    -3.956      2.135      4.333
REMARK INTER + INTRA:          -4.344
REMARK INTER:                  -4.169
REMARK INTRA:                  -0.175
REMARK UNBOUND:                -0.157
REMARK SMILES CC(C)[C@H]1CC[C@@H](C)CC1=O
REMARK SMILES IDX 8 1 7 2 6 3 5 4 4 5 10 6 11 7 9 8 2 9 1 10 3 11
REMARK H PARENT
REMARK Flexibility Score: inf
ROOT
ATOM      1  C   UNL     1     115.151 119.592 114.162  1.00  0.00     0.008 C 
ATOM      2  C   UNL     1     114.992 119.020 112.744  1.00  0.00    -0.007 C 
ATOM      3  C   UNL     1     114.680 117.506 112.766  1.00  0.00     0.004 C 
ATOM      4  C   UNL     1     115.892 116.644 113.175  1.00  0.00     0.012 C 
ATOM      5  C   UNL     1     117.125 116.918 112.280  1.00  0.00     0.058 C 
ATOM      6  C   UNL     1     117.365 118.418 112.277  1.00  0.00     0.136 C 
ATOM      7  O   UNL     1     118.412 118.907 112.675  1.00  0.00    -0.299 OA
ATOM      8  C   UNL     1     116.229 119.314 111.875  1.00  0.00     0.079 C 
ENDROOT
BRANCH   5   9
ATOM      9  C   UNL     1     118.390 116.101 112.703  1.00  0.00    -0.007 C 
ATOM     10  C   UNL     1     118.510 114.807 111.875  1.00  0.00     0.008 C 
ATOM     11  C   UNL     1     118.383 115.725 114.196  1.00  0.00     0.008 C 
ENDBRANCH   5   9
TORSDOF 1
ENDMDL
MODEL 8
REMARK VINA RESULT:    -3.917      2.793      4.615
REMARK INTER + INTRA:          -4.302
REMARK INTER:                  -4.128
REMARK INTRA:                  -0.175
REMARK UNBOUND:                -0.157
REMARK SMILES CC(C)[C@H]1CC[C@@H](C)CC1=O
REMARK SMILES IDX 8 1 7 2 6 3 5 4 4 5 10 6 11 7 9 8 2 9 1 10 3 11
REMARK H PARENT
REMARK Flexibility Score: inf
ROOT
ATOM      1  C   UNL     1     119.619 118.116 114.156  1.00  0.00     0.008 C 
ATOM      2  C   UNL     1     119.021 118.274 112.748  1.00  0.00    -0.007 C 
ATOM      3  C   UNL     1     117.508 118.587 112.798  1.00  0.00     0.004 C 
ATOM      4  C   UNL     1     116.653 117.376 113.223  1.00  0.00     0.012 C 
ATOM      5  C   UNL     1     116.910 116.142 112.324  1.00  0.00     0.058 C 
ATOM      6  C   UNL     1     118.409 115.902 112.295  1.00  0.00     0.136 C 
ATOM      7  O   UNL     1     118.905 114.854 112.684  1.00  0.00    -0.299 OA
ATOM      8  C   UNL     1     119.298 117.036 111.875  1.00  0.00     0.079 C 
ENDROOT
BRANCH   5   9
ATOM      9  C   UNL     1     116.099 114.878 112.763  1.00  0.00    -0.007 C 
ATOM     10  C   UNL     1     114.791 114.758 111.959  1.00  0.00     0.008 C 
ATOM     11  C   UNL     1     115.751 114.887 114.263  1.00  0.00     0.008 C 
ENDBRANCH   5   9
TORSDOF 1
ENDMDL
MODEL 9
REMARK VINA RESULT:    -3.900      1.924      2.938
REMARK INTER + INTRA:          -4.284
REMARK INTER:                  -4.123
REMARK INTRA:                  -0.162
REMARK UNBOUND:                -0.157
REMARK SMILES CC(C)[C@H]1CC[C@@H](C)CC1=O
REMARK SMILES IDX 8 1 7 2 6 3 5 4 4 5 10 6 11 7 9 8 2 9 1 10 3 11
REMARK H PARENT
REMARK Flexibility Score: inf
ROOT
ATOM      1  C   UNL     1     113.493 114.736 113.787  1.00  0.00     0.008 C 
ATOM      2  C   UNL     1     114.062 114.927 112.372  1.00  0.00    -0.007 C 
ATOM      3  C   UNL     1     115.495 114.359 112.247  1.00  0.00     0.004 C 
ATOM      4  C   UNL     1     116.550 115.211 112.983  1.00  0.00     0.012 C 
ATOM      5  C   UNL     1     116.523 116.689 112.523  1.00  0.00     0.058 C 
ATOM      6  C   UNL     1     115.090 117.180 112.644  1.00  0.00     0.136 C 
ATOM      7  O   UNL     1     114.787 118.121 113.363  1.00  0.00    -0.299 OA
ATOM      8  C   UNL     1     114.016 116.404 111.939  1.00  0.00     0.079 C 
ENDROOT
BRANCH   5   9
ATOM      9  C   UNL     1     117.543 117.593 113.291  1.00  0.00    -0.007 C 
ATOM     10  C   UNL     1     118.358 118.457 112.310  1.00  0.00     0.008 C 
ATOM     11  C   UNL     1     118.524 116.780 114.156  1.00  0.00     0.008 C 
ENDBRANCH   5   9
TORSDOF 1
ENDMDL
