MODEL 1
REMARK VINA RESULT:    -4.255      0.000      0.000
REMARK INTER + INTRA:          -4.640
REMARK INTER:                  -4.628
REMARK INTRA:                  -0.012
REMARK UNBOUND:                -0.012
REMARK SMILES OCc1ccccc1
REMARK SMILES IDX 2 1 3 2 6 3 5 4 7 5 4 6 8 7 1 8
REMARK H PARENT 1 9
REMARK Flexibility Score: inf
ROOT
ATOM      1  C   UNL     1      35.838  -2.675  38.143  1.00  0.00     0.191 C 
ENDROOT
BRANCH   1   2
ATOM      2  C   UNL     1      35.523  -4.077  38.586  1.00  0.00    -0.023 A 
ATOM      3  C   UNL     1      34.916  -6.665  39.486  1.00  0.00     0.000 A 
ATOM      4  C   UNL     1      33.929  -5.889  38.871  1.00  0.00     0.000 A 
ATOM      5  C   UNL     1      36.203  -6.148  39.662  1.00  0.00     0.000 A 
ATOM      6  C   UNL     1      34.228  -4.597  38.427  1.00  0.00     0.006 A 
ATOM      7  C   UNL     1      36.505  -4.856  39.220  1.00  0.00     0.006 A 
ENDBRANCH   1   2
BRANCH   1   8
ATOM      8  O   UNL     1      36.138  -1.875  39.253  1.00  0.00    -0.392 OA
ATOM      9  H   UNL     1      37.110  -1.982  39.425  1.00  0.00     0.211 HD
ENDBRANCH   1   8
TORSDOF 2
ENDMDL
MODEL 2
REMARK VINA RESULT:    -4.019     19.720     20.649
REMARK INTER + INTRA:          -4.383
REMARK INTER:                  -4.365
REMARK INTRA:                  -0.019
REMARK UNBOUND:                -0.012
REMARK SMILES OCc1ccccc1
REMARK SMILES IDX 2 1 3 2 6 3 5 4 7 5 4 6 8 7 1 8
REMARK H PARENT 1 9
REMARK Flexibility Score: inf
ROOT
ATOM      1  C   UNL     1      23.737 -20.785  35.249  1.00  0.00     0.191 C 
ENDROOT
BRANCH   1   2
ATOM      2  C   UNL     1      23.763 -20.364  33.806  1.00  0.00    -0.023 A 
ATOM      3  C   UNL     1      23.732 -19.581  31.111  1.00  0.00     0.000 A 
ATOM      4  C   UNL     1      23.710 -18.614  32.121  1.00  0.00     0.000 A 
ATOM      5  C   UNL     1      23.760 -20.939  31.445  1.00  0.00     0.000 A 
ATOM      6  C   UNL     1      23.720 -19.002  33.464  1.00  0.00     0.006 A 
ATOM      7  C   UNL     1      23.769 -21.331  32.788  1.00  0.00     0.006 A 
ENDBRANCH   1   2
BRANCH   1   8
ATOM      8  O   UNL     1      24.131 -22.125  35.367  1.00  0.00    -0.392 OA
ATOM      9  H   UNL     1      25.099 -22.157  35.145  1.00  0.00     0.211 HD
ENDBRANCH   1   8
TORSDOF 2
ENDMDL
MODEL 3
REMARK VINA RESULT:    -4.011     19.700     20.644
REMARK INTER + INTRA:          -4.375
REMARK INTER:                  -4.356
REMARK INTRA:                  -0.019
REMARK UNBOUND:                -0.012
REMARK SMILES OCc1ccccc1
REMARK SMILES IDX 2 1 3 2 6 3 5 4 7 5 4 6 8 7 1 8
REMARK H PARENT 1 9
REMARK Flexibility Score: inf
ROOT
ATOM      1  C   UNL     1      23.776 -20.774  35.358  1.00  0.00     0.191 C 
ENDROOT
BRANCH   1   2
ATOM      2  C   UNL     1      23.739 -20.386  33.906  1.00  0.00    -0.023 A 
ATOM      3  C   UNL     1      23.750 -19.660  31.195  1.00  0.00     0.000 A 
ATOM      4  C   UNL     1      23.750 -21.010  31.558  1.00  0.00     0.000 A 
ATOM      5  C   UNL     1      23.755 -18.672  32.184  1.00  0.00     0.000 A 
ATOM      6  C   UNL     1      23.750 -21.374  32.908  1.00  0.00     0.006 A 
ATOM      7  C   UNL     1      23.756 -19.032  33.536  1.00  0.00     0.006 A 
ENDBRANCH   1   2
BRANCH   1   8
ATOM      8  O   UNL     1      24.126 -22.125  35.487  1.00  0.00    -0.392 OA
ATOM      9  H   UNL     1      24.234 -22.479  34.565  1.00  0.00     0.211 HD
ENDBRANCH   1   8
TORSDOF 2
ENDMDL
MODEL 4
REMARK VINA RESULT:    -3.998     20.645     20.989
REMARK INTER + INTRA:          -4.360
REMARK INTER:                  -4.344
REMARK INTRA:                  -0.016
REMARK UNBOUND:                -0.012
REMARK SMILES OCc1ccccc1
REMARK SMILES IDX 2 1 3 2 6 3 5 4 7 5 4 6 8 7 1 8
REMARK H PARENT 1 9
REMARK Flexibility Score: inf
ROOT
ATOM      1  C   UNL     1      23.726 -20.864  34.835  1.00  0.00     0.191 C 
ENDROOT
BRANCH   1   2
ATOM      2  C   UNL     1      24.008 -20.806  33.359  1.00  0.00    -0.023 A 
ATOM      3  C   UNL     1      24.583 -20.636  30.617  1.00  0.00     0.000 A 
ATOM      4  C   UNL     1      25.355 -21.457  31.444  1.00  0.00     0.000 A 
ATOM      5  C   UNL     1      23.530 -19.893  31.159  1.00  0.00     0.000 A 
ATOM      6  C   UNL     1      25.074 -21.539  32.811  1.00  0.00     0.006 A 
ATOM      7  C   UNL     1      23.246 -19.971  32.526  1.00  0.00     0.006 A 
ENDBRANCH   1   2
BRANCH   1   8
ATOM      8  O   UNL     1      24.070 -22.125  35.341  1.00  0.00    -0.392 OA
ATOM      9  H   UNL     1      23.627 -22.205  36.226  1.00  0.00     0.211 HD
ENDBRANCH   1   8
TORSDOF 2
ENDMDL
MODEL 5
REMARK VINA RESULT:    -3.995     20.579     20.895
REMARK INTER + INTRA:          -4.357
REMARK INTER:                  -4.340
REMARK INTRA:                  -0.017
REMARK UNBOUND:                -0.012
REMARK SMILES OCc1ccccc1
REMARK SMILES IDX 2 1 3 2 6 3 5 4 7 5 4 6 8 7 1 8
REMARK H PARENT 1 9
REMARK Flexibility Score: inf
ROOT
ATOM      1  C   UNL     1      23.810 -20.837  34.858  1.00  0.00     0.191 C 
ENDROOT
BRANCH   1   2
ATOM      2  C   UNL     1      24.075 -20.736  33.382  1.00  0.00    -0.023 A 
ATOM      3  C   UNL     1      24.524 -20.610  30.614  1.00  0.00     0.000 A 
ATOM      4  C   UNL     1      23.465 -19.897  31.184  1.00  0.00     0.000 A 
ATOM      5  C   UNL     1      25.353 -21.393  31.422  1.00  0.00     0.000 A 
ATOM      6  C   UNL     1      23.236 -19.963  32.562  1.00  0.00     0.006 A 
ATOM      7  C   UNL     1      25.127 -21.462  32.801  1.00  0.00     0.006 A 
ENDBRANCH   1   2
BRANCH   1   8
ATOM      8  O   UNL     1      24.119 -22.125  35.315  1.00  0.00    -0.392 OA
ATOM      9  H   UNL     1      23.498 -22.747  34.853  1.00  0.00     0.211 HD
ENDBRANCH   1   8
TORSDOF 2
ENDMDL
MODEL 6
REMARK VINA RESULT:    -3.934     12.129     13.155
REMARK INTER + INTRA:          -4.291
REMARK INTER:                  -4.281
REMARK INTRA:                  -0.010
REMARK UNBOUND:                -0.012
REMARK SMILES OCc1ccccc1
REMARK SMILES IDX 2 1 3 2 6 3 5 4 7 5 4 6 8 7 1 8
REMARK H PARENT 1 9
REMARK Flexibility Score: inf
ROOT
ATOM      1  C   UNL     1      25.589 -10.285  43.357  1.00  0.00     0.191 C 
ENDROOT
BRANCH   1   2
ATOM      2  C   UNL     1      24.986 -11.274  42.399  1.00  0.00    -0.023 A 
ATOM      3  C   UNL     1      23.793 -13.119  40.652  1.00  0.00     0.000 A 
ATOM      4  C   UNL     1      23.717 -11.749  40.381  1.00  0.00     0.000 A 
ATOM      5  C   UNL     1      24.455 -13.568  41.798  1.00  0.00     0.000 A 
ATOM      6  C   UNL     1      24.306 -10.828  41.253  1.00  0.00     0.006 A 
ATOM      7  C   UNL     1      25.045 -12.650  42.673  1.00  0.00     0.006 A 
ENDBRANCH   1   2
BRANCH   1   8
ATOM      8  O   UNL     1      26.736  -9.709  42.795  1.00  0.00    -0.392 OA
ATOM      9  H   UNL     1      26.687  -9.874  41.817  1.00  0.00     0.211 HD
ENDBRANCH   1   8
TORSDOF 2
ENDMDL
MODEL 7
REMARK VINA RESULT:    -3.887     12.584     13.026
REMARK INTER + INTRA:          -4.240
REMARK INTER:                  -4.226
REMARK INTRA:                  -0.014
REMARK UNBOUND:                -0.012
REMARK SMILES OCc1ccccc1
REMARK SMILES IDX 2 1 3 2 6 3 5 4 7 5 4 6 8 7 1 8
REMARK H PARENT 1 9
REMARK Flexibility Score: inf
ROOT
ATOM      1  C   UNL     1      24.753 -10.809  36.247  1.00  0.00     0.191 C 
ENDROOT
BRANCH   1   2
ATOM      2  C   UNL     1      24.549 -11.345  37.636  1.00  0.00    -0.023 A 
ATOM      3  C   UNL     1      24.090 -12.357  40.214  1.00  0.00     0.000 A 
ATOM      4  C   UNL     1      24.453 -13.222  39.177  1.00  0.00     0.000 A 
ATOM      5  C   UNL     1      23.947 -10.989  39.964  1.00  0.00     0.000 A 
ATOM      6  C   UNL     1      24.677 -12.721  37.891  1.00  0.00     0.006 A 
ATOM      7  C   UNL     1      24.168 -10.484  38.678  1.00  0.00     0.006 A 
ENDBRANCH   1   2
BRANCH   1   8
ATOM      8  O   UNL     1      25.549  -9.656  36.288  1.00  0.00    -0.392 OA
ATOM      9  H   UNL     1      26.271  -9.786  35.618  1.00  0.00     0.211 HD
ENDBRANCH   1   8
TORSDOF 2
ENDMDL
MODEL 8
REMARK VINA RESULT:    -3.876     20.311     20.911
REMARK INTER + INTRA:          -4.227
REMARK INTER:                  -4.208
REMARK INTRA:                  -0.019
REMARK UNBOUND:                -0.012
REMARK SMILES OCc1ccccc1
REMARK SMILES IDX 2 1 3 2 6 3 5 4 7 5 4 6 8 7 1 8
REMARK H PARENT 1 9
REMARK Flexibility Score: inf
ROOT
ATOM      1  C   UNL     1      25.576 -20.062  28.358  1.00  0.00     0.191 C 
ENDROOT
BRANCH   1   2
ATOM      2  C   UNL     1      24.889 -20.143  29.693  1.00  0.00    -0.023 A 
ATOM      3  C   UNL     1      23.539 -20.315  32.147  1.00  0.00     0.000 A 
ATOM      4  C   UNL     1      24.203 -21.434  31.634  1.00  0.00     0.000 A 
ATOM      5  C   UNL     1      23.540 -19.114  31.432  1.00  0.00     0.000 A 
ATOM      6  C   UNL     1      24.871 -21.352  30.409  1.00  0.00     0.006 A 
ATOM      7  C   UNL     1      24.207 -19.028  30.206  1.00  0.00     0.006 A 
ENDBRANCH   1   2
BRANCH   1   8
ATOM      8  O   UNL     1      25.594 -18.736  27.906  1.00  0.00    -0.392 OA
ATOM      9  H   UNL     1      25.658 -18.162  28.713  1.00  0.00     0.211 HD
ENDBRANCH   1   8
TORSDOF 2
ENDMDL
MODEL 9
REMARK VINA RESULT:    -3.824     20.215     20.906
REMARK INTER + INTRA:          -4.171
REMARK INTER:                  -4.159
REMARK INTRA:                  -0.012
REMARK UNBOUND:                -0.012
REMARK SMILES OCc1ccccc1
REMARK SMILES IDX 2 1 3 2 6 3 5 4 7 5 4 6 8 7 1 8
REMARK H PARENT 1 9
REMARK Flexibility Score: inf
ROOT
ATOM      1  C   UNL     1      23.639 -20.398  33.584  1.00  0.00     0.191 C 
ENDROOT
BRANCH   1   2
ATOM      2  C   UNL     1      24.016 -20.157  32.149  1.00  0.00    -0.023 A 
ATOM      3  C   UNL     1      24.647 -19.728  29.448  1.00  0.00     0.000 A 
ATOM      4  C   UNL     1      24.135 -18.681  30.221  1.00  0.00     0.000 A 
ATOM      5  C   UNL     1      24.836 -20.990  30.018  1.00  0.00     0.000 A 
ATOM      6  C   UNL     1      23.815 -18.895  31.565  1.00  0.00     0.006 A 
ATOM      7  C   UNL     1      24.516 -21.207  31.362  1.00  0.00     0.006 A 
ENDBRANCH   1   2
BRANCH   1   8
ATOM      8  O   UNL     1      22.652 -21.390  33.661  1.00  0.00    -0.392 OA
ATOM      9  H   UNL     1      21.783 -20.938  33.504  1.00  0.00     0.211 HD
ENDBRANCH   1   8
TORSDOF 2
ENDMDL
