MODEL 1
REMARK VINA RESULT:    -1.228      0.000      0.000
REMARK INTER + INTRA:          -1.706
REMARK INTER:                  -1.444
REMARK INTRA:                  -0.262
REMARK UNBOUND:                -0.262
REMARK SMILES O=c1cc(-c2ccc(O)c(O)c2)oc2cc(O)cc(O)c12
REMARK SMILES IDX 4 1 3 2 2 3 1 4 21 5 19 6 18 7 16 8 15 9 14 10 13 11 5 12
REMARK SMILES IDX 6 13 7 14 8 15 12 16 10 17 9 18 11 20 20 22 17 24
REMARK H PARENT 9 19 11 21 20 23 17 25
REMARK Flexibility Score: inf
ROOT
ATOM      1  C   UNL     1      19.392  12.419  -9.639  1.00  0.00     0.138 A 
ATOM      2  C   UNL     1      20.573  12.209 -10.365  1.00  0.00     0.100 A 
ATOM      3  C   UNL     1      21.463  11.214  -9.962  1.00  0.00     0.197 A 
ATOM      4  O   UNL     1      22.540  11.088 -10.601  1.00  0.00    -0.289 OA
ATOM      5  C   UNL     1      21.152  10.399  -8.847  1.00  0.00     0.107 A 
ATOM      6  C   UNL     1      21.968   9.332  -8.364  1.00  0.00     0.134 A 
ATOM      7  C   UNL     1      21.603   8.660  -7.191  1.00  0.00     0.093 A 
ATOM      8  C   UNL     1      20.422   8.979  -6.515  1.00  0.00     0.123 A 
ATOM      9  C   UNL     1      19.594   9.985  -7.005  1.00  0.00     0.094 A 
ATOM     10  C   UNL     1      19.947  10.697  -8.154  1.00  0.00     0.146 A 
ATOM     11  O   UNL     1      19.138  11.662  -8.577  1.00  0.00    -0.456 OA
ENDROOT
BRANCH   1  12
ATOM     12  C   UNL     1      18.407  13.462 -10.024  1.00  0.00     0.021 A 
ATOM     13  C   UNL     1      17.251  13.150 -10.766  1.00  0.00     0.016 A 
ATOM     14  C   UNL     1      16.347  14.154 -11.123  1.00  0.00     0.051 A 
ATOM     15  C   UNL     1      16.583  15.483 -10.753  1.00  0.00     0.157 A 
ATOM     16  C   UNL     1      18.643  14.801  -9.669  1.00  0.00     0.062 A 
ATOM     17  C   UNL     1      17.739  15.808 -10.024  1.00  0.00     0.158 A 
BRANCH  15  18
ATOM     18  O   UNL     1      15.678  16.482 -11.109  1.00  0.00    -0.504 OA
ATOM     19  H   UNL     1      15.468  17.254 -10.487  1.00  0.00     0.293 HD
ENDBRANCH  15  18
BRANCH  17  20
ATOM     20  O   UNL     1      18.004  17.124  -9.644  1.00  0.00    -0.504 OA
ATOM     21  H   UNL     1      17.269  17.767  -9.378  1.00  0.00     0.293 HD
ENDBRANCH  17  20
ENDBRANCH   1  12
BRANCH   6  22
ATOM     22  O   UNL     1      23.125   8.879  -9.006  1.00  0.00    -0.507 OA
ATOM     23  H   UNL     1      23.663   9.408  -9.673  1.00  0.00     0.293 HD
ENDBRANCH   6  22
BRANCH   8  24
ATOM     24  O   UNL     1      20.060   8.295  -5.357  1.00  0.00    -0.508 OA
ATOM     25  H   UNL     1      19.089   8.185  -5.087  1.00  0.00     0.293 HD
ENDBRANCH   8  24
TORSDOF 5
ENDMDL
MODEL 2
REMARK VINA RESULT:     1.759      2.821      8.184
REMARK INTER + INTRA:           1.806
REMARK INTER:                   2.097
REMARK INTRA:                  -0.292
REMARK UNBOUND:                -0.262
REMARK SMILES O=c1cc(-c2ccc(O)c(O)c2)oc2cc(O)cc(O)c12
REMARK SMILES IDX 4 1 3 2 2 3 1 4 21 5 19 6 18 7 16 8 15 9 14 10 13 11 5 12
REMARK SMILES IDX 6 13 7 14 8 15 12 16 10 17 9 18 11 20 20 22 17 24
REMARK H PARENT 9 19 11 21 20 23 17 25
REMARK Flexibility Score: inf
ROOT
ATOM      1  C   UNL     1      20.998   8.684  -6.807  1.00  0.00     0.138 A 
ATOM      2  C   UNL     1      19.680   9.151  -6.718  1.00  0.00     0.100 A 
ATOM      3  C   UNL     1      19.253  10.178  -7.559  1.00  0.00     0.197 A 
ATOM      4  O   UNL     1      18.082  10.614  -7.415  1.00  0.00    -0.289 OA
ATOM      5  C   UNL     1      20.141  10.716  -8.522  1.00  0.00     0.107 A 
ATOM      6  C   UNL     1      19.807  11.743  -9.456  1.00  0.00     0.134 A 
ATOM      7  C   UNL     1      20.800  12.263 -10.295  1.00  0.00     0.093 A 
ATOM      8  C   UNL     1      22.101  11.754 -10.274  1.00  0.00     0.123 A 
ATOM      9  C   UNL     1      22.426  10.719  -9.401  1.00  0.00     0.094 A 
ATOM     10  C   UNL     1      21.466  10.201  -8.527  1.00  0.00     0.146 A 
ATOM     11  O   UNL     1      21.822   9.227  -7.698  1.00  0.00    -0.456 OA
ENDROOT
BRANCH   1  12
ATOM     12  C   UNL     1      21.506   7.591  -5.939  1.00  0.00     0.021 A 
ATOM     13  C   UNL     1      22.677   6.875  -6.258  1.00  0.00     0.016 A 
ATOM     14  C   UNL     1      23.125   5.845  -5.427  1.00  0.00     0.051 A 
ATOM     15  C   UNL     1      22.411   5.506  -4.272  1.00  0.00     0.157 A 
ATOM     16  C   UNL     1      20.788   7.235  -4.784  1.00  0.00     0.062 A 
ATOM     17  C   UNL     1      21.236   6.205  -3.950  1.00  0.00     0.158 A 
BRANCH  15  18
ATOM     18  O   UNL     1      22.862   4.479  -3.444  1.00  0.00    -0.504 OA
ATOM     19  H   UNL     1      22.930   3.523  -3.775  1.00  0.00     0.293 HD
ENDBRANCH  15  18
BRANCH  17  20
ATOM     20  O   UNL     1      20.500   5.889  -2.808  1.00  0.00    -0.504 OA
ATOM     21  H   UNL     1      20.777   6.201  -1.885  1.00  0.00     0.293 HD
ENDBRANCH  17  20
ENDBRANCH   1  12
BRANCH   6  22
ATOM     22  O   UNL     1      18.520  12.267  -9.616  1.00  0.00    -0.507 OA
ATOM     23  H   UNL     1      18.299  13.247  -9.694  1.00  0.00     0.293 HD
ENDBRANCH   6  22
BRANCH   8  24
ATOM     24  O   UNL     1      23.079  12.268 -11.123  1.00  0.00    -0.508 OA
ATOM     25  H   UNL     1      23.487  11.707 -11.862  1.00  0.00     0.293 HD
ENDBRANCH   8  24
TORSDOF 5
ENDMDL
