MODEL 1
REMARK VINA RESULT:    -5.014      0.000      0.000
REMARK INTER + INTRA:          -8.396
REMARK INTER:                  -7.652
REMARK INTRA:                  -0.744
REMARK UNBOUND:                -0.744
REMARK SMILES O=C([O-])CCCCCCCCC(=O)[O-]
REMARK SMILES IDX 7 1 6 2 5 3 4 4 2 5 1 6 3 7 8 8 9 9 10 10 11 11 12 12 13 13
REMARK SMILES IDX 14 14
REMARK H PARENT
REMARK Flexibility Score: inf
ROOT
ATOM      1  C   UNL     1      -2.426  -0.158   8.547  1.00  0.00     0.000 C 
ENDROOT
BRANCH   1   2
ATOM      2  C   UNL     1      -1.425  -0.680   9.588  1.00  0.00     0.000 C 
BRANCH   2   3
ATOM      3  C   UNL     1      -0.288  -1.507   8.961  1.00  0.00     0.006 C 
BRANCH   3   4
ATOM      4  C   UNL     1      -0.113  -2.906   9.570  1.00  0.00     0.053 C 
BRANCH   4   5
ATOM      5  C   UNL     1       1.329  -3.234   9.816  1.00  0.00     0.041 C 
ATOM      6  O   UNL     1       2.192  -2.318   9.836  1.00  0.00    -0.550 OA
ATOM      7  O   UNL     1       1.721  -4.555   9.989  1.00  0.00    -0.550 OA
ENDBRANCH   4   5
ENDBRANCH   3   4
ENDBRANCH   2   3
ENDBRANCH   1   2
BRANCH   1   8
ATOM      8  C   UNL     1      -1.938  -0.449   7.122  1.00  0.00     0.000 C 
BRANCH   8   9
ATOM      9  C   UNL     1      -2.349   0.672   6.160  1.00  0.00     0.000 C 
BRANCH   9  10
ATOM     10  C   UNL     1      -1.159   1.119   5.296  1.00  0.00     0.006 C 
BRANCH  10  11
ATOM     11  C   UNL     1       0.188   0.758   5.933  1.00  0.00     0.053 C 
BRANCH  11  12
ATOM     12  C   UNL     1       0.724   1.880   6.769  1.00  0.00     0.041 C 
ATOM     13  O   UNL     1       0.878   1.731   8.009  1.00  0.00    -0.550 OA
ATOM     14  O   UNL     1       1.085   3.081   6.170  1.00  0.00    -0.550 OA
ENDBRANCH  11  12
ENDBRANCH  10  11
ENDBRANCH   9  10
ENDBRANCH   8   9
ENDBRANCH   1   8
TORSDOF 9
ENDMDL
MODEL 2
REMARK VINA RESULT:    -4.968      0.287      5.183
REMARK INTER + INTRA:          -8.326
REMARK INTER:                  -7.530
REMARK INTRA:                  -0.797
REMARK UNBOUND:                -0.744
REMARK SMILES O=C([O-])CCCCCCCCC(=O)[O-]
REMARK SMILES IDX 7 1 6 2 5 3 4 4 2 5 1 6 3 7 8 8 9 9 10 10 11 11 12 12 13 13
REMARK SMILES IDX 14 14
REMARK H PARENT
REMARK Flexibility Score: inf
ROOT
ATOM      1  C   UNL     1      -1.924  -0.504   7.074  1.00  0.00     0.000 C 
ENDROOT
BRANCH   1   2
ATOM      2  C   UNL     1      -2.347   0.581   6.072  1.00  0.00     0.000 C 
BRANCH   2   3
ATOM      3  C   UNL     1      -1.172   1.467   5.621  1.00  0.00     0.006 C 
BRANCH   3   4
ATOM      4  C   UNL     1       0.200   1.015   6.145  1.00  0.00     0.053 C 
BRANCH   4   5
ATOM      5  C   UNL     1       0.818   2.035   7.052  1.00  0.00     0.041 C 
ATOM      6  O   UNL     1       0.691   1.934   8.300  1.00  0.00    -0.550 OA
ATOM      7  O   UNL     1       1.507   3.115   6.516  1.00  0.00    -0.550 OA
ENDBRANCH   4   5
ENDBRANCH   3   4
ENDBRANCH   2   3
ENDBRANCH   1   2
BRANCH   1   8
ATOM      8  C   UNL     1      -2.336  -0.124   8.501  1.00  0.00     0.000 C 
BRANCH   8   9
ATOM      9  C   UNL     1      -1.339  -0.676   9.528  1.00  0.00     0.000 C 
BRANCH   9  10
ATOM     10  C   UNL     1      -0.274  -1.548   8.847  1.00  0.00     0.006 C 
BRANCH  10  11
ATOM     11  C   UNL     1      -0.055  -2.877   9.582  1.00  0.00     0.053 C 
BRANCH  11  12
ATOM     12  C   UNL     1       1.396  -3.122   9.863  1.00  0.00     0.041 C 
ATOM     13  O   UNL     1       1.816  -4.293  10.054  1.00  0.00    -0.550 OA
ATOM     14  O   UNL     1       2.290  -2.058   9.881  1.00  0.00    -0.550 OA
ENDBRANCH  11  12
ENDBRANCH  10  11
ENDBRANCH   9  10
ENDBRANCH   8   9
ENDBRANCH   1   8
TORSDOF 9
ENDMDL
MODEL 3
REMARK VINA RESULT:    -4.821      1.464      2.148
REMARK INTER + INTRA:          -8.102
REMARK INTER:                  -7.467
REMARK INTRA:                  -0.635
REMARK UNBOUND:                -0.744
REMARK SMILES O=C([O-])CCCCCCCCC(=O)[O-]
REMARK SMILES IDX 7 1 6 2 5 3 4 4 2 5 1 6 3 7 8 8 9 9 10 10 11 11 12 12 13 13
REMARK SMILES IDX 14 14
REMARK H PARENT
REMARK Flexibility Score: inf
ROOT
ATOM      1  C   UNL     1      -2.021  -0.507   7.308  1.00  0.00     0.000 C 
ENDROOT
BRANCH   1   2
ATOM      2  C   UNL     1      -0.929  -1.558   7.555  1.00  0.00     0.000 C 
BRANCH   2   3
ATOM      3  C   UNL     1      -0.414  -1.554   9.006  1.00  0.00     0.006 C 
BRANCH   3   4
ATOM      4  C   UNL     1      -0.135  -2.950   9.583  1.00  0.00     0.053 C 
BRANCH   4   5
ATOM      5  C   UNL     1       1.331  -3.195   9.774  1.00  0.00     0.041 C 
ATOM      6  O   UNL     1       1.766  -4.368   9.909  1.00  0.00    -0.550 OA
ATOM      7  O   UNL     1       2.212  -2.122   9.835  1.00  0.00    -0.550 OA
ENDBRANCH   4   5
ENDBRANCH   3   4
ENDBRANCH   2   3
ENDBRANCH   1   2
BRANCH   1   8
ATOM      8  C   UNL     1      -1.839   0.702   8.235  1.00  0.00     0.000 C 
BRANCH   8   9
ATOM      9  C   UNL     1      -1.163   1.865   7.498  1.00  0.00     0.000 C 
BRANCH   9  10
ATOM     10  C   UNL     1       0.366   1.739   7.559  1.00  0.00     0.006 C 
BRANCH  10  11
ATOM     11  C   UNL     1       1.036   2.171   6.248  1.00  0.00     0.053 C 
BRANCH  11  12
ATOM     12  C   UNL     1       0.393   1.526   5.059  1.00  0.00     0.041 C 
ATOM     13  O   UNL     1      -0.346   2.199   4.294  1.00  0.00    -0.550 OA
ATOM     14  O   UNL     1       0.638   0.187   4.777  1.00  0.00    -0.550 OA
ENDBRANCH  11  12
ENDBRANCH  10  11
ENDBRANCH   9  10
ENDBRANCH   8   9
ENDBRANCH   1   8
TORSDOF 9
ENDMDL
MODEL 4
REMARK VINA RESULT:    -4.615      1.708      2.284
REMARK INTER + INTRA:          -7.788
REMARK INTER:                  -6.788
REMARK INTRA:                  -1.000
REMARK UNBOUND:                -0.744
REMARK SMILES O=C([O-])CCCCCCCCC(=O)[O-]
REMARK SMILES IDX 7 1 6 2 5 3 4 4 2 5 1 6 3 7 8 8 9 9 10 10 11 11 12 12 13 13
REMARK SMILES IDX 14 14
REMARK H PARENT
REMARK Flexibility Score: inf
ROOT
ATOM      1  C   UNL     1      -2.463   0.866   9.065  1.00  0.00     0.000 C 
ENDROOT
BRANCH   1   2
ATOM      2  C   UNL     1      -2.097  -0.373   9.896  1.00  0.00     0.000 C 
BRANCH   2   3
ATOM      3  C   UNL     1      -2.143  -1.676   9.078  1.00  0.00     0.006 C 
BRANCH   3   4
ATOM      4  C   UNL     1      -1.116  -1.743   7.937  1.00  0.00     0.053 C 
BRANCH   4   5
ATOM      5  C   UNL     1       0.290  -1.622   8.440  1.00  0.00     0.041 C 
ATOM      6  O   UNL     1       1.011  -0.654   8.083  1.00  0.00    -0.550 OA
ATOM      7  O   UNL     1       0.814  -2.598   9.279  1.00  0.00    -0.550 OA
ENDBRANCH   4   5
ENDBRANCH   3   4
ENDBRANCH   2   3
ENDBRANCH   1   2
BRANCH   1   8
ATOM      8  C   UNL     1      -1.273   1.828   8.960  1.00  0.00     0.000 C 
BRANCH   8   9
ATOM      9  C   UNL     1      -0.854   2.030   7.500  1.00  0.00     0.000 C 
BRANCH   9  10
ATOM     10  C   UNL     1      -2.031   1.770   6.548  1.00  0.00     0.006 C 
BRANCH  10  11
ATOM     11  C   UNL     1      -1.657   0.812   5.410  1.00  0.00     0.053 C 
BRANCH  11  12
ATOM     12  C   UNL     1      -0.322   1.147   4.820  1.00  0.00     0.041 C 
ATOM     13  O   UNL     1       0.621   0.314   4.867  1.00  0.00    -0.550 OA
ATOM     14  O   UNL     1      -0.129   2.369   4.187  1.00  0.00    -0.550 OA
ENDBRANCH  11  12
ENDBRANCH  10  11
ENDBRANCH   9  10
ENDBRANCH   8   9
ENDBRANCH   1   8
TORSDOF 9
ENDMDL
MODEL 5
REMARK VINA RESULT:    -4.545      1.648      2.042
REMARK INTER + INTRA:          -7.680
REMARK INTER:                  -6.993
REMARK INTRA:                  -0.687
REMARK UNBOUND:                -0.744
REMARK SMILES O=C([O-])CCCCCCCCC(=O)[O-]
REMARK SMILES IDX 7 1 6 2 5 3 4 4 2 5 1 6 3 7 8 8 9 9 10 10 11 11 12 12 13 13
REMARK SMILES IDX 14 14
REMARK H PARENT
REMARK Flexibility Score: inf
ROOT
ATOM      1  C   UNL     1      -2.175  -0.480   7.536  1.00  0.00     0.000 C 
ENDROOT
BRANCH   1   2
ATOM      2  C   UNL     1      -0.978  -1.441   7.493  1.00  0.00     0.000 C 
BRANCH   2   3
ATOM      3  C   UNL     1      -0.496  -1.855   8.896  1.00  0.00     0.006 C 
BRANCH   3   4
ATOM      4  C   UNL     1      -1.533  -2.635   9.717  1.00  0.00     0.053 C 
BRANCH   4   5
ATOM      5  C   UNL     1      -1.592  -4.079   9.319  1.00  0.00     0.041 C 
ATOM      6  O   UNL     1      -0.797  -4.910   9.830  1.00  0.00    -0.550 OA
ATOM      7  O   UNL     1      -2.505  -4.499   8.360  1.00  0.00    -0.550 OA
ENDBRANCH   4   5
ENDBRANCH   3   4
ENDBRANCH   2   3
ENDBRANCH   1   2
BRANCH   1   8
ATOM      8  C   UNL     1      -2.444   0.124   6.152  1.00  0.00     0.000 C 
BRANCH   8   9
ATOM      9  C   UNL     1      -1.768   1.492   6.006  1.00  0.00     0.000 C 
BRANCH   9  10
ATOM     10  C   UNL     1      -0.653   1.445   4.950  1.00  0.00     0.006 C 
BRANCH  10  11
ATOM     11  C   UNL     1       0.721   1.160   5.569  1.00  0.00     0.053 C 
BRANCH  11  12
ATOM     12  C   UNL     1       0.972   2.011   6.776  1.00  0.00     0.041 C 
ATOM     13  O   UNL     1       0.931   1.505   7.928  1.00  0.00    -0.550 OA
ATOM     14  O   UNL     1       1.284   3.357   6.626  1.00  0.00    -0.550 OA
ENDBRANCH  11  12
ENDBRANCH  10  11
ENDBRANCH   9  10
ENDBRANCH   8   9
ENDBRANCH   1   8
TORSDOF 9
ENDMDL
MODEL 6
REMARK VINA RESULT:    -4.463      1.617      5.188
REMARK INTER + INTRA:          -7.556
REMARK INTER:                  -6.905
REMARK INTRA:                  -0.651
REMARK UNBOUND:                -0.744
REMARK SMILES O=C([O-])CCCCCCCCC(=O)[O-]
REMARK SMILES IDX 7 1 6 2 5 3 4 4 2 5 1 6 3 7 8 8 9 9 10 10 11 11 12 12 13 13
REMARK SMILES IDX 14 14
REMARK H PARENT
REMARK Flexibility Score: inf
ROOT
ATOM      1  C   UNL     1      -2.012   1.611   8.808  1.00  0.00     0.000 C 
ENDROOT
BRANCH   1   2
ATOM      2  C   UNL     1      -1.311   1.801   7.455  1.00  0.00     0.000 C 
BRANCH   2   3
ATOM      3  C   UNL     1       0.207   1.560   7.530  1.00  0.00     0.006 C 
BRANCH   3   4
ATOM      4  C   UNL     1       1.000   2.142   6.350  1.00  0.00     0.053 C 
BRANCH   4   5
ATOM      5  C   UNL     1       0.528   1.600   5.036  1.00  0.00     0.041 C 
ATOM      6  O   UNL     1      -0.102   2.339   4.234  1.00  0.00    -0.550 OA
ATOM      7  O   UNL     1       0.756   0.269   4.710  1.00  0.00    -0.550 OA
ENDBRANCH   4   5
ENDBRANCH   3   4
ENDBRANCH   2   3
ENDBRANCH   1   2
BRANCH   1   8
ATOM      8  C   UNL     1      -1.593   0.288   9.462  1.00  0.00     0.000 C 
BRANCH   8   9
ATOM      9  C   UNL     1      -2.222  -0.908   8.738  1.00  0.00     0.000 C 
BRANCH   9  10
ATOM     10  C   UNL     1      -1.141  -1.884   8.248  1.00  0.00     0.006 C 
BRANCH  10  11
ATOM     11  C   UNL     1      -0.503  -2.668   9.401  1.00  0.00     0.053 C 
BRANCH  11  12
ATOM     12  C   UNL     1       0.993  -2.646   9.325  1.00  0.00     0.041 C 
ATOM     13  O   UNL     1       1.594  -1.611   8.935  1.00  0.00    -0.550 OA
ATOM     14  O   UNL     1       1.726  -3.761   9.716  1.00  0.00    -0.550 OA
ENDBRANCH  11  12
ENDBRANCH  10  11
ENDBRANCH   9  10
ENDBRANCH   8   9
ENDBRANCH   1   8
TORSDOF 9
ENDMDL
MODEL 7
REMARK VINA RESULT:    -4.430      1.808      4.908
REMARK INTER + INTRA:          -7.505
REMARK INTER:                  -6.677
REMARK INTRA:                  -0.828
REMARK UNBOUND:                -0.744
REMARK SMILES O=C([O-])CCCCCCCCC(=O)[O-]
REMARK SMILES IDX 7 1 6 2 5 3 4 4 2 5 1 6 3 7 8 8 9 9 10 10 11 11 12 12 13 13
REMARK SMILES IDX 14 14
REMARK H PARENT
REMARK Flexibility Score: inf
ROOT
ATOM      1  C   UNL     1      -0.866   1.207   4.828  1.00  0.00     0.000 C 
ENDROOT
BRANCH   1   2
ATOM      2  C   UNL     1       0.559   1.720   5.085  1.00  0.00     0.000 C 
BRANCH   2   3
ATOM      3  C   UNL     1       0.935   1.711   6.578  1.00  0.00     0.006 C 
BRANCH   3   4
ATOM      4  C   UNL     1       1.450   3.057   7.109  1.00  0.00     0.053 C 
BRANCH   4   5
ATOM      5  C   UNL     1       1.000   3.314   8.515  1.00  0.00     0.041 C 
ATOM      6  O   UNL     1       0.202   2.522   9.080  1.00  0.00    -0.550 OA
ATOM      7  O   UNL     1       1.437   4.448   9.189  1.00  0.00    -0.550 OA
ENDBRANCH   4   5
ENDBRANCH   3   4
ENDBRANCH   2   3
ENDBRANCH   1   2
BRANCH   1   8
ATOM      8  C   UNL     1      -1.743   1.375   6.075  1.00  0.00     0.000 C 
BRANCH   8   9
ATOM      9  C   UNL     1      -2.625   0.140   6.298  1.00  0.00     0.000 C 
BRANCH   9  10
ATOM     10  C   UNL     1      -2.263  -0.564   7.614  1.00  0.00     0.006 C 
BRANCH  10  11
ATOM     11  C   UNL     1      -0.972  -1.384   7.497  1.00  0.00     0.053 C 
BRANCH  11  12
ATOM     12  C   UNL     1      -0.060  -1.153   8.663  1.00  0.00     0.041 C 
ATOM     13  O   UNL     1      -0.523  -0.739   9.758  1.00  0.00    -0.550 OA
ATOM     14  O   UNL     1       1.297  -1.427   8.549  1.00  0.00    -0.550 OA
ENDBRANCH  11  12
ENDBRANCH  10  11
ENDBRANCH   9  10
ENDBRANCH   8   9
ENDBRANCH   1   8
TORSDOF 9
ENDMDL
MODEL 8
REMARK VINA RESULT:    -4.288      2.838      6.235
REMARK INTER + INTRA:          -7.289
REMARK INTER:                  -6.706
REMARK INTRA:                  -0.583
REMARK UNBOUND:                -0.744
REMARK SMILES O=C([O-])CCCCCCCCC(=O)[O-]
REMARK SMILES IDX 7 1 6 2 5 3 4 4 2 5 1 6 3 7 8 8 9 9 10 10 11 11 12 12 13 13
REMARK SMILES IDX 14 14
REMARK H PARENT
REMARK Flexibility Score: inf
ROOT
ATOM      1  C   UNL     1      -0.833  -1.520   7.498  1.00  0.00     0.000 C 
ENDROOT
BRANCH   1   2
ATOM      2  C   UNL     1       0.312  -0.777   6.794  1.00  0.00     0.000 C 
BRANCH   2   3
ATOM      3  C   UNL     1       0.366   0.718   7.158  1.00  0.00     0.006 C 
BRANCH   3   4
ATOM      4  C   UNL     1       0.904   1.623   6.039  1.00  0.00     0.053 C 
BRANCH   4   5
ATOM      5  C   UNL     1      -0.119   1.863   4.971  1.00  0.00     0.041 C 
ATOM      6  O   UNL     1      -1.330   1.590   5.180  1.00  0.00    -0.550 OA
ATOM      7  O   UNL     1       0.271   2.357   3.733  1.00  0.00    -0.550 OA
ENDBRANCH   4   5
ENDBRANCH   3   4
ENDBRANCH   2   3
ENDBRANCH   1   2
BRANCH   1   8
ATOM      8  C   UNL     1      -1.884  -0.535   8.025  1.00  0.00     0.000 C 
BRANCH   8   9
ATOM      9  C   UNL     1      -2.191  -0.795   9.505  1.00  0.00     0.000 C 
BRANCH   9  10
ATOM     10  C   UNL     1      -1.938  -2.266   9.869  1.00  0.00     0.006 C 
BRANCH  10  11
ATOM     11  C   UNL     1      -3.242  -3.033  10.125  1.00  0.00     0.053 C 
BRANCH  11  12
ATOM     12  C   UNL     1      -3.461  -4.109   9.106  1.00  0.00     0.041 C 
ATOM     13  O   UNL     1      -4.593  -4.645   8.982  1.00  0.00    -0.550 OA
ATOM     14  O   UNL     1      -2.421  -4.497   8.270  1.00  0.00    -0.550 OA
ENDBRANCH  11  12
ENDBRANCH  10  11
ENDBRANCH   9  10
ENDBRANCH   8   9
ENDBRANCH   1   8
TORSDOF 9
ENDMDL
MODEL 9
REMARK VINA RESULT:    -4.270      2.734      4.855
REMARK INTER + INTRA:          -7.260
REMARK INTER:                  -6.335
REMARK INTRA:                  -0.925
REMARK UNBOUND:                -0.744
REMARK SMILES O=C([O-])CCCCCCCCC(=O)[O-]
REMARK SMILES IDX 7 1 6 2 5 3 4 4 2 5 1 6 3 7 8 8 9 9 10 10 11 11 12 12 13 13
REMARK SMILES IDX 14 14
REMARK H PARENT
REMARK Flexibility Score: inf
ROOT
ATOM      1  C   UNL     1      -0.158  -1.629   8.504  1.00  0.00     0.000 C 
ENDROOT
BRANCH   1   2
ATOM      2  C   UNL     1       0.697  -1.093   7.346  1.00  0.00     0.000 C 
BRANCH   2   3
ATOM      3  C   UNL     1      -0.112  -0.241   6.352  1.00  0.00     0.006 C 
BRANCH   3   4
ATOM      4  C   UNL     1       0.693   0.255   5.141  1.00  0.00     0.053 C 
BRANCH   4   5
ATOM      5  C   UNL     1       0.623   1.744   4.993  1.00  0.00     0.041 C 
ATOM      6  O   UNL     1       0.765   2.488   5.999  1.00  0.00    -0.550 OA
ATOM      7  O   UNL     1       0.368   2.308   3.750  1.00  0.00    -0.550 OA
ENDBRANCH   4   5
ENDBRANCH   3   4
ENDBRANCH   2   3
ENDBRANCH   1   2
BRANCH   1   8
ATOM      8  C   UNL     1      -1.580  -1.956   8.032  1.00  0.00     0.000 C 
BRANCH   8   9
ATOM      9  C   UNL     1      -2.619  -1.531   9.076  1.00  0.00     0.000 C 
BRANCH   9  10
ATOM     10  C   UNL     1      -2.038  -0.483  10.036  1.00  0.00     0.006 C 
BRANCH  10  11
ATOM     11  C   UNL     1      -2.607   0.918   9.779  1.00  0.00     0.053 C 
BRANCH  11  12
ATOM     12  C   UNL     1      -1.705   1.731   8.902  1.00  0.00     0.041 C 
ATOM     13  O   UNL     1      -2.154   2.276   7.860  1.00  0.00    -0.550 OA
ATOM     14  O   UNL     1      -0.373   1.914   9.255  1.00  0.00    -0.550 OA
ENDBRANCH  11  12
ENDBRANCH  10  11
ENDBRANCH   9  10
ENDBRANCH   8   9
ENDBRANCH   1   8
TORSDOF 9
ENDMDL
