MODEL 1
REMARK VINA RESULT:    -5.341      0.000      0.000
REMARK INTER + INTRA:          -5.341
REMARK INTER:                  -5.341
REMARK INTRA:                   0.000
REMARK UNBOUND:                 0.000
REMARK SMILES CC(C)=C1CC[C@H](C)CC1=O
REMARK SMILES IDX 8 1 7 2 6 3 5 4 4 5 2 6 1 7 3 8 10 9 11 10 9 11
REMARK H PARENT
REMARK Flexibility Score: inf
ROOT
ATOM      1  C   UNL     1      14.368 -36.874 -28.470  1.00  0.00     0.008 C 
ATOM      2  C   UNL     1      13.091 -36.267 -29.061  1.00  0.00    -0.006 C 
ATOM      3  C   UNL     1      12.746 -34.943 -28.359  1.00  0.00     0.008 C 
ATOM      4  C   UNL     1      11.416 -34.372 -28.867  1.00  0.00     0.039 C 
ATOM      5  C   UNL     1      11.372 -34.257 -30.385  1.00  0.00    -0.006 C 
ATOM      6  C   UNL     1      10.662 -33.266 -31.000  1.00  0.00    -0.070 C 
ATOM      7  C   UNL     1       9.875 -32.253 -30.202  1.00  0.00     0.039 C 
ATOM      8  C   UNL     1      10.657 -33.108 -32.504  1.00  0.00     0.039 C 
ATOM      9  C   UNL     1      12.048 -35.350 -31.144  1.00  0.00     0.159 C 
ATOM     10  O   UNL     1      11.622 -35.726 -32.270  1.00  0.00    -0.295 OA
ATOM     11  C   UNL     1      13.256 -36.031 -30.570  1.00  0.00     0.084 C 
ENDROOT
TORSDOF 0
ENDMDL
MODEL 2
REMARK VINA RESULT:    -5.135      1.781      2.712
REMARK INTER + INTRA:          -5.135
REMARK INTER:                  -5.135
REMARK INTRA:                   0.000
REMARK UNBOUND:                 0.000
REMARK SMILES CC(C)=C1CC[C@H](C)CC1=O
REMARK SMILES IDX 8 1 7 2 6 3 5 4 4 5 2 6 1 7 3 8 10 9 11 10 9 11
REMARK H PARENT
REMARK Flexibility Score: inf
ROOT
ATOM      1  C   UNL     1      13.771 -33.126 -26.216  1.00  0.00     0.008 C 
ATOM      2  C   UNL     1      12.850 -33.501 -27.383  1.00  0.00    -0.006 C 
ATOM      3  C   UNL     1      12.853 -32.396 -28.452  1.00  0.00     0.008 C 
ATOM      4  C   UNL     1      11.859 -32.708 -29.579  1.00  0.00     0.039 C 
ATOM      5  C   UNL     1      12.065 -34.096 -30.172  1.00  0.00    -0.006 C 
ATOM      6  C   UNL     1      11.802 -34.351 -31.487  1.00  0.00    -0.070 C 
ATOM      7  C   UNL     1      11.277 -33.271 -32.405  1.00  0.00     0.039 C 
ATOM      8  C   UNL     1      12.055 -35.709 -32.100  1.00  0.00     0.039 C 
ATOM      9  C   UNL     1      12.454 -35.168 -29.209  1.00  0.00     0.159 C 
ATOM     10  O   UNL     1      12.090 -36.364 -29.378  1.00  0.00    -0.295 OA
ATOM     11  C   UNL     1      13.289 -34.835 -28.007  1.00  0.00     0.084 C 
ENDROOT
TORSDOF 0
ENDMDL
MODEL 3
REMARK VINA RESULT:    -5.098      1.338      4.108
REMARK INTER + INTRA:          -5.098
REMARK INTER:                  -5.098
REMARK INTRA:                   0.000
REMARK UNBOUND:                 0.000
REMARK SMILES CC(C)=C1CC[C@H](C)CC1=O
REMARK SMILES IDX 8 1 7 2 6 3 5 4 4 5 2 6 1 7 3 8 10 9 11 10 9 11
REMARK H PARENT
REMARK Flexibility Score: inf
ROOT
ATOM      1  C   UNL     1       9.876 -32.661 -33.300  1.00  0.00     0.008 C 
ATOM      2  C   UNL     1      10.815 -32.771 -32.094  1.00  0.00    -0.006 C 
ATOM      3  C   UNL     1      10.017 -32.731 -30.780  1.00  0.00     0.008 C 
ATOM      4  C   UNL     1      10.949 -32.737 -29.561  1.00  0.00     0.039 C 
ATOM      5  C   UNL     1      11.955 -33.880 -29.600  1.00  0.00    -0.006 C 
ATOM      6  C   UNL     1      12.406 -34.466 -28.452  1.00  0.00    -0.070 C 
ATOM      7  C   UNL     1      11.941 -33.993 -27.095  1.00  0.00     0.039 C 
ATOM      8  C   UNL     1      13.361 -35.638 -28.480  1.00  0.00     0.039 C 
ATOM      9  C   UNL     1      12.494 -34.232 -30.947  1.00  0.00     0.159 C 
ATOM     10  O   UNL     1      13.669 -34.667 -31.088  1.00  0.00    -0.295 OA
ATOM     11  C   UNL     1      11.637 -34.066 -32.168  1.00  0.00     0.084 C 
ENDROOT
TORSDOF 0
ENDMDL
MODEL 4
REMARK VINA RESULT:    -5.083      0.991      3.951
REMARK INTER + INTRA:          -5.083
REMARK INTER:                  -5.083
REMARK INTRA:                   0.000
REMARK UNBOUND:                 0.000
REMARK SMILES CC(C)=C1CC[C@H](C)CC1=O
REMARK SMILES IDX 8 1 7 2 6 3 5 4 4 5 2 6 1 7 3 8 10 9 11 10 9 11
REMARK H PARENT
REMARK Flexibility Score: inf
ROOT
ATOM      1  C   UNL     1       9.875 -31.642 -29.488  1.00  0.00     0.008 C 
ATOM      2  C   UNL     1      11.031 -32.617 -29.739  1.00  0.00    -0.006 C 
ATOM      3  C   UNL     1      11.420 -33.342 -28.441  1.00  0.00     0.008 C 
ATOM      4  C   UNL     1      12.641 -34.246 -28.651  1.00  0.00     0.039 C 
ATOM      5  C   UNL     1      12.465 -35.202 -29.824  1.00  0.00    -0.006 C 
ATOM      6  C   UNL     1      13.041 -36.440 -29.823  1.00  0.00    -0.070 C 
ATOM      7  C   UNL     1      13.893 -36.907 -28.665  1.00  0.00     0.039 C 
ATOM      8  C   UNL     1      12.828 -37.418 -30.955  1.00  0.00     0.039 C 
ATOM      9  C   UNL     1      11.732 -34.659 -31.006  1.00  0.00     0.159 C 
ATOM     10  O   UNL     1      12.009 -35.035 -32.178  1.00  0.00    -0.295 OA
ATOM     11  C   UNL     1      10.645 -33.642 -30.816  1.00  0.00     0.084 C 
ENDROOT
TORSDOF 0
ENDMDL
MODEL 5
REMARK VINA RESULT:    -5.075      1.527      2.418
REMARK INTER + INTRA:          -5.075
REMARK INTER:                  -5.075
REMARK INTRA:                   0.000
REMARK UNBOUND:                 0.000
REMARK SMILES CC(C)=C1CC[C@H](C)CC1=O
REMARK SMILES IDX 8 1 7 2 6 3 5 4 4 5 2 6 1 7 3 8 10 9 11 10 9 11
REMARK H PARENT
REMARK Flexibility Score: inf
ROOT
ATOM      1  C   UNL     1      13.998 -37.212 -28.741  1.00  0.00     0.008 C 
ATOM      2  C   UNL     1      13.593 -35.878 -29.379  1.00  0.00    -0.006 C 
ATOM      3  C   UNL     1      13.188 -36.081 -30.848  1.00  0.00     0.008 C 
ATOM      4  C   UNL     1      12.878 -34.743 -31.532  1.00  0.00     0.039 C 
ATOM      5  C   UNL     1      11.865 -33.912 -30.756  1.00  0.00    -0.006 C 
ATOM      6  C   UNL     1      10.993 -33.078 -31.396  1.00  0.00    -0.070 C 
ATOM      7  C   UNL     1      11.009 -32.932 -32.899  1.00  0.00     0.039 C 
ATOM      8  C   UNL     1       9.946 -32.291 -30.641  1.00  0.00     0.039 C 
ATOM      9  C   UNL     1      11.966 -33.979 -29.268  1.00  0.00     0.159 C 
ATOM     10  O   UNL     1      11.669 -32.988 -28.546  1.00  0.00    -0.295 OA
ATOM     11  C   UNL     1      12.434 -35.239 -28.600  1.00  0.00     0.084 C 
ENDROOT
TORSDOF 0
ENDMDL
MODEL 6
REMARK VINA RESULT:    -5.023      2.775      4.427
REMARK INTER + INTRA:          -5.023
REMARK INTER:                  -5.023
REMARK INTRA:                   0.000
REMARK UNBOUND:                 0.000
REMARK SMILES CC(C)=C1CC[C@H](C)CC1=O
REMARK SMILES IDX 8 1 7 2 6 3 5 4 4 5 2 6 1 7 3 8 10 9 11 10 9 11
REMARK H PARENT
REMARK Flexibility Score: inf
ROOT
ATOM      1  C   UNL     1      10.807 -33.579 -32.505  1.00  0.00     0.008 C 
ATOM      2  C   UNL     1      10.942 -33.166 -31.035  1.00  0.00    -0.006 C 
ATOM      3  C   UNL     1      10.356 -34.247 -30.113  1.00  0.00     0.008 C 
ATOM      4  C   UNL     1      10.390 -33.806 -28.644  1.00  0.00     0.039 C 
ATOM      5  C   UNL     1      11.775 -33.349 -28.203  1.00  0.00    -0.006 C 
ATOM      6  C   UNL     1      12.204 -33.526 -26.919  1.00  0.00    -0.070 C 
ATOM      7  C   UNL     1      11.317 -34.164 -25.876  1.00  0.00     0.039 C 
ATOM      8  C   UNL     1      13.596 -33.128 -26.484  1.00  0.00     0.039 C 
ATOM      9  C   UNL     1      12.573 -32.603 -29.220  1.00  0.00     0.159 C 
ATOM     10  O   UNL     1      13.383 -31.697 -28.882  1.00  0.00    -0.295 OA
ATOM     11  C   UNL     1      12.416 -32.917 -30.680  1.00  0.00     0.084 C 
ENDROOT
TORSDOF 0
ENDMDL
MODEL 7
REMARK VINA RESULT:    -4.895      1.767      4.444
REMARK INTER + INTRA:          -4.895
REMARK INTER:                  -4.895
REMARK INTRA:                   0.000
REMARK UNBOUND:                 0.000
REMARK SMILES CC(C)=C1CC[C@H](C)CC1=O
REMARK SMILES IDX 8 1 7 2 6 3 5 4 4 5 2 6 1 7 3 8 10 9 11 10 9 11
REMARK H PARENT
REMARK Flexibility Score: inf
ROOT
ATOM      1  C   UNL     1       9.875 -31.428 -29.590  1.00  0.00     0.008 C 
ATOM      2  C   UNL     1      10.281 -32.903 -29.499  1.00  0.00    -0.006 C 
ATOM      3  C   UNL     1      10.418 -33.514 -30.903  1.00  0.00     0.008 C 
ATOM      4  C   UNL     1      10.724 -35.016 -30.831  1.00  0.00     0.039 C 
ATOM      5  C   UNL     1      11.919 -35.326 -29.940  1.00  0.00    -0.006 C 
ATOM      6  C   UNL     1      12.741 -36.385 -30.199  1.00  0.00    -0.070 C 
ATOM      7  C   UNL     1      12.489 -37.305 -31.371  1.00  0.00     0.039 C 
ATOM      8  C   UNL     1      13.963 -36.669 -29.355  1.00  0.00     0.039 C 
ATOM      9  C   UNL     1      12.061 -34.481 -28.717  1.00  0.00     0.159 C 
ATOM     10  O   UNL     1      12.558 -34.944 -27.655  1.00  0.00    -0.295 OA
ATOM     11  C   UNL     1      11.604 -33.051 -28.733  1.00  0.00     0.084 C 
ENDROOT
TORSDOF 0
ENDMDL
MODEL 8
REMARK VINA RESULT:    -4.737      1.900      3.096
REMARK INTER + INTRA:          -4.737
REMARK INTER:                  -4.737
REMARK INTRA:                   0.000
REMARK UNBOUND:                 0.000
REMARK SMILES CC(C)=C1CC[C@H](C)CC1=O
REMARK SMILES IDX 8 1 7 2 6 3 5 4 4 5 2 6 1 7 3 8 10 9 11 10 9 11
REMARK H PARENT
REMARK Flexibility Score: inf
ROOT
ATOM      1  C   UNL     1      12.499 -37.516 -31.755  1.00  0.00     0.008 C 
ATOM      2  C   UNL     1      12.181 -36.374 -30.784  1.00  0.00    -0.006 C 
ATOM      3  C   UNL     1      12.932 -36.565 -29.456  1.00  0.00     0.008 C 
ATOM      4  C   UNL     1      12.547 -35.486 -28.436  1.00  0.00     0.039 C 
ATOM      5  C   UNL     1      12.695 -34.076 -28.993  1.00  0.00    -0.006 C 
ATOM      6  C   UNL     1      13.034 -33.028 -28.187  1.00  0.00    -0.070 C 
ATOM      7  C   UNL     1      13.259 -33.219 -26.705  1.00  0.00     0.039 C 
ATOM      8  C   UNL     1      13.239 -31.635 -28.738  1.00  0.00     0.039 C 
ATOM      9  C   UNL     1      12.335 -33.899 -30.431  1.00  0.00     0.159 C 
ATOM     10  O   UNL     1      11.839 -32.819 -30.854  1.00  0.00    -0.295 OA
ATOM     11  C   UNL     1      12.554 -35.019 -31.406  1.00  0.00     0.084 C 
ENDROOT
TORSDOF 0
ENDMDL
MODEL 9
REMARK VINA RESULT:    -4.632      1.693      4.542
REMARK INTER + INTRA:          -4.632
REMARK INTER:                  -4.632
REMARK INTRA:                   0.000
REMARK UNBOUND:                 0.000
REMARK SMILES CC(C)=C1CC[C@H](C)CC1=O
REMARK SMILES IDX 8 1 7 2 6 3 5 4 4 5 2 6 1 7 3 8 10 9 11 10 9 11
REMARK H PARENT
REMARK Flexibility Score: inf
ROOT
ATOM      1  C   UNL     1       9.875 -33.133 -33.200  1.00  0.00     0.008 C 
ATOM      2  C   UNL     1      10.248 -33.854 -31.901  1.00  0.00    -0.006 C 
ATOM      3  C   UNL     1      11.387 -34.857 -32.145  1.00  0.00     0.008 C 
ATOM      4  C   UNL     1      11.705 -35.661 -30.878  1.00  0.00     0.039 C 
ATOM      5  C   UNL     1      11.960 -34.769 -29.669  1.00  0.00    -0.006 C 
ATOM      6  C   UNL     1      12.830 -35.142 -28.685  1.00  0.00    -0.070 C 
ATOM      7  C   UNL     1      13.562 -36.462 -28.744  1.00  0.00     0.039 C 
ATOM      8  C   UNL     1      13.134 -34.241 -27.510  1.00  0.00     0.039 C 
ATOM      9  C   UNL     1      11.121 -33.538 -29.575  1.00  0.00     0.159 C 
ATOM     10  O   UNL     1      10.777 -33.063 -28.459  1.00  0.00    -0.295 OA
ATOM     11  C   UNL     1      10.664 -32.841 -30.824  1.00  0.00     0.084 C 
ENDROOT
TORSDOF 0
ENDMDL
