MODEL 1
REMARK VINA RESULT:    -4.874      0.000      0.000
REMARK INTER + INTRA:          -7.834
REMARK INTER:                  -7.011
REMARK INTRA:                  -0.823
REMARK UNBOUND:                -0.823
REMARK SMILES O=C(CO)[C@@H](O)[C@@H](O)[C@H](O)CO
REMARK SMILES IDX 7 1 9 2 11 3 12 4 10 6 5 8 2 9 1 10 3 11 4 12 6 14 8 16
REMARK H PARENT 12 5 10 7 4 13 6 15 8 17
REMARK Flexibility Score: inf
ROOT
ATOM      1  C   UNL     1      20.168  39.090  16.204  1.00  0.00     0.181 C 
ENDROOT
BRANCH   1   2
ATOM      2  C   UNL     1      20.390  40.621  16.177  1.00  0.00     0.171 C 
BRANCH   2   3
ATOM      3  C   UNL     1      19.454  41.349  17.156  1.00  0.00     0.190 C 
BRANCH   3   4
ATOM      4  O   UNL     1      18.151  41.422  16.639  1.00  0.00    -0.394 OA
ATOM      5  H   UNL     1      17.529  41.323  17.406  1.00  0.00     0.210 HD
ENDBRANCH   3   4
ENDBRANCH   2   3
BRANCH   2   6
ATOM      6  O   UNL     1      21.723  40.913  16.513  1.00  0.00    -0.388 OA
ATOM      7  H   UNL     1      22.290  40.230  16.069  1.00  0.00     0.211 HD
ENDBRANCH   2   6
ENDBRANCH   1   2
BRANCH   1   8
ATOM      8  C   UNL     1      19.527  38.564  14.888  1.00  0.00     0.214 C 
BRANCH   8   9
ATOM      9  C   UNL     1      19.287  37.066  14.873  1.00  0.00     0.189 C 
ATOM     10  O   UNL     1      20.247  36.312  14.940  1.00  0.00    -0.294 OA
BRANCH   9  11
ATOM     11  C   UNL     1      17.908  36.467  14.801  1.00  0.00     0.234 C 
BRANCH  11  12
ATOM     12  O   UNL     1      17.126  36.978  15.844  1.00  0.00    -0.388 OA
ATOM     13  H   UNL     1      16.980  36.225  16.474  1.00  0.00     0.211 HD
ENDBRANCH  11  12
ENDBRANCH   9  11
ENDBRANCH   8   9
BRANCH   8  14
ATOM     14  O   UNL     1      18.348  39.262  14.571  1.00  0.00    -0.382 OA
ATOM     15  H   UNL     1      18.471  40.214  14.816  1.00  0.00     0.211 HD
ENDBRANCH   8  14
ENDBRANCH   1   8
BRANCH   1  16
ATOM     16  O   UNL     1      21.388  38.442  16.467  1.00  0.00    -0.387 OA
ATOM     17  H   UNL     1      22.112  39.012  16.100  1.00  0.00     0.211 HD
ENDBRANCH   1  16
TORSDOF 10
ENDMDL
MODEL 2
REMARK VINA RESULT:    -4.835      1.269      4.284
REMARK INTER + INTRA:          -7.778
REMARK INTER:                  -7.241
REMARK INTRA:                  -0.537
REMARK UNBOUND:                -0.823
REMARK SMILES O=C(CO)[C@@H](O)[C@@H](O)[C@H](O)CO
REMARK SMILES IDX 7 1 9 2 11 3 12 4 10 6 5 8 2 9 1 10 3 11 4 12 6 14 8 16
REMARK H PARENT 12 5 10 7 4 13 6 15 8 17
REMARK Flexibility Score: inf
ROOT
ATOM      1  C   UNL     1      20.263  38.137  15.487  1.00  0.00     0.181 C 
ENDROOT
BRANCH   1   2
ATOM      2  C   UNL     1      19.434  36.957  14.926  1.00  0.00     0.171 C 
BRANCH   2   3
ATOM      3  C   UNL     1      19.234  37.075  13.406  1.00  0.00     0.190 C 
BRANCH   3   4
ATOM      4  O   UNL     1      18.837  38.375  13.055  1.00  0.00    -0.394 OA
ATOM      5  H   UNL     1      17.860  38.434  13.220  1.00  0.00     0.210 HD
ENDBRANCH   3   4
ENDBRANCH   2   3
BRANCH   2   6
ATOM      6  O   UNL     1      20.082  35.743  15.211  1.00  0.00    -0.388 OA
ATOM      7  H   UNL     1      20.164  35.683  16.198  1.00  0.00     0.211 HD
ENDBRANCH   2   6
ENDBRANCH   1   2
BRANCH   1   8
ATOM      8  C   UNL     1      19.373  39.198  16.195  1.00  0.00     0.214 C 
BRANCH   8   9
ATOM      9  C   UNL     1      19.648  40.625  15.759  1.00  0.00     0.189 C 
ATOM     10  O   UNL     1      19.029  41.083  14.809  1.00  0.00    -0.294 OA
BRANCH   9  11
ATOM     11  C   UNL     1      20.639  41.512  16.463  1.00  0.00     0.234 C 
BRANCH  11  12
ATOM     12  O   UNL     1      21.868  40.848  16.559  1.00  0.00    -0.388 OA
ATOM     13  H   UNL     1      22.068  40.777  17.529  1.00  0.00     0.211 HD
ENDBRANCH  11  12
ENDBRANCH   9  11
ENDBRANCH   8   9
BRANCH   8  14
ATOM     14  O   UNL     1      18.006  38.893  16.072  1.00  0.00    -0.382 OA
ATOM     15  H   UNL     1      17.481  39.649  16.439  1.00  0.00     0.211 HD
ENDBRANCH   8  14
ENDBRANCH   1   8
BRANCH   1  16
ATOM     16  O   UNL     1      21.253  37.645  16.357  1.00  0.00    -0.387 OA
ATOM     17  H   UNL     1      21.924  38.364  16.481  1.00  0.00     0.211 HD
ENDBRANCH   1  16
TORSDOF 10
ENDMDL
MODEL 3
REMARK VINA RESULT:    -4.825      1.615      4.864
REMARK INTER + INTRA:          -7.763
REMARK INTER:                  -7.235
REMARK INTRA:                  -0.529
REMARK UNBOUND:                -0.823
REMARK SMILES O=C(CO)[C@@H](O)[C@@H](O)[C@H](O)CO
REMARK SMILES IDX 7 1 9 2 11 3 12 4 10 6 5 8 2 9 1 10 3 11 4 12 6 14 8 16
REMARK H PARENT 12 5 10 7 4 13 6 15 8 17
REMARK Flexibility Score: inf
ROOT
ATOM      1  C   UNL     1      20.384  40.462  16.179  1.00  0.00     0.181 C 
ENDROOT
BRANCH   1   2
ATOM      2  C   UNL     1      20.203  38.926  16.236  1.00  0.00     0.171 C 
BRANCH   2   3
ATOM      3  C   UNL     1      19.614  38.374  14.927  1.00  0.00     0.190 C 
BRANCH   3   4
ATOM      4  O   UNL     1      19.035  39.404  14.169  1.00  0.00    -0.394 OA
ATOM      5  H   UNL     1      19.716  40.122  14.086  1.00  0.00     0.210 HD
ENDBRANCH   3   4
ENDBRANCH   2   3
BRANCH   2   6
ATOM      6  O   UNL     1      21.443  38.311  16.477  1.00  0.00    -0.388 OA
ATOM      7  H   UNL     1      21.676  37.799  15.659  1.00  0.00     0.211 HD
ENDBRANCH   2   6
ENDBRANCH   1   2
BRANCH   1   8
ATOM      8  C   UNL     1      19.368  41.209  17.090  1.00  0.00     0.214 C 
BRANCH   8   9
ATOM      9  C   UNL     1      19.771  42.633  17.427  1.00  0.00     0.189 C 
ATOM     10  O   UNL     1      20.800  42.822  18.060  1.00  0.00    -0.294 OA
BRANCH   9  11
ATOM     11  C   UNL     1      18.965  43.827  16.994  1.00  0.00     0.234 C 
BRANCH  11  12
ATOM     12  O   UNL     1      19.794  44.956  16.956  1.00  0.00    -0.388 OA
ATOM     13  H   UNL     1      19.457  45.520  16.213  1.00  0.00     0.211 HD
ENDBRANCH  11  12
ENDBRANCH   9  11
ENDBRANCH   8   9
BRANCH   8  14
ATOM     14  O   UNL     1      18.068  41.172  16.555  1.00  0.00    -0.382 OA
ATOM     15  H   UNL     1      17.501  40.613  17.145  1.00  0.00     0.211 HD
ENDBRANCH   8  14
ENDBRANCH   1   8
BRANCH   1  16
ATOM     16  O   UNL     1      21.708  40.793  16.520  1.00  0.00    -0.387 OA
ATOM     17  H   UNL     1      21.982  40.192  17.260  1.00  0.00     0.211 HD
ENDBRANCH   1  16
TORSDOF 10
ENDMDL
MODEL 4
REMARK VINA RESULT:    -4.784      1.208      2.117
REMARK INTER + INTRA:          -7.704
REMARK INTER:                  -6.546
REMARK INTRA:                  -1.158
REMARK UNBOUND:                -0.823
REMARK SMILES O=C(CO)[C@@H](O)[C@@H](O)[C@H](O)CO
REMARK SMILES IDX 7 1 9 2 11 3 12 4 10 6 5 8 2 9 1 10 3 11 4 12 6 14 8 16
REMARK H PARENT 12 5 10 7 4 13 6 15 8 17
REMARK Flexibility Score: inf
ROOT
ATOM      1  C   UNL     1      19.195  39.236  16.319  1.00  0.00     0.181 C 
ENDROOT
BRANCH   1   2
ATOM      2  C   UNL     1      19.005  40.763  16.158  1.00  0.00     0.171 C 
BRANCH   2   3
ATOM      3  C   UNL     1      20.003  41.554  17.020  1.00  0.00     0.190 C 
BRANCH   3   4
ATOM      4  O   UNL     1      21.302  41.453  16.497  1.00  0.00    -0.394 OA
ATOM      5  H   UNL     1      21.679  40.593  16.819  1.00  0.00     0.210 HD
ENDBRANCH   3   4
ENDBRANCH   2   3
BRANCH   2   6
ATOM      6  O   UNL     1      19.178  41.123  14.810  1.00  0.00    -0.388 OA
ATOM      7  H   UNL     1      18.569  41.886  14.634  1.00  0.00     0.211 HD
ENDBRANCH   2   6
ENDBRANCH   1   2
BRANCH   1   8
ATOM      8  C   UNL     1      18.200  38.423  15.443  1.00  0.00     0.214 C 
BRANCH   8   9
ATOM      9  C   UNL     1      18.832  37.786  14.219  1.00  0.00     0.189 C 
ATOM     10  O   UNL     1      19.139  38.497  13.274  1.00  0.00    -0.294 OA
BRANCH   9  11
ATOM     11  C   UNL     1      19.119  36.312  14.130  1.00  0.00     0.234 C 
BRANCH  11  12
ATOM     12  O   UNL     1      19.939  35.933  15.201  1.00  0.00    -0.388 OA
ATOM     13  H   UNL     1      20.838  35.766  14.814  1.00  0.00     0.211 HD
ENDBRANCH  11  12
ENDBRANCH   9  11
ENDBRANCH   8   9
BRANCH   8  14
ATOM     14  O   UNL     1      17.506  37.464  16.202  1.00  0.00    -0.382 OA
ATOM     15  H   UNL     1      18.168  36.876  16.646  1.00  0.00     0.211 HD
ENDBRANCH   8  14
ENDBRANCH   1   8
BRANCH   1  16
ATOM     16  O   UNL     1      20.527  38.893  16.024  1.00  0.00    -0.387 OA
ATOM     17  H   UNL     1      20.731  38.051  16.507  1.00  0.00     0.211 HD
ENDBRANCH   1  16
TORSDOF 10
ENDMDL
MODEL 5
REMARK VINA RESULT:    -4.765      0.934      2.190
REMARK INTER + INTRA:          -7.676
REMARK INTER:                  -6.685
REMARK INTRA:                  -0.991
REMARK UNBOUND:                -0.823
REMARK SMILES O=C(CO)[C@@H](O)[C@@H](O)[C@H](O)CO
REMARK SMILES IDX 7 1 9 2 11 3 12 4 10 6 5 8 2 9 1 10 3 11 4 12 6 14 8 16
REMARK H PARENT 12 5 10 7 4 13 6 15 8 17
REMARK Flexibility Score: inf
ROOT
ATOM      1  C   UNL     1      19.810  40.234  15.429  1.00  0.00     0.181 C 
ENDROOT
BRANCH   1   2
ATOM      2  C   UNL     1      20.468  41.387  16.225  1.00  0.00     0.171 C 
BRANCH   2   3
ATOM      3  C   UNL     1      19.648  41.757  17.472  1.00  0.00     0.190 C 
BRANCH   3   4
ATOM      4  O   UNL     1      18.618  42.653  17.143  1.00  0.00    -0.394 OA
ATOM      5  H   UNL     1      19.046  43.445  16.724  1.00  0.00     0.210 HD
ENDBRANCH   3   4
ENDBRANCH   2   3
BRANCH   2   6
ATOM      6  O   UNL     1      21.762  41.011  16.622  1.00  0.00    -0.388 OA
ATOM      7  H   UNL     1      21.736  40.876  17.605  1.00  0.00     0.211 HD
ENDBRANCH   2   6
ENDBRANCH   1   2
BRANCH   1   8
ATOM      8  C   UNL     1      19.840  38.888  16.208  1.00  0.00     0.214 C 
BRANCH   8   9
ATOM      9  C   UNL     1      18.906  37.831  15.651  1.00  0.00     0.189 C 
ATOM     10  O   UNL     1      17.741  37.816  16.020  1.00  0.00    -0.294 OA
BRANCH   9  11
ATOM     11  C   UNL     1      19.350  36.808  14.641  1.00  0.00     0.234 C 
BRANCH  11  12
ATOM     12  O   UNL     1      20.163  35.857  15.271  1.00  0.00    -0.388 OA
ATOM     13  H   UNL     1      21.062  35.947  14.859  1.00  0.00     0.211 HD
ENDBRANCH  11  12
ENDBRANCH   9  11
ENDBRANCH   8   9
BRANCH   8  14
ATOM     14  O   UNL     1      21.149  38.387  16.324  1.00  0.00    -0.382 OA
ATOM     15  H   UNL     1      21.124  37.570  16.885  1.00  0.00     0.211 HD
ENDBRANCH   8  14
ENDBRANCH   1   8
BRANCH   1  16
ATOM     16  O   UNL     1      18.493  40.591  15.087  1.00  0.00    -0.387 OA
ATOM     17  H   UNL     1      18.543  41.187  14.296  1.00  0.00     0.211 HD
ENDBRANCH   1  16
TORSDOF 10
ENDMDL
MODEL 6
REMARK VINA RESULT:    -4.733      2.037      3.649
REMARK INTER + INTRA:          -7.631
REMARK INTER:                  -6.644
REMARK INTRA:                  -0.988
REMARK UNBOUND:                -0.823
REMARK SMILES O=C(CO)[C@@H](O)[C@@H](O)[C@H](O)CO
REMARK SMILES IDX 7 1 9 2 11 3 12 4 10 6 5 8 2 9 1 10 3 11 4 12 6 14 8 16
REMARK H PARENT 12 5 10 7 4 13 6 15 8 17
REMARK Flexibility Score: inf
ROOT
ATOM      1  C   UNL     1      19.018  42.203  16.365  1.00  0.00     0.181 C 
ENDROOT
BRANCH   1   2
ATOM      2  C   UNL     1      19.115  43.371  17.375  1.00  0.00     0.171 C 
BRANCH   2   3
ATOM      3  C   UNL     1      19.190  42.864  18.825  1.00  0.00     0.190 C 
BRANCH   3   4
ATOM      4  O   UNL     1      18.005  42.202  19.183  1.00  0.00    -0.394 OA
ATOM      5  H   UNL     1      18.253  41.497  19.836  1.00  0.00     0.210 HD
ENDBRANCH   3   4
ENDBRANCH   2   3
BRANCH   2   6
ATOM      6  O   UNL     1      20.255  44.144  17.099  1.00  0.00    -0.388 OA
ATOM      7  H   UNL     1      20.044  44.700  16.304  1.00  0.00     0.211 HD
ENDBRANCH   2   6
ENDBRANCH   1   2
BRANCH   1   8
ATOM      8  C   UNL     1      20.073  41.094  16.644  1.00  0.00     0.214 C 
BRANCH   8   9
ATOM      9  C   UNL     1      19.882  39.837  15.817  1.00  0.00     0.189 C 
ATOM     10  O   UNL     1      19.246  39.904  14.776  1.00  0.00    -0.294 OA
BRANCH   9  11
ATOM     11  C   UNL     1      20.464  38.507  16.216  1.00  0.00     0.234 C 
BRANCH  11  12
ATOM     12  O   UNL     1      21.781  38.692  16.657  1.00  0.00    -0.388 OA
ATOM     13  H   UNL     1      21.791  38.426  17.613  1.00  0.00     0.211 HD
ENDBRANCH  11  12
ENDBRANCH   9  11
ENDBRANCH   8   9
BRANCH   8  14
ATOM     14  O   UNL     1      21.386  41.583  16.512  1.00  0.00    -0.382 OA
ATOM     15  H   UNL     1      22.013  40.889  16.837  1.00  0.00     0.211 HD
ENDBRANCH   8  14
ENDBRANCH   1   8
BRANCH   1  16
ATOM     16  O   UNL     1      17.714  41.675  16.378  1.00  0.00    -0.387 OA
ATOM     17  H   UNL     1      17.368  41.717  15.450  1.00  0.00     0.211 HD
ENDBRANCH   1  16
TORSDOF 10
ENDMDL
MODEL 7
REMARK VINA RESULT:    -4.645      1.883      5.261
REMARK INTER + INTRA:          -7.504
REMARK INTER:                  -6.789
REMARK INTRA:                  -0.715
REMARK UNBOUND:                -0.823
REMARK SMILES O=C(CO)[C@@H](O)[C@@H](O)[C@H](O)CO
REMARK SMILES IDX 7 1 9 2 11 3 12 4 10 6 5 8 2 9 1 10 3 11 4 12 6 14 8 16
REMARK H PARENT 12 5 10 7 4 13 6 15 8 17
REMARK Flexibility Score: inf
ROOT
ATOM      1  C   UNL     1      19.103  40.445  16.516  1.00  0.00     0.181 C 
ENDROOT
BRANCH   1   2
ATOM      2  C   UNL     1      19.834  39.537  15.498  1.00  0.00     0.171 C 
BRANCH   2   3
ATOM      3  C   UNL     1      20.483  38.323  16.182  1.00  0.00     0.190 C 
BRANCH   3   4
ATOM      4  O   UNL     1      21.757  38.650  16.673  1.00  0.00    -0.394 OA
ATOM      5  H   UNL     1      22.009  37.941  17.320  1.00  0.00     0.210 HD
ENDBRANCH   3   4
ENDBRANCH   2   3
BRANCH   2   6
ATOM      6  O   UNL     1      18.924  39.085  14.527  1.00  0.00    -0.388 OA
ATOM      7  H   UNL     1      18.274  38.496  14.991  1.00  0.00     0.211 HD
ENDBRANCH   2   6
ENDBRANCH   1   2
BRANCH   1   8
ATOM      8  C   UNL     1      19.844  41.794  16.741  1.00  0.00     0.214 C 
BRANCH   8   9
ATOM      9  C   UNL     1      19.383  42.555  17.970  1.00  0.00     0.189 C 
ATOM     10  O   UNL     1      18.684  41.982  18.793  1.00  0.00    -0.294 OA
BRANCH   9  11
ATOM     11  C   UNL     1      19.771  43.985  18.231  1.00  0.00     0.234 C 
BRANCH  11  12
ATOM     12  O   UNL     1      20.170  44.583  17.029  1.00  0.00    -0.388 OA
ATOM     13  H   UNL     1      20.629  43.875  16.508  1.00  0.00     0.211 HD
ENDBRANCH  11  12
ENDBRANCH   9  11
ENDBRANCH   8   9
BRANCH   8  14
ATOM     14  O   UNL     1      21.240  41.622  16.755  1.00  0.00    -0.382 OA
ATOM     15  H   UNL     1      21.654  42.446  17.119  1.00  0.00     0.211 HD
ENDBRANCH   8  14
ENDBRANCH   1   8
BRANCH   1  16
ATOM     16  O   UNL     1      17.780  40.659  16.090  1.00  0.00    -0.387 OA
ATOM     17  H   UNL     1      17.324  39.778  16.084  1.00  0.00     0.211 HD
ENDBRANCH   1  16
TORSDOF 10
ENDMDL
MODEL 8
REMARK VINA RESULT:    -4.606      1.493      4.466
REMARK INTER + INTRA:          -7.449
REMARK INTER:                  -6.675
REMARK INTRA:                  -0.774
REMARK UNBOUND:                -0.823
REMARK SMILES O=C(CO)[C@@H](O)[C@@H](O)[C@H](O)CO
REMARK SMILES IDX 7 1 9 2 11 3 12 4 10 6 5 8 2 9 1 10 3 11 4 12 6 14 8 16
REMARK H PARENT 12 5 10 7 4 13 6 15 8 17
REMARK Flexibility Score: inf
ROOT
ATOM      1  C   UNL     1      18.543  39.109  15.801  1.00  0.00     0.181 C 
ENDROOT
BRANCH   1   2
ATOM      2  C   UNL     1      19.566  38.462  14.837  1.00  0.00     0.171 C 
BRANCH   2   3
ATOM      3  C   UNL     1      20.507  37.493  15.572  1.00  0.00     0.190 C 
BRANCH   3   4
ATOM      4  O   UNL     1      21.355  38.190  16.447  1.00  0.00    -0.394 OA
ATOM      5  H   UNL     1      21.790  37.514  17.030  1.00  0.00     0.210 HD
ENDBRANCH   3   4
ENDBRANCH   2   3
BRANCH   2   6
ATOM      6  O   UNL     1      18.887  37.763  13.824  1.00  0.00    -0.388 OA
ATOM      7  H   UNL     1      18.150  38.349  13.512  1.00  0.00     0.211 HD
ENDBRANCH   2   6
ENDBRANCH   1   2
BRANCH   1   8
ATOM      8  C   UNL     1      18.595  40.663  15.758  1.00  0.00     0.214 C 
BRANCH   8   9
ATOM      9  C   UNL     1      19.288  41.292  16.953  1.00  0.00     0.189 C 
ATOM     10  O   UNL     1      18.743  41.242  18.046  1.00  0.00    -0.294 OA
BRANCH   9  11
ATOM     11  C   UNL     1      20.633  41.957  16.851  1.00  0.00     0.234 C 
BRANCH  11  12
ATOM     12  O   UNL     1      21.582  41.020  16.422  1.00  0.00    -0.388 OA
ATOM     13  H   UNL     1      21.966  40.621  17.246  1.00  0.00     0.211 HD
ENDBRANCH  11  12
ENDBRANCH   9  11
ENDBRANCH   8   9
BRANCH   8  14
ATOM     14  O   UNL     1      19.153  41.130  14.555  1.00  0.00    -0.382 OA
ATOM     15  H   UNL     1      19.275  42.110  14.625  1.00  0.00     0.211 HD
ENDBRANCH   8  14
ENDBRANCH   1   8
BRANCH   1  16
ATOM     16  O   UNL     1      17.252  38.637  15.503  1.00  0.00    -0.387 OA
ATOM     17  H   UNL     1      17.316  37.654  15.382  1.00  0.00     0.211 HD
ENDBRANCH   1  16
TORSDOF 10
ENDMDL
MODEL 9
REMARK VINA RESULT:    -4.583      1.303      4.537
REMARK INTER + INTRA:          -7.416
REMARK INTER:                  -6.534
REMARK INTRA:                  -0.882
REMARK UNBOUND:                -0.823
REMARK SMILES O=C(CO)[C@@H](O)[C@@H](O)[C@H](O)CO
REMARK SMILES IDX 7 1 9 2 11 3 12 4 10 6 5 8 2 9 1 10 3 11 4 12 6 14 8 16
REMARK H PARENT 12 5 10 7 4 13 6 15 8 17
REMARK Flexibility Score: inf
ROOT
ATOM      1  C   UNL     1      19.868  39.116  16.181  1.00  0.00     0.181 C 
ENDROOT
BRANCH   1   2
ATOM      2  C   UNL     1      19.747  38.277  14.887  1.00  0.00     0.171 C 
BRANCH   2   3
ATOM      3  C   UNL     1      19.027  36.942  15.140  1.00  0.00     0.190 C 
BRANCH   3   4
ATOM      4  O   UNL     1      19.946  35.882  15.190  1.00  0.00    -0.394 OA
ATOM      5  H   UNL     1      19.839  35.446  16.075  1.00  0.00     0.210 HD
ENDBRANCH   3   4
ENDBRANCH   2   3
BRANCH   2   6
ATOM      6  O   UNL     1      19.038  39.004  13.915  1.00  0.00    -0.388 OA
ATOM      7  H   UNL     1      18.554  39.727  14.390  1.00  0.00     0.211 HD
ENDBRANCH   2   6
ENDBRANCH   1   2
BRANCH   1   8
ATOM      8  C   UNL     1      20.261  40.593  15.891  1.00  0.00     0.214 C 
BRANCH   8   9
ATOM      9  C   UNL     1      19.151  41.592  16.160  1.00  0.00     0.189 C 
ATOM     10  O   UNL     1      18.219  41.667  15.373  1.00  0.00    -0.294 OA
BRANCH   9  11
ATOM     11  C   UNL     1      19.138  42.482  17.373  1.00  0.00     0.234 C 
BRANCH  11  12
ATOM     12  O   UNL     1      18.872  41.711  18.512  1.00  0.00    -0.388 OA
ATOM     13  H   UNL     1      18.860  40.766  18.208  1.00  0.00     0.211 HD
ENDBRANCH  11  12
ENDBRANCH   9  11
ENDBRANCH   8   9
BRANCH   8  14
ATOM     14  O   UNL     1      21.437  40.959  16.571  1.00  0.00    -0.382 OA
ATOM     15  H   UNL     1      21.733  41.842  16.232  1.00  0.00     0.211 HD
ENDBRANCH   8  14
ENDBRANCH   1   8
BRANCH   1  16
ATOM     16  O   UNL     1      18.662  39.045  16.902  1.00  0.00    -0.387 OA
ATOM     17  H   UNL     1      18.510  39.935  17.314  1.00  0.00     0.211 HD
ENDBRANCH   1  16
TORSDOF 10
ENDMDL
