MODEL 1
REMARK VINA RESULT:    -2.398      0.000      0.000
REMARK INTER + INTRA:          -2.398
REMARK INTER:                  -2.398
REMARK INTRA:                   0.000
REMARK UNBOUND:                 0.000
REMARK SMILES CC(=O)[O-]
REMARK SMILES IDX 1 1 2 2 3 3 4 4
REMARK H PARENT
REMARK Flexibility Score: inf
ROOT
ATOM      1  C   UNL     1      63.577 -27.441  -1.959  1.00  0.00     0.063 C 
ATOM      2  C   UNL     1      62.902 -28.446  -1.088  1.00  0.00     0.038 C 
ATOM      3  O   UNL     1      63.515 -28.948  -0.110  1.00  0.00    -0.550 OA
ATOM      4  O   UNL     1      61.577 -28.791  -1.322  1.00  0.00    -0.550 OA
ENDROOT
TORSDOF 0
ENDMDL
MODEL 2
REMARK VINA RESULT:    -2.366      1.517      1.922
REMARK INTER + INTRA:          -2.366
REMARK INTER:                  -2.366
REMARK INTRA:                   0.000
REMARK UNBOUND:                 0.000
REMARK SMILES CC(=O)[O-]
REMARK SMILES IDX 1 1 2 2 3 3 4 4
REMARK H PARENT
REMARK Flexibility Score: inf
ROOT
ATOM      1  C   UNL     1      61.732 -27.940  -1.940  1.00  0.00     0.063 C 
ATOM      2  C   UNL     1      63.130 -27.995  -1.425  1.00  0.00     0.038 C 
ATOM      3  O   UNL     1      63.993 -27.184  -1.851  1.00  0.00    -0.550 OA
ATOM      4  O   UNL     1      63.471 -28.906  -0.433  1.00  0.00    -0.550 OA
ENDROOT
TORSDOF 0
ENDMDL
MODEL 3
REMARK VINA RESULT:    -2.365      0.163      1.623
REMARK INTER + INTRA:          -2.365
REMARK INTER:                  -2.365
REMARK INTRA:                   0.000
REMARK UNBOUND:                 0.000
REMARK SMILES CC(=O)[O-]
REMARK SMILES IDX 1 1 2 2 3 3 4 4
REMARK H PARENT
REMARK Flexibility Score: inf
ROOT
ATOM      1  C   UNL     1      63.605 -27.347  -2.030  1.00  0.00     0.063 C 
ATOM      2  C   UNL     1      62.853 -28.323  -1.191  1.00  0.00     0.038 C 
ATOM      3  O   UNL     1      61.659 -28.607  -1.469  1.00  0.00    -0.550 OA
ATOM      4  O   UNL     1      63.486 -28.962  -0.132  1.00  0.00    -0.550 OA
ENDROOT
TORSDOF 0
ENDMDL
MODEL 4
REMARK VINA RESULT:    -2.353      2.093      2.234
REMARK INTER + INTRA:          -2.353
REMARK INTER:                  -2.353
REMARK INTRA:                   0.000
REMARK UNBOUND:                 0.000
REMARK SMILES CC(=O)[O-]
REMARK SMILES IDX 1 1 2 2 3 3 4 4
REMARK H PARENT
REMARK Flexibility Score: inf
ROOT
ATOM      1  C   UNL     1      61.588 -27.735  -2.042  1.00  0.00     0.063 C 
ATOM      2  C   UNL     1      63.069 -27.647  -2.193  1.00  0.00     0.038 C 
ATOM      3  O   UNL     1      63.816 -28.453  -1.580  1.00  0.00    -0.550 OA
ATOM      4  O   UNL     1      63.625 -26.708  -3.053  1.00  0.00    -0.550 OA
ENDROOT
TORSDOF 0
ENDMDL
MODEL 5
REMARK VINA RESULT:    -2.332      2.220      2.821
REMARK INTER + INTRA:          -2.332
REMARK INTER:                  -2.332
REMARK INTRA:                   0.000
REMARK UNBOUND:                 0.000
REMARK SMILES CC(=O)[O-]
REMARK SMILES IDX 1 1 2 2 3 3 4 4
REMARK H PARENT
REMARK Flexibility Score: inf
ROOT
ATOM      1  C   UNL     1      63.590 -27.742  -1.779  1.00  0.00     0.063 C 
ATOM      2  C   UNL     1      62.556 -26.866  -2.400  1.00  0.00     0.038 C 
ATOM      3  O   UNL     1      61.360 -27.250  -2.468  1.00  0.00    -0.550 OA
ATOM      4  O   UNL     1      62.900 -25.599  -2.856  1.00  0.00    -0.550 OA
ENDROOT
TORSDOF 0
ENDMDL
MODEL 6
REMARK VINA RESULT:    -2.331      2.349      2.672
REMARK INTER + INTRA:          -2.331
REMARK INTER:                  -2.331
REMARK INTRA:                   0.000
REMARK UNBOUND:                 0.000
REMARK SMILES CC(=O)[O-]
REMARK SMILES IDX 1 1 2 2 3 3 4 4
REMARK H PARENT
REMARK Flexibility Score: inf
ROOT
ATOM      1  C   UNL     1      63.577 -27.894  -1.630  1.00  0.00     0.063 C 
ATOM      2  C   UNL     1      62.946 -26.873  -2.514  1.00  0.00     0.038 C 
ATOM      3  O   UNL     1      63.639 -26.262  -3.369  1.00  0.00    -0.550 OA
ATOM      4  O   UNL     1      61.580 -26.632  -2.433  1.00  0.00    -0.550 OA
ENDROOT
TORSDOF 0
ENDMDL
MODEL 7
REMARK VINA RESULT:    -2.312      2.334      2.728
REMARK INTER + INTRA:          -2.312
REMARK INTER:                  -2.312
REMARK INTRA:                   0.000
REMARK UNBOUND:                 0.000
REMARK SMILES CC(=O)[O-]
REMARK SMILES IDX 1 1 2 2 3 3 4 4
REMARK H PARENT
REMARK Flexibility Score: inf
ROOT
ATOM      1  C   UNL     1      61.566 -27.074  -2.393  1.00  0.00     0.063 C 
ATOM      2  C   UNL     1      63.056 -27.097  -2.395  1.00  0.00     0.038 C 
ATOM      3  O   UNL     1      63.698 -26.420  -3.239  1.00  0.00    -0.550 OA
ATOM      4  O   UNL     1      63.741 -27.824  -1.430  1.00  0.00    -0.550 OA
ENDROOT
TORSDOF 0
ENDMDL
MODEL 8
REMARK VINA RESULT:    -2.267      9.574     10.036
REMARK INTER + INTRA:          -2.267
REMARK INTER:                  -2.267
REMARK INTRA:                   0.000
REMARK UNBOUND:                 0.000
REMARK SMILES CC(=O)[O-]
REMARK SMILES IDX 1 1 2 2 3 3 4 4
REMARK H PARENT
REMARK Flexibility Score: inf
ROOT
ATOM      1  C   UNL     1      65.098 -34.678   7.013  1.00  0.00     0.063 C 
ATOM      2  C   UNL     1      65.232 -33.193   7.038  1.00  0.00     0.038 C 
ATOM      3  O   UNL     1      64.206 -32.466   7.090  1.00  0.00    -0.550 OA
ATOM      4  O   UNL     1      66.493 -32.609   7.058  1.00  0.00    -0.550 OA
ENDROOT
TORSDOF 0
ENDMDL
MODEL 9
REMARK VINA RESULT:    -2.135      1.484      1.803
REMARK INTER + INTRA:          -2.135
REMARK INTER:                  -2.135
REMARK INTRA:                   0.000
REMARK UNBOUND:                 0.000
REMARK SMILES CC(=O)[O-]
REMARK SMILES IDX 1 1 2 2 3 3 4 4
REMARK H PARENT
REMARK Flexibility Score: inf
ROOT
ATOM      1  C   UNL     1      61.123 -28.096  -1.878  1.00  0.00     0.063 C 
ATOM      2  C   UNL     1      62.282 -28.591  -1.082  1.00  0.00     0.038 C 
ATOM      3  O   UNL     1      62.099 -29.090   0.058  1.00  0.00    -0.550 OA
ATOM      4  O   UNL     1      63.563 -28.553  -1.621  1.00  0.00    -0.550 OA
ENDROOT
TORSDOF 0
ENDMDL
