MODEL 1
REMARK VINA RESULT:    -3.755      0.000      0.000
REMARK INTER + INTRA:          -4.381
REMARK INTER:                  -4.304
REMARK INTRA:                  -0.078
REMARK UNBOUND:                -0.078
REMARK SMILES COc1cc(C(=O)[O-])ccc1O
REMARK SMILES IDX 5 1 9 2 4 3 10 4 3 5 11 6 6 7 7 8 8 9 2 10 1 11 12 12
REMARK H PARENT 12 13
REMARK Flexibility Score: inf
ROOT
ATOM      1  C   UNL     1      24.091   1.706  10.321  1.00  0.00     0.001 A 
ATOM      2  C   UNL     1      23.994   2.073  11.672  1.00  0.00     0.014 A 
ATOM      3  C   UNL     1      25.187   0.932   9.899  1.00  0.00     0.060 A 
ATOM      4  C   UNL     1      24.973   1.675  12.585  1.00  0.00     0.051 A 
ATOM      5  C   UNL     1      26.179   0.529  10.817  1.00  0.00     0.161 A 
ATOM      6  C   UNL     1      26.063   0.907  12.166  1.00  0.00     0.157 A 
ENDROOT
BRANCH   1   7
ATOM      7  C   UNL     1      23.055   2.126   9.351  1.00  0.00     0.072 C 
ATOM      8  O   UNL     1      22.191   1.305   8.942  1.00  0.00    -0.545 OA
ATOM      9  O   UNL     1      23.021   3.433   8.875  1.00  0.00    -0.545 OA
ENDBRANCH   1   7
BRANCH   5  10
ATOM     10  O   UNL     1      27.284  -0.243  10.424  1.00  0.00    -0.493 OA
ATOM     11  C   UNL     1      27.980  -0.093   9.192  1.00  0.00     0.278 C 
ENDBRANCH   5  10
BRANCH   6  12
ATOM     12  O   UNL     1      27.021   0.530  13.107  1.00  0.00    -0.504 OA
ATOM     13  H   UNL     1      27.423   1.189  13.761  1.00  0.00     0.293 HD
ENDBRANCH   6  12
TORSDOF 3
ENDMDL
MODEL 2
REMARK VINA RESULT:    -3.642      2.399      3.689
REMARK INTER + INTRA:          -4.252
REMARK INTER:                  -4.174
REMARK INTRA:                  -0.078
REMARK UNBOUND:                -0.078
REMARK SMILES COc1cc(C(=O)[O-])ccc1O
REMARK SMILES IDX 5 1 9 2 4 3 10 4 3 5 11 6 6 7 7 8 8 9 2 10 1 11 12 12
REMARK H PARENT 12 13
REMARK Flexibility Score: inf
ROOT
ATOM      1  C   UNL     1      25.228   0.279  11.970  1.00  0.00     0.001 A 
ATOM      2  C   UNL     1      26.090  -0.830  11.988  1.00  0.00     0.014 A 
ATOM      3  C   UNL     1      25.380   1.246  10.959  1.00  0.00     0.060 A 
ATOM      4  C   UNL     1      27.085  -0.968  11.018  1.00  0.00     0.051 A 
ATOM      5  C   UNL     1      26.383   1.110   9.978  1.00  0.00     0.161 A 
ATOM      6  C   UNL     1      27.235  -0.007  10.015  1.00  0.00     0.157 A 
ENDROOT
BRANCH   1   7
ATOM      7  C   UNL     1      24.173   0.429  12.996  1.00  0.00     0.072 C 
ATOM      8  O   UNL     1      23.889   1.565  13.461  1.00  0.00    -0.545 OA
ATOM      9  O   UNL     1      23.479  -0.683  13.463  1.00  0.00    -0.545 OA
ENDBRANCH   1   7
BRANCH   5  10
ATOM     10  O   UNL     1      26.558   2.060   8.958  1.00  0.00    -0.493 OA
ATOM     11  C   UNL     1      26.023   3.379   8.981  1.00  0.00     0.278 C 
ENDBRANCH   5  10
BRANCH   6  12
ATOM     12  O   UNL     1      28.241  -0.180   9.064  1.00  0.00    -0.504 OA
ATOM     13  H   UNL     1      28.731  -1.059   8.952  1.00  0.00     0.293 HD
ENDBRANCH   6  12
TORSDOF 3
ENDMDL
MODEL 3
REMARK VINA RESULT:    -3.587     11.885     13.985
REMARK INTER + INTRA:          -4.189
REMARK INTER:                  -4.088
REMARK INTRA:                  -0.101
REMARK UNBOUND:                -0.078
REMARK SMILES COc1cc(C(=O)[O-])ccc1O
REMARK SMILES IDX 5 1 9 2 4 3 10 4 3 5 11 6 6 7 7 8 8 9 2 10 1 11 12 12
REMARK H PARENT 12 13
REMARK Flexibility Score: inf
ROOT
ATOM      1  C   UNL     1      26.534   2.404  23.114  1.00  0.00     0.001 A 
ATOM      2  C   UNL     1      26.771   3.624  22.459  1.00  0.00     0.014 A 
ATOM      3  C   UNL     1      27.100   2.188  24.383  1.00  0.00     0.060 A 
ATOM      4  C   UNL     1      27.559   4.606  23.060  1.00  0.00     0.051 A 
ATOM      5  C   UNL     1      27.898   3.178  24.994  1.00  0.00     0.161 A 
ATOM      6  C   UNL     1      28.123   4.391  24.321  1.00  0.00     0.157 A 
ENDROOT
BRANCH   1   7
ATOM      7  C   UNL     1      25.698   1.360  22.481  1.00  0.00     0.072 C 
ATOM      8  O   UNL     1      24.744   1.676  21.721  1.00  0.00    -0.545 OA
ATOM      9  O   UNL     1      25.955   0.013  22.715  1.00  0.00    -0.545 OA
ENDBRANCH   1   7
BRANCH   5  10
ATOM     10  O   UNL     1      28.476   2.990  26.259  1.00  0.00    -0.493 OA
ATOM     11  C   UNL     1      27.769   3.066  27.493  1.00  0.00     0.278 C 
ENDBRANCH   5  10
BRANCH   6  12
ATOM     12  O   UNL     1      28.905   5.397  24.888  1.00  0.00    -0.504 OA
ATOM     13  H   UNL     1      29.905   5.299  25.009  1.00  0.00     0.293 HD
ENDBRANCH   6  12
TORSDOF 3
ENDMDL
MODEL 4
REMARK VINA RESULT:    -3.475      1.374      2.675
REMARK INTER + INTRA:          -4.061
REMARK INTER:                  -3.981
REMARK INTRA:                  -0.080
REMARK UNBOUND:                -0.078
REMARK SMILES COc1cc(C(=O)[O-])ccc1O
REMARK SMILES IDX 5 1 9 2 4 3 10 4 3 5 11 6 6 7 7 8 8 9 2 10 1 11 12 12
REMARK H PARENT 12 13
REMARK Flexibility Score: inf
ROOT
ATOM      1  C   UNL     1      24.277   1.679   9.859  1.00  0.00     0.001 A 
ATOM      2  C   UNL     1      25.566   1.663   9.302  1.00  0.00     0.014 A 
ATOM      3  C   UNL     1      24.047   1.004  11.071  1.00  0.00     0.060 A 
ATOM      4  C   UNL     1      26.604   0.983   9.942  1.00  0.00     0.051 A 
ATOM      5  C   UNL     1      25.093   0.315  11.722  1.00  0.00     0.161 A 
ATOM      6  C   UNL     1      26.375   0.311  11.146  1.00  0.00     0.157 A 
ENDROOT
BRANCH   1   7
ATOM      7  C   UNL     1      23.175   2.399   9.184  1.00  0.00     0.072 C 
ATOM      8  O   UNL     1      23.295   3.615   8.879  1.00  0.00    -0.545 OA
ATOM      9  O   UNL     1      21.988   1.742   8.876  1.00  0.00    -0.545 OA
ENDBRANCH   1   7
BRANCH   5  10
ATOM     10  O   UNL     1      24.892  -0.368  12.932  1.00  0.00    -0.493 OA
ATOM     11  C   UNL     1      23.729  -1.124  13.251  1.00  0.00     0.278 C 
ENDBRANCH   5  10
BRANCH   6  12
ATOM     12  O   UNL     1      27.437  -0.357  11.756  1.00  0.00    -0.504 OA
ATOM     13  H   UNL     1      27.486  -0.491  12.758  1.00  0.00     0.293 HD
ENDBRANCH   6  12
TORSDOF 3
ENDMDL
MODEL 5
REMARK VINA RESULT:    -2.934      2.478      2.862
REMARK INTER + INTRA:          -3.441
REMARK INTER:                  -3.360
REMARK INTRA:                  -0.081
REMARK UNBOUND:                -0.078
REMARK SMILES COc1cc(C(=O)[O-])ccc1O
REMARK SMILES IDX 5 1 9 2 4 3 10 4 3 5 11 6 6 7 7 8 8 9 2 10 1 11 12 12
REMARK H PARENT 12 13
REMARK Flexibility Score: inf
ROOT
ATOM      1  C   UNL     1      23.923   1.114   9.018  1.00  0.00     0.001 A 
ATOM      2  C   UNL     1      23.719   2.503   9.000  1.00  0.00     0.014 A 
ATOM      3  C   UNL     1      25.238   0.616   8.990  1.00  0.00     0.060 A 
ATOM      4  C   UNL     1      24.808   3.377   8.952  1.00  0.00     0.051 A 
ATOM      5  C   UNL     1      26.340   1.494   8.941  1.00  0.00     0.161 A 
ATOM      6  C   UNL     1      26.114   2.881   8.923  1.00  0.00     0.157 A 
ENDROOT
BRANCH   1   7
ATOM      7  C   UNL     1      22.772   0.186   9.069  1.00  0.00     0.072 C 
ATOM      8  O   UNL     1      22.949  -1.042   9.287  1.00  0.00    -0.545 OA
ATOM      9  O   UNL     1      21.477   0.656   8.876  1.00  0.00    -0.545 OA
ENDBRANCH   1   7
BRANCH   5  10
ATOM     10  O   UNL     1      27.663   1.024   8.911  1.00  0.00    -0.493 OA
ATOM     11  C   UNL     1      28.062  -0.296   9.266  1.00  0.00     0.278 C 
ENDBRANCH   5  10
BRANCH   6  12
ATOM     12  O   UNL     1      27.175   3.785   8.875  1.00  0.00    -0.504 OA
ATOM     13  H   UNL     1      28.139   3.481   8.812  1.00  0.00     0.293 HD
ENDBRANCH   6  12
TORSDOF 3
ENDMDL
MODEL 6
REMARK VINA RESULT:    -2.896      1.702      4.631
REMARK INTER + INTRA:          -3.397
REMARK INTER:                  -3.322
REMARK INTRA:                  -0.075
REMARK UNBOUND:                -0.078
REMARK SMILES COc1cc(C(=O)[O-])ccc1O
REMARK SMILES IDX 5 1 9 2 4 3 10 4 3 5 11 6 6 7 7 8 8 9 2 10 1 11 12 12
REMARK H PARENT 12 13
REMARK Flexibility Score: inf
ROOT
ATOM      1  C   UNL     1      24.986   0.164  11.311  1.00  0.00     0.001 A 
ATOM      2  C   UNL     1      24.204  -0.996  11.436  1.00  0.00     0.014 A 
ATOM      3  C   UNL     1      24.550   1.194  10.458  1.00  0.00     0.060 A 
ATOM      4  C   UNL     1      23.012  -1.124  10.721  1.00  0.00     0.051 A 
ATOM      5  C   UNL     1      23.346   1.068   9.734  1.00  0.00     0.161 A 
ATOM      6  C   UNL     1      22.579  -0.102   9.873  1.00  0.00     0.157 A 
ENDROOT
BRANCH   1   7
ATOM      7  C   UNL     1      26.251   0.304  12.066  1.00  0.00     0.072 C 
ATOM      8  O   UNL     1      27.215  -0.477  11.851  1.00  0.00    -0.545 OA
ATOM      9  O   UNL     1      26.392   1.300  13.027  1.00  0.00    -0.545 OA
ENDBRANCH   1   7
BRANCH   5  10
ATOM     10  O   UNL     1      22.887   2.080   8.875  1.00  0.00    -0.493 OA
ATOM     11  C   UNL     1      23.352   3.425   8.888  1.00  0.00     0.278 C 
ENDBRANCH   5  10
BRANCH   6  12
ATOM     12  O   UNL     1      21.382  -0.267   9.176  1.00  0.00    -0.504 OA
ATOM     13  H   UNL     1      20.937  -1.171   9.077  1.00  0.00     0.293 HD
ENDBRANCH   6  12
TORSDOF 3
ENDMDL
MODEL 7
REMARK VINA RESULT:    -2.495      2.147      3.448
REMARK INTER + INTRA:          -2.938
REMARK INTER:                  -2.848
REMARK INTRA:                  -0.090
REMARK UNBOUND:                -0.078
REMARK SMILES COc1cc(C(=O)[O-])ccc1O
REMARK SMILES IDX 5 1 9 2 4 3 10 4 3 5 11 6 6 7 7 8 8 9 2 10 1 11 12 12
REMARK H PARENT 12 13
REMARK Flexibility Score: inf
ROOT
ATOM      1  C   UNL     1      24.351   0.844  12.353  1.00  0.00     0.001 A 
ATOM      2  C   UNL     1      24.167   2.195  12.021  1.00  0.00     0.014 A 
ATOM      3  C   UNL     1      25.132   0.032  11.510  1.00  0.00     0.060 A 
ATOM      4  C   UNL     1      24.749   2.725  10.867  1.00  0.00     0.051 A 
ATOM      5  C   UNL     1      25.722   0.563  10.344  1.00  0.00     0.161 A 
ATOM      6  C   UNL     1      25.524   1.919  10.029  1.00  0.00     0.157 A 
ENDROOT
BRANCH   1   7
ATOM      7  C   UNL     1      23.736   0.278  13.575  1.00  0.00     0.072 C 
ATOM      8  O   UNL     1      23.159   1.028  14.407  1.00  0.00    -0.545 OA
ATOM      9  O   UNL     1      23.785  -1.090  13.821  1.00  0.00    -0.545 OA
ENDBRANCH   1   7
BRANCH   5  10
ATOM     10  O   UNL     1      26.505  -0.223   9.484  1.00  0.00    -0.493 OA
ATOM     11  C   UNL     1      27.572  -1.067   9.905  1.00  0.00     0.278 C 
ENDBRANCH   5  10
BRANCH   6  12
ATOM     12  O   UNL     1      26.089   2.484   8.886  1.00  0.00    -0.504 OA
ATOM     13  H   UNL     1      27.049   2.308   8.616  1.00  0.00     0.293 HD
ENDBRANCH   6  12
TORSDOF 3
ENDMDL
MODEL 8
REMARK VINA RESULT:    -2.226      2.031      3.466
REMARK INTER + INTRA:          -2.629
REMARK INTER:                  -2.845
REMARK INTRA:                   0.215
REMARK UNBOUND:                -0.078
REMARK SMILES COc1cc(C(=O)[O-])ccc1O
REMARK SMILES IDX 5 1 9 2 4 3 10 4 3 5 11 6 6 7 7 8 8 9 2 10 1 11 12 12
REMARK H PARENT 12 13
REMARK Flexibility Score: inf
ROOT
ATOM      1  C   UNL     1      25.536   1.992  10.388  1.00  0.00     0.001 A 
ATOM      2  C   UNL     1      26.032   0.712  10.093  1.00  0.00     0.014 A 
ATOM      3  C   UNL     1      24.961   2.228  11.651  1.00  0.00     0.060 A 
ATOM      4  C   UNL     1      25.954  -0.311  11.039  1.00  0.00     0.051 A 
ATOM      5  C   UNL     1      24.881   1.197  12.609  1.00  0.00     0.161 A 
ATOM      6  C   UNL     1      25.383  -0.077  12.293  1.00  0.00     0.157 A 
ENDROOT
BRANCH   1   7
ATOM      7  C   UNL     1      25.616   3.080   9.388  1.00  0.00     0.072 C 
ATOM      8  O   UNL     1      26.734   3.501   8.989  1.00  0.00    -0.545 OA
ATOM      9  O   UNL     1      24.457   3.654   8.875  1.00  0.00    -0.545 OA
ENDBRANCH   1   7
BRANCH   5  10
ATOM     10  O   UNL     1      24.312   1.404  13.876  1.00  0.00    -0.493 OA
ATOM     11  C   UNL     1      23.211   0.668  14.400  1.00  0.00     0.278 C 
ENDBRANCH   5  10
BRANCH   6  12
ATOM     12  O   UNL     1      25.324  -1.125  13.211  1.00  0.00    -0.504 OA
ATOM     13  H   UNL     1      26.013  -1.239  13.944  1.00  0.00     0.293 HD
ENDBRANCH   6  12
TORSDOF 3
ENDMDL
