MODEL 1
REMARK VINA RESULT:    -6.358      0.000      0.000
REMARK INTER + INTRA:         -10.859
REMARK INTER:                  -9.517
REMARK INTRA:                  -1.342
REMARK UNBOUND:                -1.342
REMARK SMILES COC(=O)C1=CO[C@H](O[C@@H]2O[C@H](CO)[C@@H](O)[C@H](O)[C@H]2O)[C@H]2C(CO)=CC[C@@H]12
REMARK SMILES IDX 9 1 8 2 5 3 6 4 27 5 7 6 21 7 26 8 22 9 25 10 3 11 4 12 2 13
REMARK SMILES IDX 1 14 23 15 24 16 10 18 19 19 11 20 17 21 12 22 15 23 20 24
REMARK SMILES IDX 18 26 13 28 14 29 16 31
REMARK H PARENT 24 17 20 25 18 27 14 30 16 32
REMARK Flexibility Score: inf
ROOT
ATOM      1  O   UNL     1       8.776  11.446 -16.671  1.00  0.00    -0.310 OA
ENDROOT
BRANCH   1   2
ATOM      2  C   UNL     1       9.811  12.225 -17.246  1.00  0.00     0.316 C 
ATOM      3  C   UNL     1       8.511  13.444 -19.520  1.00  0.00     0.076 C 
ATOM      4  C   UNL     1       9.133  12.268 -19.620  1.00  0.00     0.202 C 
ATOM      5  C   UNL     1       8.903  14.395 -18.405  1.00  0.00     0.047 C 
ATOM      6  O   UNL     1       9.998  11.848 -18.614  1.00  0.00    -0.471 OA
ATOM      7  C   UNL     1       9.421  13.721 -17.106  1.00  0.00     0.094 C 
ATOM      8  C   UNL     1      10.035  15.336 -18.855  1.00  0.00     0.037 C 
ATOM      9  C   UNL     1      10.590  14.575 -16.716  1.00  0.00    -0.039 C 
ATOM     10  C   UNL     1      10.898  15.461 -17.655  1.00  0.00    -0.024 C 
BRANCH   3  11
ATOM     11  C   UNL     1       7.594  13.899 -20.590  1.00  0.00     0.337 C 
ATOM     12  O   UNL     1       6.546  13.240 -20.839  1.00  0.00    -0.246 OA
BRANCH  11  13
ATOM     13  O   UNL     1       7.886  15.056 -21.319  1.00  0.00    -0.466 OA
ATOM     14  C   UNL     1       8.870  15.091 -22.343  1.00  0.00     0.282 C 
ENDBRANCH  11  13
ENDBRANCH   3  11
BRANCH   9  15
ATOM     15  C   UNL     1      11.165  14.599 -15.324  1.00  0.00     0.187 C 
BRANCH  15  16
ATOM     16  O   UNL     1      10.195  14.964 -14.376  1.00  0.00    -0.392 OA
ATOM     17  H   UNL     1       9.669  15.712 -14.767  1.00  0.00     0.211 HD
ENDBRANCH  15  16
ENDBRANCH   9  15
ENDBRANCH   1   2
BRANCH   1  18
ATOM     18  C   UNL     1       9.158  10.890 -15.419  1.00  0.00     0.286 C 
ATOM     19  C   UNL     1       7.888  10.531 -14.601  1.00  0.00     0.202 C 
ATOM     20  O   UNL     1      10.062   9.804 -15.628  1.00  0.00    -0.341 OA
ATOM     21  C   UNL     1       8.141   9.259 -13.794  1.00  0.00     0.179 C 
ATOM     22  C   UNL     1       9.448   8.546 -15.880  1.00  0.00     0.178 C 
ATOM     23  C   UNL     1       8.441   8.104 -14.765  1.00  0.00     0.177 C 
BRANCH  19  24
ATOM     24  O   UNL     1       7.556  11.582 -13.733  1.00  0.00    -0.385 OA
ATOM     25  H   UNL     1       7.314  11.169 -12.862  1.00  0.00     0.211 HD
ENDBRANCH  19  24
BRANCH  21  26
ATOM     26  O   UNL     1       7.045   8.949 -12.968  1.00  0.00    -0.387 OA
ATOM     27  H   UNL     1       6.232   8.920 -13.538  1.00  0.00     0.211 HD
ENDBRANCH  21  26
BRANCH  22  28
ATOM     28  C   UNL     1       8.908   8.448 -17.321  1.00  0.00     0.191 C 
BRANCH  28  29
ATOM     29  O   UNL     1       9.817   8.945 -18.264  1.00  0.00    -0.394 OA
ATOM     30  H   UNL     1       9.270   9.481 -18.892  1.00  0.00     0.210 HD
ENDBRANCH  28  29
ENDBRANCH  22  28
BRANCH  23  31
ATOM     31  O   UNL     1       8.909   6.987 -14.046  1.00  0.00    -0.387 OA
ATOM     32  H   UNL     1       8.896   6.203 -14.650  1.00  0.00     0.211 HD
ENDBRANCH  23  31
ENDBRANCH   1  18
TORSDOF 11
ENDMDL
MODEL 2
REMARK VINA RESULT:    -6.336      1.721      7.228
REMARK INTER + INTRA:         -10.827
REMARK INTER:                  -9.551
REMARK INTRA:                  -1.276
REMARK UNBOUND:                -1.342
REMARK SMILES COC(=O)C1=CO[C@H](O[C@@H]2O[C@H](CO)[C@@H](O)[C@H](O)[C@H]2O)[C@H]2C(CO)=CC[C@@H]12
REMARK SMILES IDX 9 1 8 2 5 3 6 4 27 5 7 6 21 7 26 8 22 9 25 10 3 11 4 12 2 13
REMARK SMILES IDX 1 14 23 15 24 16 10 18 19 19 11 20 17 21 12 22 15 23 20 24
REMARK SMILES IDX 18 26 13 28 14 29 16 31
REMARK H PARENT 24 17 20 25 18 27 14 30 16 32
REMARK Flexibility Score: inf
ROOT
ATOM      1  O   UNL     1       8.872  12.045 -17.112  1.00  0.00    -0.310 OA
ENDROOT
BRANCH   1   2
ATOM      2  C   UNL     1       9.708  11.320 -16.226  1.00  0.00     0.316 C 
ATOM      3  C   UNL     1       7.831  10.224 -14.323  1.00  0.00     0.076 C 
ATOM      4  C   UNL     1       8.403  11.413 -14.132  1.00  0.00     0.202 C 
ATOM      5  C   UNL     1       8.512   9.212 -15.225  1.00  0.00     0.047 C 
ATOM      6  O   UNL     1       9.513  11.784 -14.887  1.00  0.00    -0.471 OA
ATOM      7  C   UNL     1       9.369   9.812 -16.372  1.00  0.00     0.094 C 
ATOM      8  C   UNL     1       9.475   8.318 -14.422  1.00  0.00     0.037 C 
ATOM      9  C   UNL     1      10.598   8.954 -16.371  1.00  0.00    -0.039 C 
ATOM     10  C   UNL     1      10.634   8.132 -15.328  1.00  0.00    -0.024 C 
BRANCH   3  11
ATOM     11  C   UNL     1       6.654   9.822 -13.519  1.00  0.00     0.337 C 
ATOM     12  O   UNL     1       5.877  10.705 -13.060  1.00  0.00    -0.246 OA
BRANCH  11  13
ATOM     13  O   UNL     1       6.403   8.468 -13.273  1.00  0.00    -0.466 OA
ATOM     14  C   UNL     1       6.654   7.856 -12.015  1.00  0.00     0.282 C 
ENDBRANCH  11  13
ENDBRANCH   3  11
BRANCH   9  15
ATOM     15  C   UNL     1      11.534   8.853 -17.547  1.00  0.00     0.187 C 
BRANCH  15  16
ATOM     16  O   UNL     1      12.296   7.674 -17.495  1.00  0.00    -0.392 OA
ATOM     17  H   UNL     1      12.286   7.277 -18.406  1.00  0.00     0.211 HD
ENDBRANCH  15  16
ENDBRANCH   9  15
ENDBRANCH   1   2
BRANCH   1  18
ATOM     18  C   UNL     1       9.619  12.731 -18.110  1.00  0.00     0.286 C 
ATOM     19  C   UNL     1       8.766  12.856 -19.401  1.00  0.00     0.202 C 
ATOM     20  O   UNL     1      10.100  13.970 -17.588  1.00  0.00    -0.341 OA
ATOM     21  C   UNL     1       9.060  14.191 -20.083  1.00  0.00     0.179 C 
ATOM     22  C   UNL     1       9.188  15.057 -17.673  1.00  0.00     0.178 C 
ATOM     23  C   UNL     1       8.674  15.333 -19.127  1.00  0.00     0.177 C 
BRANCH  19  24
ATOM     24  O   UNL     1       9.058  11.803 -20.281  1.00  0.00    -0.385 OA
ATOM     25  H   UNL     1      10.048  11.764 -20.364  1.00  0.00     0.211 HD
ENDBRANCH  19  24
BRANCH  21  26
ATOM     26  O   UNL     1       8.374  14.305 -21.305  1.00  0.00    -0.387 OA
ATOM     27  H   UNL     1       7.772  15.094 -21.246  1.00  0.00     0.211 HD
ENDBRANCH  21  26
BRANCH  22  28
ATOM     28  C   UNL     1       8.085  14.968 -16.599  1.00  0.00     0.191 C 
BRANCH  28  29
ATOM     29  O   UNL     1       8.600  14.657 -15.334  1.00  0.00    -0.394 OA
ATOM     30  H   UNL     1       7.845  14.792 -14.708  1.00  0.00     0.210 HD
ENDBRANCH  28  29
ENDBRANCH  22  28
BRANCH  23  31
ATOM     31  O   UNL     1       9.154  16.558 -19.630  1.00  0.00    -0.387 OA
ATOM     32  H   UNL     1       8.671  16.757 -20.472  1.00  0.00     0.211 HD
ENDBRANCH  23  31
ENDBRANCH   1  18
TORSDOF 11
ENDMDL
MODEL 3
REMARK VINA RESULT:    -6.167      1.858      7.024
REMARK INTER + INTRA:         -10.574
REMARK INTER:                  -9.535
REMARK INTRA:                  -1.039
REMARK UNBOUND:                -1.342
REMARK SMILES COC(=O)C1=CO[C@H](O[C@@H]2O[C@H](CO)[C@@H](O)[C@H](O)[C@H]2O)[C@H]2C(CO)=CC[C@@H]12
REMARK SMILES IDX 9 1 8 2 5 3 6 4 27 5 7 6 21 7 26 8 22 9 25 10 3 11 4 12 2 13
REMARK SMILES IDX 1 14 23 15 24 16 10 18 19 19 11 20 17 21 12 22 15 23 20 24
REMARK SMILES IDX 18 26 13 28 14 29 16 31
REMARK H PARENT 24 17 20 25 18 27 14 30 16 32
REMARK Flexibility Score: inf
ROOT
ATOM      1  O   UNL     1       7.586  11.707 -15.860  1.00  0.00    -0.310 OA
ENDROOT
BRANCH   1   2
ATOM      2  C   UNL     1       8.727  11.133 -15.244  1.00  0.00     0.316 C 
ATOM      3  C   UNL     1       7.585   9.083 -13.558  1.00  0.00     0.076 C 
ATOM      4  C   UNL     1       7.780  10.324 -13.112  1.00  0.00     0.202 C 
ATOM      5  C   UNL     1       8.407   8.581 -14.730  1.00  0.00     0.047 C 
ATOM      6  O   UNL     1       8.595  11.202 -13.821  1.00  0.00    -0.471 OA
ATOM      7  C   UNL     1       8.856   9.668 -15.743  1.00  0.00     0.094 C 
ATOM      8  C   UNL     1       9.707   7.914 -14.246  1.00  0.00     0.037 C 
ATOM      9  C   UNL     1      10.277   9.297 -16.041  1.00  0.00    -0.039 C 
ATOM     10  C   UNL     1      10.720   8.331 -15.245  1.00  0.00    -0.024 C 
BRANCH   3  11
ATOM     11  C   UNL     1       6.723   8.144 -12.805  1.00  0.00     0.337 C 
ATOM     12  O   UNL     1       6.354   7.062 -13.344  1.00  0.00    -0.246 OA
BRANCH  11  13
ATOM     13  O   UNL     1       6.322   8.451 -11.501  1.00  0.00    -0.466 OA
ATOM     14  C   UNL     1       6.212   7.469 -10.480  1.00  0.00     0.282 C 
ENDBRANCH  11  13
ENDBRANCH   3  11
BRANCH   9  15
ATOM     15  C   UNL     1      11.015   9.774 -17.265  1.00  0.00     0.187 C 
BRANCH  15  16
ATOM     16  O   UNL     1      10.564   9.118 -18.423  1.00  0.00    -0.392 OA
ATOM     17  H   UNL     1       9.629   8.826 -18.249  1.00  0.00     0.211 HD
ENDBRANCH  15  16
ENDBRANCH   9  15
ENDBRANCH   1   2
BRANCH   1  18
ATOM     18  C   UNL     1       7.766  13.091 -16.132  1.00  0.00     0.286 C 
ATOM     19  C   UNL     1       9.258  13.471 -15.927  1.00  0.00     0.202 C 
ATOM     20  O   UNL     1       7.241  13.402 -17.423  1.00  0.00    -0.341 OA
ATOM     21  C   UNL     1       9.663  14.527 -16.954  1.00  0.00     0.179 C 
ATOM     22  C   UNL     1       8.133  13.181 -18.508  1.00  0.00     0.178 C 
ATOM     23  C   UNL     1       9.495  13.940 -18.366  1.00  0.00     0.177 C 
BRANCH  19  24
ATOM     24  O   UNL     1       9.459  13.970 -14.632  1.00  0.00    -0.385 OA
ATOM     25  H   UNL     1       8.909  14.794 -14.553  1.00  0.00     0.211 HD
ENDBRANCH  19  24
BRANCH  21  26
ATOM     26  O   UNL     1      10.984  14.965 -16.745  1.00  0.00    -0.387 OA
ATOM     27  H   UNL     1      11.534  14.653 -17.511  1.00  0.00     0.211 HD
ENDBRANCH  21  26
BRANCH  22  28
ATOM     28  C   UNL     1       8.255  11.684 -18.856  1.00  0.00     0.191 C 
BRANCH  28  29
ATOM     29  O   UNL     1       9.278  11.435 -19.780  1.00  0.00    -0.394 OA
ATOM     30  H   UNL     1       9.032  10.581 -20.216  1.00  0.00     0.210 HD
ENDBRANCH  28  29
ENDBRANCH  22  28
BRANCH  23  31
ATOM     31  O   UNL     1       9.631  14.961 -19.325  1.00  0.00    -0.387 OA
ATOM     32  H   UNL     1       8.916  15.628 -19.171  1.00  0.00     0.211 HD
ENDBRANCH  23  31
ENDBRANCH   1  18
TORSDOF 11
ENDMDL
MODEL 4
REMARK VINA RESULT:    -6.016      1.377      2.733
REMARK INTER + INTRA:         -10.348
REMARK INTER:                  -9.331
REMARK INTRA:                  -1.017
REMARK UNBOUND:                -1.342
REMARK SMILES COC(=O)C1=CO[C@H](O[C@@H]2O[C@H](CO)[C@@H](O)[C@H](O)[C@H]2O)[C@H]2C(CO)=CC[C@@H]12
REMARK SMILES IDX 9 1 8 2 5 3 6 4 27 5 7 6 21 7 26 8 22 9 25 10 3 11 4 12 2 13
REMARK SMILES IDX 1 14 23 15 24 16 10 18 19 19 11 20 17 21 12 22 15 23 20 24
REMARK SMILES IDX 18 26 13 28 14 29 16 31
REMARK H PARENT 24 17 20 25 18 27 14 30 16 32
REMARK Flexibility Score: inf
ROOT
ATOM      1  O   UNL     1       7.878  12.406 -17.769  1.00  0.00    -0.310 OA
ENDROOT
BRANCH   1   2
ATOM      2  C   UNL     1       9.209  12.837 -17.995  1.00  0.00     0.316 C 
ATOM      3  C   UNL     1       8.906  14.773 -20.118  1.00  0.00     0.076 C 
ATOM      4  C   UNL     1       9.119  13.483 -20.377  1.00  0.00     0.202 C 
ATOM      5  C   UNL     1       9.330  15.338 -18.776  1.00  0.00     0.047 C 
ATOM      6  O   UNL     1       9.559  12.631 -19.367  1.00  0.00    -0.471 OA
ATOM      7  C   UNL     1       9.304  14.334 -17.592  1.00  0.00     0.094 C 
ATOM      8  C   UNL     1      10.775  15.865 -18.831  1.00  0.00     0.037 C 
ATOM      9  C   UNL     1      10.571  14.640 -16.852  1.00  0.00    -0.039 C 
ATOM     10  C   UNL     1      11.347  15.488 -17.516  1.00  0.00    -0.024 C 
BRANCH   3  11
ATOM     11  C   UNL     1       8.443  15.685 -21.189  1.00  0.00     0.337 C 
ATOM     12  O   UNL     1       8.092  16.864 -20.901  1.00  0.00    -0.246 OA
BRANCH  11  13
ATOM     13  O   UNL     1       8.399  15.243 -22.516  1.00  0.00    -0.466 OA
ATOM     14  C   UNL     1       9.055  15.927 -23.575  1.00  0.00     0.282 C 
ENDBRANCH  11  13
ENDBRANCH   3  11
BRANCH   9  15
ATOM     15  C   UNL     1      10.803  14.244 -15.417  1.00  0.00     0.187 C 
BRANCH  15  16
ATOM     16  O   UNL     1      10.048  15.038 -14.538  1.00  0.00    -0.392 OA
ATOM     17  H   UNL     1       9.185  14.568 -14.386  1.00  0.00     0.211 HD
ENDBRANCH  15  16
ENDBRANCH   9  15
ENDBRANCH   1   2
BRANCH   1  18
ATOM     18  C   UNL     1       7.816  11.032 -17.406  1.00  0.00     0.286 C 
ATOM     19  C   UNL     1       9.247  10.511 -17.103  1.00  0.00     0.202 C 
ATOM     20  O   UNL     1       6.878  10.854 -16.345  1.00  0.00    -0.341 OA
ATOM     21  C   UNL     1       9.192   9.493 -15.965  1.00  0.00     0.179 C 
ATOM     22  C   UNL     1       7.394  11.067 -15.037  1.00  0.00     0.178 C 
ATOM     23  C   UNL     1       8.644  10.185 -14.705  1.00  0.00     0.177 C 
BRANCH  19  24
ATOM     24  O   UNL     1       9.799   9.911 -18.245  1.00  0.00    -0.385 OA
ATOM     25  H   UNL     1      10.787   9.963 -18.148  1.00  0.00     0.211 HD
ENDBRANCH  19  24
BRANCH  21  26
ATOM     26  O   UNL     1      10.457   8.928 -15.720  1.00  0.00    -0.387 OA
ATOM     27  H   UNL     1      11.129   9.452 -16.229  1.00  0.00     0.211 HD
ENDBRANCH  21  26
BRANCH  22  28
ATOM     28  C   UNL     1       7.554  12.568 -14.720  1.00  0.00     0.191 C 
BRANCH  28  29
ATOM     29  O   UNL     1       8.297  12.787 -13.553  1.00  0.00    -0.394 OA
ATOM     30  H   UNL     1       9.237  12.868 -13.856  1.00  0.00     0.210 HD
ENDBRANCH  28  29
ENDBRANCH  22  28
BRANCH  23  31
ATOM     31  O   UNL     1       8.360   9.221 -13.718  1.00  0.00    -0.387 OA
ATOM     32  H   UNL     1       8.364   8.328 -14.147  1.00  0.00     0.211 HD
ENDBRANCH  23  31
ENDBRANCH   1  18
TORSDOF 11
ENDMDL
MODEL 5
REMARK VINA RESULT:    -6.014      2.483      3.101
REMARK INTER + INTRA:         -10.344
REMARK INTER:                  -8.982
REMARK INTRA:                  -1.362
REMARK UNBOUND:                -1.342
REMARK SMILES COC(=O)C1=CO[C@H](O[C@@H]2O[C@H](CO)[C@@H](O)[C@H](O)[C@H]2O)[C@H]2C(CO)=CC[C@@H]12
REMARK SMILES IDX 9 1 8 2 5 3 6 4 27 5 7 6 21 7 26 8 22 9 25 10 3 11 4 12 2 13
REMARK SMILES IDX 1 14 23 15 24 16 10 18 19 19 11 20 17 21 12 22 15 23 20 24
REMARK SMILES IDX 18 26 13 28 14 29 16 31
REMARK H PARENT 24 17 20 25 18 27 14 30 16 32
REMARK Flexibility Score: inf
ROOT
ATOM      1  O   UNL     1       8.549  14.039 -16.826  1.00  0.00    -0.310 OA
ENDROOT
BRANCH   1   2
ATOM      2  C   UNL     1       8.983  15.378 -16.988  1.00  0.00     0.316 C 
ATOM      3  C   UNL     1       8.723  15.799 -19.835  1.00  0.00     0.076 C 
ATOM      4  C   UNL     1       9.853  15.337 -19.299  1.00  0.00     0.202 C 
ATOM      5  C   UNL     1       7.763  16.591 -18.967  1.00  0.00     0.047 C 
ATOM      6  O   UNL     1      10.063  15.427 -17.926  1.00  0.00    -0.471 OA
ATOM      7  C   UNL     1       7.769  16.223 -17.459  1.00  0.00     0.094 C 
ATOM      8  C   UNL     1       8.086  18.096 -19.020  1.00  0.00     0.037 C 
ATOM      9  C   UNL     1       7.711  17.556 -16.778  1.00  0.00    -0.039 C 
ATOM     10  C   UNL     1       7.856  18.563 -17.631  1.00  0.00    -0.024 C 
BRANCH   3  11
ATOM     11  C   UNL     1       8.496  15.711 -21.295  1.00  0.00     0.337 C 
ATOM     12  O   UNL     1       8.282  14.586 -21.830  1.00  0.00    -0.246 OA
BRANCH  11  13
ATOM     13  O   UNL     1       8.514  16.869 -22.079  1.00  0.00    -0.466 OA
ATOM     14  C   UNL     1       8.854  16.857 -23.459  1.00  0.00     0.282 C 
ENDBRANCH  11  13
ENDBRANCH   3  11
BRANCH   9  15
ATOM     15  C   UNL     1       7.272  17.732 -15.346  1.00  0.00     0.187 C 
BRANCH  15  16
ATOM     16  O   UNL     1       6.343  16.748 -14.972  1.00  0.00    -0.392 OA
ATOM     17  H   UNL     1       6.685  15.878 -15.308  1.00  0.00     0.211 HD
ENDBRANCH  15  16
ENDBRANCH   9  15
ENDBRANCH   1   2
BRANCH   1  18
ATOM     18  C   UNL     1       8.563  13.634 -15.463  1.00  0.00     0.286 C 
ATOM     19  C   UNL     1       7.169  13.071 -15.075  1.00  0.00     0.202 C 
ATOM     20  O   UNL     1       9.653  12.740 -15.235  1.00  0.00    -0.341 OA
ATOM     21  C   UNL     1       7.338  11.917 -14.088  1.00  0.00     0.179 C 
ATOM     22  C   UNL     1       9.388  11.375 -15.528  1.00  0.00     0.178 C 
ATOM     23  C   UNL     1       8.149  10.798 -14.765  1.00  0.00     0.177 C 
BRANCH  19  24
ATOM     24  O   UNL     1       6.383  14.077 -14.493  1.00  0.00    -0.385 OA
ATOM     25  H   UNL     1       5.639  14.262 -15.126  1.00  0.00     0.211 HD
ENDBRANCH  19  24
BRANCH  21  26
ATOM     26  O   UNL     1       6.094  11.437 -13.641  1.00  0.00    -0.387 OA
ATOM     27  H   UNL     1       6.030  10.477 -13.888  1.00  0.00     0.211 HD
ENDBRANCH  21  26
BRANCH  22  28
ATOM     28  C   UNL     1       9.405  11.098 -17.045  1.00  0.00     0.191 C 
BRANCH  28  29
ATOM     29  O   UNL     1      10.385  11.847 -17.710  1.00  0.00    -0.394 OA
ATOM     30  H   UNL     1      10.322  11.571 -18.659  1.00  0.00     0.210 HD
ENDBRANCH  28  29
ENDBRANCH  22  28
BRANCH  23  31
ATOM     31  O   UNL     1       8.521   9.834 -13.809  1.00  0.00    -0.387 OA
ATOM     32  H   UNL     1       9.331   9.369 -14.136  1.00  0.00     0.211 HD
ENDBRANCH  23  31
ENDBRANCH   1  18
TORSDOF 11
ENDMDL
MODEL 6
REMARK VINA RESULT:    -5.989      2.356      3.280
REMARK INTER + INTRA:         -10.307
REMARK INTER:                  -9.071
REMARK INTRA:                  -1.237
REMARK UNBOUND:                -1.342
REMARK SMILES COC(=O)C1=CO[C@H](O[C@@H]2O[C@H](CO)[C@@H](O)[C@H](O)[C@H]2O)[C@H]2C(CO)=CC[C@@H]12
REMARK SMILES IDX 9 1 8 2 5 3 6 4 27 5 7 6 21 7 26 8 22 9 25 10 3 11 4 12 2 13
REMARK SMILES IDX 1 14 23 15 24 16 10 18 19 19 11 20 17 21 12 22 15 23 20 24
REMARK SMILES IDX 18 26 13 28 14 29 16 31
REMARK H PARENT 24 17 20 25 18 27 14 30 16 32
REMARK Flexibility Score: inf
ROOT
ATOM      1  O   UNL     1       9.171  14.066 -17.604  1.00  0.00    -0.310 OA
ENDROOT
BRANCH   1   2
ATOM      2  C   UNL     1       9.374  15.465 -17.499  1.00  0.00     0.316 C 
ATOM      3  C   UNL     1       9.098  16.362 -20.232  1.00  0.00     0.076 C 
ATOM      4  C   UNL     1      10.280  15.999 -19.733  1.00  0.00     0.202 C 
ATOM      5  C   UNL     1       8.002  16.810 -19.284  1.00  0.00     0.047 C 
ATOM      6  O   UNL     1      10.447  15.864 -18.358  1.00  0.00    -0.471 OA
ATOM      7  C   UNL     1       8.043  16.174 -17.869  1.00  0.00     0.094 C 
ATOM      8  C   UNL     1       8.066  18.331 -19.047  1.00  0.00     0.037 C 
ATOM      9  C   UNL     1       7.747  17.328 -16.961  1.00  0.00    -0.039 C 
ATOM     10  C   UNL     1       7.735  18.486 -17.610  1.00  0.00    -0.024 C 
BRANCH   3  11
ATOM     11  C   UNL     1       8.916  16.512 -21.693  1.00  0.00     0.337 C 
ATOM     12  O   UNL     1       8.042  17.308 -22.138  1.00  0.00    -0.246 OA
BRANCH  11  13
ATOM     13  O   UNL     1       9.712  15.777 -22.579  1.00  0.00    -0.466 OA
ATOM     14  C   UNL     1       9.900  16.154 -23.936  1.00  0.00     0.282 C 
ENDBRANCH  11  13
ENDBRANCH   3  11
BRANCH   9  15
ATOM     15  C   UNL     1       7.259  17.160 -15.545  1.00  0.00     0.187 C 
BRANCH  15  16
ATOM     16  O   UNL     1       6.807  15.851 -15.312  1.00  0.00    -0.392 OA
ATOM     17  H   UNL     1       6.346  15.548 -16.139  1.00  0.00     0.211 HD
ENDBRANCH  15  16
ENDBRANCH   9  15
ENDBRANCH   1   2
BRANCH   1  18
ATOM     18  C   UNL     1       9.848  13.350 -16.578  1.00  0.00     0.286 C 
ATOM     19  C   UNL     1       8.825  12.892 -15.503  1.00  0.00     0.202 C 
ATOM     20  O   UNL     1      10.622  12.298 -17.154  1.00  0.00    -0.341 OA
ATOM     21  C   UNL     1       9.232  11.525 -14.958  1.00  0.00     0.179 C 
ATOM     22  C   UNL     1       9.916  11.086 -17.389  1.00  0.00     0.178 C 
ATOM     23  C   UNL     1       9.222  10.506 -16.110  1.00  0.00     0.177 C 
BRANCH  19  24
ATOM     24  O   UNL     1       8.773  13.822 -14.454  1.00  0.00    -0.385 OA
ATOM     25  H   UNL     1       9.705  14.131 -14.298  1.00  0.00     0.211 HD
ENDBRANCH  19  24
BRANCH  21  26
ATOM     26  O   UNL     1       8.381  11.114 -13.916  1.00  0.00    -0.387 OA
ATOM     27  H   UNL     1       7.482  11.502 -14.084  1.00  0.00     0.211 HD
ENDBRANCH  21  26
BRANCH  22  28
ATOM     28  C   UNL     1       9.012  11.179 -18.635  1.00  0.00     0.191 C 
BRANCH  28  29
ATOM     29  O   UNL     1       9.645  11.829 -19.702  1.00  0.00    -0.394 OA
ATOM     30  H   UNL     1       9.799  11.123 -20.379  1.00  0.00     0.210 HD
ENDBRANCH  28  29
ENDBRANCH  22  28
BRANCH  23  31
ATOM     31  O   UNL     1       9.819   9.303 -15.687  1.00  0.00    -0.387 OA
ATOM     32  H   UNL     1      10.770   9.485 -15.478  1.00  0.00     0.211 HD
ENDBRANCH  23  31
ENDBRANCH   1  18
TORSDOF 11
ENDMDL
MODEL 7
REMARK VINA RESULT:    -5.929      2.005      7.742
REMARK INTER + INTRA:         -10.217
REMARK INTER:                  -8.813
REMARK INTRA:                  -1.404
REMARK UNBOUND:                -1.342
REMARK SMILES COC(=O)C1=CO[C@H](O[C@@H]2O[C@H](CO)[C@@H](O)[C@H](O)[C@H]2O)[C@H]2C(CO)=CC[C@@H]12
REMARK SMILES IDX 9 1 8 2 5 3 6 4 27 5 7 6 21 7 26 8 22 9 25 10 3 11 4 12 2 13
REMARK SMILES IDX 1 14 23 15 24 16 10 18 19 19 11 20 17 21 12 22 15 23 20 24
REMARK SMILES IDX 18 26 13 28 14 29 16 31
REMARK H PARENT 24 17 20 25 18 27 14 30 16 32
REMARK Flexibility Score: inf
ROOT
ATOM      1  O   UNL     1       8.165  10.304 -16.833  1.00  0.00    -0.310 OA
ENDROOT
BRANCH   1   2
ATOM      2  C   UNL     1       8.557   8.968 -16.567  1.00  0.00     0.316 C 
ATOM      3  C   UNL     1       7.581   8.535 -13.882  1.00  0.00     0.076 C 
ATOM      4  C   UNL     1       8.806   9.010 -14.110  1.00  0.00     0.202 C 
ATOM      5  C   UNL     1       6.884   7.736 -14.967  1.00  0.00     0.047 C 
ATOM      6  O   UNL     1       9.362   8.926 -15.384  1.00  0.00    -0.471 OA
ATOM      7  C   UNL     1       7.271   8.109 -16.423  1.00  0.00     0.094 C 
ATOM      8  C   UNL     1       7.199   6.234 -14.835  1.00  0.00     0.037 C 
ATOM      9  C   UNL     1       7.404   6.778 -17.098  1.00  0.00    -0.039 C 
ATOM     10  C   UNL     1       7.337   5.770 -16.236  1.00  0.00    -0.024 C 
BRANCH   3  11
ATOM     11  C   UNL     1       6.987   8.615 -12.528  1.00  0.00     0.337 C 
ATOM     12  O   UNL     1       6.944   9.726 -11.928  1.00  0.00    -0.246 OA
BRANCH  11  13
ATOM     13  O   UNL     1       6.473   7.466 -11.918  1.00  0.00    -0.466 OA
ATOM     14  C   UNL     1       6.112   7.422 -10.544  1.00  0.00     0.282 C 
ENDBRANCH  11  13
ENDBRANCH   3  11
BRANCH   9  15
ATOM     15  C   UNL     1       7.348   6.603 -18.594  1.00  0.00     0.187 C 
BRANCH  15  16
ATOM     16  O   UNL     1       6.674   7.670 -19.209  1.00  0.00    -0.392 OA
ATOM     17  H   UNL     1       6.640   7.474 -20.183  1.00  0.00     0.211 HD
ENDBRANCH  15  16
ENDBRANCH   9  15
ENDBRANCH   1   2
BRANCH   1  18
ATOM     18  C   UNL     1       8.641  10.759 -18.093  1.00  0.00     0.286 C 
ATOM     19  C   UNL     1       7.525  11.569 -18.808  1.00  0.00     0.202 C 
ATOM     20  O   UNL     1       9.872  11.461 -17.920  1.00  0.00    -0.341 OA
ATOM     21  C   UNL     1       8.151  12.719 -19.596  1.00  0.00     0.179 C 
ATOM     22  C   UNL     1       9.743  12.838 -17.590  1.00  0.00     0.178 C 
ATOM     23  C   UNL     1       8.885  13.651 -18.617  1.00  0.00     0.177 C 
BRANCH  19  24
ATOM     24  O   UNL     1       6.803  10.739 -19.678  1.00  0.00    -0.385 OA
ATOM     25  H   UNL     1       6.543   9.934 -19.157  1.00  0.00     0.211 HD
ENDBRANCH  19  24
BRANCH  21  26
ATOM     26  O   UNL     1       7.181  13.424 -20.332  1.00  0.00    -0.387 OA
ATOM     27  H   UNL     1       6.749  14.076 -19.720  1.00  0.00     0.211 HD
ENDBRANCH  21  26
BRANCH  22  28
ATOM     28  C   UNL     1       9.353  13.041 -16.112  1.00  0.00     0.191 C 
BRANCH  28  29
ATOM     29  O   UNL     1       9.984  12.121 -15.266  1.00  0.00    -0.394 OA
ATOM     30  H   UNL     1      10.940  12.380 -15.269  1.00  0.00     0.210 HD
ENDBRANCH  28  29
ENDBRANCH  22  28
BRANCH  23  31
ATOM     31  O   UNL     1       9.664  14.578 -19.337  1.00  0.00    -0.387 OA
ATOM     32  H   UNL     1      10.439  14.097 -19.723  1.00  0.00     0.211 HD
ENDBRANCH  23  31
ENDBRANCH   1  18
TORSDOF 11
ENDMDL
MODEL 8
REMARK VINA RESULT:    -5.829      2.469      4.360
REMARK INTER + INTRA:         -10.068
REMARK INTER:                  -8.804
REMARK INTRA:                  -1.264
REMARK UNBOUND:                -1.342
REMARK SMILES COC(=O)C1=CO[C@H](O[C@@H]2O[C@H](CO)[C@@H](O)[C@H](O)[C@H]2O)[C@H]2C(CO)=CC[C@@H]12
REMARK SMILES IDX 9 1 8 2 5 3 6 4 27 5 7 6 21 7 26 8 22 9 25 10 3 11 4 12 2 13
REMARK SMILES IDX 1 14 23 15 24 16 10 18 19 19 11 20 17 21 12 22 15 23 20 24
REMARK SMILES IDX 18 26 13 28 14 29 16 31
REMARK H PARENT 24 17 20 25 18 27 14 30 16 32
REMARK Flexibility Score: inf
ROOT
ATOM      1  O   UNL     1       7.935  13.485 -17.343  1.00  0.00    -0.310 OA
ENDROOT
BRANCH   1   2
ATOM      2  C   UNL     1       7.516  13.782 -18.664  1.00  0.00     0.316 C 
ATOM      3  C   UNL     1       8.113  16.599 -18.910  1.00  0.00     0.076 C 
ATOM      4  C   UNL     1       6.929  16.173 -18.468  1.00  0.00     0.202 C 
ATOM      5  C   UNL     1       8.957  15.676 -19.767  1.00  0.00     0.047 C 
ATOM      6  O   UNL     1       6.556  14.843 -18.641  1.00  0.00    -0.471 OA
ATOM      7  C   UNL     1       8.774  14.159 -19.494  1.00  0.00     0.094 C 
ATOM      8  C   UNL     1       8.635  15.862 -21.261  1.00  0.00     0.037 C 
ATOM      9  C   UNL     1       8.743  13.561 -20.868  1.00  0.00    -0.039 C 
ATOM     10  C   UNL     1       8.695  14.488 -21.816  1.00  0.00    -0.024 C 
BRANCH   3  11
ATOM     11  C   UNL     1       8.513  18.013 -18.733  1.00  0.00     0.337 C 
ATOM     12  O   UNL     1       9.733  18.306 -18.586  1.00  0.00    -0.246 OA
BRANCH  11  13
ATOM     13  O   UNL     1       7.543  19.022 -18.734  1.00  0.00    -0.466 OA
ATOM     14  C   UNL     1       7.666  20.205 -17.957  1.00  0.00     0.282 C 
ENDBRANCH  11  13
ENDBRANCH   3  11
BRANCH   9  15
ATOM     15  C   UNL     1       9.007  12.102 -21.138  1.00  0.00     0.187 C 
BRANCH  15  16
ATOM     16  O   UNL     1       9.753  11.516 -20.102  1.00  0.00    -0.392 OA
ATOM     17  H   UNL     1      10.302  10.794 -20.509  1.00  0.00     0.211 HD
ENDBRANCH  15  16
ENDBRANCH   9  15
ENDBRANCH   1   2
BRANCH   1  18
ATOM     18  C   UNL     1       7.297  12.323 -16.829  1.00  0.00     0.286 C 
ATOM     19  C   UNL     1       8.149  11.070 -17.170  1.00  0.00     0.202 C 
ATOM     20  O   UNL     1       7.019  12.497 -15.440  1.00  0.00    -0.341 OA
ATOM     21  C   UNL     1       8.062  10.063 -16.024  1.00  0.00     0.179 C 
ATOM     22  C   UNL     1       8.089  12.169 -14.563  1.00  0.00     0.178 C 
ATOM     23  C   UNL     1       8.628  10.711 -14.748  1.00  0.00     0.177 C 
BRANCH  19  24
ATOM     24  O   UNL     1       7.690  10.476 -18.355  1.00  0.00    -0.385 OA
ATOM     25  H   UNL     1       6.698  10.535 -18.339  1.00  0.00     0.211 HD
ENDBRANCH  19  24
BRANCH  21  26
ATOM     26  O   UNL     1       8.748   8.874 -16.332  1.00  0.00    -0.387 OA
ATOM     27  H   UNL     1       9.307   8.632 -15.547  1.00  0.00     0.211 HD
ENDBRANCH  21  26
BRANCH  22  28
ATOM     28  C   UNL     1       9.173  13.266 -14.542  1.00  0.00     0.191 C 
BRANCH  28  29
ATOM     29  O   UNL     1      10.297  12.916 -15.301  1.00  0.00    -0.394 OA
ATOM     30  H   UNL     1       9.956  12.782 -16.221  1.00  0.00     0.210 HD
ENDBRANCH  28  29
ENDBRANCH  22  28
BRANCH  23  31
ATOM     31  O   UNL     1       8.342   9.898 -13.635  1.00  0.00    -0.387 OA
ATOM     32  H   UNL     1       8.280   8.959 -13.944  1.00  0.00     0.211 HD
ENDBRANCH  23  31
ENDBRANCH   1  18
TORSDOF 11
ENDMDL
MODEL 9
REMARK VINA RESULT:    -5.665      1.903      6.605
REMARK INTER + INTRA:          -9.822
REMARK INTER:                  -8.309
REMARK INTRA:                  -1.512
REMARK UNBOUND:                -1.342
REMARK SMILES COC(=O)C1=CO[C@H](O[C@@H]2O[C@H](CO)[C@@H](O)[C@H](O)[C@H]2O)[C@H]2C(CO)=CC[C@@H]12
REMARK SMILES IDX 9 1 8 2 5 3 6 4 27 5 7 6 21 7 26 8 22 9 25 10 3 11 4 12 2 13
REMARK SMILES IDX 1 14 23 15 24 16 10 18 19 19 11 20 17 21 12 22 15 23 20 24
REMARK SMILES IDX 18 26 13 28 14 29 16 31
REMARK H PARENT 24 17 20 25 18 27 14 30 16 32
REMARK Flexibility Score: inf
ROOT
ATOM      1  O   UNL     1       8.579  11.981 -16.737  1.00  0.00    -0.310 OA
ENDROOT
BRANCH   1   2
ATOM      2  C   UNL     1       7.513  11.508 -15.931  1.00  0.00     0.316 C 
ATOM      3  C   UNL     1       7.584   8.655 -16.380  1.00  0.00     0.076 C 
ATOM      4  C   UNL     1       6.848   9.463 -17.144  1.00  0.00     0.202 C 
ATOM      5  C   UNL     1       7.968   9.105 -14.983  1.00  0.00     0.047 C 
ATOM      6  O   UNL     1       6.589  10.768 -16.734  1.00  0.00    -0.471 OA
ATOM      7  C   UNL     1       8.119  10.639 -14.795  1.00  0.00     0.094 C 
ATOM      8  C   UNL     1       6.908   8.672 -13.953  1.00  0.00     0.037 C 
ATOM      9  C   UNL     1       7.456  10.893 -13.476  1.00  0.00    -0.039 C 
ATOM     10  C   UNL     1       6.827   9.818 -13.015  1.00  0.00    -0.024 C 
BRANCH   3  11
ATOM     11  C   UNL     1       7.858   7.264 -16.807  1.00  0.00     0.337 C 
ATOM     12  O   UNL     1       7.812   6.965 -18.034  1.00  0.00    -0.246 OA
BRANCH  11  13
ATOM     13  O   UNL     1       8.171   6.286 -15.857  1.00  0.00    -0.466 OA
ATOM     14  C   UNL     1       7.260   5.263 -15.480  1.00  0.00     0.282 C 
ENDBRANCH  11  13
ENDBRANCH   3  11
BRANCH   9  15
ATOM     15  C   UNL     1       7.704  12.132 -12.654  1.00  0.00     0.187 C 
BRANCH  15  16
ATOM     16  O   UNL     1       8.790  12.869 -13.153  1.00  0.00    -0.392 OA
ATOM     17  H   UNL     1       8.810  12.731 -14.138  1.00  0.00     0.211 HD
ENDBRANCH  15  16
ENDBRANCH   9  15
ENDBRANCH   1   2
BRANCH   1  18
ATOM     18  C   UNL     1       8.772  13.383 -16.598  1.00  0.00     0.286 C 
ATOM     19  C   UNL     1      10.293  13.697 -16.574  1.00  0.00     0.202 C 
ATOM     20  O   UNL     1       8.034  14.075 -17.606  1.00  0.00    -0.341 OA
ATOM     21  C   UNL     1      10.554  15.025 -17.282  1.00  0.00     0.179 C 
ATOM     22  C   UNL     1       8.699  14.214 -18.855  1.00  0.00     0.178 C 
ATOM     23  C   UNL     1      10.100  14.906 -18.747  1.00  0.00     0.177 C 
BRANCH  19  24
ATOM     24  O   UNL     1      10.754  13.769 -15.251  1.00  0.00    -0.385 OA
ATOM     25  H   UNL     1      10.064  13.335 -14.683  1.00  0.00     0.211 HD
ENDBRANCH  19  24
BRANCH  21  26
ATOM     26  O   UNL     1      11.910  15.391 -17.204  1.00  0.00    -0.387 OA
ATOM     27  H   UNL     1      12.391  14.675 -16.710  1.00  0.00     0.211 HD
ENDBRANCH  21  26
BRANCH  22  28
ATOM     28  C   UNL     1       8.682  12.901 -19.664  1.00  0.00     0.191 C 
BRANCH  28  29
ATOM     29  O   UNL     1       7.508  12.165 -19.457  1.00  0.00    -0.394 OA
ATOM     30  H   UNL     1       6.770  12.797 -19.650  1.00  0.00     0.210 HD
ENDBRANCH  28  29
ENDBRANCH  22  28
BRANCH  23  31
ATOM     31  O   UNL     1      10.107  16.177 -19.353  1.00  0.00    -0.387 OA
ATOM     32  H   UNL     1      10.998  16.322 -19.759  1.00  0.00     0.211 HD
ENDBRANCH  23  31
ENDBRANCH   1  18
TORSDOF 11
ENDMDL
