MODEL 1
REMARK VINA RESULT:    -3.939      0.000      0.000
REMARK INTER + INTRA:          -5.487
REMARK INTER:                  -5.090
REMARK INTRA:                  -0.396
REMARK UNBOUND:                -0.396
REMARK SMILES CCO[C@H]1O[C@H](CO)[C@@H](O)[C@H](O)[C@H]1O
REMARK SMILES IDX 4 1 13 2 11 3 9 4 6 5 5 6 3 7 2 8 1 9 14 10 12 12 7 14 8 15
REMARK SMILES IDX 10 17
REMARK H PARENT 14 11 12 13 8 16 10 18
REMARK Flexibility Score: inf
ROOT
ATOM      1  C   UNL     1     -22.810 -12.425  39.391  1.00  0.00     0.281 C 
ATOM      2  C   UNL     1     -22.517 -13.740  40.128  1.00  0.00     0.202 C 
ATOM      3  C   UNL     1     -22.034 -14.817  39.127  1.00  0.00     0.179 C 
ATOM      4  C   UNL     1     -20.891 -14.267  38.250  1.00  0.00     0.177 C 
ATOM      5  C   UNL     1     -21.203 -12.841  37.706  1.00  0.00     0.178 C 
ATOM      6  O   UNL     1     -21.639 -11.961  38.733  1.00  0.00    -0.341 OA
ENDROOT
BRANCH   1   7
ATOM      7  O   UNL     1     -23.221 -11.473  40.354  1.00  0.00    -0.350 OA
BRANCH   7   8
ATOM      8  C   UNL     1     -23.440 -10.210  39.752  1.00  0.00     0.160 C 
ATOM      9  C   UNL     1     -24.691  -9.593  40.350  1.00  0.00     0.035 C 
ENDBRANCH   7   8
ENDBRANCH   1   7
BRANCH   2  10
ATOM     10  O   UNL     1     -21.529 -13.513  41.102  1.00  0.00    -0.385 OA
ATOM     11  H   UNL     1     -21.300 -14.401  41.482  1.00  0.00     0.211 HD
ENDBRANCH   2  10
BRANCH   3  12
ATOM     12  O   UNL     1     -23.059 -15.311  38.294  1.00  0.00    -0.387 OA
ATOM     13  H   UNL     1     -23.949 -15.180  38.716  1.00  0.00     0.211 HD
ENDBRANCH   3  12
BRANCH   5  14
ATOM     14  C   UNL     1     -22.147 -12.818  36.480  1.00  0.00     0.191 C 
BRANCH  14  15
ATOM     15  O   UNL     1     -22.065 -14.022  35.762  1.00  0.00    -0.394 OA
ATOM     16  H   UNL     1     -21.129 -14.332  35.824  1.00  0.00     0.210 HD
ENDBRANCH  14  15
ENDBRANCH   5  14
BRANCH   4  17
ATOM     17  O   UNL     1     -19.711 -14.224  39.013  1.00  0.00    -0.387 OA
ATOM     18  H   UNL     1     -19.877 -14.806  39.804  1.00  0.00     0.211 HD
ENDBRANCH   4  17
TORSDOF 7
ENDMDL
MODEL 2
REMARK VINA RESULT:    -3.933      1.927      2.343
REMARK INTER + INTRA:          -5.480
REMARK INTER:                  -5.023
REMARK INTRA:                  -0.456
REMARK UNBOUND:                -0.396
REMARK SMILES CCO[C@H]1O[C@H](CO)[C@@H](O)[C@H](O)[C@H]1O
REMARK SMILES IDX 4 1 13 2 11 3 9 4 6 5 5 6 3 7 2 8 1 9 14 10 12 12 7 14 8 15
REMARK SMILES IDX 10 17
REMARK H PARENT 14 11 12 13 8 16 10 18
REMARK Flexibility Score: inf
ROOT
ATOM      1  C   UNL     1     -21.638 -11.867  39.108  1.00  0.00     0.281 C 
ATOM      2  C   UNL     1     -22.796 -12.557  39.841  1.00  0.00     0.202 C 
ATOM      3  C   UNL     1     -23.397 -13.676  38.957  1.00  0.00     0.179 C 
ATOM      4  C   UNL     1     -22.285 -14.604  38.428  1.00  0.00     0.177 C 
ATOM      5  C   UNL     1     -21.066 -13.805  37.880  1.00  0.00     0.178 C 
ATOM      6  O   UNL     1     -20.624 -12.810  38.795  1.00  0.00    -0.341 OA
ENDROOT
BRANCH   1   7
ATOM      7  O   UNL     1     -21.112 -10.874  39.970  1.00  0.00    -0.350 OA
BRANCH   7   8
ATOM      8  C   UNL     1     -19.696 -10.902  39.964  1.00  0.00     0.160 C 
ATOM      9  C   UNL     1     -19.193 -10.507  41.341  1.00  0.00     0.035 C 
ENDBRANCH   7   8
ENDBRANCH   1   7
BRANCH   2  10
ATOM     10  O   UNL     1     -22.320 -13.103  41.047  1.00  0.00    -0.385 OA
ATOM     11  H   UNL     1     -22.299 -14.088  40.920  1.00  0.00     0.211 HD
ENDBRANCH   2  10
BRANCH   3  12
ATOM     12  O   UNL     1     -24.149 -13.189  37.867  1.00  0.00    -0.387 OA
ATOM     13  H   UNL     1     -24.569 -13.938  37.367  1.00  0.00     0.211 HD
ENDBRANCH   3  12
BRANCH   5  14
ATOM     14  C   UNL     1     -21.262 -13.237  36.454  1.00  0.00     0.191 C 
BRANCH  14  15
ATOM     15  O   UNL     1     -22.148 -14.038  35.714  1.00  0.00    -0.394 OA
ATOM     16  H   UNL     1     -23.037 -13.608  35.766  1.00  0.00     0.210 HD
ENDBRANCH  14  15
ENDBRANCH   5  14
BRANCH   4  17
ATOM     17  O   UNL     1     -21.858 -15.445  39.471  1.00  0.00    -0.387 OA
ATOM     18  H   UNL     1     -21.041 -15.017  39.848  1.00  0.00     0.211 HD
ENDBRANCH   4  17
TORSDOF 7
ENDMDL
MODEL 3
REMARK VINA RESULT:    -3.866      1.938      3.659
REMARK INTER + INTRA:          -5.393
REMARK INTER:                  -5.237
REMARK INTRA:                  -0.156
REMARK UNBOUND:                -0.396
REMARK SMILES CCO[C@H]1O[C@H](CO)[C@@H](O)[C@H](O)[C@H]1O
REMARK SMILES IDX 4 1 13 2 11 3 9 4 6 5 5 6 3 7 2 8 1 9 14 10 12 12 7 14 8 15
REMARK SMILES IDX 10 17
REMARK H PARENT 14 11 12 13 8 16 10 18
REMARK Flexibility Score: inf
ROOT
ATOM      1  C   UNL     1     -23.017 -13.587  40.389  1.00  0.00     0.281 C 
ATOM      2  C   UNL     1     -22.978 -14.227  38.994  1.00  0.00     0.202 C 
ATOM      3  C   UNL     1     -23.189 -13.148  37.905  1.00  0.00     0.179 C 
ATOM      4  C   UNL     1     -22.232 -11.959  38.128  1.00  0.00     0.177 C 
ATOM      5  C   UNL     1     -22.196 -11.507  39.618  1.00  0.00     0.178 C 
ATOM      6  O   UNL     1     -22.001 -12.601  40.505  1.00  0.00    -0.341 OA
ENDROOT
BRANCH   1   7
ATOM      7  O   UNL     1     -22.794 -14.611  41.340  1.00  0.00    -0.350 OA
BRANCH   7   8
ATOM      8  C   UNL     1     -23.387 -14.281  42.584  1.00  0.00     0.160 C 
ATOM      9  C   UNL     1     -22.859 -15.230  43.644  1.00  0.00     0.035 C 
ENDBRANCH   7   8
ENDBRANCH   1   7
BRANCH   2  10
ATOM     10  O   UNL     1     -21.735 -14.857  38.810  1.00  0.00    -0.385 OA
ATOM     11  H   UNL     1     -21.883 -15.825  38.976  1.00  0.00     0.211 HD
ENDBRANCH   2  10
BRANCH   3  12
ATOM     12  O   UNL     1     -24.514 -12.668  37.837  1.00  0.00    -0.387 OA
ATOM     13  H   UNL     1     -25.158 -13.374  38.109  1.00  0.00     0.211 HD
ENDBRANCH   3  12
BRANCH   5  14
ATOM     14  C   UNL     1     -23.390 -10.619  40.045  1.00  0.00     0.191 C 
BRANCH  14  15
ATOM     15  O   UNL     1     -23.333  -9.366  39.412  1.00  0.00    -0.394 OA
ATOM     16  H   UNL     1     -23.723  -9.480  38.512  1.00  0.00     0.210 HD
ENDBRANCH  14  15
ENDBRANCH   5  14
BRANCH   4  17
ATOM     17  O   UNL     1     -20.938 -12.334  37.726  1.00  0.00    -0.387 OA
ATOM     18  H   UNL     1     -20.315 -11.877  38.356  1.00  0.00     0.211 HD
ENDBRANCH   4  17
TORSDOF 7
ENDMDL
MODEL 4
REMARK VINA RESULT:    -3.862      1.837      3.612
REMARK INTER + INTRA:          -5.387
REMARK INTER:                  -5.233
REMARK INTRA:                  -0.154
REMARK UNBOUND:                -0.396
REMARK SMILES CCO[C@H]1O[C@H](CO)[C@@H](O)[C@H](O)[C@H]1O
REMARK SMILES IDX 4 1 13 2 11 3 9 4 6 5 5 6 3 7 2 8 1 9 14 10 12 12 7 14 8 15
REMARK SMILES IDX 10 17
REMARK H PARENT 14 11 12 13 8 16 10 18
REMARK Flexibility Score: inf
ROOT
ATOM      1  C   UNL     1     -22.681 -13.643  40.178  1.00  0.00     0.281 C 
ATOM      2  C   UNL     1     -23.551 -14.000  38.965  1.00  0.00     0.202 C 
ATOM      3  C   UNL     1     -23.640 -12.793  37.999  1.00  0.00     0.179 C 
ATOM      4  C   UNL     1     -22.233 -12.248  37.683  1.00  0.00     0.177 C 
ATOM      5  C   UNL     1     -21.358 -12.105  38.964  1.00  0.00     0.178 C 
ATOM      6  O   UNL     1     -21.373 -13.285  39.756  1.00  0.00    -0.341 OA
ENDROOT
BRANCH   1   7
ATOM      7  O   UNL     1     -22.613 -14.787  41.011  1.00  0.00    -0.350 OA
BRANCH   7   8
ATOM      8  C   UNL     1     -22.434 -14.413  42.365  1.00  0.00     0.160 C 
ATOM      9  C   UNL     1     -23.782 -14.433  43.061  1.00  0.00     0.035 C 
ENDBRANCH   7   8
ENDBRANCH   1   7
BRANCH   2  10
ATOM     10  O   UNL     1     -22.988 -15.104  38.301  1.00  0.00    -0.385 OA
ATOM     11  H   UNL     1     -23.677 -15.432  37.666  1.00  0.00     0.211 HD
ENDBRANCH   2  10
BRANCH   3  12
ATOM     12  O   UNL     1     -24.445 -11.742  38.485  1.00  0.00    -0.387 OA
ATOM     13  H   UNL     1     -23.902 -10.922  38.631  1.00  0.00     0.211 HD
ENDBRANCH   3  12
BRANCH   5  14
ATOM     14  C   UNL     1     -21.655 -10.838  39.803  1.00  0.00     0.191 C 
BRANCH  14  15
ATOM     15  O   UNL     1     -20.505 -10.411  40.488  1.00  0.00    -0.394 OA
ATOM     16  H   UNL     1     -20.483  -9.425  40.428  1.00  0.00     0.210 HD
ENDBRANCH  14  15
ENDBRANCH   5  14
BRANCH   4  17
ATOM     17  O   UNL     1     -21.596 -13.120  36.783  1.00  0.00    -0.387 OA
ATOM     18  H   UNL     1     -22.328 -13.592  36.299  1.00  0.00     0.211 HD
ENDBRANCH   4  17
TORSDOF 7
ENDMDL
MODEL 5
REMARK VINA RESULT:    -3.826      1.325      2.966
REMARK INTER + INTRA:          -5.340
REMARK INTER:                  -4.953
REMARK INTRA:                  -0.387
REMARK UNBOUND:                -0.396
REMARK SMILES CCO[C@H]1O[C@H](CO)[C@@H](O)[C@H](O)[C@H]1O
REMARK SMILES IDX 4 1 13 2 11 3 9 4 6 5 5 6 3 7 2 8 1 9 14 10 12 12 7 14 8 15
REMARK SMILES IDX 10 17
REMARK H PARENT 14 11 12 13 8 16 10 18
REMARK Flexibility Score: inf
ROOT
ATOM      1  C   UNL     1     -23.130 -12.292  39.108  1.00  0.00     0.281 C 
ATOM      2  C   UNL     1     -22.305 -11.713  37.951  1.00  0.00     0.202 C 
ATOM      3  C   UNL     1     -21.117 -12.649  37.622  1.00  0.00     0.179 C 
ATOM      4  C   UNL     1     -21.606 -14.100  37.441  1.00  0.00     0.177 C 
ATOM      5  C   UNL     1     -22.595 -14.530  38.565  1.00  0.00     0.178 C 
ATOM      6  O   UNL     1     -23.630 -13.575  38.761  1.00  0.00    -0.341 OA
ENDROOT
BRANCH   1   7
ATOM      7  O   UNL     1     -24.213 -11.412  39.349  1.00  0.00    -0.350 OA
BRANCH   7   8
ATOM      8  C   UNL     1     -23.774 -10.247  40.024  1.00  0.00     0.160 C 
ATOM      9  C   UNL     1     -24.988  -9.475  40.508  1.00  0.00     0.035 C 
ENDBRANCH   7   8
ENDBRANCH   1   7
BRANCH   2  10
ATOM     10  O   UNL     1     -23.130 -11.569  36.821  1.00  0.00    -0.385 OA
ATOM     11  H   UNL     1     -22.734 -10.841  36.275  1.00  0.00     0.211 HD
ENDBRANCH   2  10
BRANCH   3  12
ATOM     12  O   UNL     1     -20.094 -12.624  38.593  1.00  0.00    -0.387 OA
ATOM     13  H   UNL     1     -19.411 -13.319  38.402  1.00  0.00     0.211 HD
ENDBRANCH   3  12
BRANCH   5  14
ATOM     14  C   UNL     1     -21.915 -14.931  39.896  1.00  0.00     0.191 C 
BRANCH  14  15
ATOM     15  O   UNL     1     -20.623 -15.434  39.666  1.00  0.00    -0.394 OA
ATOM     16  H   UNL     1     -19.999 -14.872  40.187  1.00  0.00     0.210 HD
ENDBRANCH  14  15
ENDBRANCH   5  14
BRANCH   4  17
ATOM     17  O   UNL     1     -22.244 -14.215  36.193  1.00  0.00    -0.387 OA
ATOM     18  H   UNL     1     -22.176 -15.176  35.940  1.00  0.00     0.211 HD
ENDBRANCH   4  17
TORSDOF 7
ENDMDL
MODEL 6
REMARK VINA RESULT:    -3.806      2.029      3.594
REMARK INTER + INTRA:          -5.314
REMARK INTER:                  -5.101
REMARK INTRA:                  -0.213
REMARK UNBOUND:                -0.396
REMARK SMILES CCO[C@H]1O[C@H](CO)[C@@H](O)[C@H](O)[C@H]1O
REMARK SMILES IDX 4 1 13 2 11 3 9 4 6 5 5 6 3 7 2 8 1 9 14 10 12 12 7 14 8 15
REMARK SMILES IDX 10 17
REMARK H PARENT 14 11 12 13 8 16 10 18
REMARK Flexibility Score: inf
ROOT
ATOM      1  C   UNL     1     -20.738 -12.234  39.695  1.00  0.00     0.281 C 
ATOM      2  C   UNL     1     -21.076 -13.724  39.841  1.00  0.00     0.202 C 
ATOM      3  C   UNL     1     -22.590 -13.904  40.106  1.00  0.00     0.179 C 
ATOM      4  C   UNL     1     -23.418 -13.123  39.065  1.00  0.00     0.177 C 
ATOM      5  C   UNL     1     -22.873 -11.680  38.846  1.00  0.00     0.178 C 
ATOM      6  O   UNL     1     -21.470 -11.667  38.618  1.00  0.00    -0.341 OA
ENDROOT
BRANCH   1   7
ATOM      7  O   UNL     1     -19.351 -12.131  39.429  1.00  0.00    -0.350 OA
BRANCH   7   8
ATOM      8  C   UNL     1     -18.879 -10.827  39.716  1.00  0.00     0.160 C 
ATOM      9  C   UNL     1     -19.272 -10.466  41.137  1.00  0.00     0.035 C 
ENDBRANCH   7   8
ENDBRANCH   1   7
BRANCH   2  10
ATOM     10  O   UNL     1     -20.713 -14.398  38.661  1.00  0.00    -0.385 OA
ATOM     11  H   UNL     1     -20.958 -15.351  38.796  1.00  0.00     0.211 HD
ENDBRANCH   2  10
BRANCH   3  12
ATOM     12  O   UNL     1     -22.986 -13.509  41.401  1.00  0.00    -0.387 OA
ATOM     13  H   UNL     1     -23.140 -14.303  41.979  1.00  0.00     0.211 HD
ENDBRANCH   3  12
BRANCH   5  14
ATOM     14  C   UNL     1     -23.295 -10.665  39.935  1.00  0.00     0.191 C 
BRANCH  14  15
ATOM     15  O   UNL     1     -23.346  -9.362  39.412  1.00  0.00    -0.394 OA
ATOM     16  H   UNL     1     -23.245  -8.741  40.175  1.00  0.00     0.210 HD
ENDBRANCH  14  15
ENDBRANCH   5  14
BRANCH   4  17
ATOM     17  O   UNL     1     -23.392 -13.819  37.845  1.00  0.00    -0.387 OA
ATOM     18  H   UNL     1     -24.332 -14.099  37.671  1.00  0.00     0.211 HD
ENDBRANCH   4  17
TORSDOF 7
ENDMDL
MODEL 7
REMARK VINA RESULT:    -3.789      2.146      3.504
REMARK INTER + INTRA:          -5.293
REMARK INTER:                  -4.929
REMARK INTRA:                  -0.364
REMARK UNBOUND:                -0.396
REMARK SMILES CCO[C@H]1O[C@H](CO)[C@@H](O)[C@H](O)[C@H]1O
REMARK SMILES IDX 4 1 13 2 11 3 9 4 6 5 5 6 3 7 2 8 1 9 14 10 12 12 7 14 8 15
REMARK SMILES IDX 10 17
REMARK H PARENT 14 11 12 13 8 16 10 18
REMARK Flexibility Score: inf
ROOT
ATOM      1  C   UNL     1     -21.785 -12.244  39.822  1.00  0.00     0.281 C 
ATOM      2  C   UNL     1     -22.050 -11.218  38.711  1.00  0.00     0.202 C 
ATOM      3  C   UNL     1     -22.607 -11.926  37.453  1.00  0.00     0.179 C 
ATOM      4  C   UNL     1     -23.793 -12.838  37.825  1.00  0.00     0.177 C 
ATOM      5  C   UNL     1     -23.495 -13.702  39.086  1.00  0.00     0.178 C 
ATOM      6  O   UNL     1     -22.986 -12.922  40.160  1.00  0.00    -0.341 OA
ENDROOT
BRANCH   1   7
ATOM      7  O   UNL     1     -21.303 -11.541  40.952  1.00  0.00    -0.350 OA
BRANCH   7   8
ATOM      8  C   UNL     1     -19.910 -11.739  41.113  1.00  0.00     0.160 C 
ATOM      9  C   UNL     1     -19.207 -10.400  40.975  1.00  0.00     0.035 C 
ENDBRANCH   7   8
ENDBRANCH   1   7
BRANCH   2  10
ATOM     10  O   UNL     1     -22.975 -10.265  39.174  1.00  0.00    -0.385 OA
ATOM     11  H   UNL     1     -22.765 -10.112  40.132  1.00  0.00     0.211 HD
ENDBRANCH   2  10
BRANCH   3  12
ATOM     12  O   UNL     1     -21.640 -12.684  36.759  1.00  0.00    -0.387 OA
ATOM     13  H   UNL     1     -21.008 -12.090  36.275  1.00  0.00     0.211 HD
ENDBRANCH   3  12
BRANCH   5  14
ATOM     14  C   UNL     1     -22.626 -14.953  38.813  1.00  0.00     0.191 C 
BRANCH  14  15
ATOM     15  O   UNL     1     -22.621 -15.270  37.445  1.00  0.00    -0.394 OA
ATOM     16  H   UNL     1     -23.060 -14.521  36.974  1.00  0.00     0.210 HD
ENDBRANCH  14  15
ENDBRANCH   5  14
BRANCH   4  17
ATOM     17  O   UNL     1     -24.925 -12.040  38.067  1.00  0.00    -0.387 OA
ATOM     18  H   UNL     1     -25.458 -12.062  37.225  1.00  0.00     0.211 HD
ENDBRANCH   4  17
TORSDOF 7
ENDMDL
MODEL 8
REMARK VINA RESULT:    -3.698      1.709      4.557
REMARK INTER + INTRA:          -5.176
REMARK INTER:                  -4.850
REMARK INTRA:                  -0.326
REMARK UNBOUND:                -0.396
REMARK SMILES CCO[C@H]1O[C@H](CO)[C@@H](O)[C@H](O)[C@H]1O
REMARK SMILES IDX 4 1 13 2 11 3 9 4 6 5 5 6 3 7 2 8 1 9 14 10 12 12 7 14 8 15
REMARK SMILES IDX 10 17
REMARK H PARENT 14 11 12 13 8 16 10 18
REMARK Flexibility Score: inf
ROOT
ATOM      1  C   UNL     1     -21.739 -13.017  37.110  1.00  0.00     0.281 C 
ATOM      2  C   UNL     1     -23.173 -12.545  36.837  1.00  0.00     0.202 C 
ATOM      3  C   UNL     1     -24.006 -12.586  38.140  1.00  0.00     0.179 C 
ATOM      4  C   UNL     1     -23.264 -11.861  39.280  1.00  0.00     0.177 C 
ATOM      5  C   UNL     1     -21.761 -12.265  39.351  1.00  0.00     0.178 C 
ATOM      6  O   UNL     1     -21.125 -12.184  38.083  1.00  0.00    -0.341 OA
ENDROOT
BRANCH   1   7
ATOM      7  O   UNL     1     -21.018 -12.934  35.894  1.00  0.00    -0.350 OA
BRANCH   7   8
ATOM      8  C   UNL     1     -21.600 -13.766  34.906  1.00  0.00     0.160 C 
ATOM      9  C   UNL     1     -20.873 -13.547  33.592  1.00  0.00     0.035 C 
ENDBRANCH   7   8
ENDBRANCH   1   7
BRANCH   2  10
ATOM     10  O   UNL     1     -23.140 -11.233  36.331  1.00  0.00    -0.385 OA
ATOM     11  H   UNL     1     -22.953 -11.312  35.359  1.00  0.00     0.211 HD
ENDBRANCH   2  10
BRANCH   3  12
ATOM     12  O   UNL     1     -24.332 -13.893  38.559  1.00  0.00    -0.387 OA
ATOM     13  H   UNL     1     -24.065 -14.036  39.506  1.00  0.00     0.211 HD
ENDBRANCH   3  12
BRANCH   5  14
ATOM     14  C   UNL     1     -21.496 -13.621  40.049  1.00  0.00     0.191 C 
BRANCH  14  15
ATOM     15  O   UNL     1     -22.529 -13.931  40.949  1.00  0.00    -0.394 OA
ATOM     16  H   UNL     1     -22.114 -14.037  41.840  1.00  0.00     0.210 HD
ENDBRANCH  14  15
ENDBRANCH   5  14
BRANCH   4  17
ATOM     17  O   UNL     1     -23.361 -10.473  39.079  1.00  0.00    -0.387 OA
ATOM     18  H   UNL     1     -22.602 -10.071  39.582  1.00  0.00     0.211 HD
ENDBRANCH   4  17
TORSDOF 7
ENDMDL
MODEL 9
REMARK VINA RESULT:    -3.698      1.541      4.206
REMARK INTER + INTRA:          -5.175
REMARK INTER:                  -5.095
REMARK INTRA:                  -0.080
REMARK UNBOUND:                -0.396
REMARK SMILES CCO[C@H]1O[C@H](CO)[C@@H](O)[C@H](O)[C@H]1O
REMARK SMILES IDX 4 1 13 2 11 3 9 4 6 5 5 6 3 7 2 8 1 9 14 10 12 12 7 14 8 15
REMARK SMILES IDX 10 17
REMARK H PARENT 14 11 12 13 8 16 10 18
REMARK Flexibility Score: inf
ROOT
ATOM      1  C   UNL     1     -22.299 -12.542  37.288  1.00  0.00     0.281 C 
ATOM      2  C   UNL     1     -21.678 -13.862  37.766  1.00  0.00     0.202 C 
ATOM      3  C   UNL     1     -21.305 -13.764  39.265  1.00  0.00     0.179 C 
ATOM      4  C   UNL     1     -22.501 -13.243  40.088  1.00  0.00     0.177 C 
ATOM      5  C   UNL     1     -23.185 -12.016  39.415  1.00  0.00     0.178 C 
ATOM      6  O   UNL     1     -23.466 -12.246  38.041  1.00  0.00    -0.341 OA
ENDROOT
BRANCH   1   7
ATOM      7  O   UNL     1     -22.643 -12.696  35.923  1.00  0.00    -0.350 OA
BRANCH   7   8
ATOM      8  C   UNL     1     -21.505 -13.039  35.153  1.00  0.00     0.160 C 
ATOM      9  C   UNL     1     -21.962 -13.484  33.775  1.00  0.00     0.035 C 
ENDBRANCH   7   8
ENDBRANCH   1   7
BRANCH   2  10
ATOM     10  O   UNL     1     -22.601 -14.904  37.570  1.00  0.00    -0.385 OA
ATOM     11  H   UNL     1     -23.091 -14.692  36.732  1.00  0.00     0.211 HD
ENDBRANCH   2  10
BRANCH   3  12
ATOM     12  O   UNL     1     -20.183 -12.946  39.513  1.00  0.00    -0.387 OA
ATOM     13  H   UNL     1     -19.381 -13.499  39.708  1.00  0.00     0.211 HD
ENDBRANCH   3  12
BRANCH   5  14
ATOM     14  C   UNL     1     -22.453 -10.672  39.642  1.00  0.00     0.191 C 
BRANCH  14  15
ATOM     15  O   UNL     1     -23.341  -9.591  39.520  1.00  0.00    -0.394 OA
ATOM     16  H   UNL     1     -22.793  -8.768  39.508  1.00  0.00     0.210 HD
ENDBRANCH  14  15
ENDBRANCH   5  14
BRANCH   4  17
ATOM     17  O   UNL     1     -23.442 -14.278  40.230  1.00  0.00    -0.387 OA
ATOM     18  H   UNL     1     -22.983 -15.107  39.924  1.00  0.00     0.211 HD
ENDBRANCH   4  17
TORSDOF 7
ENDMDL
