MODEL 1
REMARK VINA RESULT:    -4.185      0.000      0.000
REMARK INTER + INTRA:          -4.516
REMARK INTER:                  -4.552
REMARK INTRA:                   0.036
REMARK UNBOUND:                 0.036
REMARK SMILES CC(=O)[C@@H]1CC[C@H]2[C@H]3CC=C4C[C@@H](O)CC[C@@]4(C)[C@@H]3CC[C@@]12C
REMARK SMILES IDX 4 1 5 2 6 3 7 4 22 5 21 6 20 7 19 8 8 9 9 10 10 11 11 12
REMARK SMILES IDX 17 13 16 14 15 15 13 16 12 17 18 18 23 19 2 20 1 21 3 22
REMARK SMILES IDX 14 23
REMARK H PARENT 14 24
REMARK Flexibility Score: inf
ROOT
ATOM      1  C   UNL     1      27.077  35.548  20.355  1.00  0.00     0.062 C 
ATOM      2  C   UNL     1      26.274  35.856  19.080  1.00  0.00     0.012 C 
ATOM      3  C   UNL     1      26.883  37.115  18.459  1.00  0.00     0.005 C 
ATOM      4  C   UNL     1      28.103  37.492  19.318  1.00  0.00    -0.001 C 
ATOM      5  C   UNL     1      27.818  36.874  20.702  1.00  0.00    -0.020 C 
ATOM      6  C   UNL     1      26.848  37.783  21.515  1.00  0.00     0.008 C 
ATOM      7  C   UNL     1      27.303  39.242  21.596  1.00  0.00     0.005 C 
ATOM      8  C   UNL     1      27.490  39.866  20.191  1.00  0.00     0.003 C 
ATOM      9  C   UNL     1      28.470  39.009  19.350  1.00  0.00     0.000 C 
ATOM     10  C   UNL     1      28.593  39.571  17.924  1.00  0.00     0.031 C 
ATOM     11  C   UNL     1      28.792  41.055  17.886  1.00  0.00    -0.027 C 
ATOM     12  C   UNL     1      28.350  41.889  18.850  1.00  0.00    -0.065 C 
ATOM     13  C   UNL     1      27.926  41.388  20.240  1.00  0.00    -0.008 C 
ATOM     14  C   UNL     1      26.710  42.240  20.727  1.00  0.00     0.014 C 
ATOM     15  C   UNL     1      26.904  43.756  20.557  1.00  0.00     0.033 C 
ATOM     16  C   UNL     1      27.217  44.125  19.103  1.00  0.00     0.118 C 
ATOM     17  C   UNL     1      28.470  43.385  18.615  1.00  0.00     0.063 C 
ATOM     18  C   UNL     1      29.123  41.606  21.207  1.00  0.00     0.016 C 
ATOM     19  C   UNL     1      29.122  36.638  21.508  1.00  0.00     0.012 C 
ENDROOT
BRANCH   1  20
ATOM     20  C   UNL     1      28.000  34.358  20.123  1.00  0.00     0.133 C 
ATOM     21  C   UNL     1      28.440  33.482  21.260  1.00  0.00     0.088 C 
ATOM     22  O   UNL     1      28.394  34.098  18.995  1.00  0.00    -0.300 OA
ENDBRANCH   1  20
BRANCH  16  23
ATOM     23  O   UNL     1      26.116  43.812  18.288  1.00  0.00    -0.393 OA
ATOM     24  H   UNL     1      25.301  43.983  18.828  1.00  0.00     0.210 HD
ENDBRANCH  16  23
TORSDOF 2
ENDMDL
MODEL 2
REMARK VINA RESULT:    -3.594      2.351      6.770
REMARK INTER + INTRA:          -3.873
REMARK INTER:                  -3.874
REMARK INTRA:                   0.001
REMARK UNBOUND:                 0.036
REMARK SMILES CC(=O)[C@@H]1CC[C@H]2[C@H]3CC=C4C[C@@H](O)CC[C@@]4(C)[C@@H]3CC[C@@]12C
REMARK SMILES IDX 4 1 5 2 6 3 7 4 22 5 21 6 20 7 19 8 8 9 9 10 10 11 11 12
REMARK SMILES IDX 17 13 16 14 15 15 13 16 12 17 18 18 23 19 2 20 1 21 3 22
REMARK SMILES IDX 14 23
REMARK H PARENT 14 24
REMARK Flexibility Score: inf
ROOT
ATOM      1  C   UNL     1      27.967  42.975  21.465  1.00  0.00     0.062 C 
ATOM      2  C   UNL     1      26.676  43.321  20.703  1.00  0.00     0.012 C 
ATOM      3  C   UNL     1      25.725  42.132  20.868  1.00  0.00     0.005 C 
ATOM      4  C   UNL     1      26.422  41.130  21.805  1.00  0.00    -0.001 C 
ATOM      5  C   UNL     1      27.927  41.430  21.655  1.00  0.00    -0.020 C 
ATOM      6  C   UNL     1      28.491  40.758  20.366  1.00  0.00     0.008 C 
ATOM      7  C   UNL     1      28.167  39.266  20.265  1.00  0.00     0.005 C 
ATOM      8  C   UNL     1      26.641  39.002  20.322  1.00  0.00     0.003 C 
ATOM      9  C   UNL     1      26.038  39.630  21.604  1.00  0.00     0.000 C 
ATOM     10  C   UNL     1      24.511  39.451  21.626  1.00  0.00     0.031 C 
ATOM     11  C   UNL     1      24.072  38.060  21.285  1.00  0.00    -0.027 C 
ATOM     12  C   UNL     1      24.787  37.225  20.503  1.00  0.00    -0.065 C 
ATOM     13  C   UNL     1      26.271  37.469  20.182  1.00  0.00    -0.008 C 
ATOM     14  C   UNL     1      26.541  37.022  18.710  1.00  0.00     0.014 C 
ATOM     15  C   UNL     1      25.966  35.639  18.363  1.00  0.00     0.033 C 
ATOM     16  C   UNL     1      24.460  35.570  18.633  1.00  0.00     0.118 C 
ATOM     17  C   UNL     1      24.157  35.903  20.100  1.00  0.00     0.063 C 
ATOM     18  C   UNL     1      27.114  36.589  21.147  1.00  0.00     0.016 C 
ATOM     19  C   UNL     1      28.735  40.959  22.894  1.00  0.00     0.012 C 
ENDROOT
BRANCH   1  20
ATOM     20  C   UNL     1      28.039  43.765  22.765  1.00  0.00     0.133 C 
ATOM     21  C   UNL     1      26.797  44.117  23.531  1.00  0.00     0.088 C 
ATOM     22  O   UNL     1      29.122  44.124  23.205  1.00  0.00    -0.300 OA
ENDBRANCH   1  20
BRANCH  16  23
ATOM     23  O   UNL     1      23.785  36.461  17.780  1.00  0.00    -0.393 OA
ATOM     24  H   UNL     1      24.476  37.042  17.367  1.00  0.00     0.210 HD
ENDBRANCH  16  23
TORSDOF 2
ENDMDL
MODEL 3
REMARK VINA RESULT:    -3.536      1.121      6.788
REMARK INTER + INTRA:          -3.811
REMARK INTER:                  -4.114
REMARK INTRA:                   0.304
REMARK UNBOUND:                 0.036
REMARK SMILES CC(=O)[C@@H]1CC[C@H]2[C@H]3CC=C4C[C@@H](O)CC[C@@]4(C)[C@@H]3CC[C@@]12C
REMARK SMILES IDX 4 1 5 2 6 3 7 4 22 5 21 6 20 7 19 8 8 9 9 10 10 11 11 12
REMARK SMILES IDX 17 13 16 14 15 15 13 16 12 17 18 18 23 19 2 20 1 21 3 22
REMARK SMILES IDX 14 23
REMARK H PARENT 14 24
REMARK Flexibility Score: inf
ROOT
ATOM      1  C   UNL     1      28.195  42.486  19.850  1.00  0.00     0.062 C 
ATOM      2  C   UNL     1      28.653  42.033  18.453  1.00  0.00     0.012 C 
ATOM      3  C   UNL     1      27.987  40.683  18.178  1.00  0.00     0.005 C 
ATOM      4  C   UNL     1      27.064  40.389  19.374  1.00  0.00    -0.001 C 
ATOM      5  C   UNL     1      27.661  41.197  20.543  1.00  0.00    -0.020 C 
ATOM      6  C   UNL     1      28.869  40.438  21.170  1.00  0.00     0.008 C 
ATOM      7  C   UNL     1      28.549  38.990  21.548  1.00  0.00     0.005 C 
ATOM      8  C   UNL     1      28.041  38.175  20.333  1.00  0.00     0.003 C 
ATOM      9  C   UNL     1      26.820  38.879  19.690  1.00  0.00     0.000 C 
ATOM     10  C   UNL     1      26.363  38.126  18.429  1.00  0.00     0.031 C 
ATOM     11  C   UNL     1      26.261  36.644  18.628  1.00  0.00    -0.027 C 
ATOM     12  C   UNL     1      26.995  35.963  19.532  1.00  0.00    -0.065 C 
ATOM     13  C   UNL     1      27.735  36.661  20.685  1.00  0.00    -0.008 C 
ATOM     14  C   UNL     1      29.090  35.921  20.927  1.00  0.00     0.014 C 
ATOM     15  C   UNL     1      28.959  34.391  21.001  1.00  0.00     0.033 C 
ATOM     16  C   UNL     1      28.300  33.819  19.742  1.00  0.00     0.118 C 
ATOM     17  C   UNL     1      26.917  34.446  19.523  1.00  0.00     0.063 C 
ATOM     18  C   UNL     1      26.851  36.539  21.957  1.00  0.00     0.016 C 
ATOM     19  C   UNL     1      26.602  41.500  21.636  1.00  0.00     0.012 C 
ENDROOT
BRANCH   1  20
ATOM     20  C   UNL     1      27.167  43.605  19.731  1.00  0.00     0.133 C 
ATOM     21  C   UNL     1      26.702  44.094  18.389  1.00  0.00     0.088 C 
ATOM     22  O   UNL     1      26.702  44.120  20.737  1.00  0.00    -0.300 OA
ENDBRANCH   1  20
BRANCH  16  23
ATOM     23  O   UNL     1      29.125  34.052  18.629  1.00  0.00    -0.393 OA
ATOM     24  H   UNL     1      29.743  34.787  18.879  1.00  0.00     0.210 HD
ENDBRANCH  16  23
TORSDOF 2
ENDMDL
