MODEL 1
REMARK VINA RESULT:    -3.015      0.000      0.000
REMARK INTER + INTRA:          -5.098
REMARK INTER:                  -4.601
REMARK INTRA:                  -0.497
REMARK UNBOUND:                -0.497
REMARK SMILES CC1=CCC[C@@H](C)C(=O)C[C@@H](C(C)C)C(=O)C1
REMARK SMILES IDX 8 1 9 2 6 3 7 4 5 5 4 6 3 7 2 8 1 9 10 11 11 12 15 13 16 14
REMARK SMILES IDX 17 15 12 17 13 18 14 19
REMARK H PARENT
REMARK Flexibility Score: 70.00
ROOT
ATOM      1  C   UNL     1     150.144 151.767 165.702  1.00  0.00     0.136 C 
ATOM      2  O   UNL     1     150.888 151.010 165.092  1.00  0.00    -0.299 OA
ENDROOT
BRANCH   1   3
ATOM      3  C   UNL     1     150.536 152.267 167.083  1.00  0.00     0.053 C 
ATOM      4  C   UNL     1     152.059 152.419 167.236  1.00  0.00     0.016 C 
BRANCH   3   5
ATOM      5  C   UNL     1     149.952 151.383 168.210  1.00  0.00     0.015 C 
BRANCH   5   6
ATOM      6  C   UNL     1     148.775 152.027 168.983  1.00  0.00     0.028 C 
BRANCH   6   7
ATOM      7  C   UNL     1     147.492 151.267 168.740  1.00  0.00    -0.028 C 
ATOM      8  C   UNL     1     146.376 151.770 168.157  1.00  0.00    -0.070 CG0
ATOM      9  C   UNL     1     145.142 150.903 168.130  1.00  0.00     0.039 C 
ATOM     10  G   UNL     1     146.308 153.154 167.530  1.00  0.00     0.000 G0
ENDBRANCH   6   7
ENDBRANCH   5   6
ENDBRANCH   3   5
ENDBRANCH   1   3
BRANCH   1  11
ATOM     11  C   UNL     1     148.828 152.157 165.067  1.00  0.00     0.087 C 
BRANCH  11  12
ATOM     12  C   UNL     1     148.230 153.452 165.679  1.00  0.00     0.066 C 
BRANCH  12  13
ATOM     13  C   UNL     1     146.771 153.262 166.088  1.00  0.00     0.140 C 
ATOM     14  O   UNL     1     145.925 153.158 165.213  1.00  0.00    -0.299 OA
BRANCH  13  15
ATOM     15  C   UNL     1     146.299 153.166 167.527  1.00  0.00     0.106 CG0
ATOM     16  G   UNL     1     146.368 151.782 168.156  1.00  0.00     0.000 G0
ENDBRANCH  13  15
ENDBRANCH  12  13
BRANCH  12  17
ATOM     17  C   UNL     1     148.403 154.718 164.780  1.00  0.00    -0.006 C 
ATOM     18  C   UNL     1     149.589 155.580 165.240  1.00  0.00     0.008 C 
ATOM     19  C   UNL     1     148.531 154.419 163.276  1.00  0.00     0.008 C 
ENDBRANCH  12  17
ENDBRANCH  11  12
ENDBRANCH   1  11
TORSDOF 1
ENDMDL
MODEL 2
REMARK VINA RESULT:    -2.862      1.997      4.364
REMARK INTER + INTRA:          -4.865
REMARK INTER:                  -4.515
REMARK INTRA:                  -0.349
REMARK UNBOUND:                -0.497
REMARK SMILES CC1=CCC[C@@H](C)C(=O)C[C@@H](C(C)C)C(=O)C1
REMARK SMILES IDX 8 1 9 2 6 3 7 4 5 5 4 6 3 7 2 8 1 9 10 11 11 12 15 13 16 14
REMARK SMILES IDX 17 15 12 17 13 18 14 19
REMARK H PARENT
REMARK Flexibility Score: 70.00
ROOT
ATOM      1  C   UNL     1     148.344 151.817 168.373  1.00  0.00     0.136 C 
ATOM      2  O   UNL     1     148.125 151.083 169.328  1.00  0.00    -0.299 OA
ENDROOT
BRANCH   1   3
ATOM      3  C   UNL     1     149.704 151.792 167.692  1.00  0.00     0.053 C 
ATOM      4  C   UNL     1     150.861 151.786 168.706  1.00  0.00     0.016 C 
BRANCH   3   5
ATOM      5  C   UNL     1     149.866 152.943 166.673  1.00  0.00     0.015 C 
BRANCH   5   6
ATOM      6  C   UNL     1     149.677 152.520 165.195  1.00  0.00     0.028 C 
BRANCH   6   7
ATOM      7  C   UNL     1     149.023 153.625 164.399  1.00  0.00    -0.028 C 
ATOM      8  C   UNL     1     147.728 153.648 164.000  1.00  0.00    -0.070 CG0
ATOM      9  C   UNL     1     147.291 154.767 163.088  1.00  0.00     0.039 C 
ATOM     10  G   UNL     1     146.701 152.610 164.424  1.00  0.00     0.000 G0
ENDBRANCH   6   7
ENDBRANCH   5   6
ENDBRANCH   3   5
ENDBRANCH   1   3
BRANCH   1  11
ATOM     11  C   UNL     1     147.253 152.760 167.919  1.00  0.00     0.087 C 
BRANCH  11  12
ATOM     12  C   UNL     1     146.202 152.065 167.010  1.00  0.00     0.066 C 
BRANCH  12  13
ATOM     13  C   UNL     1     145.948 152.860 165.732  1.00  0.00     0.140 C 
ATOM     14  O   UNL     1     145.134 153.771 165.760  1.00  0.00    -0.299 OA
BRANCH  13  15
ATOM     15  C   UNL     1     146.667 152.609 164.419  1.00  0.00     0.106 CG0
ATOM     16  G   UNL     1     147.710 153.645 164.027  1.00  0.00     0.000 G0
ENDBRANCH  13  15
ENDBRANCH  12  13
BRANCH  12  17
ATOM     17  C   UNL     1     144.863 151.721 167.736  1.00  0.00    -0.006 C 
ATOM     18  C   UNL     1     144.729 150.211 167.990  1.00  0.00     0.008 C 
ATOM     19  C   UNL     1     144.634 152.491 169.050  1.00  0.00     0.008 C 
ENDBRANCH  12  17
ENDBRANCH  11  12
ENDBRANCH   1  11
TORSDOF 1
ENDMDL
MODEL 3
REMARK VINA RESULT:    -2.821      1.735      3.834
REMARK INTER + INTRA:          -4.802
REMARK INTER:                  -4.811
REMARK INTRA:                   0.009
REMARK UNBOUND:                -0.497
REMARK SMILES CC1=CCC[C@@H](C)C(=O)C[C@@H](C(C)C)C(=O)C1
REMARK SMILES IDX 8 1 9 2 6 3 7 4 5 5 4 6 3 7 2 8 1 9 10 11 11 12 15 13 16 14
REMARK SMILES IDX 17 15 12 17 13 18 14 19
REMARK H PARENT
REMARK Flexibility Score: 70.00
ROOT
ATOM      1  C   UNL     1     150.827 152.167 166.317  1.00  0.00     0.136 C 
ATOM      2  O   UNL     1     151.826 152.848 166.129  1.00  0.00    -0.299 OA
ENDROOT
BRANCH   1   3
ATOM      3  C   UNL     1     150.251 151.335 165.183  1.00  0.00     0.053 C 
ATOM      4  C   UNL     1     151.084 150.072 164.908  1.00  0.00     0.016 C 
BRANCH   3   5
ATOM      5  C   UNL     1     150.058 152.163 163.892  1.00  0.00     0.015 C 
BRANCH   5   6
ATOM      6  C   UNL     1     148.801 153.068 163.893  1.00  0.00     0.028 C 
BRANCH   6   7
ATOM      7  C   UNL     1     147.547 152.245 164.079  1.00  0.00    -0.028 C 
ATOM      8  C   UNL     1     146.681 152.352 165.116  1.00  0.00    -0.070 CG0
ATOM      9  C   UNL     1     145.560 151.347 165.206  1.00  0.00     0.039 C 
ATOM     10  G   UNL     1     146.781 153.429 166.185  1.00  0.00     0.000 G0
ENDBRANCH   6   7
ENDBRANCH   5   6
ENDBRANCH   3   5
ENDBRANCH   1   3
BRANCH   1  11
ATOM     11  C   UNL     1     150.171 152.205 167.679  1.00  0.00     0.087 C 
BRANCH  11  12
ATOM     12  C   UNL     1     148.624 152.084 167.601  1.00  0.00     0.066 C 
BRANCH  12  13
ATOM     13  C   UNL     1     147.981 153.379 167.113  1.00  0.00     0.140 C 
ATOM     14  O   UNL     1     148.480 154.444 167.446  1.00  0.00    -0.299 OA
BRANCH  13  15
ATOM     15  C   UNL     1     146.762 153.435 166.210  1.00  0.00     0.106 CG0
ATOM     16  G   UNL     1     146.690 152.367 165.129  1.00  0.00     0.000 G0
ENDBRANCH  13  15
ENDBRANCH  12  13
BRANCH  12  17
ATOM     17  C   UNL     1     147.959 151.586 168.923  1.00  0.00    -0.006 C 
ATOM     18  C   UNL     1     146.541 151.045 168.674  1.00  0.00     0.008 C 
ATOM     19  C   UNL     1     148.783 150.544 169.699  1.00  0.00     0.008 C 
ENDBRANCH  12  17
ENDBRANCH  11  12
ENDBRANCH   1  11
TORSDOF 1
ENDMDL
MODEL 4
REMARK VINA RESULT:    -2.718      3.307      5.839
REMARK INTER + INTRA:          -4.645
REMARK INTER:                  -4.385
REMARK INTRA:                  -0.260
REMARK UNBOUND:                -0.497
REMARK SMILES CC1=CCC[C@@H](C)C(=O)C[C@@H](C(C)C)C(=O)C1
REMARK SMILES IDX 8 1 9 2 6 3 7 4 5 5 4 6 3 7 2 8 1 9 10 11 11 12 15 13 16 14
REMARK SMILES IDX 17 15 12 17 13 18 14 19
REMARK H PARENT
REMARK Flexibility Score: 70.00
ROOT
ATOM      1  C   UNL     1     149.773 152.142 165.515  1.00  0.00     0.136 C 
ATOM      2  O   UNL     1     150.380 151.430 166.303  1.00  0.00    -0.299 OA
ENDROOT
BRANCH   1   3
ATOM      3  C   UNL     1     149.504 153.598 165.857  1.00  0.00     0.053 C 
ATOM      4  C   UNL     1     148.011 153.870 166.109  1.00  0.00     0.016 C 
BRANCH   3   5
ATOM      5  C   UNL     1     150.070 154.562 164.790  1.00  0.00     0.015 C 
BRANCH   5   6
ATOM      6  C   UNL     1     148.993 155.331 163.985  1.00  0.00     0.028 C 
BRANCH   6   7
ATOM      7  C   UNL     1     149.453 155.574 162.566  1.00  0.00    -0.028 C 
ATOM      8  C   UNL     1     149.492 154.645 161.581  1.00  0.00    -0.070 CG0
ATOM      9  C   UNL     1     150.117 155.037 160.266  1.00  0.00     0.039 C 
ATOM     10  G   UNL     1     148.940 153.236 161.734  1.00  0.00     0.000 G0
ENDBRANCH   6   7
ENDBRANCH   5   6
ENDBRANCH   3   5
ENDBRANCH   1   3
BRANCH   1  11
ATOM     11  C   UNL     1     149.272 151.530 164.225  1.00  0.00     0.087 C 
BRANCH  11  12
ATOM     12  C   UNL     1     150.377 151.442 163.137  1.00  0.00     0.066 C 
BRANCH  12  13
ATOM     13  C   UNL     1     149.932 152.088 161.828  1.00  0.00     0.140 C 
ATOM     14  O   UNL     1     150.388 151.660 160.778  1.00  0.00    -0.299 OA
BRANCH  13  15
ATOM     15  C   UNL     1     148.928 153.223 161.738  1.00  0.00     0.106 CG0
ATOM     16  G   UNL     1     149.517 154.618 161.594  1.00  0.00     0.000 G0
ENDBRANCH  13  15
ENDBRANCH  12  13
BRANCH  12  17
ATOM     17  C   UNL     1     150.918 149.997 162.898  1.00  0.00    -0.006 C 
ATOM     18  C   UNL     1     152.291 149.791 163.558  1.00  0.00     0.008 C 
ATOM     19  C   UNL     1     149.959 148.876 163.334  1.00  0.00     0.008 C 
ENDBRANCH  12  17
ENDBRANCH  11  12
ENDBRANCH   1  11
TORSDOF 1
ENDMDL
MODEL 5
REMARK VINA RESULT:    -2.702      2.303      3.831
REMARK INTER + INTRA:          -4.620
REMARK INTER:                  -4.543
REMARK INTRA:                  -0.076
REMARK UNBOUND:                -0.497
REMARK SMILES CC1=CCC[C@@H](C)C(=O)C[C@@H](C(C)C)C(=O)C1
REMARK SMILES IDX 8 1 9 2 6 3 7 4 5 5 4 6 3 7 2 8 1 9 10 11 11 12 15 13 16 14
REMARK SMILES IDX 17 15 12 17 13 18 14 19
REMARK H PARENT
REMARK Flexibility Score: 70.00
ROOT
ATOM      1  C   UNL     1     150.342 152.183 166.475  1.00  0.00     0.136 C 
ATOM      2  O   UNL     1     151.313 152.842 166.128  1.00  0.00    -0.299 OA
ENDROOT
BRANCH   1   3
ATOM      3  C   UNL     1     149.695 152.439 167.827  1.00  0.00     0.053 C 
ATOM      4  C   UNL     1     149.408 151.135 168.590  1.00  0.00     0.016 C 
BRANCH   3   5
ATOM      5  C   UNL     1     148.418 153.303 167.708  1.00  0.00     0.015 C 
BRANCH   5   6
ATOM      6  C   UNL     1     147.227 152.594 167.017  1.00  0.00     0.028 C 
BRANCH   6   7
ATOM      7  C   UNL     1     146.704 153.420 165.865  1.00  0.00    -0.028 C 
ATOM      8  C   UNL     1     146.824 153.107 164.552  1.00  0.00    -0.070 CG0
ATOM      9  C   UNL     1     146.366 154.126 163.539  1.00  0.00     0.039 C 
ATOM     10  G   UNL     1     147.393 151.788 164.053  1.00  0.00     0.000 G0
ENDBRANCH   6   7
ENDBRANCH   5   6
ENDBRANCH   3   5
ENDBRANCH   1   3
BRANCH   1  11
ATOM     11  C   UNL     1     149.835 151.098 165.551  1.00  0.00     0.087 C 
BRANCH  11  12
ATOM     12  C   UNL     1     150.050 151.442 164.052  1.00  0.00     0.066 C 
BRANCH  12  13
ATOM     13  C   UNL     1     148.742 151.836 163.371  1.00  0.00     0.140 C 
ATOM     14  O   UNL     1     148.774 152.197 162.203  1.00  0.00    -0.299 OA
BRANCH  13  15
ATOM     15  C   UNL     1     147.383 151.783 164.045  1.00  0.00     0.106 CG0
ATOM     16  G   UNL     1     146.838 153.113 164.542  1.00  0.00     0.000 G0
ENDBRANCH  13  15
ENDBRANCH  12  13
BRANCH  12  17
ATOM     17  C   UNL     1     150.792 150.330 163.246  1.00  0.00    -0.006 C 
ATOM     18  C   UNL     1     152.160 150.000 163.866  1.00  0.00     0.008 C 
ATOM     19  C   UNL     1     149.985 149.034 163.053  1.00  0.00     0.008 C 
ENDBRANCH  12  17
ENDBRANCH  11  12
ENDBRANCH   1  11
TORSDOF 1
ENDMDL
MODEL 6
REMARK VINA RESULT:    -2.674      2.265      4.403
REMARK INTER + INTRA:          -4.578
REMARK INTER:                  -4.075
REMARK INTRA:                  -0.502
REMARK UNBOUND:                -0.497
REMARK SMILES CC1=CCC[C@@H](C)C(=O)C[C@@H](C(C)C)C(=O)C1
REMARK SMILES IDX 8 1 9 2 6 3 7 4 5 5 4 6 3 7 2 8 1 9 10 11 11 12 15 13 16 14
REMARK SMILES IDX 17 15 12 17 13 18 14 19
REMARK H PARENT
REMARK Flexibility Score: 70.00
ROOT
ATOM      1  C   UNL     1     148.090 153.427 167.290  1.00  0.00     0.136 C 
ATOM      2  O   UNL     1     148.572 154.476 167.698  1.00  0.00    -0.299 OA
ENDROOT
BRANCH   1   3
ATOM      3  C   UNL     1     149.000 152.263 166.931  1.00  0.00     0.053 C 
ATOM      4  C   UNL     1     149.964 151.905 168.074  1.00  0.00     0.016 C 
BRANCH   3   5
ATOM      5  C   UNL     1     149.770 152.509 165.613  1.00  0.00     0.015 C 
BRANCH   5   6
ATOM      6  C   UNL     1     148.895 153.039 164.450  1.00  0.00     0.028 C 
BRANCH   6   7
ATOM      7  C   UNL     1     148.339 151.897 163.631  1.00  0.00    -0.028 C 
ATOM      8  C   UNL     1     147.050 151.478 163.637  1.00  0.00    -0.070 CG0
ATOM      9  C   UNL     1     146.710 150.230 162.863  1.00  0.00     0.039 C 
ATOM     10  G   UNL     1     145.936 152.201 164.379  1.00  0.00     0.000 G0
ENDBRANCH   6   7
ENDBRANCH   5   6
ENDBRANCH   3   5
ENDBRANCH   1   3
BRANCH   1  11
ATOM     11  C   UNL     1     146.590 153.337 167.120  1.00  0.00     0.087 C 
BRANCH  11  12
ATOM     12  C   UNL     1     146.084 151.871 167.046  1.00  0.00     0.066 C 
BRANCH  12  13
ATOM     13  C   UNL     1     145.478 151.551 165.682  1.00  0.00     0.140 C 
ATOM     14  O   UNL     1     144.559 150.748 165.622  1.00  0.00    -0.299 OA
BRANCH  13  15
ATOM     15  C   UNL     1     145.927 152.193 164.381  1.00  0.00     0.106 CG0
ATOM     16  G   UNL     1     147.040 151.472 163.637  1.00  0.00     0.000 G0
ENDBRANCH  13  15
ENDBRANCH  12  13
BRANCH  12  17
ATOM     17  C   UNL     1     145.111 151.476 168.201  1.00  0.00    -0.006 C 
ATOM     18  C   UNL     1     145.613 150.240 168.966  1.00  0.00     0.008 C 
ATOM     19  C   UNL     1     144.806 152.612 169.195  1.00  0.00     0.008 C 
ENDBRANCH  12  17
ENDBRANCH  11  12
ENDBRANCH   1  11
TORSDOF 1
ENDMDL
MODEL 7
REMARK VINA RESULT:    -2.672      2.066      2.823
REMARK INTER + INTRA:          -4.574
REMARK INTER:                  -4.149
REMARK INTRA:                  -0.425
REMARK UNBOUND:                -0.497
REMARK SMILES CC1=CCC[C@@H](C)C(=O)C[C@@H](C(C)C)C(=O)C1
REMARK SMILES IDX 8 1 9 2 6 3 7 4 5 5 4 6 3 7 2 8 1 9 10 11 11 12 15 13 16 14
REMARK SMILES IDX 17 15 12 17 13 18 14 19
REMARK H PARENT
REMARK Flexibility Score: 70.00
ROOT
ATOM      1  C   UNL     1     150.010 154.223 165.218  1.00  0.00     0.136 C 
ATOM      2  O   UNL     1     150.833 155.128 165.192  1.00  0.00    -0.299 OA
ENDROOT
BRANCH   1   3
ATOM      3  C   UNL     1     149.842 153.383 166.474  1.00  0.00     0.053 C 
ATOM      4  C   UNL     1     149.951 151.877 166.186  1.00  0.00     0.016 C 
BRANCH   3   5
ATOM      5  C   UNL     1     148.530 153.711 167.223  1.00  0.00     0.015 C 
BRANCH   5   6
ATOM      6  C   UNL     1     147.492 152.562 167.228  1.00  0.00     0.028 C 
BRANCH   6   7
ATOM      7  C   UNL     1     146.098 153.095 166.991  1.00  0.00    -0.028 C 
ATOM      8  C   UNL     1     145.556 153.373 165.780  1.00  0.00    -0.070 CG0
ATOM      9  C   UNL     1     144.202 154.035 165.748  1.00  0.00     0.039 C 
ATOM     10  G   UNL     1     146.240 153.050 164.460  1.00  0.00     0.000 G0
ENDBRANCH   6   7
ENDBRANCH   5   6
ENDBRANCH   3   5
ENDBRANCH   1   3
BRANCH   1  11
ATOM     11  C   UNL     1     149.203 153.943 163.969  1.00  0.00     0.087 C 
BRANCH  11  12
ATOM     12  C   UNL     1     148.033 154.946 163.777  1.00  0.00     0.066 C 
BRANCH  12  13
ATOM     13  C   UNL     1     146.696 154.229 163.607  1.00  0.00     0.140 C 
ATOM     14  O   UNL     1     145.936 154.605 162.727  1.00  0.00    -0.299 OA
BRANCH  13  15
ATOM     15  C   UNL     1     146.254 153.047 164.450  1.00  0.00     0.106 CG0
ATOM     16  G   UNL     1     145.563 153.390 165.761  1.00  0.00     0.000 G0
ENDBRANCH  13  15
ENDBRANCH  12  13
BRANCH  12  17
ATOM     17  C   UNL     1     148.267 155.981 162.632  1.00  0.00    -0.006 C 
ATOM     18  C   UNL     1     148.576 157.381 163.189  1.00  0.00     0.008 C 
ATOM     19  C   UNL     1     149.350 155.576 161.616  1.00  0.00     0.008 C 
ENDBRANCH  12  17
ENDBRANCH  11  12
ENDBRANCH   1  11
TORSDOF 1
ENDMDL
MODEL 8
REMARK VINA RESULT:    -2.606      2.682      5.690
REMARK INTER + INTRA:          -4.474
REMARK INTER:                  -3.983
REMARK INTRA:                  -0.490
REMARK UNBOUND:                -0.497
REMARK SMILES CC1=CCC[C@@H](C)C(=O)C[C@@H](C(C)C)C(=O)C1
REMARK SMILES IDX 8 1 9 2 6 3 7 4 5 5 4 6 3 7 2 8 1 9 10 11 11 12 15 13 16 14
REMARK SMILES IDX 17 15 12 17 13 18 14 19
REMARK H PARENT
REMARK Flexibility Score: 70.00
ROOT
ATOM      1  C   UNL     1     146.874 152.237 164.541  1.00  0.00     0.136 C 
ATOM      2  O   UNL     1     146.229 151.297 164.095  1.00  0.00    -0.299 OA
ENDROOT
BRANCH   1   3
ATOM      3  C   UNL     1     146.287 153.639 164.520  1.00  0.00     0.053 C 
ATOM      4  C   UNL     1     144.990 153.738 165.342  1.00  0.00     0.016 C 
BRANCH   3   5
ATOM      5  C   UNL     1     146.072 154.159 163.080  1.00  0.00     0.015 C 
BRANCH   5   6
ATOM      6  C   UNL     1     147.270 153.923 162.128  1.00  0.00     0.028 C 
BRANCH   6   7
ATOM      7  C   UNL     1     148.233 155.087 162.177  1.00  0.00    -0.028 C 
ATOM      8  C   UNL     1     149.429 155.094 162.816  1.00  0.00    -0.070 CG0
ATOM      9  C   UNL     1     150.189 156.395 162.876  1.00  0.00     0.039 C 
ATOM     10  G   UNL     1     150.039 153.863 163.468  1.00  0.00     0.000 G0
ENDBRANCH   6   7
ENDBRANCH   5   6
ENDBRANCH   3   5
ENDBRANCH   1   3
BRANCH   1  11
ATOM     11  C   UNL     1     148.266 151.973 165.072  1.00  0.00     0.087 C 
BRANCH  11  12
ATOM     12  C   UNL     1     148.875 153.207 165.791  1.00  0.00     0.066 C 
BRANCH  12  13
ATOM     13  C   UNL     1     150.003 153.835 164.977  1.00  0.00     0.140 C 
ATOM     14  O   UNL     1     150.955 154.319 165.570  1.00  0.00    -0.299 OA
BRANCH  13  15
ATOM     15  C   UNL     1     150.036 153.874 163.460  1.00  0.00     0.106 CG0
ATOM     16  G   UNL     1     149.424 155.109 162.816  1.00  0.00     0.000 G0
ENDBRANCH  13  15
ENDBRANCH  12  13
BRANCH  12  17
ATOM     17  C   UNL     1     149.327 152.926 167.259  1.00  0.00    -0.006 C 
ATOM     18  C   UNL     1     148.158 153.065 168.248  1.00  0.00     0.008 C 
ATOM     19  C   UNL     1     150.022 151.568 167.465  1.00  0.00     0.008 C 
ENDBRANCH  12  17
ENDBRANCH  11  12
ENDBRANCH   1  11
TORSDOF 1
ENDMDL
MODEL 9
REMARK VINA RESULT:    -2.593      2.335      5.004
REMARK INTER + INTRA:          -4.454
REMARK INTER:                  -4.532
REMARK INTRA:                   0.079
REMARK UNBOUND:                -0.497
REMARK SMILES CC1=CCC[C@@H](C)C(=O)C[C@@H](C(C)C)C(=O)C1
REMARK SMILES IDX 8 1 9 2 6 3 7 4 5 5 4 6 3 7 2 8 1 9 10 11 11 12 15 13 16 14
REMARK SMILES IDX 17 15 12 17 13 18 14 19
REMARK H PARENT
REMARK Flexibility Score: 70.00
ROOT
ATOM      1  C   UNL     1     150.503 155.170 165.010  1.00  0.00     0.136 C 
ATOM      2  O   UNL     1     151.632 155.155 165.483  1.00  0.00    -0.299 OA
ENDROOT
BRANCH   1   3
ATOM      3  C   UNL     1     150.201 156.029 163.792  1.00  0.00     0.053 C 
ATOM      4  C   UNL     1     149.273 157.208 164.129  1.00  0.00     0.016 C 
BRANCH   3   5
ATOM      5  C   UNL     1     149.637 155.198 162.618  1.00  0.00     0.015 C 
BRANCH   5   6
ATOM      6  C   UNL     1     148.113 154.932 162.695  1.00  0.00     0.028 C 
BRANCH   6   7
ATOM      7  C   UNL     1     147.762 153.619 162.035  1.00  0.00    -0.028 C 
ATOM      8  C   UNL     1     147.680 152.419 162.661  1.00  0.00    -0.070 CG0
ATOM      9  C   UNL     1     147.457 151.194 161.811  1.00  0.00     0.039 C 
ATOM     10  G   UNL     1     147.799 152.249 164.168  1.00  0.00     0.000 G0
ENDBRANCH   6   7
ENDBRANCH   5   6
ENDBRANCH   3   5
ENDBRANCH   1   3
BRANCH   1  11
ATOM     11  C   UNL     1     149.425 154.351 165.684  1.00  0.00     0.087 C 
BRANCH  11  12
ATOM     12  C   UNL     1     149.813 152.854 165.826  1.00  0.00     0.066 C 
BRANCH  12  13
ATOM     13  C   UNL     1     149.177 152.000 164.733  1.00  0.00     0.140 C 
ATOM     14  O   UNL     1     149.808 151.054 164.285  1.00  0.00    -0.299 OA
BRANCH  13  15
ATOM     15  C   UNL     1     147.784 152.232 164.175  1.00  0.00     0.106 CG0
ATOM     16  G   UNL     1     147.696 152.417 162.668  1.00  0.00     0.000 G0
ENDBRANCH  13  15
ENDBRANCH  12  13
BRANCH  12  17
ATOM     17  C   UNL     1     149.533 152.258 167.242  1.00  0.00    -0.006 C 
ATOM     18  C   UNL     1     150.797 152.261 168.117  1.00  0.00     0.008 C 
ATOM     19  C   UNL     1     148.375 152.931 168.000  1.00  0.00     0.008 C 
ENDBRANCH  12  17
ENDBRANCH  11  12
ENDBRANCH   1  11
TORSDOF 1
ENDMDL
