MODEL 1
REMARK VINA RESULT:    -6.239      0.000      0.000
REMARK INTER + INTRA:          -9.196
REMARK INTER:                  -8.792
REMARK INTRA:                  -0.404
REMARK UNBOUND:                -0.404
REMARK SMILES CCCCCCCCC(=O)[O-]
REMARK SMILES IDX 6 1 7 2 8 3 9 4 10 5 11 6 5 7 4 8 3 9 2 10 1 11
REMARK H PARENT
REMARK Flexibility Score: inf
ROOT
ATOM      1  C   UNL     1      26.708  -2.338  20.194  1.00  0.00     0.000 C 
ENDROOT
BRANCH   1   2
ATOM      2  C   UNL     1      27.828  -2.220  19.154  1.00  0.00     0.006 C 
BRANCH   2   3
ATOM      3  C   UNL     1      29.205  -2.357  19.810  1.00  0.00     0.053 C 
BRANCH   3   4
ATOM      4  C   UNL     1      30.067  -3.297  19.030  1.00  0.00     0.041 C 
ATOM      5  O   UNL     1      29.545  -4.148  18.262  1.00  0.00    -0.550 OA
ATOM      6  O   UNL     1      31.451  -3.201  19.111  1.00  0.00    -0.550 OA
ENDBRANCH   3   4
ENDBRANCH   2   3
ENDBRANCH   1   2
BRANCH   1   7
ATOM      7  C   UNL     1      25.624  -3.318  19.728  1.00  0.00     0.000 C 
BRANCH   7   8
ATOM      8  C   UNL     1      26.244  -4.500  18.966  1.00  0.00    -0.000 C 
BRANCH   8   9
ATOM      9  C   UNL     1      26.571  -5.689  19.884  1.00  0.00    -0.000 C 
BRANCH   9  10
ATOM     10  C   UNL     1      26.415  -7.043  19.176  1.00  0.00    -0.003 C 
ATOM     11  C   UNL     1      26.733  -8.198  20.121  1.00  0.00     0.004 C 
ENDBRANCH   9  10
ENDBRANCH   8   9
ENDBRANCH   7   8
ENDBRANCH   1   7
TORSDOF 7
ENDMDL
MODEL 2
REMARK VINA RESULT:    -6.229      1.775      4.021
REMARK INTER + INTRA:          -9.183
REMARK INTER:                  -8.717
REMARK INTRA:                  -0.466
REMARK UNBOUND:                -0.404
REMARK SMILES CCCCCCCCC(=O)[O-]
REMARK SMILES IDX 6 1 7 2 8 3 9 4 10 5 11 6 5 7 4 8 3 9 2 10 1 11
REMARK H PARENT
REMARK Flexibility Score: inf
ROOT
ATOM      1  C   UNL     1      26.366  -4.482  19.045  1.00  0.00     0.000 C 
ENDROOT
BRANCH   1   2
ATOM      2  C   UNL     1      27.688  -4.166  19.753  1.00  0.00     0.006 C 
BRANCH   2   3
ATOM      3  C   UNL     1      28.838  -4.054  18.748  1.00  0.00     0.053 C 
BRANCH   3   4
ATOM      4  C   UNL     1      29.934  -3.199  19.298  1.00  0.00     0.041 C 
ATOM      5  O   UNL     1      29.676  -2.301  20.142  1.00  0.00    -0.550 OA
ATOM      6  O   UNL     1      31.251  -3.428  18.918  1.00  0.00    -0.550 OA
ENDBRANCH   3   4
ENDBRANCH   2   3
ENDBRANCH   1   2
BRANCH   1   7
ATOM      7  C   UNL     1      25.255  -3.527  19.498  1.00  0.00     0.000 C 
BRANCH   7   8
ATOM      8  C   UNL     1      25.846  -2.217  20.040  1.00  0.00    -0.000 C 
BRANCH   8   9
ATOM      9  C   UNL     1      24.921  -1.011  19.810  1.00  0.00    -0.000 C 
BRANCH   9  10
ATOM     10  C   UNL     1      25.669   0.329  19.868  1.00  0.00    -0.003 C 
ATOM     11  C   UNL     1      27.177   0.122  19.751  1.00  0.00     0.004 C 
ENDBRANCH   9  10
ENDBRANCH   8   9
ENDBRANCH   7   8
ENDBRANCH   1   7
TORSDOF 7
ENDMDL
MODEL 3
REMARK VINA RESULT:    -6.138      1.285      1.596
REMARK INTER + INTRA:          -9.054
REMARK INTER:                  -8.552
REMARK INTRA:                  -0.502
REMARK UNBOUND:                -0.404
REMARK SMILES CCCCCCCCC(=O)[O-]
REMARK SMILES IDX 6 1 7 2 8 3 9 4 10 5 11 6 5 7 4 8 3 9 2 10 1 11
REMARK H PARENT
REMARK Flexibility Score: inf
ROOT
ATOM      1  C   UNL     1      25.595  -3.271  19.767  1.00  0.00     0.000 C 
ENDROOT
BRANCH   1   2
ATOM      2  C   UNL     1      27.024  -2.758  19.980  1.00  0.00     0.006 C 
BRANCH   2   3
ATOM      3  C   UNL     1      28.050  -3.719  19.375  1.00  0.00     0.053 C 
BRANCH   3   4
ATOM      4  C   UNL     1      29.390  -3.063  19.275  1.00  0.00     0.041 C 
ATOM      5  O   UNL     1      29.734  -2.194  20.119  1.00  0.00    -0.550 OA
ATOM      6  O   UNL     1      30.280  -3.446  18.280  1.00  0.00    -0.550 OA
ENDBRANCH   3   4
ENDBRANCH   2   3
ENDBRANCH   1   2
BRANCH   1   7
ATOM      7  C   UNL     1      25.592  -4.563  18.940  1.00  0.00     0.000 C 
BRANCH   7   8
ATOM      8  C   UNL     1      24.492  -5.521  19.425  1.00  0.00    -0.000 C 
BRANCH   8   9
ATOM      9  C   UNL     1      25.038  -6.639  20.328  1.00  0.00    -0.000 C 
BRANCH   9  10
ATOM     10  C   UNL     1      26.488  -7.017  19.991  1.00  0.00    -0.003 C 
ATOM     11  C   UNL     1      26.715  -8.518  20.145  1.00  0.00     0.004 C 
ENDBRANCH   9  10
ENDBRANCH   8   9
ENDBRANCH   7   8
ENDBRANCH   1   7
TORSDOF 7
ENDMDL
MODEL 4
REMARK VINA RESULT:    -5.983      3.117      5.336
REMARK INTER + INTRA:          -8.835
REMARK INTER:                  -8.144
REMARK INTRA:                  -0.691
REMARK UNBOUND:                -0.404
REMARK SMILES CCCCCCCCC(=O)[O-]
REMARK SMILES IDX 6 1 7 2 8 3 9 4 10 5 11 6 5 7 4 8 3 9 2 10 1 11
REMARK H PARENT
REMARK Flexibility Score: inf
ROOT
ATOM      1  C   UNL     1      27.337  -5.048  18.363  1.00  0.00     0.000 C 
ENDROOT
BRANCH   1   2
ATOM      2  C   UNL     1      26.808  -5.569  19.705  1.00  0.00     0.006 C 
BRANCH   2   3
ATOM      3  C   UNL     1      25.278  -5.633  19.705  1.00  0.00     0.053 C 
BRANCH   3   4
ATOM      4  C   UNL     1      24.810  -7.011  20.047  1.00  0.00     0.041 C 
ATOM      5  O   UNL     1      25.634  -7.960  20.120  1.00  0.00    -0.550 OA
ATOM      6  O   UNL     1      23.470  -7.239  20.335  1.00  0.00    -0.550 OA
ENDBRANCH   3   4
ENDBRANCH   2   3
ENDBRANCH   1   2
BRANCH   1   7
ATOM      7  C   UNL     1      28.727  -4.422  18.525  1.00  0.00     0.000 C 
BRANCH   7   8
ATOM      8  C   UNL     1      28.764  -3.474  19.734  1.00  0.00    -0.000 C 
BRANCH   8   9
ATOM      9  C   UNL     1      28.077  -2.128  19.450  1.00  0.00    -0.000 C 
BRANCH   9  10
ATOM     10  C   UNL     1      27.036  -1.759  20.517  1.00  0.00    -0.003 C 
ATOM     11  C   UNL     1      25.617  -1.923  19.979  1.00  0.00     0.004 C 
ENDBRANCH   9  10
ENDBRANCH   8   9
ENDBRANCH   7   8
ENDBRANCH   1   7
TORSDOF 7
ENDMDL
MODEL 5
REMARK VINA RESULT:    -5.848      3.019      3.673
REMARK INTER + INTRA:          -8.645
REMARK INTER:                  -8.309
REMARK INTRA:                  -0.336
REMARK UNBOUND:                -0.404
REMARK SMILES CCCCCCCCC(=O)[O-]
REMARK SMILES IDX 6 1 7 2 8 3 9 4 10 5 11 6 5 7 4 8 3 9 2 10 1 11
REMARK H PARENT
REMARK Flexibility Score: inf
ROOT
ATOM      1  C   UNL     1      26.709  -3.557  19.299  1.00  0.00     0.000 C 
ENDROOT
BRANCH   1   2
ATOM      2  C   UNL     1      26.773  -2.130  19.857  1.00  0.00     0.006 C 
BRANCH   2   3
ATOM      3  C   UNL     1      25.369  -1.576  20.113  1.00  0.00     0.053 C 
BRANCH   3   4
ATOM      4  C   UNL     1      25.305  -0.125  19.760  1.00  0.00     0.041 C 
ATOM      5  O   UNL     1      24.193   0.428  19.549  1.00  0.00    -0.550 OA
ATOM      6  O   UNL     1      26.469   0.631  19.712  1.00  0.00    -0.550 OA
ENDBRANCH   3   4
ENDBRANCH   2   3
ENDBRANCH   1   2
BRANCH   1   7
ATOM      7  C   UNL     1      25.272  -4.092  19.319  1.00  0.00     0.000 C 
BRANCH   7   8
ATOM      8  C   UNL     1      25.248  -5.585  19.683  1.00  0.00    -0.000 C 
BRANCH   8   9
ATOM      9  C   UNL     1      26.656  -6.170  19.873  1.00  0.00    -0.000 C 
BRANCH   9  10
ATOM     10  C   UNL     1      26.769  -7.616  19.367  1.00  0.00    -0.003 C 
ATOM     11  C   UNL     1      26.509  -8.614  20.493  1.00  0.00     0.004 C 
ENDBRANCH   9  10
ENDBRANCH   8   9
ENDBRANCH   7   8
ENDBRANCH   1   7
TORSDOF 7
ENDMDL
MODEL 6
REMARK VINA RESULT:    -5.815      3.137      5.529
REMARK INTER + INTRA:          -8.599
REMARK INTER:                  -8.218
REMARK INTRA:                  -0.380
REMARK UNBOUND:                -0.404
REMARK SMILES CCCCCCCCC(=O)[O-]
REMARK SMILES IDX 6 1 7 2 8 3 9 4 10 5 11 6 5 7 4 8 3 9 2 10 1 11
REMARK H PARENT
REMARK Flexibility Score: inf
ROOT
ATOM      1  C   UNL     1      27.232  -4.181  18.723  1.00  0.00     0.000 C 
ENDROOT
BRANCH   1   2
ATOM      2  C   UNL     1      26.816  -5.398  19.558  1.00  0.00     0.006 C 
BRANCH   2   3
ATOM      3  C   UNL     1      25.297  -5.441  19.749  1.00  0.00     0.053 C 
BRANCH   3   4
ATOM      4  C   UNL     1      24.846  -6.833  20.057  1.00  0.00     0.041 C 
ATOM      5  O   UNL     1      23.618  -7.094  20.158  1.00  0.00    -0.550 OA
ATOM      6  O   UNL     1      25.779  -7.854  20.183  1.00  0.00    -0.550 OA
ENDBRANCH   3   4
ENDBRANCH   2   3
ENDBRANCH   1   2
BRANCH   1   7
ATOM      7  C   UNL     1      28.101  -3.221  19.544  1.00  0.00     0.000 C 
BRANCH   7   8
ATOM      8  C   UNL     1      27.233  -2.341  20.458  1.00  0.00    -0.000 C 
BRANCH   8   9
ATOM      9  C   UNL     1      26.662  -1.114  19.729  1.00  0.00    -0.000 C 
BRANCH   9  10
ATOM     10  C   UNL     1      25.128  -1.056  19.782  1.00  0.00    -0.003 C 
ATOM     11  C   UNL     1      24.631   0.386  19.719  1.00  0.00     0.004 C 
ENDBRANCH   9  10
ENDBRANCH   8   9
ENDBRANCH   7   8
ENDBRANCH   1   7
TORSDOF 7
ENDMDL
MODEL 7
REMARK VINA RESULT:    -5.810      2.165      2.509
REMARK INTER + INTRA:          -8.591
REMARK INTER:                  -8.255
REMARK INTRA:                  -0.336
REMARK UNBOUND:                -0.404
REMARK SMILES CCCCCCCCC(=O)[O-]
REMARK SMILES IDX 6 1 7 2 8 3 9 4 10 5 11 6 5 7 4 8 3 9 2 10 1 11
REMARK H PARENT
REMARK Flexibility Score: inf
ROOT
ATOM      1  C   UNL     1      28.374  -4.455  18.515  1.00  0.00     0.000 C 
ENDROOT
BRANCH   1   2
ATOM      2  C   UNL     1      28.823  -3.594  19.702  1.00  0.00     0.006 C 
BRANCH   2   3
ATOM      3  C   UNL     1      29.294  -2.214  19.234  1.00  0.00     0.053 C 
BRANCH   3   4
ATOM      4  C   UNL     1      28.499  -1.136  19.898  1.00  0.00     0.041 C 
ATOM      5  O   UNL     1      28.210  -1.222  21.121  1.00  0.00    -0.550 OA
ATOM      6  O   UNL     1      28.119  -0.009  19.179  1.00  0.00    -0.550 OA
ENDBRANCH   3   4
ENDBRANCH   2   3
ENDBRANCH   1   2
BRANCH   1   7
ATOM      7  C   UNL     1      26.845  -4.528  18.435  1.00  0.00     0.000 C 
BRANCH   7   8
ATOM      8  C   UNL     1      26.248  -5.020  19.763  1.00  0.00    -0.000 C 
BRANCH   8   9
ATOM      9  C   UNL     1      25.689  -6.449  19.666  1.00  0.00    -0.000 C 
BRANCH   9  10
ATOM     10  C   UNL     1      26.794  -7.514  19.611  1.00  0.00    -0.003 C 
ATOM     11  C   UNL     1      26.462  -8.697  20.517  1.00  0.00     0.004 C 
ENDBRANCH   9  10
ENDBRANCH   8   9
ENDBRANCH   7   8
ENDBRANCH   1   7
TORSDOF 7
ENDMDL
MODEL 8
REMARK VINA RESULT:    -5.809      3.316      5.539
REMARK INTER + INTRA:          -8.591
REMARK INTER:                  -8.196
REMARK INTRA:                  -0.395
REMARK UNBOUND:                -0.404
REMARK SMILES CCCCCCCCC(=O)[O-]
REMARK SMILES IDX 6 1 7 2 8 3 9 4 10 5 11 6 5 7 4 8 3 9 2 10 1 11
REMARK H PARENT
REMARK Flexibility Score: inf
ROOT
ATOM      1  C   UNL     1      26.740  -4.656  19.720  1.00  0.00     0.000 C 
ENDROOT
BRANCH   1   2
ATOM      2  C   UNL     1      26.329  -6.133  19.746  1.00  0.00     0.006 C 
BRANCH   2   3
ATOM      3  C   UNL     1      24.805  -6.280  19.754  1.00  0.00     0.053 C 
BRANCH   3   4
ATOM      4  C   UNL     1      24.404  -7.547  20.439  1.00  0.00     0.041 C 
ATOM      5  O   UNL     1      23.186  -7.809  20.625  1.00  0.00    -0.550 OA
ATOM      6  O   UNL     1      25.372  -8.464  20.829  1.00  0.00    -0.550 OA
ENDBRANCH   3   4
ENDBRANCH   2   3
ENDBRANCH   1   2
BRANCH   1   7
ATOM      7  C   UNL     1      25.528  -3.752  19.462  1.00  0.00     0.000 C 
BRANCH   7   8
ATOM      8  C   UNL     1      25.796  -2.322  19.955  1.00  0.00    -0.000 C 
BRANCH   8   9
ATOM      9  C   UNL     1      27.211  -2.150  20.531  1.00  0.00    -0.000 C 
BRANCH   9  10
ATOM     10  C   UNL     1      28.142  -1.370  19.590  1.00  0.00    -0.003 C 
ATOM     11  C   UNL     1      29.468  -2.101  19.400  1.00  0.00     0.004 C 
ENDBRANCH   9  10
ENDBRANCH   8   9
ENDBRANCH   7   8
ENDBRANCH   1   7
TORSDOF 7
ENDMDL
MODEL 9
REMARK VINA RESULT:    -5.808      2.986      3.952
REMARK INTER + INTRA:          -8.589
REMARK INTER:                  -8.065
REMARK INTRA:                  -0.523
REMARK UNBOUND:                -0.404
REMARK SMILES CCCCCCCCC(=O)[O-]
REMARK SMILES IDX 6 1 7 2 8 3 9 4 10 5 11 6 5 7 4 8 3 9 2 10 1 11
REMARK H PARENT
REMARK Flexibility Score: inf
ROOT
ATOM      1  C   UNL     1      29.316  -2.222  19.266  1.00  0.00     0.000 C 
ENDROOT
BRANCH   1   2
ATOM      2  C   UNL     1      28.585  -1.007  19.849  1.00  0.00     0.006 C 
BRANCH   2   3
ATOM      3  C   UNL     1      27.069  -1.226  19.850  1.00  0.00     0.053 C 
BRANCH   3   4
ATOM      4  C   UNL     1      26.350   0.083  19.791  1.00  0.00     0.041 C 
ATOM      5  O   UNL     1      26.996   1.156  19.663  1.00  0.00    -0.550 OA
ATOM      6  O   UNL     1      24.962   0.116  19.827  1.00  0.00    -0.550 OA
ENDBRANCH   3   4
ENDBRANCH   2   3
ENDBRANCH   1   2
BRANCH   1   7
ATOM      7  C   UNL     1      28.620  -3.528  19.664  1.00  0.00     0.000 C 
BRANCH   7   8
ATOM      8  C   UNL     1      28.617  -4.527  18.497  1.00  0.00    -0.000 C 
BRANCH   8   9
ATOM      9  C   UNL     1      27.317  -5.344  18.420  1.00  0.00    -0.000 C 
BRANCH   9  10
ATOM     10  C   UNL     1      26.398  -5.109  19.628  1.00  0.00    -0.003 C 
ATOM     11  C   UNL     1      25.133  -4.361  19.219  1.00  0.00     0.004 C 
ENDBRANCH   9  10
ENDBRANCH   8   9
ENDBRANCH   7   8
ENDBRANCH   1   7
TORSDOF 7
ENDMDL
