MODEL 1
REMARK VINA RESULT:    -4.579      0.000      0.000
REMARK INTER + INTRA:         -16.710
REMARK INTER:                 -12.073
REMARK INTRA:                  -4.637
REMARK UNBOUND:                -4.637
REMARK SMILES CCCCCCCCCCCCCCCCCCCCCCCCCCCCCC(=O)[O-]
REMARK SMILES IDX 16 1 17 2 18 3 19 4 20 5 21 6 22 7 23 8 24 9 25 10 26 11
REMARK SMILES IDX 27 12 28 13 29 14 30 15 31 16 32 17 15 18 14 19 13 20 12 21
REMARK SMILES IDX 11 22 10 23 9 24 8 25 7 26 6 27 5 28 4 29 3 30 2 31 1 32
REMARK H PARENT
REMARK Flexibility Score: inf
ROOT
ATOM      1  C   UNL     1      50.652  -4.132  75.875  1.00  0.00     0.000 C 
ENDROOT
BRANCH   1   2
ATOM      2  C   UNL     1      49.343  -4.874  76.216  1.00  0.00     0.000 C 
BRANCH   2   3
ATOM      3  C   UNL     1      49.152  -6.235  75.517  1.00  0.00     0.000 C 
BRANCH   3   4
ATOM      4  C   UNL     1      47.682  -6.663  75.307  1.00  0.00     0.000 C 
BRANCH   4   5
ATOM      5  C   UNL     1      47.087  -6.248  73.946  1.00  0.00     0.000 C 
BRANCH   5   6
ATOM      6  C   UNL     1      48.091  -5.672  72.929  1.00  0.00     0.000 C 
BRANCH   6   7
ATOM      7  C   UNL     1      47.932  -4.171  72.627  1.00  0.00     0.000 C 
BRANCH   7   8
ATOM      8  C   UNL     1      49.244  -3.365  72.629  1.00  0.00     0.000 C 
BRANCH   8   9
ATOM      9  C   UNL     1      49.042  -1.851  72.851  1.00  0.00     0.000 C 
BRANCH   9  10
ATOM     10  C   UNL     1      50.020  -1.000  72.021  1.00  0.00     0.000 C 
BRANCH  10  11
ATOM     11  C   UNL     1      51.216  -0.499  72.849  1.00  0.00     0.000 C 
BRANCH  11  12
ATOM     12  C   UNL     1      52.537  -1.173  72.448  1.00  0.00     0.000 C 
BRANCH  12  13
ATOM     13  C   UNL     1      53.076  -2.052  73.587  1.00  0.00     0.006 C 
BRANCH  13  14
ATOM     14  C   UNL     1      53.324  -3.499  73.135  1.00  0.00     0.053 C 
BRANCH  14  15
ATOM     15  C   UNL     1      54.327  -4.191  74.006  1.00  0.00     0.041 C 
ATOM     16  O   UNL     1      54.143  -4.265  75.251  1.00  0.00    -0.550 OA
ATOM     17  O   UNL     1      55.472  -4.744  73.446  1.00  0.00    -0.550 OA
ENDBRANCH  14  15
ENDBRANCH  13  14
ENDBRANCH  12  13
ENDBRANCH  11  12
ENDBRANCH  10  11
ENDBRANCH   9  10
ENDBRANCH   8   9
ENDBRANCH   7   8
ENDBRANCH   6   7
ENDBRANCH   5   6
ENDBRANCH   4   5
ENDBRANCH   3   4
ENDBRANCH   2   3
ENDBRANCH   1   2
BRANCH   1  18
ATOM     18  C   UNL     1      50.753  -2.697  76.426  1.00  0.00     0.000 C 
BRANCH  18  19
ATOM     19  C   UNL     1      49.416  -1.934  76.515  1.00  0.00     0.000 C 
BRANCH  19  20
ATOM     20  C   UNL     1      49.030  -1.446  77.926  1.00  0.00     0.000 C 
BRANCH  20  21
ATOM     21  C   UNL     1      47.531  -1.560  78.265  1.00  0.00     0.000 C 
BRANCH  21  22
ATOM     22  C   UNL     1      47.206  -2.455  79.475  1.00  0.00     0.000 C 
BRANCH  22  23
ATOM     23  C   UNL     1      47.523  -3.952  79.282  1.00  0.00     0.000 C 
BRANCH  23  24
ATOM     24  C   UNL     1      48.560  -4.532  80.263  1.00  0.00    -0.000 C 
BRANCH  24  25
ATOM     25  C   UNL     1      49.982  -4.578  79.676  1.00  0.00    -0.000 C 
BRANCH  25  26
ATOM     26  C   UNL     1      51.026  -3.956  80.619  1.00  0.00    -0.000 C 
BRANCH  26  27
ATOM     27  C   UNL     1      50.530  -2.652  81.267  1.00  0.00    -0.000 C 
BRANCH  27  28
ATOM     28  C   UNL     1      51.104  -2.446  82.685  1.00  0.00    -0.000 C 
BRANCH  28  29
ATOM     29  C   UNL     1      50.027  -2.356  83.780  1.00  0.00    -0.000 C 
BRANCH  29  30
ATOM     30  C   UNL     1      48.647  -2.828  83.301  1.00  0.00    -0.000 C 
BRANCH  30  31
ATOM     31  C   UNL     1      47.554  -2.456  84.309  1.00  0.00    -0.003 C 
ATOM     32  C   UNL     1      47.350  -3.570  85.334  1.00  0.00     0.004 C 
ENDBRANCH  30  31
ENDBRANCH  29  30
ENDBRANCH  28  29
ENDBRANCH  27  28
ENDBRANCH  26  27
ENDBRANCH  25  26
ENDBRANCH  24  25
ENDBRANCH  23  24
ENDBRANCH  22  23
ENDBRANCH  21  22
ENDBRANCH  20  21
ENDBRANCH  19  20
ENDBRANCH  18  19
ENDBRANCH   1  18
TORSDOF 28
ENDMDL
MODEL 2
REMARK VINA RESULT:    -4.477      3.834      6.553
REMARK INTER + INTRA:         -16.441
REMARK INTER:                 -10.845
REMARK INTRA:                  -5.596
REMARK UNBOUND:                -4.637
REMARK SMILES CCCCCCCCCCCCCCCCCCCCCCCCCCCCCC(=O)[O-]
REMARK SMILES IDX 16 1 17 2 18 3 19 4 20 5 21 6 22 7 23 8 24 9 25 10 26 11
REMARK SMILES IDX 27 12 28 13 29 14 30 15 31 16 32 17 15 18 14 19 13 20 12 21
REMARK SMILES IDX 11 22 10 23 9 24 8 25 7 26 6 27 5 28 4 29 3 30 2 31 1 32
REMARK H PARENT
REMARK Flexibility Score: inf
ROOT
ATOM      1  C   UNL     1      47.047  -4.707  73.803  1.00  0.00     0.000 C 
ENDROOT
BRANCH   1   2
ATOM      2  C   UNL     1      48.295  -4.368  72.960  1.00  0.00     0.000 C 
BRANCH   2   3
ATOM      3  C   UNL     1      49.613  -5.005  73.443  1.00  0.00     0.000 C 
BRANCH   3   4
ATOM      4  C   UNL     1      50.679  -4.005  73.944  1.00  0.00     0.000 C 
BRANCH   4   5
ATOM      5  C   UNL     1      51.458  -3.291  72.820  1.00  0.00     0.000 C 
BRANCH   5   6
ATOM      6  C   UNL     1      51.965  -1.876  73.159  1.00  0.00     0.000 C 
BRANCH   6   7
ATOM      7  C   UNL     1      51.164  -0.722  72.527  1.00  0.00     0.000 C 
BRANCH   7   8
ATOM      8  C   UNL     1      49.906  -1.153  71.751  1.00  0.00     0.000 C 
BRANCH   8   9
ATOM      9  C   UNL     1      48.606  -0.495  72.261  1.00  0.00     0.000 C 
BRANCH   9  10
ATOM     10  C   UNL     1      48.862   0.505  73.403  1.00  0.00     0.000 C 
BRANCH  10  11
ATOM     11  C   UNL     1      48.156   0.103  74.709  1.00  0.00     0.000 C 
BRANCH  11  12
ATOM     12  C   UNL     1      48.241  -1.406  74.987  1.00  0.00     0.000 C 
BRANCH  12  13
ATOM     13  C   UNL     1      48.796  -1.678  76.394  1.00  0.00     0.006 C 
BRANCH  13  14
ATOM     14  C   UNL     1      48.376  -3.056  76.926  1.00  0.00     0.053 C 
BRANCH  14  15
ATOM     15  C   UNL     1      47.333  -2.945  77.995  1.00  0.00     0.041 C 
ATOM     16  O   UNL     1      46.459  -2.039  77.939  1.00  0.00    -0.550 OA
ATOM     17  O   UNL     1      47.331  -3.837  79.061  1.00  0.00    -0.550 OA
ENDBRANCH  14  15
ENDBRANCH  13  14
ENDBRANCH  12  13
ENDBRANCH  11  12
ENDBRANCH  10  11
ENDBRANCH   9  10
ENDBRANCH   8   9
ENDBRANCH   7   8
ENDBRANCH   6   7
ENDBRANCH   5   6
ENDBRANCH   4   5
ENDBRANCH   3   4
ENDBRANCH   2   3
ENDBRANCH   1   2
BRANCH   1  18
ATOM     18  C   UNL     1      46.268  -5.954  73.344  1.00  0.00     0.000 C 
BRANCH  18  19
ATOM     19  C   UNL     1      46.609  -6.455  71.927  1.00  0.00     0.000 C 
BRANCH  19  20
ATOM     20  C   UNL     1      46.943  -7.958  71.824  1.00  0.00     0.000 C 
BRANCH  20  21
ATOM     21  C   UNL     1      48.285  -8.370  72.460  1.00  0.00     0.000 C 
BRANCH  21  22
ATOM     22  C   UNL     1      48.267  -9.726  73.190  1.00  0.00     0.000 C 
BRANCH  22  23
ATOM     23  C   UNL     1      48.701  -9.676  74.669  1.00  0.00     0.000 C 
BRANCH  23  24
ATOM     24  C   UNL     1      47.547  -9.618  75.687  1.00  0.00    -0.000 C 
BRANCH  24  25
ATOM     25  C   UNL     1      47.199  -8.183  76.120  1.00  0.00    -0.000 C 
BRANCH  25  26
ATOM     26  C   UNL     1      48.405  -7.232  76.020  1.00  0.00    -0.000 C 
BRANCH  26  27
ATOM     27  C   UNL     1      48.779  -6.612  77.378  1.00  0.00    -0.000 C 
BRANCH  27  28
ATOM     28  C   UNL     1      50.184  -7.041  77.851  1.00  0.00    -0.000 C 
BRANCH  28  29
ATOM     29  C   UNL     1      50.163  -8.094  78.973  1.00  0.00    -0.000 C 
BRANCH  29  30
ATOM     30  C   UNL     1      50.091  -9.532  78.440  1.00  0.00    -0.000 C 
BRANCH  30  31
ATOM     31  C   UNL     1      48.984 -10.327  79.143  1.00  0.00    -0.003 C 
ATOM     32  C   UNL     1      47.889  -9.400  79.664  1.00  0.00     0.004 C 
ENDBRANCH  30  31
ENDBRANCH  29  30
ENDBRANCH  28  29
ENDBRANCH  27  28
ENDBRANCH  26  27
ENDBRANCH  25  26
ENDBRANCH  24  25
ENDBRANCH  23  24
ENDBRANCH  22  23
ENDBRANCH  21  22
ENDBRANCH  20  21
ENDBRANCH  19  20
ENDBRANCH  18  19
ENDBRANCH   1  18
TORSDOF 28
ENDMDL
MODEL 3
REMARK VINA RESULT:    -4.402      2.960      6.700
REMARK INTER + INTRA:         -16.243
REMARK INTER:                 -11.160
REMARK INTRA:                  -5.083
REMARK UNBOUND:                -4.637
REMARK SMILES CCCCCCCCCCCCCCCCCCCCCCCCCCCCCC(=O)[O-]
REMARK SMILES IDX 16 1 17 2 18 3 19 4 20 5 21 6 22 7 23 8 24 9 25 10 26 11
REMARK SMILES IDX 27 12 28 13 29 14 30 15 31 16 32 17 15 18 14 19 13 20 12 21
REMARK SMILES IDX 11 22 10 23 9 24 8 25 7 26 6 27 5 28 4 29 3 30 2 31 1 32
REMARK H PARENT
REMARK Flexibility Score: inf
ROOT
ATOM      1  C   UNL     1      49.052  -4.769  72.626  1.00  0.00     0.000 C 
ENDROOT
BRANCH   1   2
ATOM      2  C   UNL     1      49.680  -3.430  72.186  1.00  0.00     0.000 C 
BRANCH   2   3
ATOM      3  C   UNL     1      48.899  -2.166  72.599  1.00  0.00     0.000 C 
BRANCH   3   4
ATOM      4  C   UNL     1      49.494  -0.833  72.091  1.00  0.00     0.000 C 
BRANCH   4   5
ATOM      5  C   UNL     1      50.734  -0.352  72.871  1.00  0.00     0.000 C 
BRANCH   5   6
ATOM      6  C   UNL     1      52.006  -0.134  72.029  1.00  0.00     0.000 C 
BRANCH   6   7
ATOM      7  C   UNL     1      53.240  -0.935  72.484  1.00  0.00     0.000 C 
BRANCH   7   8
ATOM      8  C   UNL     1      52.943  -2.366  72.967  1.00  0.00     0.000 C 
BRANCH   8   9
ATOM      9  C   UNL     1      53.656  -2.737  74.285  1.00  0.00     0.000 C 
BRANCH   9  10
ATOM     10  C   UNL     1      52.698  -2.744  75.489  1.00  0.00     0.000 C 
BRANCH  10  11
ATOM     11  C   UNL     1      51.302  -3.279  75.130  1.00  0.00     0.000 C 
BRANCH  11  12
ATOM     12  C   UNL     1      50.212  -2.785  76.093  1.00  0.00     0.000 C 
BRANCH  12  13
ATOM     13  C   UNL     1      50.812  -2.398  77.454  1.00  0.00     0.006 C 
BRANCH  13  14
ATOM     14  C   UNL     1      50.092  -3.088  78.622  1.00  0.00     0.053 C 
BRANCH  14  15
ATOM     15  C   UNL     1      50.443  -2.465  79.939  1.00  0.00     0.041 C 
ATOM     16  O   UNL     1      51.209  -1.465  79.984  1.00  0.00    -0.550 OA
ATOM     17  O   UNL     1      49.933  -2.996  81.118  1.00  0.00    -0.550 OA
ENDBRANCH  14  15
ENDBRANCH  13  14
ENDBRANCH  12  13
ENDBRANCH  11  12
ENDBRANCH  10  11
ENDBRANCH   9  10
ENDBRANCH   8   9
ENDBRANCH   7   8
ENDBRANCH   6   7
ENDBRANCH   5   6
ENDBRANCH   4   5
ENDBRANCH   3   4
ENDBRANCH   2   3
ENDBRANCH   1   2
BRANCH   1  18
ATOM     18  C   UNL     1      47.569  -4.693  73.037  1.00  0.00     0.000 C 
BRANCH  18  19
ATOM     19  C   UNL     1      46.734  -5.946  72.707  1.00  0.00     0.000 C 
BRANCH  19  20
ATOM     20  C   UNL     1      47.547  -7.183  72.274  1.00  0.00     0.000 C 
BRANCH  20  21
ATOM     21  C   UNL     1      46.703  -8.387  71.813  1.00  0.00     0.000 C 
BRANCH  21  22
ATOM     22  C   UNL     1      45.530  -8.750  72.743  1.00  0.00     0.000 C 
BRANCH  22  23
ATOM     23  C   UNL     1      45.940  -9.268  74.137  1.00  0.00     0.000 C 
BRANCH  23  24
ATOM     24  C   UNL     1      45.696  -8.285  75.297  1.00  0.00    -0.000 C 
BRANCH  24  25
ATOM     25  C   UNL     1      46.989  -7.897  76.038  1.00  0.00    -0.000 C 
BRANCH  25  26
ATOM     26  C   UNL     1      48.198  -8.732  75.582  1.00  0.00    -0.000 C 
BRANCH  26  27
ATOM     27  C   UNL     1      49.447  -7.869  75.330  1.00  0.00    -0.000 C 
BRANCH  27  28
ATOM     28  C   UNL     1      49.356  -6.492  76.020  1.00  0.00    -0.000 C 
BRANCH  28  29
ATOM     29  C   UNL     1      50.372  -6.306  77.162  1.00  0.00    -0.000 C 
BRANCH  29  30
ATOM     30  C   UNL     1      50.375  -7.477  78.154  1.00  0.00    -0.000 C 
BRANCH  30  31
ATOM     31  C   UNL     1      49.208  -7.367  79.143  1.00  0.00    -0.003 C 
ATOM     32  C   UNL     1      48.536  -8.722  79.353  1.00  0.00     0.004 C 
ENDBRANCH  30  31
ENDBRANCH  29  30
ENDBRANCH  28  29
ENDBRANCH  27  28
ENDBRANCH  26  27
ENDBRANCH  25  26
ENDBRANCH  24  25
ENDBRANCH  23  24
ENDBRANCH  22  23
ENDBRANCH  21  22
ENDBRANCH  20  21
ENDBRANCH  19  20
ENDBRANCH  18  19
ENDBRANCH   1  18
TORSDOF 28
ENDMDL
MODEL 4
REMARK VINA RESULT:    -4.399      2.663      7.757
REMARK INTER + INTRA:         -16.236
REMARK INTER:                 -10.954
REMARK INTRA:                  -5.282
REMARK UNBOUND:                -4.637
REMARK SMILES CCCCCCCCCCCCCCCCCCCCCCCCCCCCCC(=O)[O-]
REMARK SMILES IDX 16 1 17 2 18 3 19 4 20 5 21 6 22 7 23 8 24 9 25 10 26 11
REMARK SMILES IDX 27 12 28 13 29 14 30 15 31 16 32 17 15 18 14 19 13 20 12 21
REMARK SMILES IDX 11 22 10 23 9 24 8 25 7 26 6 27 5 28 4 29 3 30 2 31 1 32
REMARK H PARENT
REMARK Flexibility Score: inf
ROOT
ATOM      1  C   UNL     1      46.530  -9.013  72.836  1.00  0.00     0.000 C 
ENDROOT
BRANCH   1   2
ATOM      2  C   UNL     1      45.246  -8.612  73.593  1.00  0.00     0.000 C 
BRANCH   2   3
ATOM      3  C   UNL     1      45.468  -7.962  74.973  1.00  0.00     0.000 C 
BRANCH   3   4
ATOM      4  C   UNL     1      46.750  -8.412  75.711  1.00  0.00     0.000 C 
BRANCH   4   5
ATOM      5  C   UNL     1      47.744  -7.272  76.009  1.00  0.00     0.000 C 
BRANCH   5   6
ATOM      6  C   UNL     1      49.202  -7.534  75.586  1.00  0.00     0.000 C 
BRANCH   6   7
ATOM      7  C   UNL     1      49.856  -8.778  76.217  1.00  0.00     0.000 C 
BRANCH   7   8
ATOM      8  C   UNL     1      51.043  -8.485  77.151  1.00  0.00     0.000 C 
BRANCH   8   9
ATOM      9  C   UNL     1      50.637  -8.283  78.627  1.00  0.00     0.000 C 
BRANCH   9  10
ATOM     10  C   UNL     1      50.484  -6.796  78.995  1.00  0.00     0.000 C 
BRANCH  10  11
ATOM     11  C   UNL     1      49.065  -6.452  79.478  1.00  0.00     0.000 C 
BRANCH  11  12
ATOM     12  C   UNL     1      48.595  -5.070  78.996  1.00  0.00     0.000 C 
BRANCH  12  13
ATOM     13  C   UNL     1      47.942  -4.279  80.140  1.00  0.00     0.006 C 
BRANCH  13  14
ATOM     14  C   UNL     1      48.469  -2.839  80.224  1.00  0.00     0.053 C 
BRANCH  14  15
ATOM     15  C   UNL     1      49.958  -2.782  80.068  1.00  0.00     0.041 C 
ATOM     16  O   UNL     1      50.472  -2.146  79.109  1.00  0.00    -0.550 OA
ATOM     17  O   UNL     1      50.779  -3.440  80.976  1.00  0.00    -0.550 OA
ENDBRANCH  14  15
ENDBRANCH  13  14
ENDBRANCH  12  13
ENDBRANCH  11  12
ENDBRANCH  10  11
ENDBRANCH   9  10
ENDBRANCH   8   9
ENDBRANCH   7   8
ENDBRANCH   6   7
ENDBRANCH   5   6
ENDBRANCH   4   5
ENDBRANCH   3   4
ENDBRANCH   2   3
ENDBRANCH   1   2
BRANCH   1  18
ATOM     18  C   UNL     1      46.997  -8.011  71.764  1.00  0.00     0.000 C 
BRANCH  18  19
ATOM     19  C   UNL     1      47.958  -6.915  72.266  1.00  0.00     0.000 C 
BRANCH  19  20
ATOM     20  C   UNL     1      47.292  -5.569  72.620  1.00  0.00     0.000 C 
BRANCH  20  21
ATOM     21  C   UNL     1      48.251  -4.494  73.169  1.00  0.00     0.000 C 
BRANCH  21  22
ATOM     22  C   UNL     1      47.795  -3.827  74.479  1.00  0.00     0.000 C 
BRANCH  22  23
ATOM     23  C   UNL     1      48.906  -3.095  75.258  1.00  0.00     0.000 C 
BRANCH  23  24
ATOM     24  C   UNL     1      50.085  -3.981  75.703  1.00  0.00    -0.000 C 
BRANCH  24  25
ATOM     25  C   UNL     1      51.448  -3.456  75.217  1.00  0.00    -0.000 C 
BRANCH  25  26
ATOM     26  C   UNL     1      51.874  -4.082  73.878  1.00  0.00    -0.000 C 
BRANCH  26  27
ATOM     27  C   UNL     1      52.287  -3.024  72.839  1.00  0.00    -0.000 C 
BRANCH  27  28
ATOM     28  C   UNL     1      52.108  -1.584  73.366  1.00  0.00    -0.000 C 
BRANCH  28  29
ATOM     29  C   UNL     1      51.138  -0.735  72.526  1.00  0.00    -0.000 C 
BRANCH  29  30
ATOM     30  C   UNL     1      50.023  -1.568  71.879  1.00  0.00    -0.000 C 
BRANCH  30  31
ATOM     31  C   UNL     1      48.661  -0.878  72.028  1.00  0.00    -0.003 C 
ATOM     32  C   UNL     1      48.653   0.068  73.227  1.00  0.00     0.004 C 
ENDBRANCH  30  31
ENDBRANCH  29  30
ENDBRANCH  28  29
ENDBRANCH  27  28
ENDBRANCH  26  27
ENDBRANCH  25  26
ENDBRANCH  24  25
ENDBRANCH  23  24
ENDBRANCH  22  23
ENDBRANCH  21  22
ENDBRANCH  20  21
ENDBRANCH  19  20
ENDBRANCH  18  19
ENDBRANCH   1  18
TORSDOF 28
ENDMDL
MODEL 5
REMARK VINA RESULT:    -4.393      3.535      8.070
REMARK INTER + INTRA:         -16.221
REMARK INTER:                 -10.756
REMARK INTRA:                  -5.465
REMARK UNBOUND:                -4.637
REMARK SMILES CCCCCCCCCCCCCCCCCCCCCCCCCCCCCC(=O)[O-]
REMARK SMILES IDX 16 1 17 2 18 3 19 4 20 5 21 6 22 7 23 8 24 9 25 10 26 11
REMARK SMILES IDX 27 12 28 13 29 14 30 15 31 16 32 17 15 18 14 19 13 20 12 21
REMARK SMILES IDX 11 22 10 23 9 24 8 25 7 26 6 27 5 28 4 29 3 30 2 31 1 32
REMARK H PARENT
REMARK Flexibility Score: inf
ROOT
ATOM      1  C   UNL     1      53.200  -4.447  75.253  1.00  0.00     0.000 C 
ENDROOT
BRANCH   1   2
ATOM      2  C   UNL     1      51.697  -4.182  75.481  1.00  0.00     0.000 C 
BRANCH   2   3
ATOM      3  C   UNL     1      51.349  -2.788  76.036  1.00  0.00     0.000 C 
BRANCH   3   4
ATOM      4  C   UNL     1      50.016  -2.707  76.815  1.00  0.00     0.000 C 
BRANCH   4   5
ATOM      5  C   UNL     1      49.369  -4.076  77.111  1.00  0.00     0.000 C 
BRANCH   5   6
ATOM      6  C   UNL     1      48.655  -4.193  78.471  1.00  0.00     0.000 C 
BRANCH   6   7
ATOM      7  C   UNL     1      49.414  -4.995  79.545  1.00  0.00     0.000 C 
BRANCH   7   8
ATOM      8  C   UNL     1      50.872  -4.557  79.774  1.00  0.00     0.000 C 
BRANCH   8   9
ATOM      9  C   UNL     1      51.912  -5.614  79.348  1.00  0.00     0.000 C 
BRANCH   9  10
ATOM     10  C   UNL     1      51.268  -6.974  79.020  1.00  0.00     0.000 C 
BRANCH  10  11
ATOM     11  C   UNL     1      51.319  -7.304  77.519  1.00  0.00     0.000 C 
BRANCH  11  12
ATOM     12  C   UNL     1      49.978  -7.828  76.982  1.00  0.00     0.000 C 
BRANCH  12  13
ATOM     13  C   UNL     1      49.079  -8.319  78.127  1.00  0.00     0.006 C 
BRANCH  13  14
ATOM     14  C   UNL     1      49.206  -9.833  78.355  1.00  0.00     0.053 C 
BRANCH  14  15
ATOM     15  C   UNL     1      48.417 -10.285  79.545  1.00  0.00     0.041 C 
ATOM     16  O   UNL     1      48.657 -11.401  80.079  1.00  0.00    -0.550 OA
ATOM     17  O   UNL     1      47.408  -9.480  80.058  1.00  0.00    -0.550 OA
ENDBRANCH  14  15
ENDBRANCH  13  14
ENDBRANCH  12  13
ENDBRANCH  11  12
ENDBRANCH  10  11
ENDBRANCH   9  10
ENDBRANCH   8   9
ENDBRANCH   7   8
ENDBRANCH   6   7
ENDBRANCH   5   6
ENDBRANCH   4   5
ENDBRANCH   3   4
ENDBRANCH   2   3
ENDBRANCH   1   2
BRANCH   1  18
ATOM     18  C   UNL     1      53.708  -4.152  73.828  1.00  0.00     0.000 C 
BRANCH  18  19
ATOM     19  C   UNL     1      52.762  -3.298  72.960  1.00  0.00     0.000 C 
BRANCH  19  20
ATOM     20  C   UNL     1      53.103  -1.795  72.900  1.00  0.00     0.000 C 
BRANCH  20  21
ATOM     21  C   UNL     1      51.989  -0.898  72.327  1.00  0.00     0.000 C 
BRANCH  21  22
ATOM     22  C   UNL     1      50.891  -0.506  73.334  1.00  0.00     0.000 C 
BRANCH  22  23
ATOM     23  C   UNL     1      49.491  -0.299  72.723  1.00  0.00     0.000 C 
BRANCH  23  24
ATOM     24  C   UNL     1      48.833  -1.570  72.152  1.00  0.00    -0.000 C 
BRANCH  24  25
ATOM     25  C   UNL     1      48.828  -2.743  73.149  1.00  0.00    -0.000 C 
BRANCH  25  26
ATOM     26  C   UNL     1      49.306  -4.057  72.509  1.00  0.00    -0.000 C 
BRANCH  26  27
ATOM     27  C   UNL     1      48.908  -5.293  73.335  1.00  0.00    -0.000 C 
BRANCH  27  28
ATOM     28  C   UNL     1      47.527  -5.129  74.005  1.00  0.00    -0.000 C 
BRANCH  28  29
ATOM     29  C   UNL     1      47.207  -6.226  75.036  1.00  0.00    -0.000 C 
BRANCH  29  30
ATOM     30  C   UNL     1      46.338  -7.353  74.459  1.00  0.00    -0.000 C 
BRANCH  30  31
ATOM     31  C   UNL     1      47.072  -8.698  74.511  1.00  0.00    -0.003 C 
ATOM     32  C   UNL     1      46.603  -9.534  75.699  1.00  0.00     0.004 C 
ENDBRANCH  30  31
ENDBRANCH  29  30
ENDBRANCH  28  29
ENDBRANCH  27  28
ENDBRANCH  26  27
ENDBRANCH  25  26
ENDBRANCH  24  25
ENDBRANCH  23  24
ENDBRANCH  22  23
ENDBRANCH  21  22
ENDBRANCH  20  21
ENDBRANCH  19  20
ENDBRANCH  18  19
ENDBRANCH   1  18
TORSDOF 28
ENDMDL
MODEL 6
REMARK VINA RESULT:    -4.382      3.395      6.552
REMARK INTER + INTRA:         -16.191
REMARK INTER:                 -11.151
REMARK INTRA:                  -5.040
REMARK UNBOUND:                -4.637
REMARK SMILES CCCCCCCCCCCCCCCCCCCCCCCCCCCCCC(=O)[O-]
REMARK SMILES IDX 16 1 17 2 18 3 19 4 20 5 21 6 22 7 23 8 24 9 25 10 26 11
REMARK SMILES IDX 27 12 28 13 29 14 30 15 31 16 32 17 15 18 14 19 13 20 12 21
REMARK SMILES IDX 11 22 10 23 9 24 8 25 7 26 6 27 5 28 4 29 3 30 2 31 1 32
REMARK H PARENT
REMARK Flexibility Score: inf
ROOT
ATOM      1  C   UNL     1      51.268  -0.077  72.247  1.00  0.00     0.000 C 
ENDROOT
BRANCH   1   2
ATOM      2  C   UNL     1      52.669  -0.724  72.247  1.00  0.00     0.000 C 
BRANCH   2   3
ATOM      3  C   UNL     1      52.946  -1.702  73.406  1.00  0.00     0.000 C 
BRANCH   3   4
ATOM      4  C   UNL     1      53.280  -3.149  72.975  1.00  0.00     0.000 C 
BRANCH   4   5
ATOM      5  C   UNL     1      52.496  -4.236  73.738  1.00  0.00     0.000 C 
BRANCH   5   6
ATOM      6  C   UNL     1      51.336  -3.727  74.615  1.00  0.00     0.000 C 
BRANCH   6   7
ATOM      7  C   UNL     1      49.998  -4.466  74.428  1.00  0.00     0.000 C 
BRANCH   7   8
ATOM      8  C   UNL     1      49.520  -4.584  72.970  1.00  0.00     0.000 C 
BRANCH   8   9
ATOM      9  C   UNL     1      48.031  -4.226  72.773  1.00  0.00     0.000 C 
BRANCH   9  10
ATOM     10  C   UNL     1      47.116  -4.946  73.780  1.00  0.00     0.000 C 
BRANCH  10  11
ATOM     11  C   UNL     1      46.901  -6.428  73.426  1.00  0.00     0.000 C 
BRANCH  11  12
ATOM     12  C   UNL     1      45.713  -7.049  74.176  1.00  0.00     0.000 C 
BRANCH  12  13
ATOM     13  C   UNL     1      45.182  -8.289  73.440  1.00  0.00     0.006 C 
BRANCH  13  14
ATOM     14  C   UNL     1      46.137  -8.759  72.335  1.00  0.00     0.053 C 
BRANCH  14  15
ATOM     15  C   UNL     1      46.804 -10.054  72.688  1.00  0.00     0.041 C 
ATOM     16  O   UNL     1      47.973 -10.297  72.285  1.00  0.00    -0.550 OA
ATOM     17  O   UNL     1      46.129 -10.998  73.453  1.00  0.00    -0.550 OA
ENDBRANCH  14  15
ENDBRANCH  13  14
ENDBRANCH  12  13
ENDBRANCH  11  12
ENDBRANCH  10  11
ENDBRANCH   9  10
ENDBRANCH   8   9
ENDBRANCH   7   8
ENDBRANCH   6   7
ENDBRANCH   5   6
ENDBRANCH   4   5
ENDBRANCH   3   4
ENDBRANCH   2   3
ENDBRANCH   1   2
BRANCH   1  18
ATOM     18  C   UNL     1      50.096  -1.057  72.048  1.00  0.00     0.000 C 
BRANCH  18  19
ATOM     19  C   UNL     1      48.705  -0.493  72.401  1.00  0.00     0.000 C 
BRANCH  19  20
ATOM     20  C   UNL     1      48.513  -0.093  73.878  1.00  0.00     0.000 C 
BRANCH  20  21
ATOM     21  C   UNL     1      48.267  -1.269  74.843  1.00  0.00     0.000 C 
BRANCH  21  22
ATOM     22  C   UNL     1      49.092  -1.226  76.142  1.00  0.00     0.000 C 
BRANCH  22  23
ATOM     23  C   UNL     1      48.449  -1.944  77.346  1.00  0.00     0.000 C 
BRANCH  23  24
ATOM     24  C   UNL     1      47.560  -3.150  76.989  1.00  0.00    -0.000 C 
BRANCH  24  25
ATOM     25  C   UNL     1      48.068  -4.471  77.592  1.00  0.00    -0.000 C 
BRANCH  25  26
ATOM     26  C   UNL     1      49.428  -4.310  78.294  1.00  0.00    -0.000 C 
BRANCH  26  27
ATOM     27  C   UNL     1      49.519  -5.124  79.596  1.00  0.00    -0.000 C 
BRANCH  27  28
ATOM     28  C   UNL     1      49.099  -6.596  79.396  1.00  0.00    -0.000 C 
BRANCH  28  29
ATOM     29  C   UNL     1      50.255  -7.515  78.963  1.00  0.00    -0.000 C 
BRANCH  29  30
ATOM     30  C   UNL     1      49.834  -8.545  77.906  1.00  0.00    -0.000 C 
BRANCH  30  31
ATOM     31  C   UNL     1      49.390  -7.857  76.609  1.00  0.00    -0.003 C 
ATOM     32  C   UNL     1      48.609  -8.820  75.716  1.00  0.00     0.004 C 
ENDBRANCH  30  31
ENDBRANCH  29  30
ENDBRANCH  28  29
ENDBRANCH  27  28
ENDBRANCH  26  27
ENDBRANCH  25  26
ENDBRANCH  24  25
ENDBRANCH  23  24
ENDBRANCH  22  23
ENDBRANCH  21  22
ENDBRANCH  20  21
ENDBRANCH  19  20
ENDBRANCH  18  19
ENDBRANCH   1  18
TORSDOF 28
ENDMDL
MODEL 7
REMARK VINA RESULT:    -4.378      3.302      6.142
REMARK INTER + INTRA:         -16.180
REMARK INTER:                 -10.727
REMARK INTRA:                  -5.453
REMARK UNBOUND:                -4.637
REMARK SMILES CCCCCCCCCCCCCCCCCCCCCCCCCCCCCC(=O)[O-]
REMARK SMILES IDX 16 1 17 2 18 3 19 4 20 5 21 6 22 7 23 8 24 9 25 10 26 11
REMARK SMILES IDX 27 12 28 13 29 14 30 15 31 16 32 17 15 18 14 19 13 20 12 21
REMARK SMILES IDX 11 22 10 23 9 24 8 25 7 26 6 27 5 28 4 29 3 30 2 31 1 32
REMARK H PARENT
REMARK Flexibility Score: inf
ROOT
ATOM      1  C   UNL     1      49.757  -5.197  75.582  1.00  0.00     0.000 C 
ENDROOT
BRANCH   1   2
ATOM      2  C   UNL     1      50.459  -4.162  74.678  1.00  0.00     0.000 C 
BRANCH   2   3
ATOM      3  C   UNL     1      51.455  -3.227  75.392  1.00  0.00     0.000 C 
BRANCH   3   4
ATOM      4  C   UNL     1      52.804  -3.027  74.664  1.00  0.00     0.000 C 
BRANCH   4   5
ATOM      5  C   UNL     1      52.672  -2.696  73.163  1.00  0.00     0.000 C 
BRANCH   5   6
ATOM      6  C   UNL     1      52.665  -1.196  72.812  1.00  0.00     0.000 C 
BRANCH   6   7
ATOM      7  C   UNL     1      51.316  -0.644  72.313  1.00  0.00     0.000 C 
BRANCH   7   8
ATOM      8  C   UNL     1      50.231  -1.708  72.065  1.00  0.00     0.000 C 
BRANCH   8   9
ATOM      9  C   UNL     1      48.860  -1.351  72.676  1.00  0.00     0.000 C 
BRANCH   9  10
ATOM     10  C   UNL     1      48.820   0.085  73.230  1.00  0.00     0.000 C 
BRANCH  10  11
ATOM     11  C   UNL     1      48.133   0.169  74.603  1.00  0.00     0.000 C 
BRANCH  11  12
ATOM     12  C   UNL     1      48.722  -0.821  75.620  1.00  0.00     0.000 C 
BRANCH  12  13
ATOM     13  C   UNL     1      47.953  -0.770  76.950  1.00  0.00     0.006 C 
BRANCH  13  14
ATOM     14  C   UNL     1      48.424  -1.852  77.933  1.00  0.00     0.053 C 
BRANCH  14  15
ATOM     15  C   UNL     1      47.296  -2.373  78.770  1.00  0.00     0.041 C 
ATOM     16  O   UNL     1      47.172  -3.612  78.968  1.00  0.00    -0.550 OA
ATOM     17  O   UNL     1      46.374  -1.492  79.322  1.00  0.00    -0.550 OA
ENDBRANCH  14  15
ENDBRANCH  13  14
ENDBRANCH  12  13
ENDBRANCH  11  12
ENDBRANCH  10  11
ENDBRANCH   9  10
ENDBRANCH   8   9
ENDBRANCH   7   8
ENDBRANCH   6   7
ENDBRANCH   5   6
ENDBRANCH   4   5
ENDBRANCH   3   4
ENDBRANCH   2   3
ENDBRANCH   1   2
BRANCH   1  18
ATOM     18  C   UNL     1      48.311  -4.845  75.979  1.00  0.00     0.000 C 
BRANCH  18  19
ATOM     19  C   UNL     1      47.508  -4.075  74.911  1.00  0.00     0.000 C 
BRANCH  19  20
ATOM     20  C   UNL     1      46.704  -4.956  73.932  1.00  0.00     0.000 C 
BRANCH  20  21
ATOM     21  C   UNL     1      47.486  -5.430  72.693  1.00  0.00     0.000 C 
BRANCH  21  22
ATOM     22  C   UNL     1      47.931  -6.904  72.732  1.00  0.00     0.000 C 
BRANCH  22  23
ATOM     23  C   UNL     1      47.187  -7.782  73.757  1.00  0.00     0.000 C 
BRANCH  23  24
ATOM     24  C   UNL     1      48.092  -8.554  74.736  1.00  0.00    -0.000 C 
BRANCH  24  25
ATOM     25  C   UNL     1      47.774  -8.254  76.212  1.00  0.00    -0.000 C 
BRANCH  25  26
ATOM     26  C   UNL     1      47.998  -9.476  77.119  1.00  0.00    -0.000 C 
BRANCH  26  27
ATOM     27  C   UNL     1      49.130  -9.254  78.137  1.00  0.00    -0.000 C 
BRANCH  27  28
ATOM     28  C   UNL     1      48.689  -8.363  79.318  1.00  0.00    -0.000 C 
BRANCH  28  29
ATOM     29  C   UNL     1      49.403  -7.001  79.364  1.00  0.00    -0.000 C 
BRANCH  29  30
ATOM     30  C   UNL     1      50.848  -7.067  78.850  1.00  0.00    -0.000 C 
BRANCH  30  31
ATOM     31  C   UNL     1      51.491  -5.675  78.827  1.00  0.00    -0.003 C 
ATOM     32  C   UNL     1      50.521  -4.614  79.342  1.00  0.00     0.004 C 
ENDBRANCH  30  31
ENDBRANCH  29  30
ENDBRANCH  28  29
ENDBRANCH  27  28
ENDBRANCH  26  27
ENDBRANCH  25  26
ENDBRANCH  24  25
ENDBRANCH  23  24
ENDBRANCH  22  23
ENDBRANCH  21  22
ENDBRANCH  20  21
ENDBRANCH  19  20
ENDBRANCH  18  19
ENDBRANCH   1  18
TORSDOF 28
ENDMDL
MODEL 8
REMARK VINA RESULT:    -4.368      3.612      6.110
REMARK INTER + INTRA:         -16.153
REMARK INTER:                 -11.369
REMARK INTRA:                  -4.784
REMARK UNBOUND:                -4.637
REMARK SMILES CCCCCCCCCCCCCCCCCCCCCCCCCCCCCC(=O)[O-]
REMARK SMILES IDX 16 1 17 2 18 3 19 4 20 5 21 6 22 7 23 8 24 9 25 10 26 11
REMARK SMILES IDX 27 12 28 13 29 14 30 15 31 16 32 17 15 18 14 19 13 20 12 21
REMARK SMILES IDX 11 22 10 23 9 24 8 25 7 26 6 27 5 28 4 29 3 30 2 31 1 32
REMARK H PARENT
REMARK Flexibility Score: inf
ROOT
ATOM      1  C   UNL     1      48.858  -1.096  75.416  1.00  0.00     0.000 C 
ENDROOT
BRANCH   1   2
ATOM      2  C   UNL     1      48.257   0.206  74.846  1.00  0.00     0.000 C 
BRANCH   2   3
ATOM      3  C   UNL     1      48.590   0.497  73.369  1.00  0.00     0.000 C 
BRANCH   3   4
ATOM      4  C   UNL     1      48.699  -0.751  72.465  1.00  0.00     0.000 C 
BRANCH   4   5
ATOM      5  C   UNL     1      50.104  -0.988  71.875  1.00  0.00     0.000 C 
BRANCH   5   6
ATOM      6  C   UNL     1      51.254  -0.240  72.577  1.00  0.00     0.000 C 
BRANCH   6   7
ATOM      7  C   UNL     1      52.657  -0.837  72.356  1.00  0.00     0.000 C 
BRANCH   7   8
ATOM      8  C   UNL     1      52.859  -2.250  72.931  1.00  0.00     0.000 C 
BRANCH   8   9
ATOM      9  C   UNL     1      52.604  -2.346  74.450  1.00  0.00     0.000 C 
BRANCH   9  10
ATOM     10  C   UNL     1      51.548  -3.409  74.802  1.00  0.00     0.000 C 
BRANCH  10  11
ATOM     11  C   UNL     1      50.719  -3.845  73.582  1.00  0.00     0.000 C 
BRANCH  11  12
ATOM     12  C   UNL     1      49.560  -4.780  73.958  1.00  0.00     0.000 C 
BRANCH  12  13
ATOM     13  C   UNL     1      48.422  -4.691  72.928  1.00  0.00     0.006 C 
BRANCH  13  14
ATOM     14  C   UNL     1      47.042  -4.888  73.571  1.00  0.00     0.053 C 
BRANCH  14  15
ATOM     15  C   UNL     1      46.401  -6.169  73.133  1.00  0.00     0.041 C 
ATOM     16  O   UNL     1      46.453  -6.526  71.925  1.00  0.00    -0.550 OA
ATOM     17  O   UNL     1      45.735  -6.966  74.057  1.00  0.00    -0.550 OA
ENDBRANCH  14  15
ENDBRANCH  13  14
ENDBRANCH  12  13
ENDBRANCH  11  12
ENDBRANCH  10  11
ENDBRANCH   9  10
ENDBRANCH   8   9
ENDBRANCH   7   8
ENDBRANCH   6   7
ENDBRANCH   5   6
ENDBRANCH   4   5
ENDBRANCH   3   4
ENDBRANCH   2   3
ENDBRANCH   1   2
BRANCH   1  18
ATOM     18  C   UNL     1      47.843  -2.054  76.068  1.00  0.00     0.000 C 
BRANCH  18  19
ATOM     19  C   UNL     1      48.421  -2.974  77.162  1.00  0.00     0.000 C 
BRANCH  19  20
ATOM     20  C   UNL     1      47.866  -4.413  77.171  1.00  0.00     0.000 C 
BRANCH  20  21
ATOM     21  C   UNL     1      48.863  -5.491  77.637  1.00  0.00     0.000 C 
BRANCH  21  22
ATOM     22  C   UNL     1      49.761  -5.076  78.817  1.00  0.00     0.000 C 
BRANCH  22  23
ATOM     23  C   UNL     1      51.275  -5.102  78.525  1.00  0.00     0.000 C 
BRANCH  23  24
ATOM     24  C   UNL     1      52.090  -6.088  79.383  1.00  0.00    -0.000 C 
BRANCH  24  25
ATOM     25  C   UNL     1      52.819  -7.153  78.545  1.00  0.00    -0.000 C 
BRANCH  25  26
ATOM     26  C   UNL     1      51.925  -7.745  77.442  1.00  0.00    -0.000 C 
BRANCH  26  27
ATOM     27  C   UNL     1      50.931  -8.786  77.986  1.00  0.00    -0.000 C 
BRANCH  27  28
ATOM     28  C   UNL     1      49.705  -8.962  77.066  1.00  0.00    -0.000 C 
BRANCH  28  29
ATOM     29  C   UNL     1      48.391  -9.208  77.829  1.00  0.00    -0.000 C 
BRANCH  29  30
ATOM     30  C   UNL     1      48.576  -9.202  79.353  1.00  0.00    -0.000 C 
BRANCH  30  31
ATOM     31  C   UNL     1      47.455  -9.984  80.049  1.00  0.00    -0.003 C 
ATOM     32  C   UNL     1      47.985 -11.284  80.651  1.00  0.00     0.004 C 
ENDBRANCH  30  31
ENDBRANCH  29  30
ENDBRANCH  28  29
ENDBRANCH  27  28
ENDBRANCH  26  27
ENDBRANCH  25  26
ENDBRANCH  24  25
ENDBRANCH  23  24
ENDBRANCH  22  23
ENDBRANCH  21  22
ENDBRANCH  20  21
ENDBRANCH  19  20
ENDBRANCH  18  19
ENDBRANCH   1  18
TORSDOF 28
ENDMDL
MODEL 9
REMARK VINA RESULT:    -4.359      3.026      7.278
REMARK INTER + INTRA:         -16.130
REMARK INTER:                 -10.746
REMARK INTRA:                  -5.385
REMARK UNBOUND:                -4.637
REMARK SMILES CCCCCCCCCCCCCCCCCCCCCCCCCCCCCC(=O)[O-]
REMARK SMILES IDX 16 1 17 2 18 3 19 4 20 5 21 6 22 7 23 8 24 9 25 10 26 11
REMARK SMILES IDX 27 12 28 13 29 14 30 15 31 16 32 17 15 18 14 19 13 20 12 21
REMARK SMILES IDX 11 22 10 23 9 24 8 25 7 26 6 27 5 28 4 29 3 30 2 31 1 32
REMARK H PARENT
REMARK Flexibility Score: inf
ROOT
ATOM      1  C   UNL     1      48.210  -4.109  72.639  1.00  0.00     0.000 C 
ENDROOT
BRANCH   1   2
ATOM      2  C   UNL     1      47.073  -4.776  73.442  1.00  0.00     0.000 C 
BRANCH   2   3
ATOM      3  C   UNL     1      46.550  -6.107  72.868  1.00  0.00     0.000 C 
BRANCH   3   4
ATOM      4  C   UNL     1      45.970  -7.088  73.912  1.00  0.00     0.000 C 
BRANCH   4   5
ATOM      5  C   UNL     1      46.973  -8.144  74.419  1.00  0.00     0.000 C 
BRANCH   5   6
ATOM      6  C   UNL     1      47.672  -7.811  75.751  1.00  0.00     0.000 C 
BRANCH   6   7
ATOM      7  C   UNL     1      48.988  -7.022  75.623  1.00  0.00     0.000 C 
BRANCH   7   8
ATOM      8  C   UNL     1      49.207  -5.944  76.700  1.00  0.00     0.000 C 
BRANCH   8   9
ATOM      9  C   UNL     1      48.086  -4.885  76.755  1.00  0.00     0.000 C 
BRANCH   9  10
ATOM     10  C   UNL     1      48.628  -3.449  76.636  1.00  0.00     0.000 C 
BRANCH  10  11
ATOM     11  C   UNL     1      50.060  -3.313  77.182  1.00  0.00     0.000 C 
BRANCH  11  12
ATOM     12  C   UNL     1      50.156  -2.322  78.352  1.00  0.00     0.000 C 
BRANCH  12  13
ATOM     13  C   UNL     1      50.761  -2.992  79.596  1.00  0.00     0.006 C 
BRANCH  13  14
ATOM     14  C   UNL     1      49.921  -4.184  80.077  1.00  0.00     0.053 C 
BRANCH  14  15
ATOM     15  C   UNL     1      48.624  -3.744  80.683  1.00  0.00     0.041 C 
ATOM     16  O   UNL     1      48.618  -2.991  81.694  1.00  0.00    -0.550 OA
ATOM     17  O   UNL     1      47.420  -4.173  80.138  1.00  0.00    -0.550 OA
ENDBRANCH  14  15
ENDBRANCH  13  14
ENDBRANCH  12  13
ENDBRANCH  11  12
ENDBRANCH  10  11
ENDBRANCH   9  10
ENDBRANCH   8   9
ENDBRANCH   7   8
ENDBRANCH   6   7
ENDBRANCH   5   6
ENDBRANCH   4   5
ENDBRANCH   3   4
ENDBRANCH   2   3
ENDBRANCH   1   2
BRANCH   1  18
ATOM     18  C   UNL     1      49.603  -4.737  72.834  1.00  0.00     0.000 C 
BRANCH  18  19
ATOM     19  C   UNL     1      50.657  -3.808  73.470  1.00  0.00     0.000 C 
BRANCH  19  20
ATOM     20  C   UNL     1      51.820  -4.525  74.184  1.00  0.00     0.000 C 
BRANCH  20  21
ATOM     21  C   UNL     1      53.225  -4.013  73.811  1.00  0.00     0.000 C 
BRANCH  21  22
ATOM     22  C   UNL     1      53.263  -3.022  72.633  1.00  0.00     0.000 C 
BRANCH  22  23
ATOM     23  C   UNL     1      53.375  -1.538  73.034  1.00  0.00     0.000 C 
BRANCH  23  24
ATOM     24  C   UNL     1      53.433  -0.546  71.857  1.00  0.00    -0.000 C 
BRANCH  24  25
ATOM     25  C   UNL     1      52.228   0.411  71.818  1.00  0.00    -0.000 C 
BRANCH  25  26
ATOM     26  C   UNL     1      51.075  -0.062  72.719  1.00  0.00    -0.000 C 
BRANCH  26  27
ATOM     27  C   UNL     1      49.882  -0.603  71.913  1.00  0.00    -0.000 C 
BRANCH  27  28
ATOM     28  C   UNL     1      48.559  -0.533  72.705  1.00  0.00    -0.000 C 
BRANCH  28  29
ATOM     29  C   UNL     1      48.740  -0.689  74.225  1.00  0.00    -0.000 C 
BRANCH  29  30
ATOM     30  C   UNL     1      48.290   0.552  75.010  1.00  0.00    -0.000 C 
BRANCH  30  31
ATOM     31  C   UNL     1      47.881   0.182  76.441  1.00  0.00    -0.003 C 
ATOM     32  C   UNL     1      46.486  -0.437  76.471  1.00  0.00     0.004 C 
ENDBRANCH  30  31
ENDBRANCH  29  30
ENDBRANCH  28  29
ENDBRANCH  27  28
ENDBRANCH  26  27
ENDBRANCH  25  26
ENDBRANCH  24  25
ENDBRANCH  23  24
ENDBRANCH  22  23
ENDBRANCH  21  22
ENDBRANCH  20  21
ENDBRANCH  19  20
ENDBRANCH  18  19
ENDBRANCH   1  18
TORSDOF 28
ENDMDL
