MODEL 1
REMARK VINA RESULT:    75.522      0.000      0.000
REMARK INTER + INTRA:         101.320
REMARK INTER:                 102.013
REMARK INTRA:                  -0.692
REMARK UNBOUND:                -0.692
REMARK SMILES O=c1c(-c2ccc(O)cc2)coc2c([C@H]3O[C@@H](CO)[C@@H](O)[C@@H](O)[C@H]3O)c(O)ccc12
REMARK SMILES IDX 3 1 11 2 12 3 13 4 30 5 2 6 1 7 29 8 28 9 26 10 14 11 4 12
REMARK SMILES IDX 5 13 6 14 7 15 10 16 9 17 8 18 15 20 24 21 16 22 22 23 17 24
REMARK SMILES IDX 20 25 25 26 23 28 18 30 19 31 21 33 27 35
REMARK H PARENT 8 19 25 27 23 29 19 32 21 34 27 36
REMARK Flexibility Score: inf
ROOT
ATOM      1  C   UNL     1      -6.766  -4.294  20.378  1.00  0.00     0.065 A 
ATOM      2  C   UNL     1      -5.621  -4.826  19.770  1.00  0.00     0.208 A 
ATOM      3  O   UNL     1      -5.664  -5.993  19.141  1.00  0.00    -0.463 OA
ATOM      4  C   UNL     1      -6.767  -6.732  19.046  1.00  0.00     0.147 A 
ATOM      5  C   UNL     1      -7.965  -6.277  19.645  1.00  0.00     0.066 A 
ATOM      6  C   UNL     1      -7.956  -5.042  20.320  1.00  0.00     0.200 A 
ATOM      7  O   UNL     1      -9.001  -4.617  20.886  1.00  0.00    -0.288 OA
ATOM      8  C   UNL     1      -9.124  -7.065  19.566  1.00  0.00     0.020 A 
ATOM      9  C   UNL     1      -9.093  -8.292  18.911  1.00  0.00     0.047 A 
ATOM     10  C   UNL     1      -7.915  -8.752  18.310  1.00  0.00     0.125 A 
ATOM     11  C   UNL     1      -6.741  -7.967  18.350  1.00  0.00     0.069 A 
ENDROOT
BRANCH   1  12
ATOM     12  C   UNL     1      -6.699  -2.979  21.063  1.00  0.00    -0.011 A 
ATOM     13  C   UNL     1      -6.912  -1.792  20.342  1.00  0.00     0.013 A 
ATOM     14  C   UNL     1      -6.855  -0.553  20.988  1.00  0.00     0.047 A 
ATOM     15  C   UNL     1      -6.595  -0.486  22.363  1.00  0.00     0.115 A 
ATOM     16  C   UNL     1      -6.446  -2.904  22.446  1.00  0.00     0.013 A 
ATOM     17  C   UNL     1      -6.392  -1.665  23.088  1.00  0.00     0.047 A 
BRANCH  15  18
ATOM     18  O   UNL     1      -6.538   0.743  23.016  1.00  0.00    -0.508 OA
ATOM     19  H   UNL     1      -5.825   1.427  22.794  1.00  0.00     0.293 HD
ENDBRANCH  15  18
ENDBRANCH   1  12
BRANCH  11  20
ATOM     20  C   UNL     1      -5.465  -8.497  17.705  1.00  0.00     0.188 C 
ATOM     21  C   UNL     1      -4.727  -9.460  18.662  1.00  0.00     0.179 C 
ATOM     22  O   UNL     1      -4.616  -7.430  17.329  1.00  0.00    -0.362 OA
ATOM     23  C   UNL     1      -3.462 -10.055  17.986  1.00  0.00     0.177 C 
ATOM     24  C   UNL     1      -3.456  -7.833  16.601  1.00  0.00     0.176 C 
ATOM     25  C   UNL     1      -3.117  -9.365  16.640  1.00  0.00     0.177 C 
BRANCH  21  26
ATOM     26  O   UNL     1      -4.422  -8.834  19.887  1.00  0.00    -0.387 OA
ATOM     27  H   UNL     1      -4.523  -7.856  19.763  1.00  0.00     0.211 HD
ENDBRANCH  21  26
BRANCH  23  28
ATOM     28  O   UNL     1      -2.365 -10.109  18.867  1.00  0.00    -0.387 OA
ATOM     29  H   UNL     1      -2.687 -10.428  19.746  1.00  0.00     0.211 HD
ENDBRANCH  23  28
BRANCH  24  30
ATOM     30  C   UNL     1      -2.286  -6.944  17.055  1.00  0.00     0.191 C 
BRANCH  30  31
ATOM     31  O   UNL     1      -1.743  -7.455  18.243  1.00  0.00    -0.394 OA
ATOM     32  H   UNL     1      -0.860  -7.015  18.355  1.00  0.00     0.210 HD
ENDBRANCH  30  31
ENDBRANCH  24  30
BRANCH  25  33
ATOM     33  O   UNL     1      -1.781  -9.622  16.291  1.00  0.00    -0.388 OA
ATOM     34  H   UNL     1      -1.384  -8.753  16.017  1.00  0.00     0.211 HD
ENDBRANCH  25  33
ENDBRANCH  11  20
BRANCH  10  35
ATOM     35  O   UNL     1      -7.909  -9.995  17.676  1.00  0.00    -0.507 OA
ATOM     36  H   UNL     1      -8.620 -10.252  17.001  1.00  0.00     0.293 HD
ENDBRANCH  10  35
TORSDOF 9
ENDMDL
MODEL 2
REMARK VINA RESULT:    76.296      2.932      6.188
REMARK INTER + INTRA:         102.365
REMARK INTER:                 100.281
REMARK INTRA:                   2.084
REMARK UNBOUND:                -0.692
REMARK SMILES O=c1c(-c2ccc(O)cc2)coc2c([C@H]3O[C@@H](CO)[C@@H](O)[C@@H](O)[C@H]3O)c(O)ccc12
REMARK SMILES IDX 3 1 11 2 12 3 13 4 30 5 2 6 1 7 29 8 28 9 26 10 14 11 4 12
REMARK SMILES IDX 5 13 6 14 7 15 10 16 9 17 8 18 15 20 24 21 16 22 22 23 17 24
REMARK SMILES IDX 20 25 25 26 23 28 18 30 19 31 21 33 27 35
REMARK H PARENT 8 19 25 27 23 29 19 32 21 34 27 36
REMARK Flexibility Score: inf
ROOT
ATOM      1  C   UNL     1      -7.444   0.831  20.348  1.00  0.00     0.065 A 
ATOM      2  C   UNL     1      -8.028  -0.213  19.617  1.00  0.00     0.208 A 
ATOM      3  O   UNL     1      -7.880  -1.475  19.997  1.00  0.00    -0.463 OA
ATOM      4  C   UNL     1      -7.181  -1.839  21.069  1.00  0.00     0.147 A 
ATOM      5  C   UNL     1      -6.545  -0.850  21.856  1.00  0.00     0.066 A 
ATOM      6  C   UNL     1      -6.681   0.500  21.482  1.00  0.00     0.200 A 
ATOM      7  O   UNL     1      -6.108   1.407  22.147  1.00  0.00    -0.288 OA
ATOM      8  C   UNL     1      -5.788  -1.233  22.974  1.00  0.00     0.020 A 
ATOM      9  C   UNL     1      -5.655  -2.578  23.303  1.00  0.00     0.047 A 
ATOM     10  C   UNL     1      -6.283  -3.567  22.536  1.00  0.00     0.125 A 
ATOM     11  C   UNL     1      -7.073  -3.209  21.421  1.00  0.00     0.069 A 
ENDROOT
BRANCH   1  12
ATOM     12  C   UNL     1      -7.634   2.237  19.913  1.00  0.00    -0.011 A 
ATOM     13  C   UNL     1      -8.805   2.934  20.258  1.00  0.00     0.013 A 
ATOM     14  C   UNL     1      -8.982   4.260  19.855  1.00  0.00     0.047 A 
ATOM     15  C   UNL     1      -7.989   4.910  19.110  1.00  0.00     0.115 A 
ATOM     16  C   UNL     1      -6.637   2.898  19.171  1.00  0.00     0.013 A 
ATOM     17  C   UNL     1      -6.817   4.225  18.772  1.00  0.00     0.047 A 
BRANCH  15  18
ATOM     18  O   UNL     1      -8.155   6.232  18.704  1.00  0.00    -0.508 OA
ATOM     19  H   UNL     1      -8.854   6.831  19.128  1.00  0.00     0.293 HD
ENDBRANCH  15  18
ENDBRANCH   1  12
BRANCH  11  20
ATOM     20  C   UNL     1      -7.732  -4.304  20.589  1.00  0.00     0.188 C 
ATOM     21  C   UNL     1      -8.386  -5.365  21.503  1.00  0.00     0.179 C 
ATOM     22  O   UNL     1      -6.790  -4.910  19.727  1.00  0.00    -0.362 OA
ATOM     23  C   UNL     1      -9.116  -6.448  20.663  1.00  0.00     0.177 C 
ATOM     24  C   UNL     1      -7.350  -5.860  18.821  1.00  0.00     0.176 C 
ATOM     25  C   UNL     1      -8.809  -6.343  19.145  1.00  0.00     0.177 C 
BRANCH  21  26
ATOM     26  O   UNL     1      -7.448  -5.933  22.387  1.00  0.00    -0.387 OA
ATOM     27  H   UNL     1      -7.812  -6.797  22.705  1.00  0.00     0.211 HD
ENDBRANCH  21  26
BRANCH  23  28
ATOM     28  O   UNL     1      -8.909  -7.745  21.171  1.00  0.00    -0.387 OA
ATOM     29  H   UNL     1      -8.056  -7.749  21.673  1.00  0.00     0.211 HD
ENDBRANCH  23  28
BRANCH  24  30
ATOM     30  C   UNL     1      -6.349  -7.018  18.676  1.00  0.00     0.191 C 
BRANCH  30  31
ATOM     31  O   UNL     1      -6.484  -7.599  17.406  1.00  0.00    -0.394 OA
ATOM     32  H   UNL     1      -5.690  -8.182  17.283  1.00  0.00     0.210 HD
ENDBRANCH  30  31
ENDBRANCH  24  30
BRANCH  25  33
ATOM     33  O   UNL     1      -9.123  -7.551  18.501  1.00  0.00    -0.388 OA
ATOM     34  H   UNL     1      -9.434  -8.180  19.204  1.00  0.00     0.211 HD
ENDBRANCH  25  33
ENDBRANCH  11  20
BRANCH  10  35
ATOM     35  O   UNL     1      -6.116  -4.909  22.878  1.00  0.00    -0.507 OA
ATOM     36  H   UNL     1      -6.908  -5.507  23.085  1.00  0.00     0.293 HD
ENDBRANCH  10  35
TORSDOF 9
ENDMDL
