MODEL 1
REMARK VINA RESULT:    -4.514      0.000      0.000
REMARK INTER + INTRA:          -5.500
REMARK INTER:                  -5.437
REMARK INTRA:                  -0.063
REMARK UNBOUND:                -0.063
REMARK SMILES [NH3+][C@H](Cc1c[nH]c2ccccc12)C(=O)[O-]
REMARK SMILES IDX 3 1 2 2 1 3 13 7 14 8 15 9 4 10 12 11 5 12 7 13 11 14 6 15
REMARK SMILES IDX 8 16 10 17 9 19
REMARK H PARENT 1 4 1 5 1 6 6 18
REMARK Flexibility Score: inf
ROOT
ATOM      1  C   UNL     1      -7.280  33.988 -10.798  1.00  0.00     0.109 C 
ENDROOT
BRANCH   1   2
ATOM      2  C   UNL     1      -6.437  34.646 -11.913  1.00  0.00     0.232 C 
BRANCH   2   3
ATOM      3  N   UNL     1      -6.390  33.816 -13.125  1.00  0.00    -0.350 N 
ATOM      4  H   UNL     1      -7.294  33.316 -13.279  1.00  0.00     0.345 HD
ATOM      5  H   UNL     1      -5.619  33.114 -13.045  1.00  0.00     0.345 HD
ATOM      6  H   UNL     1      -6.195  34.422 -13.956  1.00  0.00     0.345 HD
ENDBRANCH   2   3
BRANCH   2   7
ATOM      7  C   UNL     1      -6.918  36.042 -12.221  1.00  0.00     0.099 C 
ATOM      8  O   UNL     1      -7.790  36.243 -13.108  1.00  0.00    -0.544 OA
ATOM      9  O   UNL     1      -6.433  37.115 -11.485  1.00  0.00    -0.544 OA
ENDBRANCH   2   7
ENDBRANCH   1   2
BRANCH   1  10
ATOM     10  C   UNL     1      -8.756  33.980 -11.087  1.00  0.00    -0.016 A 
ATOM     11  C   UNL     1      -9.738  34.760 -10.505  1.00  0.00     0.003 A 
ATOM     12  C   UNL     1      -9.411  33.200 -12.035  1.00  0.00     0.087 A 
ATOM     13  C   UNL     1     -10.922  34.426 -11.112  1.00  0.00     0.046 A 
ATOM     14  C   UNL     1      -9.675  35.726  -9.500  1.00  0.00     0.010 A 
ATOM     15  N   UNL     1     -10.734  33.476 -12.045  1.00  0.00    -0.361 N 
ATOM     16  C   UNL     1     -12.125  35.037 -10.758  1.00  0.00     0.026 A 
ATOM     17  C   UNL     1     -10.874  36.359  -9.122  1.00  0.00     0.001 A 
ATOM     18  H   UNL     1     -11.460  33.043 -12.658  1.00  0.00     0.166 HD
ATOM     19  C   UNL     1     -12.093  36.016  -9.749  1.00  0.00     0.002 A 
ENDBRANCH   1  10
TORSDOF 4
ENDMDL
MODEL 2
REMARK VINA RESULT:    -3.771      2.614      4.535
REMARK INTER + INTRA:          -4.606
REMARK INTER:                  -4.468
REMARK INTRA:                  -0.137
REMARK UNBOUND:                -0.063
REMARK SMILES [NH3+][C@H](Cc1c[nH]c2ccccc12)C(=O)[O-]
REMARK SMILES IDX 3 1 2 2 1 3 13 7 14 8 15 9 4 10 12 11 5 12 7 13 11 14 6 15
REMARK SMILES IDX 8 16 10 17 9 19
REMARK H PARENT 1 4 1 5 1 6 6 18
REMARK Flexibility Score: inf
ROOT
ATOM      1  C   UNL     1      -8.759  32.867 -10.203  1.00  0.00     0.109 C 
ENDROOT
BRANCH   1   2
ATOM      2  C   UNL     1      -9.411  32.171 -11.419  1.00  0.00     0.232 C 
BRANCH   2   3
ATOM      3  N   UNL     1      -9.872  30.815 -11.091  1.00  0.00    -0.350 N 
ATOM      4  H   UNL     1     -10.584  30.479 -11.778  1.00  0.00     0.345 HD
ATOM      5  H   UNL     1     -10.288  30.804 -10.132  1.00  0.00     0.345 HD
ATOM      6  H   UNL     1      -9.057  30.158 -11.101  1.00  0.00     0.345 HD
ENDBRANCH   2   3
BRANCH   2   7
ATOM      7  C   UNL     1     -10.524  33.004 -12.003  1.00  0.00     0.099 C 
ATOM      8  O   UNL     1     -11.660  33.037 -11.459  1.00  0.00    -0.544 OA
ATOM      9  O   UNL     1     -10.283  33.786 -13.125  1.00  0.00    -0.544 OA
ENDBRANCH   2   7
ENDBRANCH   1   2
BRANCH   1  10
ATOM     10  C   UNL     1      -8.473  34.327 -10.430  1.00  0.00    -0.016 A 
ATOM     11  C   UNL     1      -7.615  34.889 -11.356  1.00  0.00     0.003 A 
ATOM     12  C   UNL     1      -9.057  35.399  -9.761  1.00  0.00     0.087 A 
ATOM     13  C   UNL     1      -7.713  36.250 -11.213  1.00  0.00     0.046 A 
ATOM     14  C   UNL     1      -6.768  34.309 -12.302  1.00  0.00     0.010 A 
ATOM     15  N   UNL     1      -8.587  36.571 -10.244  1.00  0.00    -0.361 N 
ATOM     16  C   UNL     1      -6.973  37.125 -12.008  1.00  0.00     0.026 A 
ATOM     17  C   UNL     1      -6.010  35.169 -13.118  1.00  0.00     0.001 A 
ATOM     18  H   UNL     1      -8.856  37.530  -9.930  1.00  0.00     0.166 HD
ATOM     19  C   UNL     1      -6.112  36.571 -12.972  1.00  0.00     0.002 A 
ENDBRANCH   1  10
TORSDOF 4
ENDMDL
MODEL 3
REMARK VINA RESULT:    -3.178      2.078      2.461
REMARK INTER + INTRA:          -3.891
REMARK INTER:                  -3.684
REMARK INTRA:                  -0.207
REMARK UNBOUND:                -0.063
REMARK SMILES [NH3+][C@H](Cc1c[nH]c2ccccc12)C(=O)[O-]
REMARK SMILES IDX 3 1 2 2 1 3 13 7 14 8 15 9 4 10 12 11 5 12 7 13 11 14 6 15
REMARK SMILES IDX 8 16 10 17 9 19
REMARK H PARENT 1 4 1 5 1 6 6 18
REMARK Flexibility Score: inf
ROOT
ATOM      1  C   UNL     1      -7.192  36.138 -11.708  1.00  0.00     0.109 C 
ENDROOT
BRANCH   1   2
ATOM      2  C   UNL     1      -6.738  34.851 -12.432  1.00  0.00     0.232 C 
BRANCH   2   3
ATOM      3  N   UNL     1      -5.353  34.493 -12.095  1.00  0.00    -0.350 N 
ATOM      4  H   UNL     1      -5.039  34.971 -11.221  1.00  0.00     0.345 HD
ATOM      5  H   UNL     1      -4.717  34.761 -12.880  1.00  0.00     0.345 HD
ATOM      6  H   UNL     1      -5.283  33.458 -11.957  1.00  0.00     0.345 HD
ENDBRANCH   2   3
BRANCH   2   7
ATOM      7  C   UNL     1      -7.682  33.704 -12.166  1.00  0.00     0.099 C 
ATOM      8  O   UNL     1      -8.141  33.013 -13.115  1.00  0.00    -0.544 OA
ATOM      9  O   UNL     1      -8.009  33.371 -10.859  1.00  0.00    -0.544 OA
ENDBRANCH   2   7
ENDBRANCH   1   2
BRANCH   1  10
ATOM     10  C   UNL     1      -8.647  36.461 -11.914  1.00  0.00    -0.016 A 
ATOM     11  C   UNL     1      -9.664  36.421 -10.980  1.00  0.00     0.003 A 
ATOM     12  C   UNL     1      -9.239  36.902 -13.094  1.00  0.00     0.087 A 
ATOM     13  C   UNL     1     -10.807  36.830 -11.619  1.00  0.00     0.046 A 
ATOM     14  C   UNL     1      -9.667  36.059  -9.631  1.00  0.00     0.010 A 
ATOM     15  N   UNL     1     -10.560  37.124 -12.907  1.00  0.00    -0.361 N 
ATOM     16  C   UNL     1     -12.031  36.908 -10.954  1.00  0.00     0.026 A 
ATOM     17  C   UNL     1     -10.889  36.129  -8.936  1.00  0.00     0.001 A 
ATOM     18  H   UNL     1     -11.244  37.462 -13.619  1.00  0.00     0.166 HD
ATOM     19  C   UNL     1     -12.065  36.553  -9.595  1.00  0.00     0.002 A 
ENDBRANCH   1  10
TORSDOF 4
ENDMDL
MODEL 4
REMARK VINA RESULT:    -2.945      2.620      4.769
REMARK INTER + INTRA:          -3.611
REMARK INTER:                  -3.835
REMARK INTRA:                   0.224
REMARK UNBOUND:                -0.063
REMARK SMILES [NH3+][C@H](Cc1c[nH]c2ccccc12)C(=O)[O-]
REMARK SMILES IDX 3 1 2 2 1 3 13 7 14 8 15 9 4 10 12 11 5 12 7 13 11 14 6 15
REMARK SMILES IDX 8 16 10 17 9 19
REMARK H PARENT 1 4 1 5 1 6 6 18
REMARK Flexibility Score: inf
ROOT
ATOM      1  C   UNL     1      -9.113  36.990  -9.847  1.00  0.00     0.109 C 
ENDROOT
BRANCH   1   2
ATOM      2  C   UNL     1     -10.546  37.125 -10.406  1.00  0.00     0.232 C 
BRANCH   2   3
ATOM      3  N   UNL     1     -10.574  37.023 -11.872  1.00  0.00    -0.350 N 
ATOM      4  H   UNL     1      -9.615  36.875 -12.261  1.00  0.00     0.345 HD
ATOM      5  H   UNL     1     -10.979  37.896 -12.281  1.00  0.00     0.345 HD
ATOM      6  H   UNL     1     -11.180  36.218 -12.155  1.00  0.00     0.345 HD
ENDBRANCH   2   3
BRANCH   2   7
ATOM      7  C   UNL     1     -11.486  36.132  -9.769  1.00  0.00     0.099 C 
ATOM      8  O   UNL     1     -12.105  35.287 -10.469  1.00  0.00    -0.544 OA
ATOM      9  O   UNL     1     -11.634  36.113  -8.388  1.00  0.00    -0.544 OA
ENDBRANCH   2   7
ENDBRANCH   1   2
BRANCH   1  10
ATOM     10  C   UNL     1      -8.127  36.450 -10.847  1.00  0.00    -0.016 A 
ATOM     11  C   UNL     1      -8.132  35.211 -11.458  1.00  0.00     0.003 A 
ATOM     12  C   UNL     1      -7.031  37.125 -11.377  1.00  0.00     0.087 A 
ATOM     13  C   UNL     1      -7.060  35.186 -12.314  1.00  0.00     0.046 A 
ATOM     14  C   UNL     1      -8.989  34.117 -11.324  1.00  0.00     0.010 A 
ATOM     15  N   UNL     1      -6.383  36.346 -12.273  1.00  0.00    -0.361 N 
ATOM     16  C   UNL     1      -6.775  34.069 -13.098  1.00  0.00     0.026 A 
ATOM     17  C   UNL     1      -8.725  32.976 -12.103  1.00  0.00     0.001 A 
ATOM     18  H   UNL     1      -5.533  36.600 -12.823  1.00  0.00     0.166 HD
ATOM     19  C   UNL     1      -7.623  32.953 -12.987  1.00  0.00     0.002 A 
ENDBRANCH   1  10
TORSDOF 4
ENDMDL
MODEL 5
REMARK VINA RESULT:    -2.013      3.286      4.956
REMARK INTER + INTRA:          -2.488
REMARK INTER:                  -2.287
REMARK INTRA:                  -0.201
REMARK UNBOUND:                -0.063
REMARK SMILES [NH3+][C@H](Cc1c[nH]c2ccccc12)C(=O)[O-]
REMARK SMILES IDX 3 1 2 2 1 3 13 7 14 8 15 9 4 10 12 11 5 12 7 13 11 14 6 15
REMARK SMILES IDX 8 16 10 17 9 19
REMARK H PARENT 1 4 1 5 1 6 6 18
REMARK Flexibility Score: inf
ROOT
ATOM      1  C   UNL     1      -8.495  32.823 -10.126  1.00  0.00     0.109 C 
ENDROOT
BRANCH   1   2
ATOM      2  C   UNL     1      -9.732  32.130 -10.741  1.00  0.00     0.232 C 
BRANCH   2   3
ATOM      3  N   UNL     1      -9.937  32.521 -12.143  1.00  0.00    -0.350 N 
ATOM      4  H   UNL     1      -9.032  32.762 -12.607  1.00  0.00     0.345 HD
ATOM      5  H   UNL     1     -10.577  33.347 -12.191  1.00  0.00     0.345 HD
ATOM      6  H   UNL     1     -10.384  31.731 -12.664  1.00  0.00     0.345 HD
ENDBRANCH   2   3
BRANCH   2   7
ATOM      7  C   UNL     1      -9.657  30.630 -10.595  1.00  0.00     0.099 C 
ATOM      8  O   UNL     1      -9.619  29.884 -11.609  1.00  0.00    -0.544 OA
ATOM      9  O   UNL     1      -9.577  30.066  -9.328  1.00  0.00    -0.544 OA
ENDBRANCH   2   7
ENDBRANCH   1   2
BRANCH   1  10
ATOM     10  C   UNL     1      -8.389  34.282 -10.476  1.00  0.00    -0.016 A 
ATOM     11  C   UNL     1      -7.557  34.871 -11.410  1.00  0.00     0.003 A 
ATOM     12  C   UNL     1      -9.146  35.320  -9.942  1.00  0.00     0.087 A 
ATOM     13  C   UNL     1      -7.839  36.214 -11.402  1.00  0.00     0.046 A 
ATOM     14  C   UNL     1      -6.586  34.330 -12.255  1.00  0.00     0.010 A 
ATOM     15  N   UNL     1      -8.805  36.498 -10.511  1.00  0.00    -0.361 N 
ATOM     16  C   UNL     1      -7.173  37.107 -12.240  1.00  0.00     0.026 A 
ATOM     17  C   UNL     1      -5.898  35.209 -13.111  1.00  0.00     0.001 A 
ATOM     18  H   UNL     1      -9.215  37.435 -10.303  1.00  0.00     0.166 HD
ATOM     19  C   UNL     1      -6.191  36.592 -13.104  1.00  0.00     0.002 A 
ENDBRANCH   1  10
TORSDOF 4
ENDMDL
