MODEL 1
REMARK VINA RESULT:    -3.279      0.000      0.000
REMARK INTER + INTRA:          -3.882
REMARK INTER:                  -3.855
REMARK INTRA:                  -0.028
REMARK UNBOUND:                -0.028
REMARK SMILES CCCCC(=O)[O-]
REMARK SMILES IDX 4 1 5 2 6 3 7 4 3 5 2 6 1 7
REMARK H PARENT
REMARK Flexibility Score: inf
ROOT
ATOM      1  C   UNL     1      16.330  14.103 -16.257  1.00  0.00     0.053 C 
ENDROOT
BRANCH   1   2
ATOM      2  C   UNL     1      17.277  13.830 -17.386  1.00  0.00     0.041 C 
ATOM      3  O   UNL     1      18.030  12.821 -17.352  1.00  0.00    -0.550 OA
ATOM      4  O   UNL     1      17.352  14.709 -18.459  1.00  0.00    -0.550 OA
ENDBRANCH   1   2
BRANCH   1   5
ATOM      5  C   UNL     1      15.423  15.310 -16.545  1.00  0.00     0.006 C 
BRANCH   5   6
ATOM      6  C   UNL     1      16.023  16.663 -16.123  1.00  0.00    -0.003 C 
ATOM      7  C   UNL     1      15.894  17.733 -17.207  1.00  0.00     0.004 C 
ENDBRANCH   5   6
ENDBRANCH   1   5
TORSDOF 3
ENDMDL
MODEL 2
REMARK VINA RESULT:    -3.231      1.090      1.432
REMARK INTER + INTRA:          -3.826
REMARK INTER:                  -3.787
REMARK INTRA:                  -0.039
REMARK UNBOUND:                -0.028
REMARK SMILES CCCCC(=O)[O-]
REMARK SMILES IDX 4 1 5 2 6 3 7 4 3 5 2 6 1 7
REMARK H PARENT
REMARK Flexibility Score: inf
ROOT
ATOM      1  C   UNL     1      16.160  15.267 -16.538  1.00  0.00     0.053 C 
ENDROOT
BRANCH   1   2
ATOM      2  C   UNL     1      17.184  14.588 -17.396  1.00  0.00     0.041 C 
ATOM      3  O   UNL     1      17.831  13.604 -16.950  1.00  0.00    -0.550 OA
ATOM      4  O   UNL     1      17.448  15.065 -18.674  1.00  0.00    -0.550 OA
ENDBRANCH   1   2
BRANCH   1   5
ATOM      5  C   UNL     1      16.306  16.797 -16.570  1.00  0.00     0.006 C 
BRANCH   5   6
ATOM      6  C   UNL     1      15.001  17.548 -16.889  1.00  0.00    -0.003 C 
ATOM      7  C   UNL     1      13.948  17.401 -15.792  1.00  0.00     0.004 C 
ENDBRANCH   5   6
ENDBRANCH   1   5
TORSDOF 3
ENDMDL
MODEL 3
REMARK VINA RESULT:    -3.228      5.761      6.416
REMARK INTER + INTRA:          -3.822
REMARK INTER:                  -3.807
REMARK INTRA:                  -0.016
REMARK UNBOUND:                -0.028
REMARK SMILES CCCCC(=O)[O-]
REMARK SMILES IDX 4 1 5 2 6 3 7 4 3 5 2 6 1 7
REMARK H PARENT
REMARK Flexibility Score: inf
ROOT
ATOM      1  C   UNL     1      13.338  11.266 -21.158  1.00  0.00     0.053 C 
ENDROOT
BRANCH   1   2
ATOM      2  C   UNL     1      14.402  12.071 -21.840  1.00  0.00     0.041 C 
ATOM      3  O   UNL     1      14.258  12.424 -23.040  1.00  0.00    -0.550 OA
ATOM      4  O   UNL     1      15.568  12.402 -21.160  1.00  0.00    -0.550 OA
ENDBRANCH   1   2
BRANCH   1   5
ATOM      5  C   UNL     1      12.605  12.078 -20.078  1.00  0.00     0.006 C 
BRANCH   5   6
ATOM      6  C   UNL     1      11.126  11.693 -19.895  1.00  0.00    -0.003 C 
ATOM      7  C   UNL     1      10.311  12.783 -19.201  1.00  0.00     0.004 C 
ENDBRANCH   5   6
ENDBRANCH   1   5
TORSDOF 3
ENDMDL
MODEL 4
REMARK VINA RESULT:    -3.219      1.306      1.604
REMARK INTER + INTRA:          -3.811
REMARK INTER:                  -3.789
REMARK INTRA:                  -0.023
REMARK UNBOUND:                -0.028
REMARK SMILES CCCCC(=O)[O-]
REMARK SMILES IDX 4 1 5 2 6 3 7 4 3 5 2 6 1 7
REMARK H PARENT
REMARK Flexibility Score: inf
ROOT
ATOM      1  C   UNL     1      15.840  14.807 -16.673  1.00  0.00     0.053 C 
ENDROOT
BRANCH   1   2
ATOM      2  C   UNL     1      16.691  13.633 -16.292  1.00  0.00     0.041 C 
ATOM      3  O   UNL     1      16.308  12.839 -15.393  1.00  0.00    -0.550 OA
ATOM      4  O   UNL     1      17.921  13.436 -16.907  1.00  0.00    -0.550 OA
ENDBRANCH   1   2
BRANCH   1   5
ATOM      5  C   UNL     1      16.658  15.910 -17.364  1.00  0.00     0.006 C 
BRANCH   5   6
ATOM      6  C   UNL     1      16.366  17.329 -16.845  1.00  0.00    -0.003 C 
ATOM      7  C   UNL     1      15.113  17.943 -17.468  1.00  0.00     0.004 C 
ENDBRANCH   5   6
ENDBRANCH   1   5
TORSDOF 3
ENDMDL
MODEL 5
REMARK VINA RESULT:    -3.215      6.614      7.261
REMARK INTER + INTRA:          -3.807
REMARK INTER:                  -3.790
REMARK INTRA:                  -0.017
REMARK UNBOUND:                -0.028
REMARK SMILES CCCCC(=O)[O-]
REMARK SMILES IDX 4 1 5 2 6 3 7 4 3 5 2 6 1 7
REMARK H PARENT
REMARK Flexibility Score: inf
ROOT
ATOM      1  C   UNL     1      11.201  11.690 -19.877  1.00  0.00     0.053 C 
ENDROOT
BRANCH   1   2
ATOM      2  C   UNL     1      10.615  12.736 -18.977  1.00  0.00     0.041 C 
ATOM      3  O   UNL     1      10.121  13.787 -19.465  1.00  0.00    -0.550 OA
ATOM      4  O   UNL     1      10.646  12.564 -17.599  1.00  0.00    -0.550 OA
ENDBRANCH   1   2
BRANCH   1   5
ATOM      5  C   UNL     1      12.665  11.993 -20.235  1.00  0.00     0.006 C 
BRANCH   5   6
ATOM      6  C   UNL     1      13.128  11.380 -21.568  1.00  0.00    -0.003 C 
ATOM      7  C   UNL     1      14.077  12.293 -22.344  1.00  0.00     0.004 C 
ENDBRANCH   5   6
ENDBRANCH   1   5
TORSDOF 3
ENDMDL
MODEL 6
REMARK VINA RESULT:    -3.070      2.594      3.717
REMARK INTER + INTRA:          -3.636
REMARK INTER:                  -3.542
REMARK INTRA:                  -0.094
REMARK UNBOUND:                -0.028
REMARK SMILES CCCCC(=O)[O-]
REMARK SMILES IDX 4 1 5 2 6 3 7 4 3 5 2 6 1 7
REMARK H PARENT
REMARK Flexibility Score: inf
ROOT
ATOM      1  C   UNL     1      15.671  15.164 -16.438  1.00  0.00     0.053 C 
ENDROOT
BRANCH   1   2
ATOM      2  C   UNL     1      14.185  14.975 -16.454  1.00  0.00     0.041 C 
ATOM      3  O   UNL     1      13.436  15.798 -15.863  1.00  0.00    -0.550 OA
ATOM      4  O   UNL     1      13.629  13.874 -17.093  1.00  0.00    -0.550 OA
ENDBRANCH   1   2
BRANCH   1   5
ATOM      5  C   UNL     1      16.413  13.858 -16.111  1.00  0.00     0.006 C 
BRANCH   5   6
ATOM      6  C   UNL     1      17.534  13.503 -17.104  1.00  0.00    -0.003 C 
ATOM      7  C   UNL     1      17.194  13.889 -18.544  1.00  0.00     0.004 C 
ENDBRANCH   5   6
ENDBRANCH   1   5
TORSDOF 3
ENDMDL
MODEL 7
REMARK VINA RESULT:    -3.067      1.839      2.296
REMARK INTER + INTRA:          -3.633
REMARK INTER:                  -3.530
REMARK INTRA:                  -0.103
REMARK UNBOUND:                -0.028
REMARK SMILES CCCCC(=O)[O-]
REMARK SMILES IDX 4 1 5 2 6 3 7 4 3 5 2 6 1 7
REMARK H PARENT
REMARK Flexibility Score: inf
ROOT
ATOM      1  C   UNL     1      17.401  13.605 -17.183  1.00  0.00     0.053 C 
ENDROOT
BRANCH   1   2
ATOM      2  C   UNL     1      17.133  14.252 -18.508  1.00  0.00     0.041 C 
ATOM      3  O   UNL     1      17.197  15.505 -18.625  1.00  0.00    -0.550 OA
ATOM      4  O   UNL     1      16.781  13.474 -19.603  1.00  0.00    -0.550 OA
ENDBRANCH   1   2
BRANCH   1   5
ATOM      5  C   UNL     1      16.371  14.022 -16.120  1.00  0.00     0.006 C 
BRANCH   5   6
ATOM      6  C   UNL     1      14.911  13.981 -16.608  1.00  0.00    -0.003 C 
ATOM      7  C   UNL     1      14.208  15.333 -16.491  1.00  0.00     0.004 C 
ENDBRANCH   5   6
ENDBRANCH   1   5
TORSDOF 3
ENDMDL
MODEL 8
REMARK VINA RESULT:    -2.920      2.022      2.513
REMARK INTER + INTRA:          -3.460
REMARK INTER:                  -3.358
REMARK INTRA:                  -0.102
REMARK UNBOUND:                -0.028
REMARK SMILES CCCCC(=O)[O-]
REMARK SMILES IDX 4 1 5 2 6 3 7 4 3 5 2 6 1 7
REMARK H PARENT
REMARK Flexibility Score: inf
ROOT
ATOM      1  C   UNL     1      16.095  16.471 -16.238  1.00  0.00     0.053 C 
ENDROOT
BRANCH   1   2
ATOM      2  C   UNL     1      16.215  15.045 -16.684  1.00  0.00     0.041 C 
ATOM      3  O   UNL     1      15.354  14.197 -16.330  1.00  0.00    -0.550 OA
ATOM      4  O   UNL     1      17.296  14.648 -17.461  1.00  0.00    -0.550 OA
ENDBRANCH   1   2
BRANCH   1   5
ATOM      5  C   UNL     1      14.814  17.134 -16.770  1.00  0.00     0.006 C 
BRANCH   5   6
ATOM      6  C   UNL     1      13.782  17.478 -15.681  1.00  0.00    -0.003 C 
ATOM      7  C   UNL     1      12.558  16.563 -15.714  1.00  0.00     0.004 C 
ENDBRANCH   5   6
ENDBRANCH   1   5
TORSDOF 3
ENDMDL
