MODEL 1
REMARK VINA RESULT:    -5.534      0.000      0.000
REMARK INTER + INTRA:          -6.046
REMARK INTER:                  -6.019
REMARK INTRA:                  -0.027
REMARK UNBOUND:                -0.027
REMARK SMILES O=C([O-])c1ccc(O)cc1
REMARK SMILES IDX 7 1 6 2 9 3 5 4 10 5 4 6 8 7 2 9 1 10 3 11
REMARK H PARENT 8 8
REMARK Flexibility Score: inf
ROOT
ATOM      1  C   UNL     1      -0.299  44.871  -2.999  1.00  0.00     0.115 A 
ATOM      2  C   UNL     1       0.326  44.847  -1.746  1.00  0.00     0.047 A 
ATOM      3  C   UNL     1       0.434  44.550  -4.145  1.00  0.00     0.047 A 
ATOM      4  C   UNL     1       1.677  44.503  -1.639  1.00  0.00     0.014 A 
ATOM      5  C   UNL     1       1.785  44.206  -4.043  1.00  0.00     0.014 A 
ATOM      6  C   UNL     1       2.421  44.179  -2.789  1.00  0.00    -0.003 A 
ENDROOT
BRANCH   1   7
ATOM      7  O   UNL     1      -1.644  45.212  -3.116  1.00  0.00    -0.508 OA
ATOM      8  H   UNL     1      -2.026  45.573  -3.982  1.00  0.00     0.293 HD
ENDBRANCH   1   7
BRANCH   6   9
ATOM      9  C   UNL     1       3.851  43.814  -2.685  1.00  0.00     0.071 C 
ATOM     10  O   UNL     1       4.192  42.656  -2.324  1.00  0.00    -0.545 OA
ATOM     11  O   UNL     1       4.839  44.744  -2.984  1.00  0.00    -0.545 OA
ENDBRANCH   6   9
TORSDOF 2
ENDMDL
MODEL 2
REMARK VINA RESULT:    -5.528      0.027      1.532
REMARK INTER + INTRA:          -6.040
REMARK INTER:                  -6.013
REMARK INTRA:                  -0.027
REMARK UNBOUND:                -0.027
REMARK SMILES O=C([O-])c1ccc(O)cc1
REMARK SMILES IDX 7 1 6 2 9 3 5 4 10 5 4 6 8 7 2 9 1 10 3 11
REMARK H PARENT 8 8
REMARK Flexibility Score: inf
ROOT
ATOM      1  C   UNL     1      -0.314  44.879  -2.992  1.00  0.00     0.115 A 
ATOM      2  C   UNL     1       0.418  44.572  -4.146  1.00  0.00     0.047 A 
ATOM      3  C   UNL     1       0.314  44.844  -1.743  1.00  0.00     0.047 A 
ATOM      4  C   UNL     1       1.771  44.233  -4.051  1.00  0.00     0.014 A 
ATOM      5  C   UNL     1       1.667  44.505  -1.644  1.00  0.00     0.014 A 
ATOM      6  C   UNL     1       2.410  44.196  -2.798  1.00  0.00    -0.003 A 
ENDROOT
BRANCH   1   7
ATOM      7  O   UNL     1      -1.662  45.219  -3.074  1.00  0.00    -0.508 OA
ATOM      8  H   UNL     1      -1.974  46.023  -3.606  1.00  0.00     0.293 HD
ENDBRANCH   1   7
BRANCH   6   9
ATOM      9  C   UNL     1       3.841  43.837  -2.690  1.00  0.00     0.071 C 
ATOM     10  O   UNL     1       4.186  42.681  -2.329  1.00  0.00    -0.545 OA
ATOM     11  O   UNL     1       4.826  44.772  -2.986  1.00  0.00    -0.545 OA
ENDBRANCH   6   9
TORSDOF 2
ENDMDL
MODEL 3
REMARK VINA RESULT:    -5.513      1.099      4.570
REMARK INTER + INTRA:          -6.023
REMARK INTER:                  -5.995
REMARK INTRA:                  -0.028
REMARK UNBOUND:                -0.027
REMARK SMILES O=C([O-])c1ccc(O)cc1
REMARK SMILES IDX 7 1 6 2 9 3 5 4 10 5 4 6 8 7 2 9 1 10 3 11
REMARK H PARENT 8 8
REMARK Flexibility Score: inf
ROOT
ATOM      1  C   UNL     1       3.040  44.024  -1.788  1.00  0.00     0.115 A 
ATOM      2  C   UNL     1       2.656  44.101  -3.132  1.00  0.00     0.047 A 
ATOM      3  C   UNL     1       2.130  44.372  -0.786  1.00  0.00     0.047 A 
ATOM      4  C   UNL     1       1.367  44.522  -3.473  1.00  0.00     0.014 A 
ATOM      5  C   UNL     1       0.840  44.794  -1.121  1.00  0.00     0.014 A 
ATOM      6  C   UNL     1       0.445  44.874  -2.469  1.00  0.00    -0.003 A 
ENDROOT
BRANCH   1   7
ATOM      7  O   UNL     1       4.322  43.605  -1.438  1.00  0.00    -0.508 OA
ATOM      8  H   UNL     1       5.024  44.261  -1.116  1.00  0.00     0.293 HD
ENDBRANCH   1   7
BRANCH   6   9
ATOM      9  C   UNL     1      -0.921  45.321  -2.821  1.00  0.00     0.071 C 
ATOM     10  O   UNL     1      -1.271  46.516  -2.635  1.00  0.00    -0.545 OA
ATOM     11  O   UNL     1      -1.837  44.427  -3.363  1.00  0.00    -0.545 OA
ENDBRANCH   6   9
TORSDOF 2
ENDMDL
MODEL 4
REMARK VINA RESULT:    -5.503      1.070      4.200
REMARK INTER + INTRA:          -6.013
REMARK INTER:                  -5.984
REMARK INTRA:                  -0.028
REMARK UNBOUND:                -0.027
REMARK SMILES O=C([O-])c1ccc(O)cc1
REMARK SMILES IDX 7 1 6 2 9 3 5 4 10 5 4 6 8 7 2 9 1 10 3 11
REMARK H PARENT 8 8
REMARK Flexibility Score: inf
ROOT
ATOM      1  C   UNL     1       3.057  43.958  -1.829  1.00  0.00     0.115 A 
ATOM      2  C   UNL     1       2.166  44.353  -0.823  1.00  0.00     0.047 A 
ATOM      3  C   UNL     1       2.653  43.995  -3.166  1.00  0.00     0.047 A 
ATOM      4  C   UNL     1       0.877  44.784  -1.154  1.00  0.00     0.014 A 
ATOM      5  C   UNL     1       1.366  44.424  -3.502  1.00  0.00     0.014 A 
ATOM      6  C   UNL     1       0.463  44.823  -2.499  1.00  0.00    -0.003 A 
ENDROOT
BRANCH   1   7
ATOM      7  O   UNL     1       4.343  43.529  -1.510  1.00  0.00    -0.508 OA
ATOM      8  H   UNL     1       4.500  42.719  -0.922  1.00  0.00     0.293 HD
ENDBRANCH   1   7
BRANCH   6   9
ATOM      9  C   UNL     1      -0.898  45.277  -2.857  1.00  0.00     0.071 C 
ATOM     10  O   UNL     1      -1.729  44.474  -3.359  1.00  0.00    -0.545 OA
ATOM     11  O   UNL     1      -1.281  46.595  -2.644  1.00  0.00    -0.545 OA
ENDBRANCH   6   9
TORSDOF 2
ENDMDL
MODEL 5
REMARK VINA RESULT:    -5.495      5.863      8.313
REMARK INTER + INTRA:          -6.004
REMARK INTER:                  -5.977
REMARK INTRA:                  -0.027
REMARK UNBOUND:                -0.027
REMARK SMILES O=C([O-])c1ccc(O)cc1
REMARK SMILES IDX 7 1 6 2 9 3 5 4 10 5 4 6 8 7 2 9 1 10 3 11
REMARK H PARENT 8 8
REMARK Flexibility Score: inf
ROOT
ATOM      1  C   UNL     1      10.421  46.062  -6.184  1.00  0.00     0.115 A 
ATOM      2  C   UNL     1      10.127  45.994  -4.816  1.00  0.00     0.047 A 
ATOM      3  C   UNL     1       9.431  45.759  -7.122  1.00  0.00     0.047 A 
ATOM      4  C   UNL     1       8.847  45.626  -4.390  1.00  0.00     0.014 A 
ATOM      5  C   UNL     1       8.150  45.389  -6.700  1.00  0.00     0.014 A 
ATOM      6  C   UNL     1       7.845  45.318  -5.328  1.00  0.00    -0.003 A 
ENDROOT
BRANCH   1   7
ATOM      7  O   UNL     1      11.692  46.429  -6.620  1.00  0.00    -0.508 OA
ATOM      8  H   UNL     1      12.327  46.949  -6.024  1.00  0.00     0.293 HD
ENDBRANCH   1   7
BRANCH   6   9
ATOM      9  C   UNL     1       6.489  44.927  -4.885  1.00  0.00     0.071 C 
ATOM     10  O   UNL     1       6.255  43.748  -4.506  1.00  0.00    -0.545 OA
ATOM     11  O   UNL     1       5.454  45.854  -4.879  1.00  0.00    -0.545 OA
ENDBRANCH   6   9
TORSDOF 2
ENDMDL
MODEL 6
REMARK VINA RESULT:    -5.429      9.072     10.103
REMARK INTER + INTRA:          -5.932
REMARK INTER:                  -5.903
REMARK INTRA:                  -0.029
REMARK UNBOUND:                -0.027
REMARK SMILES O=C([O-])c1ccc(O)cc1
REMARK SMILES IDX 7 1 6 2 9 3 5 4 10 5 4 6 8 7 2 9 1 10 3 11
REMARK H PARENT 8 8
REMARK Flexibility Score: inf
ROOT
ATOM      1  C   UNL     1      -3.459  44.914   5.430  1.00  0.00     0.115 A 
ATOM      2  C   UNL     1      -3.495  45.329   6.767  1.00  0.00     0.047 A 
ATOM      3  C   UNL     1      -2.354  45.231   4.635  1.00  0.00     0.047 A 
ATOM      4  C   UNL     1      -2.430  46.058   7.306  1.00  0.00     0.014 A 
ATOM      5  C   UNL     1      -1.287  45.960   5.170  1.00  0.00     0.014 A 
ATOM      6  C   UNL     1      -1.315  46.382   6.512  1.00  0.00    -0.003 A 
ENDROOT
BRANCH   1   7
ATOM      7  O   UNL     1      -4.513  44.186   4.883  1.00  0.00    -0.508 OA
ATOM      8  H   UNL     1      -4.521  43.173   4.897  1.00  0.00     0.293 HD
ENDBRANCH   1   7
BRANCH   6   9
ATOM      9  C   UNL     1      -0.185  47.154   7.075  1.00  0.00     0.071 C 
ATOM     10  O   UNL     1      -0.372  48.302   7.558  1.00  0.00    -0.545 OA
ATOM     11  O   UNL     1       1.099  46.622   7.078  1.00  0.00    -0.545 OA
ENDBRANCH   6   9
TORSDOF 2
ENDMDL
MODEL 7
REMARK VINA RESULT:    -5.426      2.655      3.335
REMARK INTER + INTRA:          -5.929
REMARK INTER:                  -5.894
REMARK INTRA:                  -0.035
REMARK UNBOUND:                -0.027
REMARK SMILES O=C([O-])c1ccc(O)cc1
REMARK SMILES IDX 7 1 6 2 9 3 5 4 10 5 4 6 8 7 2 9 1 10 3 11
REMARK H PARENT 8 8
REMARK Flexibility Score: inf
ROOT
ATOM      1  C   UNL     1       1.775  44.429  -3.525  1.00  0.00     0.115 A 
ATOM      2  C   UNL     1       0.610  44.699  -2.795  1.00  0.00     0.047 A 
ATOM      3  C   UNL     1       2.977  44.199  -2.851  1.00  0.00     0.047 A 
ATOM      4  C   UNL     1       0.649  44.738  -1.398  1.00  0.00     0.014 A 
ATOM      5  C   UNL     1       3.020  44.238  -1.454  1.00  0.00     0.014 A 
ATOM      6  C   UNL     1       1.856  44.509  -0.712  1.00  0.00    -0.003 A 
ENDROOT
BRANCH   1   7
ATOM      7  O   UNL     1       1.747  44.387  -4.917  1.00  0.00    -0.508 OA
ATOM      8  H   UNL     1       2.423  43.846  -5.444  1.00  0.00     0.293 HD
ENDBRANCH   1   7
BRANCH   6   9
ATOM      9  C   UNL     1       1.905  44.549   0.766  1.00  0.00     0.071 C 
ATOM     10  O   UNL     1       0.844  44.495   1.443  1.00  0.00    -0.545 OA
ATOM     11  O   UNL     1       3.122  44.647   1.428  1.00  0.00    -0.545 OA
ENDBRANCH   6   9
TORSDOF 2
ENDMDL
MODEL 8
REMARK VINA RESULT:    -5.362      6.050      7.971
REMARK INTER + INTRA:          -5.859
REMARK INTER:                  -5.832
REMARK INTRA:                  -0.027
REMARK UNBOUND:                -0.027
REMARK SMILES O=C([O-])c1ccc(O)cc1
REMARK SMILES IDX 7 1 6 2 9 3 5 4 10 5 4 6 8 7 2 9 1 10 3 11
REMARK H PARENT 8 8
REMARK Flexibility Score: inf
ROOT
ATOM      1  C   UNL     1      -0.643  44.628   1.379  1.00  0.00     0.115 A 
ATOM      2  C   UNL     1      -1.466  43.524   1.630  1.00  0.00     0.047 A 
ATOM      3  C   UNL     1      -0.647  45.711   2.263  1.00  0.00     0.047 A 
ATOM      4  C   UNL     1      -2.289  43.502   2.760  1.00  0.00     0.014 A 
ATOM      5  C   UNL     1      -1.468  45.694   3.394  1.00  0.00     0.014 A 
ATOM      6  C   UNL     1      -2.299  44.588   3.655  1.00  0.00    -0.003 A 
ENDROOT
BRANCH   1   7
ATOM      7  O   UNL     1       0.181  44.660   0.257  1.00  0.00    -0.508 OA
ATOM      8  H   UNL     1       0.126  45.412  -0.421  1.00  0.00     0.293 HD
ENDBRANCH   1   7
BRANCH   6   9
ATOM      9  C   UNL     1      -3.167  44.573   4.852  1.00  0.00     0.071 C 
ATOM     10  O   UNL     1      -2.705  44.233   5.974  1.00  0.00    -0.545 OA
ATOM     11  O   UNL     1      -4.506  44.933   4.757  1.00  0.00    -0.545 OA
ENDBRANCH   6   9
TORSDOF 2
ENDMDL
MODEL 9
REMARK VINA RESULT:    -5.321      1.301      1.554
REMARK INTER + INTRA:          -5.815
REMARK INTER:                  -5.783
REMARK INTRA:                  -0.032
REMARK UNBOUND:                -0.027
REMARK SMILES O=C([O-])c1ccc(O)cc1
REMARK SMILES IDX 7 1 6 2 9 3 5 4 10 5 4 6 8 7 2 9 1 10 3 11
REMARK H PARENT 8 8
REMARK Flexibility Score: inf
ROOT
ATOM      1  C   UNL     1      -0.926  45.206  -1.242  1.00  0.00     0.115 A 
ATOM      2  C   UNL     1       0.092  44.810  -0.366  1.00  0.00     0.047 A 
ATOM      3  C   UNL     1      -0.685  45.231  -2.618  1.00  0.00     0.047 A 
ATOM      4  C   UNL     1       1.345  44.440  -0.864  1.00  0.00     0.014 A 
ATOM      5  C   UNL     1       0.566  44.862  -3.121  1.00  0.00     0.014 A 
ATOM      6  C   UNL     1       1.595  44.463  -2.249  1.00  0.00    -0.003 A 
ENDROOT
BRANCH   1   7
ATOM      7  O   UNL     1      -2.178  45.575  -0.755  1.00  0.00    -0.508 OA
ATOM      8  H   UNL     1      -2.743  46.274  -1.223  1.00  0.00     0.293 HD
ENDBRANCH   1   7
BRANCH   6   9
ATOM      9  C   UNL     1       2.918  44.073  -2.784  1.00  0.00     0.071 C 
ATOM     10  O   UNL     1       3.528  43.074  -2.319  1.00  0.00    -0.545 OA
ATOM     11  O   UNL     1       3.507  44.805  -3.809  1.00  0.00    -0.545 OA
ENDBRANCH   6   9
TORSDOF 2
ENDMDL
