MODEL 1
REMARK VINA RESULT:    -3.264      0.000      0.000
REMARK INTER + INTRA:          -4.271
REMARK INTER:                  -4.505
REMARK INTRA:                   0.234
REMARK UNBOUND:                 0.234
REMARK SMILES O=C([O-])[C@@H]1O[C@@H](Oc2cc3oc(-c4ccccc4)cc(=O)c3c(O)c2O)[C@@H](O)[C@H](O)[C@@H]1O
REMARK SMILES IDX 7 1 6 2 4 3 31 4 5 5 29 6 27 7 2 8 1 9 3 10 32 11 30 13
REMARK SMILES IDX 28 15 8 17 25 18 9 19 23 20 10 21 22 22 11 23 20 24 12 25
REMARK SMILES IDX 19 26 21 27 26 28 24 30 13 32 14 33 18 34 15 35 17 36 16 37
REMARK H PARENT 32 12 30 14 28 16 26 29 24 31
REMARK Flexibility Score: inf
ROOT
ATOM      1  O   UNL     1      19.448 206.671  15.879  1.00  0.00    -0.458 OA
ENDROOT
BRANCH   1   2
ATOM      2  C   UNL     1      19.933 207.925  15.375  1.00  0.00     0.339 C 
ATOM      3  C   UNL     1      22.060 207.025  14.942  1.00  0.00     0.199 C 
ATOM      4  C   UNL     1      22.753 207.888  16.014  1.00  0.00     0.180 C 
ATOM      5  O   UNL     1      20.936 207.700  14.396  1.00  0.00    -0.328 OA
ATOM      6  C   UNL     1      21.738 208.223  17.125  1.00  0.00     0.181 C 
ATOM      7  C   UNL     1      20.468 208.833  16.508  1.00  0.00     0.214 C 
BRANCH   3   8
ATOM      8  C   UNL     1      23.022 206.703  13.836  1.00  0.00     0.073 C 
ATOM      9  O   UNL     1      23.421 205.520  13.670  1.00  0.00    -0.547 OA
ATOM     10  O   UNL     1      23.520 207.714  13.022  1.00  0.00    -0.547 OA
ENDBRANCH   3   8
BRANCH   4  11
ATOM     11  O   UNL     1      23.244 209.072  15.431  1.00  0.00    -0.387 OA
ATOM     12  H   UNL     1      22.460 209.565  15.075  1.00  0.00     0.211 HD
ENDBRANCH   4  11
BRANCH   6  13
ATOM     13  O   UNL     1      22.297 209.125  18.044  1.00  0.00    -0.387 OA
ATOM     14  H   UNL     1      23.175 208.749  18.315  1.00  0.00     0.211 HD
ENDBRANCH   6  13
BRANCH   7  15
ATOM     15  O   UNL     1      19.487 209.006  17.497  1.00  0.00    -0.384 OA
ATOM     16  H   UNL     1      19.771 208.471  18.284  1.00  0.00     0.211 HD
ENDBRANCH   7  15
ENDBRANCH   1   2
BRANCH   1  17
ATOM     17  C   UNL     1      19.354 205.455  15.178  1.00  0.00     0.172 A 
ATOM     18  C   UNL     1      19.083 205.502  13.798  1.00  0.00     0.201 A 
ATOM     19  C   UNL     1      19.510 204.207  15.806  1.00  0.00     0.098 A 
ATOM     20  C   UNL     1      18.974 204.313  13.051  1.00  0.00     0.176 A 
ATOM     21  C   UNL     1      19.406 203.023  15.074  1.00  0.00     0.146 A 
ATOM     22  C   UNL     1      19.137 203.062  13.688  1.00  0.00     0.111 A 
ATOM     23  O   UNL     1      19.565 201.861  15.700  1.00  0.00    -0.456 OA
ATOM     24  C   UNL     1      19.038 201.831  13.008  1.00  0.00     0.197 A 
ATOM     25  C   UNL     1      19.489 200.682  15.086  1.00  0.00     0.138 A 
ATOM     26  C   UNL     1      19.214 200.638  13.711  1.00  0.00     0.100 A 
ATOM     27  O   UNL     1      18.789 201.779  11.772  1.00  0.00    -0.289 OA
BRANCH  18  28
ATOM     28  O   UNL     1      18.922 206.729  13.152  1.00  0.00    -0.502 OA
ATOM     29  H   UNL     1      18.211 207.397  13.423  1.00  0.00     0.293 HD
ENDBRANCH  18  28
BRANCH  20  30
ATOM     30  O   UNL     1      18.705 204.377  11.681  1.00  0.00    -0.504 OA
ATOM     31  H   UNL     1      19.400 204.659  11.001  1.00  0.00     0.293 HD
ENDBRANCH  20  30
BRANCH  25  32
ATOM     32  C   UNL     1      19.685 199.448  15.887  1.00  0.00     0.017 A 
ATOM     33  C   UNL     1      20.901 198.735  15.868  1.00  0.00     0.012 A 
ATOM     34  C   UNL     1      18.643 198.987  16.715  1.00  0.00     0.012 A 
ATOM     35  C   UNL     1      21.058 197.581  16.642  1.00  0.00     0.001 A 
ATOM     36  C   UNL     1      18.806 197.831  17.485  1.00  0.00     0.001 A 
ATOM     37  C   UNL     1      20.010 197.128  17.447  1.00  0.00     0.000 A 
ENDBRANCH  25  32
ENDBRANCH   1  17
TORSDOF 9
ENDMDL
MODEL 2
REMARK VINA RESULT:    -1.555      2.836      8.274
REMARK INTER + INTRA:          -1.913
REMARK INTER:                  -1.090
REMARK INTRA:                  -0.822
REMARK UNBOUND:                 0.234
REMARK SMILES O=C([O-])[C@@H]1O[C@@H](Oc2cc3oc(-c4ccccc4)cc(=O)c3c(O)c2O)[C@@H](O)[C@H](O)[C@@H]1O
REMARK SMILES IDX 7 1 6 2 4 3 31 4 5 5 29 6 27 7 2 8 1 9 3 10 32 11 30 13
REMARK SMILES IDX 28 15 8 17 25 18 9 19 23 20 10 21 22 22 11 23 20 24 12 25
REMARK SMILES IDX 19 26 21 27 26 28 24 30 13 32 14 33 18 34 15 35 17 36 16 37
REMARK H PARENT 32 12 30 14 28 16 26 29 24 31
REMARK Flexibility Score: inf
ROOT
ATOM      1  O   UNL     1      20.596 202.966  15.877  1.00  0.00    -0.458 OA
ENDROOT
BRANCH   1   2
ATOM      2  C   UNL     1      21.226 201.791  15.347  1.00  0.00     0.339 C 
ATOM      3  C   UNL     1      19.478 201.441  13.815  1.00  0.00     0.199 C 
ATOM      4  C   UNL     1      19.012 200.138  14.494  1.00  0.00     0.180 C 
ATOM      5  O   UNL     1      20.876 201.626  13.980  1.00  0.00    -0.328 OA
ATOM      6  C   UNL     1      19.372 200.193  15.992  1.00  0.00     0.181 C 
ATOM      7  C   UNL     1      20.864 200.526  16.161  1.00  0.00     0.214 C 
BRANCH   3   8
ATOM      8  C   UNL     1      19.159 201.404  12.349  1.00  0.00     0.073 C 
ATOM      9  O   UNL     1      19.095 202.474  11.689  1.00  0.00    -0.547 OA
ATOM     10  O   UNL     1      18.879 200.194  11.723  1.00  0.00    -0.547 OA
ENDBRANCH   3   8
BRANCH   4  11
ATOM     11  O   UNL     1      19.634 199.032  13.884  1.00  0.00    -0.387 OA
ATOM     12  H   UNL     1      18.916 198.494  13.461  1.00  0.00     0.211 HD
ENDBRANCH   4  11
BRANCH   6  13
ATOM     13  O   UNL     1      19.089 198.964  16.609  1.00  0.00    -0.387 OA
ATOM     14  H   UNL     1      18.864 199.165  17.555  1.00  0.00     0.211 HD
ENDBRANCH   6  13
BRANCH   7  15
ATOM     15  O   UNL     1      21.164 200.719  17.518  1.00  0.00    -0.384 OA
ATOM     16  H   UNL     1      20.377 201.163  17.929  1.00  0.00     0.211 HD
ENDBRANCH   7  15
ENDBRANCH   1   2
BRANCH   1  17
ATOM     17  C   UNL     1      20.793 204.295  15.459  1.00  0.00     0.172 A 
ATOM     18  C   UNL     1      21.678 205.101  16.200  1.00  0.00     0.201 A 
ATOM     19  C   UNL     1      20.134 204.843  14.344  1.00  0.00     0.098 A 
ATOM     20  C   UNL     1      21.907 206.440  15.828  1.00  0.00     0.176 A 
ATOM     21  C   UNL     1      20.356 206.168  13.967  1.00  0.00     0.146 A 
ATOM     22  C   UNL     1      21.244 206.982  14.703  1.00  0.00     0.111 A 
ATOM     23  O   UNL     1      19.720 206.651  12.903  1.00  0.00    -0.456 OA
ATOM     24  C   UNL     1      21.419 208.313  14.272  1.00  0.00     0.197 A 
ATOM     25  C   UNL     1      19.870 207.898  12.463  1.00  0.00     0.138 A 
ATOM     26  C   UNL     1      20.728 208.772  13.149  1.00  0.00     0.100 A 
ATOM     27  O   UNL     1      22.187 209.108  14.882  1.00  0.00    -0.289 OA
BRANCH  18  28
ATOM     28  O   UNL     1      22.342 204.580  17.312  1.00  0.00    -0.502 OA
ATOM     29  H   UNL     1      23.301 204.817  17.534  1.00  0.00     0.293 HD
ENDBRANCH  18  28
BRANCH  20  30
ATOM     30  O   UNL     1      22.789 207.226  16.573  1.00  0.00    -0.504 OA
ATOM     31  H   UNL     1      22.496 208.069  17.052  1.00  0.00     0.293 HD
ENDBRANCH  20  30
BRANCH  25  32
ATOM     32  C   UNL     1      19.108 208.329  11.264  1.00  0.00     0.017 A 
ATOM     33  C   UNL     1      19.704 208.386   9.988  1.00  0.00     0.012 A 
ATOM     34  C   UNL     1      17.745 208.659  11.391  1.00  0.00     0.012 A 
ATOM     35  C   UNL     1      18.956 208.786   8.875  1.00  0.00     0.001 A 
ATOM     36  C   UNL     1      17.004 209.059  10.275  1.00  0.00     0.001 A 
ATOM     37  C   UNL     1      17.609 209.124   9.019  1.00  0.00     0.000 A 
ENDBRANCH  25  32
ENDBRANCH   1  17
TORSDOF 9
ENDMDL
MODEL 3
REMARK VINA RESULT:    -1.045      2.007      3.928
REMARK INTER + INTRA:          -1.208
REMARK INTER:                  -1.125
REMARK INTRA:                  -0.083
REMARK UNBOUND:                 0.234
REMARK SMILES O=C([O-])[C@@H]1O[C@@H](Oc2cc3oc(-c4ccccc4)cc(=O)c3c(O)c2O)[C@@H](O)[C@H](O)[C@@H]1O
REMARK SMILES IDX 7 1 6 2 4 3 31 4 5 5 29 6 27 7 2 8 1 9 3 10 32 11 30 13
REMARK SMILES IDX 28 15 8 17 25 18 9 19 23 20 10 21 22 22 11 23 20 24 12 25
REMARK SMILES IDX 19 26 21 27 26 28 24 30 13 32 14 33 18 34 15 35 17 36 16 37
REMARK H PARENT 32 12 30 14 28 16 26 29 24 31
REMARK Flexibility Score: inf
ROOT
ATOM      1  O   UNL     1      22.705 207.899  15.786  1.00  0.00    -0.458 OA
ENDROOT
BRANCH   1   2
ATOM      2  C   UNL     1      22.761 209.055  14.937  1.00  0.00     0.339 C 
ATOM      3  C   UNL     1      21.481 208.001  13.272  1.00  0.00     0.199 C 
ATOM      4  C   UNL     1      22.645 207.962  12.262  1.00  0.00     0.180 C 
ATOM      5  O   UNL     1      21.593 209.125  14.132  1.00  0.00    -0.328 OA
ATOM      6  C   UNL     1      23.980 207.916  13.032  1.00  0.00     0.181 C 
ATOM      7  C   UNL     1      24.034 209.063  14.056  1.00  0.00     0.214 C 
BRANCH   3   8
ATOM      8  C   UNL     1      20.169 208.068  12.546  1.00  0.00     0.073 C 
ATOM      9  O   UNL     1      19.921 209.032  11.776  1.00  0.00    -0.547 OA
ATOM     10  O   UNL     1      19.199 207.095  12.761  1.00  0.00    -0.547 OA
ENDBRANCH   3   8
BRANCH   4  11
ATOM     11  O   UNL     1      22.599 209.102  11.436  1.00  0.00    -0.387 OA
ATOM     12  H   UNL     1      23.527 209.448  11.370  1.00  0.00     0.211 HD
ENDBRANCH   4  11
BRANCH   6  13
ATOM     13  O   UNL     1      25.062 208.024  12.145  1.00  0.00    -0.387 OA
ATOM     14  H   UNL     1      25.250 208.993  12.040  1.00  0.00     0.211 HD
ENDBRANCH   6  13
BRANCH   7  15
ATOM     15  O   UNL     1      25.179 208.940  14.857  1.00  0.00    -0.384 OA
ATOM     16  H   UNL     1      25.482 207.997  14.788  1.00  0.00     0.211 HD
ENDBRANCH   7  15
ENDBRANCH   1   2
BRANCH   1  17
ATOM     17  C   UNL     1      21.599 207.056  15.997  1.00  0.00     0.172 A 
ATOM     18  C   UNL     1      20.399 207.632  16.454  1.00  0.00     0.201 A 
ATOM     19  C   UNL     1      21.655 205.668  15.779  1.00  0.00     0.098 A 
ATOM     20  C   UNL     1      19.265 206.832  16.686  1.00  0.00     0.176 A 
ATOM     21  C   UNL     1      20.535 204.866  16.005  1.00  0.00     0.146 A 
ATOM     22  C   UNL     1      19.327 205.438  16.460  1.00  0.00     0.111 A 
ATOM     23  O   UNL     1      20.623 203.558  15.782  1.00  0.00    -0.456 OA
ATOM     24  C   UNL     1      18.235 204.572  16.674  1.00  0.00     0.197 A 
ATOM     25  C   UNL     1      19.609 202.715  15.963  1.00  0.00     0.138 A 
ATOM     26  C   UNL     1      18.379 203.206  16.426  1.00  0.00     0.100 A 
ATOM     27  O   UNL     1      17.124 205.003  17.091  1.00  0.00    -0.289 OA
BRANCH  18  28
ATOM     28  O   UNL     1      20.321 209.008  16.679  1.00  0.00    -0.502 OA
ATOM     29  H   UNL     1      20.829 209.468  17.425  1.00  0.00     0.293 HD
ENDBRANCH  18  28
BRANCH  20  30
ATOM     30  O   UNL     1      18.081 207.420  17.139  1.00  0.00    -0.504 OA
ATOM     31  H   UNL     1      17.715 208.279  16.747  1.00  0.00     0.293 HD
ENDBRANCH  20  30
BRANCH  25  32
ATOM     32  C   UNL     1      19.822 201.273  15.683  1.00  0.00     0.017 A 
ATOM     33  C   UNL     1      20.405 200.410  16.633  1.00  0.00     0.012 A 
ATOM     34  C   UNL     1      19.404 200.737  14.449  1.00  0.00     0.012 A 
ATOM     35  C   UNL     1      20.583 199.053  16.343  1.00  0.00     0.001 A 
ATOM     36  C   UNL     1      19.586 199.380  14.165  1.00  0.00     0.001 A 
ATOM     37  C   UNL     1      20.176 198.540  15.110  1.00  0.00     0.000 A 
ENDBRANCH  25  32
ENDBRANCH   1  17
TORSDOF 9
ENDMDL
