MODEL 1
REMARK VINA RESULT:    -4.752      0.000      0.000
REMARK INTER + INTRA:          -6.227
REMARK INTER:                  -5.863
REMARK INTRA:                  -0.364
REMARK UNBOUND:                -0.364
REMARK SMILES Oc1cc(O)c2cc(O)c(-c3cc(O)c(O)c(O)c3)[o+]c2c1
REMARK SMILES IDX 10 1 20 2 21 3 22 4 2 5 3 6 4 7 6 8 7 9 8 10 11 11 12 12
REMARK SMILES IDX 13 13 19 14 15 15 17 16 14 17 16 19 18 21 9 23 1 25 5 27
REMARK H PARENT 14 18 16 20 18 22 9 24 1 26 5 28
REMARK Flexibility Score: inf
ROOT
ATOM      1  C   UNL     1     -32.820  29.204  -1.982  1.00  0.00     0.402 A 
ATOM      2  O   UNL     1     -33.757  29.961  -1.418  1.00  0.00    -0.202 OA
ATOM      3  C   UNL     1     -34.177  31.111  -1.938  1.00  0.00     0.368 A 
ATOM      4  C   UNL     1     -35.170  31.835  -1.274  1.00  0.00     0.162 A 
ATOM      5  C   UNL     1     -35.631  33.043  -1.796  1.00  0.00     0.128 A 
ATOM      6  C   UNL     1     -35.098  33.532  -2.994  1.00  0.00     0.093 A 
ATOM      7  C   UNL     1     -34.103  32.825  -3.680  1.00  0.00     0.136 A 
ATOM      8  C   UNL     1     -33.629  31.598  -3.149  1.00  0.00     0.125 A 
ATOM      9  C   UNL     1     -32.625  30.828  -3.760  1.00  0.00     0.078 A 
ATOM     10  C   UNL     1     -32.206  29.631  -3.174  1.00  0.00     0.223 A 
ENDROOT
BRANCH   1  11
ATOM     11  C   UNL     1     -32.445  27.939  -1.311  1.00  0.00     0.091 A 
ATOM     12  C   UNL     1     -31.344  27.919  -0.441  1.00  0.00     0.068 A 
ATOM     13  C   UNL     1     -30.980  26.739   0.223  1.00  0.00     0.162 A 
ATOM     14  C   UNL     1     -33.202  26.767  -1.482  1.00  0.00     0.068 A 
ATOM     15  C   UNL     1     -31.730  25.567   0.030  1.00  0.00     0.200 A 
ATOM     16  C   UNL     1     -32.844  25.585  -0.819  1.00  0.00     0.162 A 
BRANCH  13  17
ATOM     17  O   UNL     1     -29.875  26.729   1.075  1.00  0.00    -0.504 OA
ATOM     18  H   UNL     1     -29.765  26.023   1.793  1.00  0.00     0.293 HD
ENDBRANCH  13  17
BRANCH  15  19
ATOM     19  O   UNL     1     -31.385  24.380   0.678  1.00  0.00    -0.502 OA
ATOM     20  H   UNL     1     -31.011  24.369   1.619  1.00  0.00     0.293 HD
ENDBRANCH  15  19
BRANCH  16  21
ATOM     21  O   UNL     1     -33.593  24.424  -0.996  1.00  0.00    -0.504 OA
ATOM     22  H   UNL     1     -33.519  23.868  -1.840  1.00  0.00     0.293 HD
ENDBRANCH  16  21
ENDBRANCH   1  11
BRANCH  10  23
ATOM     23  O   UNL     1     -31.175  28.891  -3.754  1.00  0.00    -0.500 OA
ATOM     24  H   UNL     1     -30.350  28.624  -3.229  1.00  0.00     0.294 HD
ENDBRANCH  10  23
BRANCH   5  25
ATOM     25  O   UNL     1     -36.622  33.751  -1.119  1.00  0.00    -0.507 OA
ATOM     26  H   UNL     1     -36.876  33.527  -0.164  1.00  0.00     0.293 HD
ENDBRANCH   5  25
BRANCH   7  27
ATOM     27  O   UNL     1     -33.624  33.379  -4.871  1.00  0.00    -0.507 OA
ATOM     28  H   UNL     1     -33.216  32.846  -5.625  1.00  0.00     0.293 HD
ENDBRANCH   7  27
TORSDOF 7
ENDMDL
MODEL 2
REMARK VINA RESULT:    -4.630      3.707      6.245
REMARK INTER + INTRA:          -6.077
REMARK INTER:                  -5.700
REMARK INTRA:                  -0.377
REMARK UNBOUND:                -0.364
REMARK SMILES Oc1cc(O)c2cc(O)c(-c3cc(O)c(O)c(O)c3)[o+]c2c1
REMARK SMILES IDX 10 1 20 2 21 3 22 4 2 5 3 6 4 7 6 8 7 9 8 10 11 11 12 12
REMARK SMILES IDX 13 13 19 14 15 15 17 16 14 17 16 19 18 21 9 23 1 25 5 27
REMARK H PARENT 14 18 16 20 18 22 9 24 1 26 5 28
REMARK Flexibility Score: inf
ROOT
ATOM      1  C   UNL     1     -34.817  31.739  -2.840  1.00  0.00     0.402 A 
ATOM      2  O   UNL     1     -33.985  30.745  -3.136  1.00  0.00    -0.202 OA
ATOM      3  C   UNL     1     -32.780  30.934  -3.664  1.00  0.00     0.368 A 
ATOM      4  C   UNL     1     -31.974  29.826  -3.937  1.00  0.00     0.162 A 
ATOM      5  C   UNL     1     -30.704  29.995  -4.489  1.00  0.00     0.128 A 
ATOM      6  C   UNL     1     -30.233  31.282  -4.768  1.00  0.00     0.093 A 
ATOM      7  C   UNL     1     -31.020  32.410  -4.504  1.00  0.00     0.136 A 
ATOM      8  C   UNL     1     -32.313  32.241  -3.945  1.00  0.00     0.125 A 
ATOM      9  C   UNL     1     -33.177  33.311  -3.659  1.00  0.00     0.078 A 
ATOM     10  C   UNL     1     -34.440  33.066  -3.114  1.00  0.00     0.223 A 
ENDROOT
BRANCH   1  11
ATOM     11  C   UNL     1     -36.130  31.400  -2.246  1.00  0.00     0.091 A 
ATOM     12  C   UNL     1     -36.284  31.427  -0.850  1.00  0.00     0.068 A 
ATOM     13  C   UNL     1     -37.522  31.129  -0.263  1.00  0.00     0.162 A 
ATOM     14  C   UNL     1     -37.244  31.106  -3.050  1.00  0.00     0.068 A 
ATOM     15  C   UNL     1     -38.625  30.816  -1.075  1.00  0.00     0.200 A 
ATOM     16  C   UNL     1     -38.485  30.809  -2.469  1.00  0.00     0.162 A 
BRANCH  13  17
ATOM     17  O   UNL     1     -37.659  31.146   1.125  1.00  0.00    -0.504 OA
ATOM     18  H   UNL     1     -38.540  30.925   1.574  1.00  0.00     0.293 HD
ENDBRANCH  13  17
BRANCH  15  19
ATOM     19  O   UNL     1     -39.866  30.514  -0.513  1.00  0.00    -0.502 OA
ATOM     20  H   UNL     1     -40.135  30.840   0.407  1.00  0.00     0.293 HD
ENDBRANCH  15  19
BRANCH  16  21
ATOM     21  O   UNL     1     -39.585  30.512  -3.270  1.00  0.00    -0.504 OA
ATOM     22  H   UNL     1     -40.171  31.243  -3.658  1.00  0.00     0.293 HD
ENDBRANCH  16  21
ENDBRANCH   1  11
BRANCH  10  23
ATOM     23  O   UNL     1     -35.317  34.125  -2.875  1.00  0.00    -0.500 OA
ATOM     24  H   UNL     1     -35.623  34.742  -3.619  1.00  0.00     0.294 HD
ENDBRANCH  10  23
BRANCH   5  25
ATOM     25  O   UNL     1     -29.916  28.877  -4.754  1.00  0.00    -0.507 OA
ATOM     26  H   UNL     1     -29.195  28.572  -4.112  1.00  0.00     0.293 HD
ENDBRANCH   5  25
BRANCH   7  27
ATOM     27  O   UNL     1     -30.476  33.661  -4.809  1.00  0.00    -0.507 OA
ATOM     28  H   UNL     1     -29.637  33.801  -5.354  1.00  0.00     0.293 HD
ENDBRANCH   7  27
TORSDOF 7
ENDMDL
MODEL 3
REMARK VINA RESULT:    -4.391      2.054      3.342
REMARK INTER + INTRA:          -5.782
REMARK INTER:                  -5.609
REMARK INTRA:                  -0.173
REMARK UNBOUND:                -0.364
REMARK SMILES Oc1cc(O)c2cc(O)c(-c3cc(O)c(O)c(O)c3)[o+]c2c1
REMARK SMILES IDX 10 1 20 2 21 3 22 4 2 5 3 6 4 7 6 8 7 9 8 10 11 11 12 12
REMARK SMILES IDX 13 13 19 14 15 15 17 16 14 17 16 19 18 21 9 23 1 25 5 27
REMARK H PARENT 14 18 16 20 18 22 9 24 1 26 5 28
REMARK Flexibility Score: inf
ROOT
ATOM      1  C   UNL     1     -32.420  28.284  -1.387  1.00  0.00     0.402 A 
ATOM      2  O   UNL     1     -31.687  28.680  -2.424  1.00  0.00    -0.202 OA
ATOM      3  C   UNL     1     -31.595  29.948  -2.811  1.00  0.00     0.368 A 
ATOM      4  C   UNL     1     -30.794  30.267  -3.911  1.00  0.00     0.162 A 
ATOM      5  C   UNL     1     -30.677  31.590  -4.339  1.00  0.00     0.128 A 
ATOM      6  C   UNL     1     -31.363  32.604  -3.661  1.00  0.00     0.093 A 
ATOM      7  C   UNL     1     -32.170  32.311  -2.555  1.00  0.00     0.136 A 
ATOM      8  C   UNL     1     -32.294  30.966  -2.119  1.00  0.00     0.125 A 
ATOM      9  C   UNL     1     -33.091  30.577  -1.030  1.00  0.00     0.078 A 
ATOM     10  C   UNL     1     -33.168  29.231  -0.663  1.00  0.00     0.223 A 
ENDROOT
BRANCH   1  11
ATOM     11  C   UNL     1     -32.434  26.843  -1.048  1.00  0.00     0.091 A 
ATOM     12  C   UNL     1     -31.243  26.217  -0.646  1.00  0.00     0.068 A 
ATOM     13  C   UNL     1     -31.233  24.859  -0.300  1.00  0.00     0.162 A 
ATOM     14  C   UNL     1     -33.625  26.098  -1.065  1.00  0.00     0.068 A 
ATOM     15  C   UNL     1     -32.425  24.117  -0.340  1.00  0.00     0.200 A 
ATOM     16  C   UNL     1     -33.621  24.740  -0.718  1.00  0.00     0.162 A 
BRANCH  13  17
ATOM     17  O   UNL     1     -30.041  24.244   0.085  1.00  0.00    -0.504 OA
ATOM     18  H   UNL     1     -29.474  24.612   0.838  1.00  0.00     0.293 HD
ENDBRANCH  13  17
BRANCH  15  19
ATOM     19  O   UNL     1     -32.440  22.763  -0.003  1.00  0.00    -0.502 OA
ATOM     20  H   UNL     1     -32.534  22.035  -0.700  1.00  0.00     0.293 HD
ENDBRANCH  15  19
BRANCH  16  21
ATOM     21  O   UNL     1     -34.804  24.004  -0.742  1.00  0.00    -0.504 OA
ATOM     22  H   UNL     1     -35.518  24.124  -0.032  1.00  0.00     0.293 HD
ENDBRANCH  16  21
ENDBRANCH   1  11
BRANCH  10  23
ATOM     23  O   UNL     1     -33.997  28.838   0.388  1.00  0.00    -0.500 OA
ATOM     24  H   UNL     1     -34.967  29.128   0.438  1.00  0.00     0.294 HD
ENDBRANCH  10  23
BRANCH   5  25
ATOM     25  O   UNL     1     -29.875  31.888  -5.438  1.00  0.00    -0.507 OA
ATOM     26  H   UNL     1     -29.287  31.186  -5.872  1.00  0.00     0.293 HD
ENDBRANCH   5  25
BRANCH   7  27
ATOM     27  O   UNL     1     -32.819  33.380  -1.930  1.00  0.00    -0.507 OA
ATOM     28  H   UNL     1     -32.371  34.033  -1.303  1.00  0.00     0.293 HD
ENDBRANCH   7  27
TORSDOF 7
ENDMDL
MODEL 4
REMARK VINA RESULT:    -4.383      1.000      3.115
REMARK INTER + INTRA:          -5.772
REMARK INTER:                  -5.389
REMARK INTRA:                  -0.382
REMARK UNBOUND:                -0.364
REMARK SMILES Oc1cc(O)c2cc(O)c(-c3cc(O)c(O)c(O)c3)[o+]c2c1
REMARK SMILES IDX 10 1 20 2 21 3 22 4 2 5 3 6 4 7 6 8 7 9 8 10 11 11 12 12
REMARK SMILES IDX 13 13 19 14 15 15 17 16 14 17 16 19 18 21 9 23 1 25 5 27
REMARK H PARENT 14 18 16 20 18 22 9 24 1 26 5 28
REMARK Flexibility Score: inf
ROOT
ATOM      1  C   UNL     1     -33.388  29.451  -1.094  1.00  0.00     0.402 A 
ATOM      2  O   UNL     1     -33.064  29.991  -2.266  1.00  0.00    -0.202 OA
ATOM      3  C   UNL     1     -33.543  31.156  -2.689  1.00  0.00     0.368 A 
ATOM      4  C   UNL     1     -33.140  31.645  -3.935  1.00  0.00     0.162 A 
ATOM      5  C   UNL     1     -33.624  32.866  -4.405  1.00  0.00     0.128 A 
ATOM      6  C   UNL     1     -34.517  33.608  -3.622  1.00  0.00     0.093 A 
ATOM      7  C   UNL     1     -34.935  33.141  -2.370  1.00  0.00     0.136 A 
ATOM      8  C   UNL     1     -34.447  31.898  -1.891  1.00  0.00     0.125 A 
ATOM      9  C   UNL     1     -34.821  31.345  -0.656  1.00  0.00     0.078 A 
ATOM     10  C   UNL     1     -34.302  30.111  -0.253  1.00  0.00     0.223 A 
ENDROOT
BRANCH   1  11
ATOM     11  C   UNL     1     -32.780  28.151  -0.731  1.00  0.00     0.091 A 
ATOM     12  C   UNL     1     -33.352  26.962  -1.213  1.00  0.00     0.068 A 
ATOM     13  C   UNL     1     -32.784  25.719  -0.900  1.00  0.00     0.162 A 
ATOM     14  C   UNL     1     -31.607  28.080   0.041  1.00  0.00     0.068 A 
ATOM     15  C   UNL     1     -31.623  25.658  -0.111  1.00  0.00     0.200 A 
ATOM     16  C   UNL     1     -31.034  26.840   0.355  1.00  0.00     0.162 A 
BRANCH  13  17
ATOM     17  O   UNL     1     -33.369  24.544  -1.373  1.00  0.00    -0.504 OA
ATOM     18  H   UNL     1     -33.617  23.786  -0.749  1.00  0.00     0.293 HD
ENDBRANCH  13  17
BRANCH  15  19
ATOM     19  O   UNL     1     -31.041  24.432   0.215  1.00  0.00    -0.502 OA
ATOM     20  H   UNL     1     -30.550  24.285   1.088  1.00  0.00     0.293 HD
ENDBRANCH  15  19
BRANCH  16  21
ATOM     21  O   UNL     1     -29.875  26.775   1.125  1.00  0.00    -0.504 OA
ATOM     22  H   UNL     1     -29.734  26.042   1.810  1.00  0.00     0.293 HD
ENDBRANCH  16  21
ENDBRANCH   1  11
BRANCH  10  23
ATOM     23  O   UNL     1     -34.711  29.538   0.952  1.00  0.00    -0.500 OA
ATOM     24  H   UNL     1     -35.388  28.785   0.980  1.00  0.00     0.294 HD
ENDBRANCH  10  23
BRANCH   5  25
ATOM     25  O   UNL     1     -33.212  33.336  -5.649  1.00  0.00    -0.507 OA
ATOM     26  H   UNL     1     -33.857  33.793  -6.284  1.00  0.00     0.293 HD
ENDBRANCH   5  25
BRANCH   7  27
ATOM     27  O   UNL     1     -35.826  33.941  -1.649  1.00  0.00    -0.507 OA
ATOM     28  H   UNL     1     -36.802  33.725  -1.506  1.00  0.00     0.293 HD
ENDBRANCH   7  27
TORSDOF 7
ENDMDL
MODEL 5
REMARK VINA RESULT:    -4.229      2.377      3.485
REMARK INTER + INTRA:          -5.582
REMARK INTER:                  -5.257
REMARK INTRA:                  -0.325
REMARK UNBOUND:                -0.364
REMARK SMILES Oc1cc(O)c2cc(O)c(-c3cc(O)c(O)c(O)c3)[o+]c2c1
REMARK SMILES IDX 10 1 20 2 21 3 22 4 2 5 3 6 4 7 6 8 7 9 8 10 11 11 12 12
REMARK SMILES IDX 13 13 19 14 15 15 17 16 14 17 16 19 18 21 9 23 1 25 5 27
REMARK H PARENT 14 18 16 20 18 22 9 24 1 26 5 28
REMARK Flexibility Score: inf
ROOT
ATOM      1  C   UNL     1     -31.722  27.564  -1.264  1.00  0.00     0.402 A 
ATOM      2  O   UNL     1     -32.459  28.127  -2.217  1.00  0.00    -0.202 OA
ATOM      3  C   UNL     1     -32.222  29.343  -2.700  1.00  0.00     0.368 A 
ATOM      4  C   UNL     1     -33.050  29.848  -3.706  1.00  0.00     0.162 A 
ATOM      5  C   UNL     1     -32.824  31.120  -4.234  1.00  0.00     0.128 A 
ATOM      6  C   UNL     1     -31.760  31.893  -3.754  1.00  0.00     0.093 A 
ATOM      7  C   UNL     1     -30.916  31.409  -2.747  1.00  0.00     0.136 A 
ATOM      8  C   UNL     1     -31.145  30.118  -2.207  1.00  0.00     0.125 A 
ATOM      9  C   UNL     1     -30.359  29.557  -1.187  1.00  0.00     0.078 A 
ATOM     10  C   UNL     1     -30.649  28.279  -0.701  1.00  0.00     0.223 A 
ENDROOT
BRANCH   1  11
ATOM     11  C   UNL     1     -32.081  26.199  -0.816  1.00  0.00     0.091 A 
ATOM     12  C   UNL     1     -33.264  26.000  -0.087  1.00  0.00     0.068 A 
ATOM     13  C   UNL     1     -33.637  24.715   0.331  1.00  0.00     0.162 A 
ATOM     14  C   UNL     1     -31.292  25.086  -1.155  1.00  0.00     0.068 A 
ATOM     15  C   UNL     1     -32.831  23.611   0.006  1.00  0.00     0.200 A 
ATOM     16  C   UNL     1     -31.661  23.799  -0.741  1.00  0.00     0.162 A 
BRANCH  13  17
ATOM     17  O   UNL     1     -34.808  24.532   1.068  1.00  0.00    -0.504 OA
ATOM     18  H   UNL     1     -35.580  25.185   1.008  1.00  0.00     0.293 HD
ENDBRANCH  13  17
BRANCH  15  19
ATOM     19  O   UNL     1     -33.180  22.323   0.414  1.00  0.00    -0.502 OA
ATOM     20  H   UNL     1     -33.602  21.654  -0.218  1.00  0.00     0.293 HD
ENDBRANCH  15  19
BRANCH  16  21
ATOM     21  O   UNL     1     -30.873  22.699  -1.073  1.00  0.00    -0.504 OA
ATOM     22  H   UNL     1     -29.861  22.742  -1.037  1.00  0.00     0.293 HD
ENDBRANCH  16  21
ENDBRANCH   1  11
BRANCH  10  23
ATOM     23  O   UNL     1     -29.900  27.741   0.346  1.00  0.00    -0.500 OA
ATOM     24  H   UNL     1     -28.918  27.965   0.468  1.00  0.00     0.294 HD
ENDBRANCH  10  23
BRANCH   5  25
ATOM     25  O   UNL     1     -33.660  31.607  -5.236  1.00  0.00    -0.507 OA
ATOM     26  H   UNL     1     -34.651  31.395  -5.249  1.00  0.00     0.293 HD
ENDBRANCH   5  25
BRANCH   7  27
ATOM     27  O   UNL     1     -29.875  32.241  -2.325  1.00  0.00    -0.507 OA
ATOM     28  H   UNL     1     -29.043  31.920  -1.852  1.00  0.00     0.293 HD
ENDBRANCH   7  27
TORSDOF 7
ENDMDL
MODEL 6
REMARK VINA RESULT:    -4.218      1.599      7.175
REMARK INTER + INTRA:          -5.568
REMARK INTER:                  -5.184
REMARK INTRA:                  -0.385
REMARK UNBOUND:                -0.364
REMARK SMILES Oc1cc(O)c2cc(O)c(-c3cc(O)c(O)c(O)c3)[o+]c2c1
REMARK SMILES IDX 10 1 20 2 21 3 22 4 2 5 3 6 4 7 6 8 7 9 8 10 11 11 12 12
REMARK SMILES IDX 13 13 19 14 15 15 17 16 14 17 16 19 18 21 9 23 1 25 5 27
REMARK H PARENT 14 18 16 20 18 22 9 24 1 26 5 28
REMARK Flexibility Score: inf
ROOT
ATOM      1  C   UNL     1     -32.340  28.310  -1.825  1.00  0.00     0.402 A 
ATOM      2  O   UNL     1     -33.208  27.358  -1.495  1.00  0.00    -0.202 OA
ATOM      3  C   UNL     1     -32.862  26.243  -0.859  1.00  0.00     0.368 A 
ATOM      4  C   UNL     1     -33.847  25.302  -0.551  1.00  0.00     0.162 A 
ATOM      5  C   UNL     1     -33.513  24.124   0.117  1.00  0.00     0.128 A 
ATOM      6  C   UNL     1     -32.184  23.884   0.483  1.00  0.00     0.093 A 
ATOM      7  C   UNL     1     -31.177  24.812   0.187  1.00  0.00     0.136 A 
ATOM      8  C   UNL     1     -31.513  26.009  -0.496  1.00  0.00     0.125 A 
ATOM      9  C   UNL     1     -30.570  26.989  -0.846  1.00  0.00     0.078 A 
ATOM     10  C   UNL     1     -30.976  28.142  -1.523  1.00  0.00     0.223 A 
ENDROOT
BRANCH   1  11
ATOM     11  C   UNL     1     -32.851  29.512  -2.523  1.00  0.00     0.091 A 
ATOM     12  C   UNL     1     -32.989  29.492  -3.920  1.00  0.00     0.068 A 
ATOM     13  C   UNL     1     -33.489  30.609  -4.604  1.00  0.00     0.162 A 
ATOM     14  C   UNL     1     -33.256  30.655  -1.813  1.00  0.00     0.068 A 
ATOM     15  C   UNL     1     -33.872  31.755  -3.887  1.00  0.00     0.200 A 
ATOM     16  C   UNL     1     -33.759  31.774  -2.491  1.00  0.00     0.162 A 
BRANCH  13  17
ATOM     17  O   UNL     1     -33.608  30.583  -5.993  1.00  0.00    -0.504 OA
ATOM     18  H   UNL     1     -34.431  30.941  -6.462  1.00  0.00     0.293 HD
ENDBRANCH  13  17
BRANCH  15  19
ATOM     19  O   UNL     1     -34.370  32.880  -4.546  1.00  0.00    -0.502 OA
ATOM     20  H   UNL     1     -34.281  33.812  -4.162  1.00  0.00     0.293 HD
ENDBRANCH  15  19
BRANCH  16  21
ATOM     21  O   UNL     1     -34.154  32.907  -1.784  1.00  0.00    -0.504 OA
ATOM     22  H   UNL     1     -34.734  32.840  -0.956  1.00  0.00     0.293 HD
ENDBRANCH  16  21
ENDBRANCH   1  11
BRANCH  10  23
ATOM     23  O   UNL     1     -30.033  29.093  -1.915  1.00  0.00    -0.500 OA
ATOM     24  H   UNL     1     -29.053  28.857  -2.025  1.00  0.00     0.294 HD
ENDBRANCH  10  23
BRANCH   5  25
ATOM     25  O   UNL     1     -34.509  23.197   0.416  1.00  0.00    -0.507 OA
ATOM     26  H   UNL     1     -34.551  22.296  -0.046  1.00  0.00     0.293 HD
ENDBRANCH   5  25
BRANCH   7  27
ATOM     27  O   UNL     1     -29.876  24.500   0.588  1.00  0.00    -0.507 OA
ATOM     28  H   UNL     1     -29.105  24.342  -0.045  1.00  0.00     0.293 HD
ENDBRANCH   7  27
TORSDOF 7
ENDMDL
MODEL 7
REMARK VINA RESULT:    -4.125      2.437      3.503
REMARK INTER + INTRA:          -5.453
REMARK INTER:                  -5.085
REMARK INTRA:                  -0.368
REMARK UNBOUND:                -0.364
REMARK SMILES Oc1cc(O)c2cc(O)c(-c3cc(O)c(O)c(O)c3)[o+]c2c1
REMARK SMILES IDX 10 1 20 2 21 3 22 4 2 5 3 6 4 7 6 8 7 9 8 10 11 11 12 12
REMARK SMILES IDX 13 13 19 14 15 15 17 16 14 17 16 19 18 21 9 23 1 25 5 27
REMARK H PARENT 14 18 16 20 18 22 9 24 1 26 5 28
REMARK Flexibility Score: inf
ROOT
ATOM      1  C   UNL     1     -31.873  27.312  -0.944  1.00  0.00     0.402 A 
ATOM      2  O   UNL     1     -32.452  27.799  -2.039  1.00  0.00    -0.202 OA
ATOM      3  C   UNL     1     -32.317  29.060  -2.436  1.00  0.00     0.368 A 
ATOM      4  C   UNL     1     -32.961  29.478  -3.604  1.00  0.00     0.162 A 
ATOM      5  C   UNL     1     -32.835  30.795  -4.047  1.00  0.00     0.128 A 
ATOM      6  C   UNL     1     -32.057  31.702  -3.319  1.00  0.00     0.093 A 
ATOM      7  C   UNL     1     -31.401  31.308  -2.146  1.00  0.00     0.136 A 
ATOM      8  C   UNL     1     -31.529  29.971  -1.691  1.00  0.00     0.125 A 
ATOM      9  C   UNL     1     -30.919  29.490  -0.521  1.00  0.00     0.078 A 
ATOM     10  C   UNL     1     -31.096  28.159  -0.134  1.00  0.00     0.223 A 
ENDROOT
BRANCH   1  11
ATOM     11  C   UNL     1     -32.092  25.886  -0.612  1.00  0.00     0.091 A 
ATOM     12  C   UNL     1     -31.118  24.938  -0.962  1.00  0.00     0.068 A 
ATOM     13  C   UNL     1     -31.291  23.584  -0.641  1.00  0.00     0.162 A 
ATOM     14  C   UNL     1     -33.230  25.466   0.099  1.00  0.00     0.068 A 
ATOM     15  C   UNL     1     -32.441  23.171   0.052  1.00  0.00     0.200 A 
ATOM     16  C   UNL     1     -33.407  24.114   0.425  1.00  0.00     0.162 A 
BRANCH  13  17
ATOM     17  O   UNL     1     -30.323  22.649  -1.007  1.00  0.00    -0.504 OA
ATOM     18  H   UNL     1     -29.637  22.308  -0.343  1.00  0.00     0.293 HD
ENDBRANCH  13  17
BRANCH  15  19
ATOM     19  O   UNL     1     -32.637  21.829   0.380  1.00  0.00    -0.502 OA
ATOM     20  H   UNL     1     -33.472  21.324   0.109  1.00  0.00     0.293 HD
ENDBRANCH  15  19
BRANCH  16  21
ATOM     21  O   UNL     1     -34.539  23.701   1.124  1.00  0.00    -0.504 OA
ATOM     22  H   UNL     1     -34.921  22.769   1.012  1.00  0.00     0.293 HD
ENDBRANCH  16  21
ENDBRANCH   1  11
BRANCH  10  23
ATOM     23  O   UNL     1     -30.531  27.694   1.054  1.00  0.00    -0.500 OA
ATOM     24  H   UNL     1     -29.528  27.701   1.206  1.00  0.00     0.294 HD
ENDBRANCH  10  23
BRANCH   5  25
ATOM     25  O   UNL     1     -33.485  31.193  -5.212  1.00  0.00    -0.507 OA
ATOM     26  H   UNL     1     -34.334  30.739  -5.528  1.00  0.00     0.293 HD
ENDBRANCH   5  25
BRANCH   7  27
ATOM     27  O   UNL     1     -30.641  32.273  -1.478  1.00  0.00    -0.507 OA
ATOM     28  H   UNL     1     -30.203  32.134  -0.579  1.00  0.00     0.293 HD
ENDBRANCH   7  27
TORSDOF 7
ENDMDL
MODEL 8
REMARK VINA RESULT:    -4.067      4.271      5.560
REMARK INTER + INTRA:          -5.382
REMARK INTER:                  -5.715
REMARK INTRA:                   0.333
REMARK UNBOUND:                -0.364
REMARK SMILES Oc1cc(O)c2cc(O)c(-c3cc(O)c(O)c(O)c3)[o+]c2c1
REMARK SMILES IDX 10 1 20 2 21 3 22 4 2 5 3 6 4 7 6 8 7 9 8 10 11 11 12 12
REMARK SMILES IDX 13 13 19 14 15 15 17 16 14 17 16 19 18 21 9 23 1 25 5 27
REMARK H PARENT 14 18 16 20 18 22 9 24 1 26 5 28
REMARK Flexibility Score: inf
ROOT
ATOM      1  C   UNL     1     -34.427  31.661  -2.462  1.00  0.00     0.402 A 
ATOM      2  O   UNL     1     -35.596  31.049  -2.296  1.00  0.00    -0.202 OA
ATOM      3  C   UNL     1     -36.518  31.459  -1.430  1.00  0.00     0.368 A 
ATOM      4  C   UNL     1     -37.719  30.752  -1.329  1.00  0.00     0.162 A 
ATOM      5  C   UNL     1     -38.705  31.160  -0.431  1.00  0.00     0.128 A 
ATOM      6  C   UNL     1     -38.492  32.285   0.373  1.00  0.00     0.093 A 
ATOM      7  C   UNL     1     -37.297  33.012   0.291  1.00  0.00     0.136 A 
ATOM      8  C   UNL     1     -36.291  32.598  -0.620  1.00  0.00     0.125 A 
ATOM      9  C   UNL     1     -35.058  33.255  -0.761  1.00  0.00     0.078 A 
ATOM     10  C   UNL     1     -34.113  32.785  -1.676  1.00  0.00     0.223 A 
ENDROOT
BRANCH   1  11
ATOM     11  C   UNL     1     -33.487  31.114  -3.467  1.00  0.00     0.091 A 
ATOM     12  C   UNL     1     -33.972  30.271  -4.479  1.00  0.00     0.068 A 
ATOM     13  C   UNL     1     -33.107  29.756  -5.454  1.00  0.00     0.162 A 
ATOM     14  C   UNL     1     -32.126  31.466  -3.464  1.00  0.00     0.068 A 
ATOM     15  C   UNL     1     -31.744  30.096  -5.432  1.00  0.00     0.200 A 
ATOM     16  C   UNL     1     -31.257  30.955  -4.438  1.00  0.00     0.162 A 
BRANCH  13  17
ATOM     17  O   UNL     1     -33.598  28.908  -6.447  1.00  0.00    -0.504 OA
ATOM     18  H   UNL     1     -34.570  28.626  -6.471  1.00  0.00     0.293 HD
ENDBRANCH  13  17
BRANCH  15  19
ATOM     19  O   UNL     1     -30.863  29.594  -6.390  1.00  0.00    -0.502 OA
ATOM     20  H   UNL     1     -29.905  29.355  -6.168  1.00  0.00     0.293 HD
ENDBRANCH  15  19
BRANCH  16  21
ATOM     21  O   UNL     1     -29.907  31.301  -4.428  1.00  0.00    -0.504 OA
ATOM     22  H   UNL     1     -29.180  30.597  -4.387  1.00  0.00     0.293 HD
ENDBRANCH  16  21
ENDBRANCH   1  11
BRANCH  10  23
ATOM     23  O   UNL     1     -32.869  33.408  -1.782  1.00  0.00    -0.500 OA
ATOM     24  H   UNL     1     -32.443  33.599  -2.682  1.00  0.00     0.294 HD
ENDBRANCH  10  23
BRANCH   5  25
ATOM     25  O   UNL     1     -39.896  30.442  -0.345  1.00  0.00    -0.507 OA
ATOM     26  H   UNL     1     -40.775  30.831  -0.665  1.00  0.00     0.293 HD
ENDBRANCH   5  25
BRANCH   7  27
ATOM     27  O   UNL     1     -37.162  34.125   1.125  1.00  0.00    -0.507 OA
ATOM     28  H   UNL     1     -37.826  34.387   1.840  1.00  0.00     0.293 HD
ENDBRANCH   7  27
TORSDOF 7
ENDMDL
