MODEL 1
REMARK VINA RESULT:    -3.484      0.000      0.000
REMARK INTER + INTRA:          -4.018
REMARK INTER:                  -3.891
REMARK INTRA:                  -0.127
REMARK UNBOUND:                -0.127
REMARK SMILES O=C([O-])C=Cc1ccccc1
REMARK SMILES IDX 4 1 5 2 2 3 1 4 3 5 6 6 7 7 11 8 8 9 10 10 9 11
REMARK H PARENT
REMARK Flexibility Score: inf
ROOT
ATOM      1  C   UNL     1       1.567  23.048   6.782  1.00  0.00     0.025 C 
ATOM      2  C   UNL     1       2.750  22.529   6.424  1.00  0.00     0.010 C 
ENDROOT
BRANCH   1   3
ATOM      3  C   UNL     1       0.357  22.219   6.923  1.00  0.00     0.064 C 
ATOM      4  O   UNL     1       0.271  21.335   7.817  1.00  0.00    -0.545 OA
ATOM      5  O   UNL     1      -0.709  22.416   6.055  1.00  0.00    -0.545 OA
ENDBRANCH   1   3
BRANCH   2   6
ATOM      6  C   UNL     1       4.008  23.309   6.265  1.00  0.00    -0.026 A 
ATOM      7  C   UNL     1       4.374  23.956   5.064  1.00  0.00     0.008 A 
ATOM      8  C   UNL     1       4.874  23.403   7.370  1.00  0.00     0.008 A 
ATOM      9  C   UNL     1       5.571  24.674   4.983  1.00  0.00     0.001 A 
ATOM     10  C   UNL     1       6.069  24.122   7.282  1.00  0.00     0.001 A 
ATOM     11  C   UNL     1       6.419  24.757   6.089  1.00  0.00     0.000 A 
ENDBRANCH   2   6
TORSDOF 2
ENDMDL
MODEL 2
REMARK VINA RESULT:    -3.445      0.147      1.466
REMARK INTER + INTRA:          -3.975
REMARK INTER:                  -3.848
REMARK INTRA:                  -0.127
REMARK UNBOUND:                -0.127
REMARK SMILES O=C([O-])C=Cc1ccccc1
REMARK SMILES IDX 4 1 5 2 2 3 1 4 3 5 6 6 7 7 11 8 8 9 10 10 9 11
REMARK H PARENT
REMARK Flexibility Score: inf
ROOT
ATOM      1  C   UNL     1       1.547  23.101   6.769  1.00  0.00     0.025 C 
ATOM      2  C   UNL     1       2.712  22.571   6.369  1.00  0.00     0.010 C 
ENDROOT
BRANCH   1   3
ATOM      3  C   UNL     1       0.302  22.316   6.812  1.00  0.00     0.064 C 
ATOM      4  O   UNL     1       0.044  21.551   7.780  1.00  0.00    -0.545 OA
ATOM      5  O   UNL     1      -0.606  22.419   5.766  1.00  0.00    -0.545 OA
ENDBRANCH   1   3
BRANCH   2   6
ATOM      6  C   UNL     1       4.003  23.309   6.303  1.00  0.00    -0.026 A 
ATOM      7  C   UNL     1       4.902  23.401   7.389  1.00  0.00     0.008 A 
ATOM      8  C   UNL     1       4.341  23.948   5.095  1.00  0.00     0.008 A 
ATOM      9  C   UNL     1       6.100  24.110   7.259  1.00  0.00     0.001 A 
ATOM     10  C   UNL     1       5.540  24.656   4.973  1.00  0.00     0.001 A 
ATOM     11  C   UNL     1       6.419  24.738   6.054  1.00  0.00     0.000 A 
ENDBRANCH   2   6
TORSDOF 2
ENDMDL
MODEL 3
REMARK VINA RESULT:    -3.376     22.379     23.350
REMARK INTER + INTRA:          -3.897
REMARK INTER:                  -3.768
REMARK INTRA:                  -0.129
REMARK UNBOUND:                -0.127
REMARK SMILES O=C([O-])C=Cc1ccccc1
REMARK SMILES IDX 4 1 5 2 2 3 1 4 3 5 6 6 7 7 11 8 8 9 10 10 9 11
REMARK H PARENT
REMARK Flexibility Score: inf
ROOT
ATOM      1  C   UNL     1      -4.203  40.299  18.316  1.00  0.00     0.025 C 
ATOM      2  C   UNL     1      -5.352  40.850  18.735  1.00  0.00     0.010 C 
ENDROOT
BRANCH   1   3
ATOM      3  C   UNL     1      -2.889  40.782  18.773  1.00  0.00     0.064 C 
ATOM      4  O   UNL     1      -1.996  41.125  17.952  1.00  0.00    -0.545 OA
ATOM      5  O   UNL     1      -2.627  40.861  20.135  1.00  0.00    -0.545 OA
ENDBRANCH   1   3
BRANCH   2   6
ATOM      6  C   UNL     1      -6.709  40.410  18.313  1.00  0.00    -0.026 A 
ATOM      7  C   UNL     1      -7.549  39.604  19.113  1.00  0.00     0.008 A 
ATOM      8  C   UNL     1      -7.175  40.819  17.049  1.00  0.00     0.008 A 
ATOM      9  C   UNL     1      -8.815  39.227  18.654  1.00  0.00     0.001 A 
ATOM     10  C   UNL     1      -8.442  40.437  16.597  1.00  0.00     0.001 A 
ATOM     11  C   UNL     1      -9.261  39.641  17.399  1.00  0.00     0.000 A 
ENDBRANCH   2   6
TORSDOF 2
ENDMDL
MODEL 4
REMARK VINA RESULT:    -3.284     22.373     23.280
REMARK INTER + INTRA:          -3.795
REMARK INTER:                  -3.667
REMARK INTRA:                  -0.128
REMARK UNBOUND:                -0.127
REMARK SMILES O=C([O-])C=Cc1ccccc1
REMARK SMILES IDX 4 1 5 2 2 3 1 4 3 5 6 6 7 7 11 8 8 9 10 10 9 11
REMARK H PARENT
REMARK Flexibility Score: inf
ROOT
ATOM      1  C   UNL     1      -4.127  40.328  18.413  1.00  0.00     0.025 C 
ATOM      2  C   UNL     1      -5.281  40.974  18.637  1.00  0.00     0.010 C 
ENDROOT
BRANCH   1   3
ATOM      3  C   UNL     1      -2.836  40.830  18.913  1.00  0.00     0.064 C 
ATOM      4  O   UNL     1      -2.634  40.998  20.146  1.00  0.00    -0.545 OA
ATOM      5  O   UNL     1      -1.823  41.125  18.010  1.00  0.00    -0.545 OA
ENDBRANCH   1   3
BRANCH   2   6
ATOM      6  C   UNL     1      -6.616  40.520  18.160  1.00  0.00    -0.026 A 
ATOM      7  C   UNL     1      -7.192  40.945  16.943  1.00  0.00     0.008 A 
ATOM      8  C   UNL     1      -7.339  39.622  18.969  1.00  0.00     0.008 A 
ATOM      9  C   UNL     1      -8.452  40.478  16.555  1.00  0.00     0.001 A 
ATOM     10  C   UNL     1      -8.597  39.161  18.575  1.00  0.00     0.001 A 
ATOM     11  C   UNL     1      -9.154  39.588  17.369  1.00  0.00     0.000 A 
ENDBRANCH   2   6
TORSDOF 2
ENDMDL
MODEL 5
REMARK VINA RESULT:    -3.197     23.261     23.538
REMARK INTER + INTRA:          -3.697
REMARK INTER:                  -3.566
REMARK INTRA:                  -0.131
REMARK UNBOUND:                -0.127
REMARK SMILES O=C([O-])C=Cc1ccccc1
REMARK SMILES IDX 4 1 5 2 2 3 1 4 3 5 6 6 7 7 11 8 8 9 10 10 9 11
REMARK H PARENT
REMARK Flexibility Score: inf
ROOT
ATOM      1  C   UNL     1     -10.902  40.459  15.955  1.00  0.00     0.025 C 
ATOM      2  C   UNL     1      -9.648  40.010  15.801  1.00  0.00     0.010 C 
ENDROOT
BRANCH   1   3
ATOM      3  C   UNL     1     -11.910  40.353  14.886  1.00  0.00     0.064 C 
ATOM      4  O   UNL     1     -11.779  40.980  13.800  1.00  0.00    -0.545 OA
ATOM      5  O   UNL     1     -13.025  39.548  15.078  1.00  0.00    -0.545 OA
ENDBRANCH   1   3
BRANCH   2   6
ATOM      6  C   UNL     1      -8.584  40.086  16.839  1.00  0.00    -0.026 A 
ATOM      7  C   UNL     1      -7.421  40.875  16.704  1.00  0.00     0.008 A 
ATOM      8  C   UNL     1      -8.749  39.328  18.014  1.00  0.00     0.008 A 
ATOM      9  C   UNL     1      -6.460  40.901  17.720  1.00  0.00     0.001 A 
ATOM     10  C   UNL     1      -7.785  39.359  19.025  1.00  0.00     0.001 A 
ATOM     11  C   UNL     1      -6.640  40.144  18.878  1.00  0.00     0.000 A 
ENDBRANCH   2   6
TORSDOF 2
ENDMDL
MODEL 6
REMARK VINA RESULT:    -2.952     22.727     23.787
REMARK INTER + INTRA:          -3.424
REMARK INTER:                  -3.296
REMARK INTRA:                  -0.128
REMARK UNBOUND:                -0.127
REMARK SMILES O=C([O-])C=Cc1ccccc1
REMARK SMILES IDX 4 1 5 2 2 3 1 4 3 5 6 6 7 7 11 8 8 9 10 10 9 11
REMARK H PARENT
REMARK Flexibility Score: inf
ROOT
ATOM      1  C   UNL     1      -5.153  40.012  18.336  1.00  0.00     0.025 C 
ATOM      2  C   UNL     1      -6.192  40.765  18.726  1.00  0.00     0.010 C 
ENDROOT
BRANCH   1   3
ATOM      3  C   UNL     1      -3.810  40.577  18.124  1.00  0.00     0.064 C 
ATOM      4  O   UNL     1      -2.946  40.574  19.042  1.00  0.00    -0.545 OA
ATOM      5  O   UNL     1      -3.488  41.125  16.889  1.00  0.00    -0.545 OA
ENDBRANCH   1   3
BRANCH   2   6
ATOM      6  C   UNL     1      -7.571  40.257  18.958  1.00  0.00    -0.026 A 
ATOM      7  C   UNL     1      -8.079  39.946  20.239  1.00  0.00     0.008 A 
ATOM      8  C   UNL     1      -8.409  40.077  17.841  1.00  0.00     0.008 A 
ATOM      9  C   UNL     1      -9.387  39.472  20.386  1.00  0.00     0.001 A 
ATOM     10  C   UNL     1      -9.714  39.602  17.995  1.00  0.00     0.001 A 
ATOM     11  C   UNL     1     -10.203  39.299  19.267  1.00  0.00     0.000 A 
ENDBRANCH   2   6
TORSDOF 2
ENDMDL
MODEL 7
REMARK VINA RESULT:    -2.935     23.240     23.885
REMARK INTER + INTRA:          -3.405
REMARK INTER:                  -3.277
REMARK INTRA:                  -0.128
REMARK UNBOUND:                -0.127
REMARK SMILES O=C([O-])C=Cc1ccccc1
REMARK SMILES IDX 4 1 5 2 2 3 1 4 3 5 6 6 7 7 11 8 8 9 10 10 9 11
REMARK H PARENT
REMARK Flexibility Score: inf
ROOT
ATOM      1  C   UNL     1     -10.633  38.955  19.490  1.00  0.00     0.025 C 
ATOM      2  C   UNL     1      -9.329  38.945  19.174  1.00  0.00     0.010 C 
ENDROOT
BRANCH   1   3
ATOM      3  C   UNL     1     -11.169  38.199  20.634  1.00  0.00     0.064 C 
ATOM      4  O   UNL     1     -12.010  37.275  20.471  1.00  0.00    -0.545 OA
ATOM      5  O   UNL     1     -10.740  38.510  21.918  1.00  0.00    -0.545 OA
ENDBRANCH   1   3
BRANCH   2   6
ATOM      6  C   UNL     1      -8.725  39.685  18.033  1.00  0.00    -0.026 A 
ATOM      7  C   UNL     1      -9.290  39.716  16.740  1.00  0.00     0.008 A 
ATOM      8  C   UNL     1      -7.526  40.389  18.260  1.00  0.00     0.008 A 
ATOM      9  C   UNL     1      -8.669  40.433  15.712  1.00  0.00     0.001 A 
ATOM     10  C   UNL     1      -6.912  41.103  17.228  1.00  0.00     0.001 A 
ATOM     11  C   UNL     1      -7.482  41.125  15.955  1.00  0.00     0.000 A 
ENDBRANCH   2   6
TORSDOF 2
ENDMDL
MODEL 8
REMARK VINA RESULT:    -2.806      1.598      2.319
REMARK INTER + INTRA:          -3.261
REMARK INTER:                  -3.128
REMARK INTRA:                  -0.133
REMARK UNBOUND:                -0.127
REMARK SMILES O=C([O-])C=Cc1ccccc1
REMARK SMILES IDX 4 1 5 2 2 3 1 4 3 5 6 6 7 7 11 8 8 9 10 10 9 11
REMARK H PARENT
REMARK Flexibility Score: inf
ROOT
ATOM      1  C   UNL     1       1.474  22.370   5.172  1.00  0.00     0.025 C 
ATOM      2  C   UNL     1       2.539  22.992   4.644  1.00  0.00     0.010 C 
ENDROOT
BRANCH   1   3
ATOM      3  C   UNL     1       0.310  21.980   4.358  1.00  0.00     0.064 C 
ATOM      4  O   UNL     1      -0.853  21.971   4.844  1.00  0.00    -0.545 OA
ATOM      5  O   UNL     1       0.496  21.617   3.031  1.00  0.00    -0.545 OA
ENDBRANCH   1   3
BRANCH   2   6
ATOM      6  C   UNL     1       3.744  23.411   5.409  1.00  0.00    -0.026 A 
ATOM      7  C   UNL     1       3.995  23.016   6.741  1.00  0.00     0.008 A 
ATOM      8  C   UNL     1       4.680  24.245   4.768  1.00  0.00     0.008 A 
ATOM      9  C   UNL     1       5.150  23.446   7.402  1.00  0.00     0.001 A 
ATOM     10  C   UNL     1       5.832  24.671   5.434  1.00  0.00     0.001 A 
ATOM     11  C   UNL     1       6.067  24.273   6.751  1.00  0.00     0.000 A 
ENDBRANCH   2   6
TORSDOF 2
ENDMDL
MODEL 9
REMARK VINA RESULT:    -1.757     23.236     23.993
REMARK INTER + INTRA:          -2.090
REMARK INTER:                  -1.953
REMARK INTRA:                  -0.136
REMARK UNBOUND:                -0.127
REMARK SMILES O=C([O-])C=Cc1ccccc1
REMARK SMILES IDX 4 1 5 2 2 3 1 4 3 5 6 6 7 7 11 8 8 9 10 10 9 11
REMARK H PARENT
REMARK Flexibility Score: inf
ROOT
ATOM      1  C   UNL     1     -10.555  39.184  19.601  1.00  0.00     0.025 C 
ATOM      2  C   UNL     1      -9.285  39.087  19.181  1.00  0.00     0.010 C 
ENDROOT
BRANCH   1   3
ATOM      3  C   UNL     1     -11.046  38.463  20.788  1.00  0.00     0.064 C 
ATOM      4  O   UNL     1     -10.985  38.978  21.937  1.00  0.00    -0.545 OA
ATOM      5  O   UNL     1     -11.587  37.193  20.640  1.00  0.00    -0.545 OA
ENDBRANCH   1   3
BRANCH   2   6
ATOM      6  C   UNL     1      -8.727  39.788  17.992  1.00  0.00    -0.026 A 
ATOM      7  C   UNL     1      -7.501  40.489  18.009  1.00  0.00     0.008 A 
ATOM      8  C   UNL     1      -9.464  39.748  16.793  1.00  0.00     0.008 A 
ATOM      9  C   UNL     1      -7.035  41.125  16.854  1.00  0.00     0.001 A 
ATOM     10  C   UNL     1      -8.991  40.387  15.644  1.00  0.00     0.001 A 
ATOM     11  C   UNL     1      -7.777  41.076  15.673  1.00  0.00     0.000 A 
ENDBRANCH   2   6
TORSDOF 2
ENDMDL
