MODEL 1
REMARK VINA RESULT:    -3.702      0.000      0.000
REMARK INTER + INTRA:          -4.142
REMARK INTER:                  -4.135
REMARK INTRA:                  -0.007
REMARK UNBOUND:                -0.007
REMARK SMILES CCCC(=O)[O-]
REMARK SMILES IDX 3 1 4 2 5 3 6 4 2 5 1 6
REMARK H PARENT
REMARK Flexibility Score: inf
ROOT
ATOM      1  C   UNL     1      15.418 -12.542  21.840  1.00  0.00     0.052 C 
ENDROOT
BRANCH   1   2
ATOM      2  C   UNL     1      14.325 -12.198  22.801  1.00  0.00     0.041 C 
ATOM      3  O   UNL     1      13.399 -11.418  22.454  1.00  0.00    -0.550 OA
ATOM      4  O   UNL     1      14.354 -12.698  24.096  1.00  0.00    -0.550 OA
ENDBRANCH   1   2
BRANCH   1   5
ATOM      5  C   UNL     1      16.419 -11.388  21.732  1.00  0.00     0.003 C 
ATOM      6  C   UNL     1      17.833 -11.906  21.482  1.00  0.00     0.004 C 
ENDBRANCH   1   5
TORSDOF 2
ENDMDL
MODEL 2
REMARK VINA RESULT:    -3.698      0.128      1.328
REMARK INTER + INTRA:          -4.137
REMARK INTER:                  -4.129
REMARK INTRA:                  -0.008
REMARK UNBOUND:                -0.007
REMARK SMILES CCCC(=O)[O-]
REMARK SMILES IDX 3 1 4 2 5 3 6 4 2 5 1 6
REMARK H PARENT
REMARK Flexibility Score: inf
ROOT
ATOM      1  C   UNL     1      15.374 -12.654  21.932  1.00  0.00     0.052 C 
ENDROOT
BRANCH   1   2
ATOM      2  C   UNL     1      14.325 -12.234  22.912  1.00  0.00     0.041 C 
ATOM      3  O   UNL     1      14.332 -12.697  24.084  1.00  0.00    -0.550 OA
ATOM      4  O   UNL     1      13.312 -11.370  22.519  1.00  0.00    -0.550 OA
ENDBRANCH   1   2
BRANCH   1   5
ATOM      5  C   UNL     1      16.345 -11.503  21.659  1.00  0.00     0.003 C 
ATOM      6  C   UNL     1      17.786 -12.001  21.589  1.00  0.00     0.004 C 
ENDBRANCH   1   5
TORSDOF 2
ENDMDL
MODEL 3
REMARK VINA RESULT:    -3.584      2.442      2.817
REMARK INTER + INTRA:          -4.010
REMARK INTER:                  -3.955
REMARK INTRA:                  -0.055
REMARK UNBOUND:                -0.007
REMARK SMILES CCCC(=O)[O-]
REMARK SMILES IDX 3 1 4 2 5 3 6 4 2 5 1 6
REMARK H PARENT
REMARK Flexibility Score: inf
ROOT
ATOM      1  C   UNL     1      13.888 -10.224  20.770  1.00  0.00     0.052 C 
ENDROOT
BRANCH   1   2
ATOM      2  C   UNL     1      14.200 -11.390  21.654  1.00  0.00     0.041 C 
ATOM      3  O   UNL     1      13.454 -11.659  22.633  1.00  0.00    -0.550 OA
ATOM      4  O   UNL     1      15.340 -12.149  21.429  1.00  0.00    -0.550 OA
ENDBRANCH   1   2
BRANCH   1   5
ATOM      5  C   UNL     1      14.008  -8.912  21.549  1.00  0.00     0.003 C 
ATOM      6  C   UNL     1      15.407  -8.744  22.134  1.00  0.00     0.004 C 
ENDBRANCH   1   5
TORSDOF 2
ENDMDL
MODEL 4
REMARK VINA RESULT:    -3.547      2.398      2.759
REMARK INTER + INTRA:          -3.968
REMARK INTER:                  -3.920
REMARK INTRA:                  -0.048
REMARK UNBOUND:                -0.007
REMARK SMILES CCCC(=O)[O-]
REMARK SMILES IDX 3 1 4 2 5 3 6 4 2 5 1 6
REMARK H PARENT
REMARK Flexibility Score: inf
ROOT
ATOM      1  C   UNL     1      14.035 -10.327  20.789  1.00  0.00     0.052 C 
ENDROOT
BRANCH   1   2
ATOM      2  C   UNL     1      14.405 -11.472  21.677  1.00  0.00     0.041 C 
ATOM      3  O   UNL     1      15.443 -12.146  21.443  1.00  0.00    -0.550 OA
ATOM      4  O   UNL     1      13.578 -11.827  22.735  1.00  0.00    -0.550 OA
ENDBRANCH   1   2
BRANCH   1   5
ATOM      5  C   UNL     1      14.085  -9.008  21.565  1.00  0.00     0.003 C 
ATOM      6  C   UNL     1      15.465  -8.779  22.175  1.00  0.00     0.004 C 
ENDBRANCH   1   5
TORSDOF 2
ENDMDL
MODEL 5
REMARK VINA RESULT:    -3.426      1.969      2.237
REMARK INTER + INTRA:          -3.833
REMARK INTER:                  -3.795
REMARK INTRA:                  -0.038
REMARK UNBOUND:                -0.007
REMARK SMILES CCCC(=O)[O-]
REMARK SMILES IDX 3 1 4 2 5 3 6 4 2 5 1 6
REMARK H PARENT
REMARK Flexibility Score: inf
ROOT
ATOM      1  C   UNL     1      15.482 -11.259  21.492  1.00  0.00     0.052 C 
ENDROOT
BRANCH   1   2
ATOM      2  C   UNL     1      15.437 -10.006  22.308  1.00  0.00     0.041 C 
ATOM      3  O   UNL     1      16.063  -8.981  21.930  1.00  0.00    -0.550 OA
ATOM      4  O   UNL     1      14.746  -9.985  23.512  1.00  0.00    -0.550 OA
ENDBRANCH   1   2
BRANCH   1   5
ATOM      5  C   UNL     1      16.542 -12.218  22.039  1.00  0.00     0.003 C 
ATOM      6  C   UNL     1      17.908 -11.941  21.418  1.00  0.00     0.004 C 
ENDBRANCH   1   5
TORSDOF 2
ENDMDL
MODEL 6
REMARK VINA RESULT:    -3.411      1.892      2.385
REMARK INTER + INTRA:          -3.817
REMARK INTER:                  -3.810
REMARK INTRA:                  -0.007
REMARK UNBOUND:                -0.007
REMARK SMILES CCCC(=O)[O-]
REMARK SMILES IDX 3 1 4 2 5 3 6 4 2 5 1 6
REMARK H PARENT
REMARK Flexibility Score: inf
ROOT
ATOM      1  C   UNL     1      15.468  -9.983  21.905  1.00  0.00     0.052 C 
ENDROOT
BRANCH   1   2
ATOM      2  C   UNL     1      14.013  -9.719  21.680  1.00  0.00     0.041 C 
ATOM      3  O   UNL     1      13.640  -8.641  21.147  1.00  0.00    -0.550 OA
ATOM      4  O   UNL     1      13.065 -10.641  22.105  1.00  0.00    -0.550 OA
ENDBRANCH   1   2
BRANCH   1   5
ATOM      5  C   UNL     1      15.793 -11.455  21.638  1.00  0.00     0.003 C 
ATOM      6  C   UNL     1      17.300 -11.681  21.558  1.00  0.00     0.004 C 
ENDBRANCH   1   5
TORSDOF 2
ENDMDL
MODEL 7
REMARK VINA RESULT:    -3.389      2.093      2.825
REMARK INTER + INTRA:          -3.792
REMARK INTER:                  -3.753
REMARK INTRA:                  -0.040
REMARK UNBOUND:                -0.007
REMARK SMILES CCCC(=O)[O-]
REMARK SMILES IDX 3 1 4 2 5 3 6 4 2 5 1 6
REMARK H PARENT
REMARK Flexibility Score: inf
ROOT
ATOM      1  C   UNL     1      15.472 -10.557  21.969  1.00  0.00     0.052 C 
ENDROOT
BRANCH   1   2
ATOM      2  C   UNL     1      14.797 -11.381  23.019  1.00  0.00     0.041 C 
ATOM      3  O   UNL     1      15.372 -11.606  24.116  1.00  0.00    -0.550 OA
ATOM      4  O   UNL     1      13.552 -11.944  22.767  1.00  0.00    -0.550 OA
ENDBRANCH   1   2
BRANCH   1   5
ATOM      5  C   UNL     1      15.174  -9.071  22.180  1.00  0.00     0.003 C 
ATOM      6  C   UNL     1      13.866  -8.670  21.506  1.00  0.00     0.004 C 
ENDBRANCH   1   5
TORSDOF 2
ENDMDL
MODEL 8
REMARK VINA RESULT:    -3.350      1.979      2.842
REMARK INTER + INTRA:          -3.749
REMARK INTER:                  -3.678
REMARK INTRA:                  -0.071
REMARK UNBOUND:                -0.007
REMARK SMILES CCCC(=O)[O-]
REMARK SMILES IDX 3 1 4 2 5 3 6 4 2 5 1 6
REMARK H PARENT
REMARK Flexibility Score: inf
ROOT
ATOM      1  C   UNL     1      16.074 -12.038  21.777  1.00  0.00     0.052 C 
ENDROOT
BRANCH   1   2
ATOM      2  C   UNL     1      15.292 -10.786  21.533  1.00  0.00     0.041 C 
ATOM      3  O   UNL     1      15.694  -9.687  22.000  1.00  0.00    -0.550 OA
ATOM      4  O   UNL     1      14.094 -10.839  20.834  1.00  0.00    -0.550 OA
ENDBRANCH   1   2
BRANCH   1   5
ATOM      5  C   UNL     1      15.174 -13.125  22.371  1.00  0.00     0.003 C 
ATOM      6  C   UNL     1      14.741 -12.767  23.790  1.00  0.00     0.004 C 
ENDBRANCH   1   5
TORSDOF 2
ENDMDL
MODEL 9
REMARK VINA RESULT:    -2.812     14.347     14.761
REMARK INTER + INTRA:          -3.148
REMARK INTER:                  -3.103
REMARK INTRA:                  -0.045
REMARK UNBOUND:                -0.007
REMARK SMILES CCCC(=O)[O-]
REMARK SMILES IDX 3 1 4 2 5 3 6 4 2 5 1 6
REMARK H PARENT
REMARK Flexibility Score: inf
ROOT
ATOM      1  C   UNL     1      20.749   0.769  28.225  1.00  0.00     0.052 C 
ENDROOT
BRANCH   1   2
ATOM      2  C   UNL     1      19.289   0.781  28.550  1.00  0.00     0.041 C 
ATOM      3  O   UNL     1      18.908   0.874  29.747  1.00  0.00    -0.550 OA
ATOM      4  O   UNL     1      18.350   0.637  27.538  1.00  0.00    -0.550 OA
ENDBRANCH   1   2
BRANCH   1   5
ATOM      5  C   UNL     1      21.536   0.034  29.313  1.00  0.00     0.003 C 
ATOM      6  C   UNL     1      21.684  -1.448  28.980  1.00  0.00     0.004 C 
ENDBRANCH   1   5
TORSDOF 2
ENDMDL
