MODEL 1
REMARK VINA RESULT:    -4.175      0.000      0.000
REMARK INTER + INTRA:          -4.297
REMARK INTER:                  -4.297
REMARK INTRA:                   0.000
REMARK UNBOUND:                 0.000
REMARK SMILES CC1(C)[C@H]2CC[C@]1(C)[C@@H](O)C2
REMARK SMILES IDX 1 1 2 2 4 3 5 4 6 5 7 6 9 7 11 8 8 9 3 10 10 11
REMARK H PARENT 10 12
REMARK Flexibility Score: inf
ROOT
ATOM      1  C   UNL     1     104.282 106.007 104.850  1.00  0.00     0.012 C 
ATOM      2  C   UNL     1     105.053 107.050 103.985  1.00  0.00    -0.025 C 
ATOM      3  C   UNL     1     104.367 107.374 102.648  1.00  0.00    -0.002 C 
ATOM      4  C   UNL     1     105.378 108.318 101.950  1.00  0.00     0.005 C 
ATOM      5  C   UNL     1     106.740 107.743 102.388  1.00  0.00     0.010 C 
ATOM      6  C   UNL     1     106.330 106.535 103.275  1.00  0.00    -0.001 C 
ATOM      7  C   UNL     1     105.802 105.452 102.287  1.00  0.00     0.121 C 
ATOM      8  C   UNL     1     104.425 106.030 101.876  1.00  0.00     0.036 C 
ATOM      9  C   UNL     1     107.465 106.057 104.192  1.00  0.00     0.015 C 
ATOM     10  C   UNL     1     105.259 108.293 104.907  1.00  0.00     0.012 C 
ENDROOT
BRANCH   7  11
ATOM     11  O   UNL     1     105.677 104.196 102.901  1.00  0.00    -0.393 OA
ATOM     12  H   UNL     1     105.509 103.542 102.174  1.00  0.00     0.210 HD
ENDBRANCH   7  11
TORSDOF 1
ENDMDL
MODEL 2
REMARK VINA RESULT:    -4.169      1.701      3.034
REMARK INTER + INTRA:          -4.291
REMARK INTER:                  -4.291
REMARK INTRA:                   0.000
REMARK UNBOUND:                 0.000
REMARK SMILES CC1(C)[C@H]2CC[C@]1(C)[C@@H](O)C2
REMARK SMILES IDX 1 1 2 2 4 3 5 4 6 5 7 6 9 7 11 8 8 9 3 10 10 11
REMARK H PARENT 10 12
REMARK Flexibility Score: inf
ROOT
ATOM      1  C   UNL     1     104.658 106.760 104.859  1.00  0.00     0.012 C 
ATOM      2  C   UNL     1     105.437 105.594 104.180  1.00  0.00    -0.025 C 
ATOM      3  C   UNL     1     106.773 106.025 103.552  1.00  0.00    -0.002 C 
ATOM      4  C   UNL     1     107.271 104.733 102.856  1.00  0.00     0.005 C 
ATOM      5  C   UNL     1     105.962 104.091 102.352  1.00  0.00     0.010 C 
ATOM      6  C   UNL     1     104.883 105.108 102.818  1.00  0.00    -0.001 C 
ATOM      7  C   UNL     1     105.043 106.344 101.882  1.00  0.00     0.121 C 
ATOM      8  C   UNL     1     106.345 106.990 102.417  1.00  0.00     0.036 C 
ATOM      9  C   UNL     1     103.470 104.508 102.840  1.00  0.00     0.015 C 
ATOM     10  C   UNL     1     105.580 104.489 105.273  1.00  0.00     0.012 C 
ENDROOT
BRANCH   7  11
ATOM     11  O   UNL     1     103.950 107.219 101.977  1.00  0.00    -0.393 OA
ATOM     12  H   UNL     1     103.778 107.555 101.059  1.00  0.00     0.210 HD
ENDBRANCH   7  11
TORSDOF 1
ENDMDL
MODEL 3
REMARK VINA RESULT:    -4.148      1.495      2.424
REMARK INTER + INTRA:          -4.269
REMARK INTER:                  -4.269
REMARK INTRA:                   0.000
REMARK UNBOUND:                 0.000
REMARK SMILES CC1(C)[C@H]2CC[C@]1(C)[C@@H](O)C2
REMARK SMILES IDX 1 1 2 2 4 3 5 4 6 5 7 6 9 7 11 8 8 9 3 10 10 11
REMARK H PARENT 10 12
REMARK Flexibility Score: inf
ROOT
ATOM      1  C   UNL     1     105.955 107.684 104.852  1.00  0.00     0.012 C 
ATOM      2  C   UNL     1     107.008 106.957 103.961  1.00  0.00    -0.025 C 
ATOM      3  C   UNL     1     107.305 107.681 102.637  1.00  0.00    -0.002 C 
ATOM      4  C   UNL     1     108.265 106.708 101.909  1.00  0.00     0.005 C 
ATOM      5  C   UNL     1     107.726 105.323 102.321  1.00  0.00     0.010 C 
ATOM      6  C   UNL     1     106.517 105.685 103.227  1.00  0.00    -0.001 C 
ATOM      7  C   UNL     1     105.414 106.210 102.259  1.00  0.00     0.121 C 
ATOM      8  C   UNL     1     105.956 107.608 101.875  1.00  0.00     0.036 C 
ATOM      9  C   UNL     1     106.073 104.519 104.122  1.00  0.00     0.015 C 
ATOM     10  C   UNL     1     108.263 106.760 104.868  1.00  0.00     0.012 C 
ENDROOT
BRANCH   7  11
ATOM     11  O   UNL     1     104.160 106.292 102.887  1.00  0.00    -0.393 OA
ATOM     12  H   UNL     1     104.334 106.302 103.864  1.00  0.00     0.210 HD
ENDBRANCH   7  11
TORSDOF 1
ENDMDL
MODEL 4
REMARK VINA RESULT:    -4.122      1.392      2.078
REMARK INTER + INTRA:          -4.242
REMARK INTER:                  -4.242
REMARK INTRA:                   0.000
REMARK UNBOUND:                 0.000
REMARK SMILES CC1(C)[C@H]2CC[C@]1(C)[C@@H](O)C2
REMARK SMILES IDX 1 1 2 2 4 3 5 4 6 5 7 6 9 7 11 8 8 9 3 10 10 11
REMARK H PARENT 10 12
REMARK Flexibility Score: inf
ROOT
ATOM      1  C   UNL     1     105.195 104.762 104.863  1.00  0.00     0.012 C 
ATOM      2  C   UNL     1     106.386 105.487 104.166  1.00  0.00    -0.025 C 
ATOM      3  C   UNL     1     106.000 106.826 103.515  1.00  0.00    -0.002 C 
ATOM      4  C   UNL     1     107.306 107.265 102.807  1.00  0.00     0.005 C 
ATOM      5  C   UNL     1     107.902 105.926 102.326  1.00  0.00     0.010 C 
ATOM      6  C   UNL     1     106.849 104.892 102.814  1.00  0.00    -0.001 C 
ATOM      7  C   UNL     1     105.617 105.077 101.878  1.00  0.00     0.121 C 
ATOM      8  C   UNL     1     105.017 106.410 102.389  1.00  0.00     0.036 C 
ATOM      9  C   UNL     1     107.400 103.460 102.862  1.00  0.00     0.015 C 
ATOM     10  C   UNL     1     107.497 105.612 105.255  1.00  0.00     0.012 C 
ENDROOT
BRANCH   7  11
ATOM     11  O   UNL     1     104.704 104.016 101.994  1.00  0.00    -0.393 OA
ATOM     12  H   UNL     1     104.841 103.439 101.199  1.00  0.00     0.210 HD
ENDBRANCH   7  11
TORSDOF 1
ENDMDL
MODEL 5
REMARK VINA RESULT:    -4.108      1.663      2.850
REMARK INTER + INTRA:          -4.228
REMARK INTER:                  -4.228
REMARK INTRA:                   0.000
REMARK UNBOUND:                 0.000
REMARK SMILES CC1(C)[C@H]2CC[C@]1(C)[C@@H](O)C2
REMARK SMILES IDX 1 1 2 2 4 3 5 4 6 5 7 6 9 7 11 8 8 9 3 10 10 11
REMARK H PARENT 10 12
REMARK Flexibility Score: inf
ROOT
ATOM      1  C   UNL     1     106.841 107.128 104.868  1.00  0.00     0.012 C 
ATOM      2  C   UNL     1     105.634 106.452 104.151  1.00  0.00    -0.025 C 
ATOM      3  C   UNL     1     105.979 105.106 103.492  1.00  0.00    -0.002 C 
ATOM      4  C   UNL     1     104.668 104.720 102.764  1.00  0.00     0.005 C 
ATOM      5  C   UNL     1     104.127 106.084 102.288  1.00  0.00     0.010 C 
ATOM      6  C   UNL     1     105.210 107.075 102.798  1.00  0.00    -0.001 C 
ATOM      7  C   UNL     1     106.446 106.853 101.875  1.00  0.00     0.121 C 
ATOM      8  C   UNL     1     106.991 105.496 102.383  1.00  0.00     0.036 C 
ATOM      9  C   UNL     1     104.710 108.526 102.851  1.00  0.00     0.015 C 
ATOM     10  C   UNL     1     104.505 106.358 105.224  1.00  0.00     0.012 C 
ENDROOT
BRANCH   7  11
ATOM     11  O   UNL     1     107.395 107.879 102.013  1.00  0.00    -0.393 OA
ATOM     12  H   UNL     1     107.175 108.355 102.856  1.00  0.00     0.210 HD
ENDBRANCH   7  11
TORSDOF 1
ENDMDL
MODEL 6
REMARK VINA RESULT:    -4.093      1.459      3.092
REMARK INTER + INTRA:          -4.212
REMARK INTER:                  -4.212
REMARK INTRA:                   0.000
REMARK UNBOUND:                 0.000
REMARK SMILES CC1(C)[C@H]2CC[C@]1(C)[C@@H](O)C2
REMARK SMILES IDX 1 1 2 2 4 3 5 4 6 5 7 6 9 7 11 8 8 9 3 10 10 11
REMARK H PARENT 10 12
REMARK Flexibility Score: inf
ROOT
ATOM      1  C   UNL     1     107.061 107.373 102.181  1.00  0.00     0.012 C 
ATOM      2  C   UNL     1     106.459 106.463 103.295  1.00  0.00    -0.025 C 
ATOM      3  C   UNL     1     105.880 105.140 102.768  1.00  0.00    -0.002 C 
ATOM      4  C   UNL     1     105.254 104.498 104.031  1.00  0.00     0.005 C 
ATOM      5  C   UNL     1     104.711 105.720 104.801  1.00  0.00     0.010 C 
ATOM      6  C   UNL     1     105.090 106.904 103.869  1.00  0.00    -0.001 C 
ATOM      7  C   UNL     1     104.121 106.806 102.653  1.00  0.00     0.121 C 
ATOM      8  C   UNL     1     104.693 105.593 101.879  1.00  0.00     0.036 C 
ATOM      9  C   UNL     1     105.068 108.260 104.591  1.00  0.00     0.015 C 
ATOM     10  C   UNL     1     107.596 106.279 104.349  1.00  0.00     0.012 C 
ENDROOT
BRANCH   7  11
ATOM     11  O   UNL     1     104.134 107.974 101.875  1.00  0.00    -0.393 OA
ATOM     12  H   UNL     1     103.222 108.070 101.495  1.00  0.00     0.210 HD
ENDBRANCH   7  11
TORSDOF 1
ENDMDL
MODEL 7
REMARK VINA RESULT:    -4.082      1.070      2.465
REMARK INTER + INTRA:          -4.201
REMARK INTER:                  -4.201
REMARK INTRA:                   0.000
REMARK UNBOUND:                 0.000
REMARK SMILES CC1(C)[C@H]2CC[C@]1(C)[C@@H](O)C2
REMARK SMILES IDX 1 1 2 2 4 3 5 4 6 5 7 6 9 7 11 8 8 9 3 10 10 11
REMARK H PARENT 10 12
REMARK Flexibility Score: inf
ROOT
ATOM      1  C   UNL     1     104.534 106.859 101.905  1.00  0.00     0.012 C 
ATOM      2  C   UNL     1     105.539 106.747 103.091  1.00  0.00    -0.025 C 
ATOM      3  C   UNL     1     107.009 106.653 102.650  1.00  0.00    -0.002 C 
ATOM      4  C   UNL     1     107.765 106.432 103.984  1.00  0.00     0.005 C 
ATOM      5  C   UNL     1     106.789 105.550 104.789  1.00  0.00     0.010 C 
ATOM      6  C   UNL     1     105.601 105.373 103.803  1.00  0.00    -0.001 C 
ATOM      7  C   UNL     1     106.116 104.399 102.701  1.00  0.00     0.121 C 
ATOM      8  C   UNL     1     107.073 105.304 101.888  1.00  0.00     0.036 C 
ATOM      9  C   UNL     1     104.311 104.916 104.501  1.00  0.00     0.015 C 
ATOM     10  C   UNL     1     105.233 107.964 104.018  1.00  0.00     0.012 C 
ENDROOT
BRANCH   7  11
ATOM     11  O   UNL     1     105.069 103.903 101.907  1.00  0.00    -0.393 OA
ATOM     12  H   UNL     1     104.848 104.617 101.254  1.00  0.00     0.210 HD
ENDBRANCH   7  11
TORSDOF 1
ENDMDL
MODEL 8
REMARK VINA RESULT:    -4.069      1.630      3.240
REMARK INTER + INTRA:          -4.187
REMARK INTER:                  -4.187
REMARK INTRA:                   0.000
REMARK UNBOUND:                 0.000
REMARK SMILES CC1(C)[C@H]2CC[C@]1(C)[C@@H](O)C2
REMARK SMILES IDX 1 1 2 2 4 3 5 4 6 5 7 6 9 7 11 8 8 9 3 10 10 11
REMARK H PARENT 10 12
REMARK Flexibility Score: inf
ROOT
ATOM      1  C   UNL     1     106.161 104.478 104.352  1.00  0.00     0.012 C 
ATOM      2  C   UNL     1     106.872 105.495 103.409  1.00  0.00    -0.025 C 
ATOM      3  C   UNL     1     107.889 106.398 104.126  1.00  0.00    -0.002 C 
ATOM      4  C   UNL     1     108.347 107.371 103.012  1.00  0.00     0.005 C 
ATOM      5  C   UNL     1     107.058 107.583 102.192  1.00  0.00     0.010 C 
ATOM      6  C   UNL     1     106.024 106.709 102.954  1.00  0.00    -0.001 C 
ATOM      7  C   UNL     1     105.722 107.476 104.276  1.00  0.00     0.121 C 
ATOM      8  C   UNL     1     107.012 107.233 105.096  1.00  0.00     0.036 C 
ATOM      9  C   UNL     1     104.783 106.385 102.110  1.00  0.00     0.015 C 
ATOM     10  C   UNL     1     107.487 104.642 102.257  1.00  0.00     0.012 C 
ENDROOT
BRANCH   7  11
ATOM     11  O   UNL     1     104.586 106.970 104.929  1.00  0.00    -0.393 OA
ATOM     12  H   UNL     1     103.862 106.937 104.251  1.00  0.00     0.210 HD
ENDBRANCH   7  11
TORSDOF 1
ENDMDL
MODEL 9
REMARK VINA RESULT:    -4.061      1.334      2.301
REMARK INTER + INTRA:          -4.180
REMARK INTER:                  -4.180
REMARK INTRA:                   0.000
REMARK UNBOUND:                 0.000
REMARK SMILES CC1(C)[C@H]2CC[C@]1(C)[C@@H](O)C2
REMARK SMILES IDX 1 1 2 2 4 3 5 4 6 5 7 6 9 7 11 8 8 9 3 10 10 11
REMARK H PARENT 10 12
REMARK Flexibility Score: inf
ROOT
ATOM      1  C   UNL     1     105.309 105.026 101.886  1.00  0.00     0.012 C 
ATOM      2  C   UNL     1     105.160 106.012 103.085  1.00  0.00    -0.025 C 
ATOM      3  C   UNL     1     104.853 107.458 102.663  1.00  0.00    -0.002 C 
ATOM      4  C   UNL     1     104.877 108.232 104.005  1.00  0.00     0.005 C 
ATOM      5  C   UNL     1     105.996 107.518 104.791  1.00  0.00     0.010 C 
ATOM      6  C   UNL     1     106.475 106.431 103.788  1.00  0.00    -0.001 C 
ATOM      7  C   UNL     1     107.264 107.200 102.686  1.00  0.00     0.121 C 
ATOM      8  C   UNL     1     106.127 107.889 101.892  1.00  0.00     0.036 C 
ATOM      9  C   UNL     1     107.266 105.304 104.466  1.00  0.00     0.015 C 
ATOM     10  C   UNL     1     104.078 105.382 104.017  1.00  0.00     0.012 C 
ENDROOT
BRANCH   7  11
ATOM     11  O   UNL     1     108.014 106.332 101.875  1.00  0.00    -0.393 OA
ATOM     12  H   UNL     1     107.525 106.258 101.014  1.00  0.00     0.210 HD
ENDBRANCH   7  11
TORSDOF 1
ENDMDL
