MODEL 1
REMARK VINA RESULT:    -4.613      0.000      0.000
REMARK INTER + INTRA:          -7.371
REMARK INTER:                  -6.771
REMARK INTRA:                  -0.601
REMARK UNBOUND:                -0.601
REMARK SMILES O=C([O-])CCCCCCCC(=O)[O-]
REMARK SMILES IDX 7 1 6 2 5 3 4 4 2 5 1 6 3 7 8 8 9 9 10 10 11 11 12 12 13 13
REMARK H PARENT
REMARK Flexibility Score: inf
ROOT
ATOM      1  C   UNL     1     -10.969  -6.080  14.586  1.00  0.00     0.000 C 
ENDROOT
BRANCH   1   2
ATOM      2  C   UNL     1      -9.982  -6.368  15.732  1.00  0.00     0.000 C 
BRANCH   2   3
ATOM      3  C   UNL     1      -8.963  -5.247  16.014  1.00  0.00     0.006 C 
BRANCH   3   4
ATOM      4  C   UNL     1      -9.590  -3.894  16.391  1.00  0.00     0.053 C 
BRANCH   4   5
ATOM      5  C   UNL     1      -8.722  -3.116  17.331  1.00  0.00     0.041 C 
ATOM      6  O   UNL     1      -7.532  -2.847  17.019  1.00  0.00    -0.550 OA
ATOM      7  O   UNL     1      -9.215  -2.718  18.566  1.00  0.00    -0.550 OA
ENDBRANCH   4   5
ENDBRANCH   3   4
ENDBRANCH   2   3
ENDBRANCH   1   2
BRANCH   1   8
ATOM      8  C   UNL     1     -10.576  -6.765  13.269  1.00  0.00     0.000 C 
BRANCH   8   9
ATOM      9  C   UNL     1     -10.091  -5.735  12.238  1.00  0.00     0.006 C 
BRANCH   9  10
ATOM     10  C   UNL     1      -8.602  -5.906  11.903  1.00  0.00     0.053 C 
BRANCH  10  11
ATOM     11  C   UNL     1      -7.762  -4.846  12.546  1.00  0.00     0.041 C 
ATOM     12  O   UNL     1      -6.522  -5.014  12.677  1.00  0.00    -0.550 OA
ATOM     13  O   UNL     1      -8.344  -3.658  12.970  1.00  0.00    -0.550 OA
ENDBRANCH  10  11
ENDBRANCH   9  10
ENDBRANCH   8   9
ENDBRANCH   1   8
TORSDOF 8
ENDMDL
MODEL 2
REMARK VINA RESULT:    -4.602      0.784      4.632
REMARK INTER + INTRA:          -7.355
REMARK INTER:                  -6.724
REMARK INTRA:                  -0.630
REMARK UNBOUND:                -0.601
REMARK SMILES O=C([O-])CCCCCCCC(=O)[O-]
REMARK SMILES IDX 7 1 6 2 5 3 4 4 2 5 1 6 3 7 8 8 9 9 10 10 11 11 12 12 13 13
REMARK H PARENT
REMARK Flexibility Score: inf
ROOT
ATOM      1  C   UNL     1     -10.763  -6.691  15.127  1.00  0.00     0.000 C 
ENDROOT
BRANCH   1   2
ATOM      2  C   UNL     1     -10.494  -7.107  13.670  1.00  0.00     0.000 C 
BRANCH   2   3
ATOM      3  C   UNL     1     -10.238  -5.942  12.693  1.00  0.00     0.006 C 
BRANCH   3   4
ATOM      4  C   UNL     1      -8.864  -5.978  12.003  1.00  0.00     0.053 C 
BRANCH   4   5
ATOM      5  C   UNL     1      -7.952  -4.905  12.513  1.00  0.00     0.041 C 
ATOM      6  O   UNL     1      -6.718  -5.126  12.631  1.00  0.00    -0.550 OA
ATOM      7  O   UNL     1      -8.469  -3.672  12.888  1.00  0.00    -0.550 OA
ENDBRANCH   4   5
ENDBRANCH   3   4
ENDBRANCH   2   3
ENDBRANCH   1   2
BRANCH   1   8
ATOM      8  C   UNL     1     -10.404  -5.224  15.408  1.00  0.00     0.000 C 
BRANCH   8   9
ATOM      9  C   UNL     1      -9.102  -5.122  16.215  1.00  0.00     0.006 C 
BRANCH   9  10
ATOM     10  C   UNL     1      -8.612  -3.673  16.345  1.00  0.00     0.053 C 
BRANCH  10  11
ATOM     11  C   UNL     1      -9.035  -3.057  17.644  1.00  0.00     0.041 C 
ATOM     12  O   UNL     1      -8.247  -3.043  18.625  1.00  0.00    -0.550 OA
ATOM     13  O   UNL     1     -10.289  -2.469  17.759  1.00  0.00    -0.550 OA
ENDBRANCH  10  11
ENDBRANCH   9  10
ENDBRANCH   8   9
ENDBRANCH   1   8
TORSDOF 8
ENDMDL
MODEL 3
REMARK VINA RESULT:    -4.578      2.972      3.508
REMARK INTER + INTRA:          -7.320
REMARK INTER:                  -6.693
REMARK INTRA:                  -0.628
REMARK UNBOUND:                -0.601
REMARK SMILES O=C([O-])CCCCCCCC(=O)[O-]
REMARK SMILES IDX 7 1 6 2 5 3 4 4 2 5 1 6 3 7 8 8 9 9 10 10 11 11 12 12 13 13
REMARK H PARENT
REMARK Flexibility Score: inf
ROOT
ATOM      1  C   UNL     1     -11.195  -6.781  13.667  1.00  0.00     0.000 C 
ENDROOT
BRANCH   1   2
ATOM      2  C   UNL     1     -11.264  -6.546  15.186  1.00  0.00     0.000 C 
BRANCH   2   3
ATOM      3  C   UNL     1     -10.386  -5.391  15.709  1.00  0.00     0.006 C 
BRANCH   3   4
ATOM      4  C   UNL     1     -10.910  -3.987  15.366  1.00  0.00     0.053 C 
BRANCH   4   5
ATOM      5  C   UNL     1     -11.857  -3.472  16.407  1.00  0.00     0.041 C 
ATOM      6  O   UNL     1     -13.097  -3.652  16.279  1.00  0.00    -0.550 OA
ATOM      7  O   UNL     1     -11.373  -2.764  17.499  1.00  0.00    -0.550 OA
ENDBRANCH   4   5
ENDBRANCH   3   4
ENDBRANCH   2   3
ENDBRANCH   1   2
BRANCH   1   8
ATOM      8  C   UNL     1     -12.559  -6.639  12.975  1.00  0.00     0.000 C 
BRANCH   8   9
ATOM      9  C   UNL     1     -12.701  -5.257  12.320  1.00  0.00     0.006 C 
BRANCH   9  10
ATOM     10  C   UNL     1     -11.461  -4.871  11.503  1.00  0.00     0.053 C 
BRANCH  10  11
ATOM     11  C   UNL     1     -11.541  -5.380  10.096  1.00  0.00     0.041 C 
ATOM     12  O   UNL     1     -10.492  -5.679   9.469  1.00  0.00    -0.550 OA
ATOM     13  O   UNL     1     -12.779  -5.556   9.490  1.00  0.00    -0.550 OA
ENDBRANCH  10  11
ENDBRANCH   9  10
ENDBRANCH   8   9
ENDBRANCH   1   8
TORSDOF 8
ENDMDL
MODEL 4
REMARK VINA RESULT:    -4.569      3.777      6.414
REMARK INTER + INTRA:          -7.307
REMARK INTER:                  -6.757
REMARK INTRA:                  -0.549
REMARK UNBOUND:                -0.601
REMARK SMILES O=C([O-])CCCCCCCC(=O)[O-]
REMARK SMILES IDX 7 1 6 2 5 3 4 4 2 5 1 6 3 7 8 8 9 9 10 10 11 11 12 12 13 13
REMARK H PARENT
REMARK Flexibility Score: inf
ROOT
ATOM      1  C   UNL     1     -10.803  -6.451  14.497  1.00  0.00     0.000 C 
ENDROOT
BRANCH   1   2
ATOM      2  C   UNL     1     -11.824  -6.501  13.346  1.00  0.00     0.000 C 
BRANCH   2   3
ATOM      3  C   UNL     1     -11.508  -5.579  12.152  1.00  0.00     0.006 C 
BRANCH   3   4
ATOM      4  C   UNL     1     -12.688  -5.349  11.194  1.00  0.00     0.053 C 
BRANCH   4   5
ATOM      5  C   UNL     1     -12.303  -5.574   9.764  1.00  0.00     0.041 C 
ATOM      6  O   UNL     1     -11.124  -5.348   9.383  1.00  0.00    -0.550 OA
ATOM      7  O   UNL     1     -13.253  -6.001   8.846  1.00  0.00    -0.550 OA
ENDBRANCH   4   5
ENDBRANCH   3   4
ENDBRANCH   2   3
ENDBRANCH   1   2
BRANCH   1   8
ATOM      8  C   UNL     1     -11.406  -5.934  15.812  1.00  0.00     0.000 C 
BRANCH   8   9
ATOM      9  C   UNL     1     -11.340  -4.401  15.882  1.00  0.00     0.006 C 
BRANCH   9  10
ATOM     10  C   UNL     1     -12.713  -3.773  16.155  1.00  0.00     0.053 C 
BRANCH  10  11
ATOM     11  C   UNL     1     -13.303  -3.165  14.919  1.00  0.00     0.041 C 
ATOM     12  O   UNL     1     -12.555  -2.784  13.982  1.00  0.00    -0.550 OA
ATOM     13  O   UNL     1     -14.681  -3.050  14.789  1.00  0.00    -0.550 OA
ENDBRANCH  10  11
ENDBRANCH   9  10
ENDBRANCH   8   9
ENDBRANCH   1   8
TORSDOF 8
ENDMDL
MODEL 5
REMARK VINA RESULT:    -4.561      3.090      5.125
REMARK INTER + INTRA:          -7.294
REMARK INTER:                  -6.840
REMARK INTRA:                  -0.454
REMARK UNBOUND:                -0.601
REMARK SMILES O=C([O-])CCCCCCCC(=O)[O-]
REMARK SMILES IDX 7 1 6 2 5 3 4 4 2 5 1 6 3 7 8 8 9 9 10 10 11 11 12 12 13 13
REMARK H PARENT
REMARK Flexibility Score: inf
ROOT
ATOM      1  C   UNL     1      -9.483  -2.628  17.949  1.00  0.00     0.000 C 
ENDROOT
BRANCH   1   2
ATOM      2  C   UNL     1      -8.734  -3.695  17.131  1.00  0.00     0.000 C 
BRANCH   2   3
ATOM      3  C   UNL     1      -7.656  -3.148  16.174  1.00  0.00     0.006 C 
BRANCH   3   4
ATOM      4  C   UNL     1      -7.465  -3.973  14.890  1.00  0.00     0.053 C 
BRANCH   4   5
ATOM      5  C   UNL     1      -8.193  -3.374  13.726  1.00  0.00     0.041 C 
ATOM      6  O   UNL     1      -9.264  -3.893  13.314  1.00  0.00    -0.550 OA
ATOM      7  O   UNL     1      -7.672  -2.263  13.076  1.00  0.00    -0.550 OA
ENDBRANCH   4   5
ENDBRANCH   3   4
ENDBRANCH   2   3
ENDBRANCH   1   2
BRANCH   1   8
ATOM      8  C   UNL     1     -10.998  -2.629  17.693  1.00  0.00     0.000 C 
BRANCH   8   9
ATOM      9  C   UNL     1     -11.336  -3.380  16.397  1.00  0.00     0.006 C 
BRANCH   9  10
ATOM     10  C   UNL     1     -12.832  -3.708  16.289  1.00  0.00     0.053 C 
BRANCH  10  11
ATOM     11  C   UNL     1     -13.380  -3.367  14.937  1.00  0.00     0.041 C 
ATOM     12  O   UNL     1     -12.646  -3.445  13.918  1.00  0.00    -0.550 OA
ATOM     13  O   UNL     1     -14.711  -2.996  14.800  1.00  0.00    -0.550 OA
ENDBRANCH  10  11
ENDBRANCH   9  10
ENDBRANCH   8   9
ENDBRANCH   1   8
TORSDOF 8
ENDMDL
MODEL 6
REMARK VINA RESULT:    -4.556      2.732      5.158
REMARK INTER + INTRA:          -7.287
REMARK INTER:                  -6.733
REMARK INTRA:                  -0.554
REMARK UNBOUND:                -0.601
REMARK SMILES O=C([O-])CCCCCCCC(=O)[O-]
REMARK SMILES IDX 7 1 6 2 5 3 4 4 2 5 1 6 3 7 8 8 9 9 10 10 11 11 12 12 13 13
REMARK H PARENT
REMARK Flexibility Score: inf
ROOT
ATOM      1  C   UNL     1     -13.080  -3.388  15.114  1.00  0.00     0.000 C 
ENDROOT
BRANCH   1   2
ATOM      2  C   UNL     1     -12.108  -3.721  13.968  1.00  0.00     0.000 C 
BRANCH   2   3
ATOM      3  C   UNL     1     -12.142  -5.186  13.487  1.00  0.00     0.006 C 
BRANCH   3   4
ATOM      4  C   UNL     1     -10.830  -5.957  13.700  1.00  0.00     0.053 C 
BRANCH   4   5
ATOM      5  C   UNL     1     -10.992  -7.082  14.676  1.00  0.00     0.041 C 
ATOM      6  O   UNL     1     -10.613  -8.244  14.372  1.00  0.00    -0.550 OA
ATOM      7  O   UNL     1     -11.593  -6.854  15.907  1.00  0.00    -0.550 OA
ENDBRANCH   4   5
ENDBRANCH   3   4
ENDBRANCH   2   3
ENDBRANCH   1   2
BRANCH   1   8
ATOM      8  C   UNL     1     -12.422  -3.468  16.500  1.00  0.00     0.000 C 
BRANCH   8   9
ATOM      9  C   UNL     1     -10.898  -3.318  16.395  1.00  0.00     0.006 C 
BRANCH   9  10
ATOM     10  C   UNL     1     -10.291  -2.664  17.644  1.00  0.00     0.053 C 
BRANCH  10  11
ATOM     11  C   UNL     1      -8.824  -2.941  17.761  1.00  0.00     0.041 C 
ATOM     12  O   UNL     1      -8.132  -3.138  16.728  1.00  0.00    -0.550 OA
ATOM     13  O   UNL     1      -8.213  -2.949  19.009  1.00  0.00    -0.550 OA
ENDBRANCH  10  11
ENDBRANCH   9  10
ENDBRANCH   8   9
ENDBRANCH   1   8
TORSDOF 8
ENDMDL
MODEL 7
REMARK VINA RESULT:    -4.545      3.058      5.098
REMARK INTER + INTRA:          -7.271
REMARK INTER:                  -6.899
REMARK INTRA:                  -0.372
REMARK UNBOUND:                -0.601
REMARK SMILES O=C([O-])CCCCCCCC(=O)[O-]
REMARK SMILES IDX 7 1 6 2 5 3 4 4 2 5 1 6 3 7 8 8 9 9 10 10 11 11 12 12 13 13
REMARK H PARENT
REMARK Flexibility Score: inf
ROOT
ATOM      1  C   UNL     1     -10.973  -3.364  16.491  1.00  0.00     0.000 C 
ENDROOT
BRANCH   1   2
ATOM      2  C   UNL     1     -12.504  -3.483  16.590  1.00  0.00     0.000 C 
BRANCH   2   3
ATOM      3  C   UNL     1     -13.257  -3.371  15.249  1.00  0.00     0.006 C 
BRANCH   3   4
ATOM      4  C   UNL     1     -12.391  -3.639  14.007  1.00  0.00     0.053 C 
BRANCH   4   5
ATOM      5  C   UNL     1     -12.503  -2.538  12.998  1.00  0.00     0.041 C 
ATOM      6  O   UNL     1     -11.779  -2.546  11.967  1.00  0.00    -0.550 OA
ATOM      7  O   UNL     1     -13.383  -1.485  13.211  1.00  0.00    -0.550 OA
ENDBRANCH   4   5
ENDBRANCH   3   4
ENDBRANCH   2   3
ENDBRANCH   1   2
BRANCH   1   8
ATOM      8  C   UNL     1     -10.349  -2.629  17.687  1.00  0.00     0.000 C 
BRANCH   8   9
ATOM      9  C   UNL     1      -8.847  -2.930  17.795  1.00  0.00     0.006 C 
BRANCH   9  10
ATOM     10  C   UNL     1      -8.309  -3.650  16.551  1.00  0.00     0.053 C 
BRANCH  10  11
ATOM     11  C   UNL     1      -7.120  -2.946  15.972  1.00  0.00     0.041 C 
ATOM     12  O   UNL     1      -7.088  -2.657  14.748  1.00  0.00    -0.550 OA
ATOM     13  O   UNL     1      -6.061  -2.579  16.793  1.00  0.00    -0.550 OA
ENDBRANCH  10  11
ENDBRANCH   9  10
ENDBRANCH   8   9
ENDBRANCH   1   8
TORSDOF 8
ENDMDL
MODEL 8
REMARK VINA RESULT:    -4.534      3.191      6.043
REMARK INTER + INTRA:          -7.255
REMARK INTER:                  -6.475
REMARK INTRA:                  -0.781
REMARK UNBOUND:                -0.601
REMARK SMILES O=C([O-])CCCCCCCC(=O)[O-]
REMARK SMILES IDX 7 1 6 2 5 3 4 4 2 5 1 6 3 7 8 8 9 9 10 10 11 11 12 12 13 13
REMARK H PARENT
REMARK Flexibility Score: inf
ROOT
ATOM      1  C   UNL     1     -11.212  -6.734  13.735  1.00  0.00     0.000 C 
ENDROOT
BRANCH   1   2
ATOM      2  C   UNL     1     -12.590  -6.656  13.054  1.00  0.00     0.000 C 
BRANCH   2   3
ATOM      3  C   UNL     1     -12.818  -5.408  12.179  1.00  0.00     0.006 C 
BRANCH   3   4
ATOM      4  C   UNL     1     -11.564  -4.907  11.442  1.00  0.00     0.053 C 
BRANCH   4   5
ATOM      5  C   UNL     1     -11.508  -5.404  10.030  1.00  0.00     0.041 C 
ATOM      6  O   UNL     1     -12.571  -5.594   9.383  1.00  0.00    -0.550 OA
ATOM      7  O   UNL     1     -10.284  -5.689   9.441  1.00  0.00    -0.550 OA
ENDBRANCH   4   5
ENDBRANCH   3   4
ENDBRANCH   2   3
ENDBRANCH   1   2
BRANCH   1   8
ATOM      8  C   UNL     1     -11.228  -6.219  15.183  1.00  0.00     0.000 C 
BRANCH   8   9
ATOM      9  C   UNL     1     -10.256  -5.044  15.360  1.00  0.00     0.006 C 
BRANCH   9  10
ATOM     10  C   UNL     1     -10.905  -3.697  15.012  1.00  0.00     0.053 C 
BRANCH  10  11
ATOM     11  C   UNL     1     -12.179  -3.481  15.769  1.00  0.00     0.041 C 
ATOM     12  O   UNL     1     -12.158  -3.342  17.019  1.00  0.00    -0.550 OA
ATOM     13  O   UNL     1     -13.388  -3.399  15.088  1.00  0.00    -0.550 OA
ENDBRANCH  10  11
ENDBRANCH   9  10
ENDBRANCH   8   9
ENDBRANCH   1   8
TORSDOF 8
ENDMDL
MODEL 9
REMARK VINA RESULT:    -4.532      2.531      3.963
REMARK INTER + INTRA:          -7.252
REMARK INTER:                  -6.554
REMARK INTRA:                  -0.699
REMARK UNBOUND:                -0.601
REMARK SMILES O=C([O-])CCCCCCCC(=O)[O-]
REMARK SMILES IDX 7 1 6 2 5 3 4 4 2 5 1 6 3 7 8 8 9 9 10 10 11 11 12 12 13 13
REMARK H PARENT
REMARK Flexibility Score: inf
ROOT
ATOM      1  C   UNL     1     -11.382  -3.039  17.358  1.00  0.00     0.000 C 
ENDROOT
BRANCH   1   2
ATOM      2  C   UNL     1     -10.046  -2.309  17.585  1.00  0.00     0.000 C 
BRANCH   2   3
ATOM      3  C   UNL     1      -8.835  -3.227  17.843  1.00  0.00     0.006 C 
BRANCH   3   4
ATOM      4  C   UNL     1      -7.667  -3.032  16.862  1.00  0.00     0.053 C 
BRANCH   4   5
ATOM      5  C   UNL     1      -7.966  -3.609  15.512  1.00  0.00     0.041 C 
ATOM      6  O   UNL     1      -8.282  -2.853  14.556  1.00  0.00    -0.550 OA
ATOM      7  O   UNL     1      -7.930  -4.984  15.320  1.00  0.00    -0.550 OA
ENDBRANCH   4   5
ENDBRANCH   3   4
ENDBRANCH   2   3
ENDBRANCH   1   2
BRANCH   1   8
ATOM      8  C   UNL     1     -11.657  -3.342  15.877  1.00  0.00     0.000 C 
BRANCH   8   9
ATOM      9  C   UNL     1     -11.520  -4.844  15.589  1.00  0.00     0.006 C 
BRANCH   9  10
ATOM     10  C   UNL     1     -11.249  -5.127  14.105  1.00  0.00     0.053 C 
BRANCH  10  11
ATOM     11  C   UNL     1     -11.553  -6.550  13.746  1.00  0.00     0.041 C 
ATOM     12  O   UNL     1     -12.537  -6.821  13.010  1.00  0.00    -0.550 OA
ATOM     13  O   UNL     1     -10.728  -7.573  14.196  1.00  0.00    -0.550 OA
ENDBRANCH  10  11
ENDBRANCH   9  10
ENDBRANCH   8   9
ENDBRANCH   1   8
TORSDOF 8
ENDMDL
