MODEL 1
REMARK VINA RESULT:    86.838      0.000      0.000
REMARK INTER + INTRA:          89.376
REMARK INTER:                  89.376
REMARK INTRA:                   0.000
REMARK UNBOUND:                 0.000
REMARK SMILES CC1(C)CC[C@@]2(C)CC[C@]3(C)C(=CC[C@@H]4[C@@]5(C)CC[C@H](O)C(C)(C)[C@H]5CC[C@]43C)[C@H]2C1
REMARK SMILES IDX 1 1 2 2 4 3 5 4 6 5 8 6 9 7 10 8 12 9 13 10 14 11 15 12
REMARK SMILES IDX 28 13 27 14 26 15 25 16 16 17 18 18 19 19 20 20 22 21 23 22
REMARK SMILES IDX 24 23 17 24 29 25 30 26 31 27 11 28 7 29 3 30 21 31
REMARK H PARENT 21 32
REMARK Flexibility Score: inf
ROOT
ATOM      1  C   UNL     1     -37.255  19.403   5.930  1.00  0.00     0.011 C 
ATOM      2  C   UNL     1     -37.047  19.870   7.389  1.00  0.00    -0.035 C 
ATOM      3  C   UNL     1     -38.120  20.939   7.788  1.00  0.00     0.007 C 
ATOM      4  C   UNL     1     -37.518  22.270   8.282  1.00  0.00     0.008 C 
ATOM      5  C   UNL     1     -36.523  22.878   7.249  1.00  0.00    -0.026 C 
ATOM      6  C   UNL     1     -35.911  24.176   7.865  1.00  0.00     0.008 C 
ATOM      7  C   UNL     1     -34.694  24.779   7.088  1.00  0.00     0.012 C 
ATOM      8  C   UNL     1     -33.655  23.750   6.457  1.00  0.00    -0.006 C 
ATOM      9  C   UNL     1     -33.984  22.427   7.184  1.00  0.00    -0.064 C 
ATOM     10  C   UNL     1     -33.361  22.188   8.367  1.00  0.00    -0.027 C 
ATOM     11  C   UNL     1     -32.277  23.089   8.868  1.00  0.00     0.032 C 
ATOM     12  C   UNL     1     -31.320  23.354   7.702  1.00  0.00     0.006 C 
ATOM     13  C   UNL     1     -32.060  24.192   6.591  1.00  0.00    -0.020 C 
ATOM     14  C   UNL     1     -31.222  23.874   5.314  1.00  0.00     0.008 C 
ATOM     15  C   UNL     1     -29.721  24.209   5.397  1.00  0.00     0.005 C 
ATOM     16  C   UNL     1     -28.990  24.187   6.793  1.00  0.00     0.003 C 
ATOM     17  C   UNL     1     -29.842  23.778   8.091  1.00  0.00    -0.025 C 
ATOM     18  C   UNL     1     -29.174  22.565   8.835  1.00  0.00     0.010 C 
ATOM     19  C   UNL     1     -27.668  22.697   9.122  1.00  0.00     0.033 C 
ATOM     20  C   UNL     1     -26.872  23.486   8.065  1.00  0.00     0.120 C 
ATOM     21  C   UNL     1     -27.563  23.508   6.672  1.00  0.00    -0.006 C 
ATOM     22  C   UNL     1     -26.657  24.343   5.721  1.00  0.00     0.014 C 
ATOM     23  C   UNL     1     -27.646  22.060   6.090  1.00  0.00     0.014 C 
ATOM     24  C   UNL     1     -29.861  24.954   9.122  1.00  0.00     0.012 C 
ATOM     25  C   UNL     1     -31.957  25.732   6.812  1.00  0.00     0.012 C 
ATOM     26  C   UNL     1     -35.381  21.820   6.910  1.00  0.00     0.022 C 
ATOM     27  C   UNL     1     -35.607  20.426   7.574  1.00  0.00     0.015 C 
ATOM     28  C   UNL     1     -34.011  23.619   4.940  1.00  0.00     0.017 C 
ATOM     29  C   UNL     1     -37.357  23.298   5.997  1.00  0.00     0.012 C 
ATOM     30  C   UNL     1     -37.205  18.627   8.297  1.00  0.00     0.011 C 
ENDROOT
BRANCH  20  31
ATOM     31  O   UNL     1     -26.657  24.802   8.518  1.00  0.00    -0.393 OA
ATOM     32  H   UNL     1     -27.544  25.178   8.755  1.00  0.00     0.210 HD
ENDBRANCH  20  31
TORSDOF 1
ENDMDL
