MODEL 1
REMARK VINA RESULT:    -3.465      0.000      0.000
REMARK INTER + INTRA:          -3.769
REMARK INTER:                  -3.769
REMARK INTRA:                   0.000
REMARK UNBOUND:                 0.000
REMARK SMILES [NH3+]CC(=O)[O-]
REMARK SMILES IDX 2 1 1 2 3 6 4 7 5 8
REMARK H PARENT 1 3 1 4 1 5
REMARK Flexibility Score: inf
ROOT
ATOM      1  C   UNL     1      17.075  37.599 -22.974  1.00  0.00     0.312 C 
ENDROOT
BRANCH   1   2
ATOM      2  N   UNL     1      17.957  38.531 -22.274  1.00  0.00    -0.353 N 
ATOM      3  H   UNL     1      17.941  38.314 -21.252  1.00  0.00     0.344 HD
ATOM      4  H   UNL     1      17.628  39.513 -22.418  1.00  0.00     0.344 HD
ATOM      5  H   UNL     1      18.937  38.431 -22.626  1.00  0.00     0.344 HD
ENDBRANCH   1   2
BRANCH   1   6
ATOM      6  C   UNL     1      17.769  36.292 -23.210  1.00  0.00     0.096 C 
ATOM      7  O   UNL     1      19.009  36.263 -23.425  1.00  0.00    -0.544 OA
ATOM      8  O   UNL     1      17.037  35.113 -23.243  1.00  0.00    -0.544 OA
ENDBRANCH   1   6
TORSDOF 2
ENDMDL
MODEL 2
REMARK VINA RESULT:    -3.244     23.331     23.656
REMARK INTER + INTRA:          -3.528
REMARK INTER:                  -3.528
REMARK INTRA:                   0.000
REMARK UNBOUND:                 0.000
REMARK SMILES [NH3+]CC(=O)[O-]
REMARK SMILES IDX 2 1 1 2 3 6 4 7 5 8
REMARK H PARENT 1 3 1 4 1 5
REMARK Flexibility Score: inf
ROOT
ATOM      1  C   UNL     1      13.144  53.165  -8.026  1.00  0.00     0.312 C 
ENDROOT
BRANCH   1   2
ATOM      2  N   UNL     1      14.128  52.093  -7.883  1.00  0.00    -0.353 N 
ATOM      3  H   UNL     1      14.886  52.410  -7.236  1.00  0.00     0.344 HD
ATOM      4  H   UNL     1      14.549  51.864  -8.812  1.00  0.00     0.344 HD
ATOM      5  H   UNL     1      13.674  51.240  -7.480  1.00  0.00     0.344 HD
ENDBRANCH   1   2
BRANCH   1   6
ATOM      6  C   UNL     1      13.615  54.409  -7.335  1.00  0.00     0.096 C 
ATOM      7  O   UNL     1      14.555  55.088  -7.825  1.00  0.00    -0.544 OA
ATOM      8  O   UNL     1      13.048  54.788  -6.126  1.00  0.00    -0.544 OA
ENDBRANCH   1   6
TORSDOF 2
ENDMDL
MODEL 3
REMARK VINA RESULT:    -3.048      2.268      2.422
REMARK INTER + INTRA:          -3.315
REMARK INTER:                  -3.315
REMARK INTRA:                   0.000
REMARK UNBOUND:                 0.000
REMARK SMILES [NH3+]CC(=O)[O-]
REMARK SMILES IDX 2 1 1 2 3 6 4 7 5 8
REMARK H PARENT 1 3 1 4 1 5
REMARK Flexibility Score: inf
ROOT
ATOM      1  C   UNL     1      17.218  35.943 -23.379  1.00  0.00     0.312 C 
ENDROOT
BRANCH   1   2
ATOM      2  N   UNL     1      17.877  34.875 -22.628  1.00  0.00    -0.353 N 
ATOM      3  H   UNL     1      18.891  35.106 -22.526  1.00  0.00     0.344 HD
ATOM      4  H   UNL     1      17.786  33.967 -23.139  1.00  0.00     0.344 HD
ATOM      5  H   UNL     1      17.451  34.790 -21.676  1.00  0.00     0.344 HD
ENDBRANCH   1   2
BRANCH   1   6
ATOM      6  C   UNL     1      18.000  37.217 -23.280  1.00  0.00     0.096 C 
ATOM      7  O   UNL     1      19.165  37.284 -23.753  1.00  0.00    -0.544 OA
ATOM      8  O   UNL     1      17.461  38.313 -22.620  1.00  0.00    -0.544 OA
ENDBRANCH   1   6
TORSDOF 2
ENDMDL
MODEL 4
REMARK VINA RESULT:    -2.511     23.207     23.500
REMARK INTER + INTRA:          -2.731
REMARK INTER:                  -2.731
REMARK INTRA:                   0.000
REMARK UNBOUND:                 0.000
REMARK SMILES [NH3+]CC(=O)[O-]
REMARK SMILES IDX 2 1 1 2 3 6 4 7 5 8
REMARK H PARENT 1 3 1 4 1 5
REMARK Flexibility Score: inf
ROOT
ATOM      1  C   UNL     1      13.551  54.746  -7.421  1.00  0.00     0.312 C 
ENDROOT
BRANCH   1   2
ATOM      2  N   UNL     1      13.082  55.108  -6.085  1.00  0.00    -0.353 N 
ATOM      3  H   UNL     1      13.906  55.340  -5.485  1.00  0.00     0.344 HD
ATOM      4  H   UNL     1      12.566  54.306  -5.655  1.00  0.00     0.344 HD
ATOM      5  H   UNL     1      12.455  55.944  -6.138  1.00  0.00     0.344 HD
ENDBRANCH   1   2
BRANCH   1   6
ATOM      6  C   UNL     1      13.472  53.264  -7.625  1.00  0.00     0.096 C 
ATOM      7  O   UNL     1      14.115  52.486  -6.872  1.00  0.00    -0.544 OA
ATOM      8  O   UNL     1      12.729  52.746  -8.678  1.00  0.00    -0.544 OA
ENDBRANCH   1   6
TORSDOF 2
ENDMDL
MODEL 5
REMARK VINA RESULT:    -2.101     18.737     18.963
REMARK INTER + INTRA:          -2.285
REMARK INTER:                  -2.285
REMARK INTRA:                   0.000
REMARK UNBOUND:                 0.000
REMARK SMILES [NH3+]CC(=O)[O-]
REMARK SMILES IDX 2 1 1 2 3 6 4 7 5 8
REMARK H PARENT 1 3 1 4 1 5
REMARK Flexibility Score: inf
ROOT
ATOM      1  C   UNL     1      28.396  36.001  -8.335  1.00  0.00     0.312 C 
ENDROOT
BRANCH   1   2
ATOM      2  N   UNL     1      27.564  37.128  -8.753  1.00  0.00    -0.353 N 
ATOM      3  H   UNL     1      26.575  36.804  -8.851  1.00  0.00     0.344 HD
ATOM      4  H   UNL     1      27.894  37.496  -9.674  1.00  0.00     0.344 HD
ATOM      5  H   UNL     1      27.601  37.888  -8.034  1.00  0.00     0.344 HD
ENDBRANCH   1   2
BRANCH   1   6
ATOM      6  C   UNL     1      28.299  35.793  -6.854  1.00  0.00     0.096 C 
ATOM      7  O   UNL     1      29.125  35.048  -6.264  1.00  0.00    -0.544 OA
ATOM      8  O   UNL     1      27.267  36.382  -6.137  1.00  0.00    -0.544 OA
ENDBRANCH   1   6
TORSDOF 2
ENDMDL
MODEL 6
REMARK VINA RESULT:    -1.939     12.755     13.062
REMARK INTER + INTRA:          -2.109
REMARK INTER:                  -2.109
REMARK INTRA:                   0.000
REMARK UNBOUND:                 0.000
REMARK SMILES [NH3+]CC(=O)[O-]
REMARK SMILES IDX 2 1 1 2 3 6 4 7 5 8
REMARK H PARENT 1 3 1 4 1 5
REMARK Flexibility Score: inf
ROOT
ATOM      1  C   UNL     1      20.831  45.338 -12.731  1.00  0.00     0.312 C 
ENDROOT
BRANCH   1   2
ATOM      2  N   UNL     1      21.864  45.337 -11.696  1.00  0.00    -0.353 N 
ATOM      3  H   UNL     1      21.409  45.240 -10.760  1.00  0.00     0.344 HD
ATOM      4  H   UNL     1      22.400  46.234 -11.722  1.00  0.00     0.344 HD
ATOM      5  H   UNL     1      22.517  44.531 -11.840  1.00  0.00     0.344 HD
ENDBRANCH   1   2
BRANCH   1   6
ATOM      6  C   UNL     1      20.575  43.945 -13.222  1.00  0.00     0.096 C 
ATOM      7  O   UNL     1      19.414  43.459 -13.170  1.00  0.00    -0.544 OA
ATOM      8  O   UNL     1      21.627  43.168 -13.687  1.00  0.00    -0.544 OA
ENDBRANCH   1   6
TORSDOF 2
ENDMDL
MODEL 7
REMARK VINA RESULT:    -1.888     12.854     13.251
REMARK INTER + INTRA:          -2.054
REMARK INTER:                  -2.054
REMARK INTRA:                   0.000
REMARK UNBOUND:                 0.000
REMARK SMILES [NH3+]CC(=O)[O-]
REMARK SMILES IDX 2 1 1 2 3 6 4 7 5 8
REMARK H PARENT 1 3 1 4 1 5
REMARK Flexibility Score: inf
ROOT
ATOM      1  C   UNL     1      21.012  43.529 -13.584  1.00  0.00     0.312 C 
ENDROOT
BRANCH   1   2
ATOM      2  N   UNL     1      22.396  43.175 -13.273  1.00  0.00    -0.353 N 
ATOM      3  H   UNL     1      23.038  43.786 -13.827  1.00  0.00     0.344 HD
ATOM      4  H   UNL     1      22.576  42.176 -13.525  1.00  0.00     0.344 HD
ATOM      5  H   UNL     1      22.584  43.322 -12.254  1.00  0.00     0.344 HD
ENDBRANCH   1   2
BRANCH   1   6
ATOM      6  C   UNL     1      20.715  44.931 -13.145  1.00  0.00     0.096 C 
ATOM      7  O   UNL     1      20.048  45.699 -13.886  1.00  0.00    -0.544 OA
ATOM      8  O   UNL     1      21.219  45.402 -11.940  1.00  0.00    -0.544 OA
ENDBRANCH   1   6
TORSDOF 2
ENDMDL
MODEL 8
REMARK VINA RESULT:    -1.864     12.788     13.036
REMARK INTER + INTRA:          -2.027
REMARK INTER:                  -2.027
REMARK INTRA:                   0.000
REMARK UNBOUND:                 0.000
REMARK SMILES [NH3+]CC(=O)[O-]
REMARK SMILES IDX 2 1 1 2 3 6 4 7 5 8
REMARK H PARENT 1 3 1 4 1 5
REMARK Flexibility Score: inf
ROOT
ATOM      1  C   UNL     1      20.855  45.322 -12.631  1.00  0.00     0.312 C 
ENDROOT
BRANCH   1   2
ATOM      2  N   UNL     1      21.959  45.312 -11.673  1.00  0.00    -0.353 N 
ATOM      3  H   UNL     1      22.474  44.405 -11.755  1.00  0.00     0.344 HD
ATOM      4  H   UNL     1      21.591  45.405 -10.699  1.00  0.00     0.344 HD
ATOM      5  H   UNL     1      22.621  46.096 -11.879  1.00  0.00     0.344 HD
ENDBRANCH   1   2
BRANCH   1   6
ATOM      6  C   UNL     1      20.608  43.944 -13.166  1.00  0.00     0.096 C 
ATOM      7  O   UNL     1      21.558  43.270 -13.643  1.00  0.00    -0.544 OA
ATOM      8  O   UNL     1      19.319  43.428 -13.183  1.00  0.00    -0.544 OA
ENDBRANCH   1   6
TORSDOF 2
ENDMDL
MODEL 9
REMARK VINA RESULT:    -1.811     18.387     18.641
REMARK INTER + INTRA:          -1.970
REMARK INTER:                  -1.970
REMARK INTRA:                   0.000
REMARK UNBOUND:                 0.000
REMARK SMILES [NH3+]CC(=O)[O-]
REMARK SMILES IDX 2 1 1 2 3 6 4 7 5 8
REMARK H PARENT 1 3 1 4 1 5
REMARK Flexibility Score: inf
ROOT
ATOM      1  C   UNL     1      27.836  36.000  -6.943  1.00  0.00     0.312 C 
ENDROOT
BRANCH   1   2
ATOM      2  N   UNL     1      28.780  35.249  -6.118  1.00  0.00    -0.353 N 
ATOM      3  H   UNL     1      29.148  34.440  -6.670  1.00  0.00     0.344 HD
ATOM      4  H   UNL     1      28.301  34.886  -5.263  1.00  0.00     0.344 HD
ATOM      5  H   UNL     1      29.582  35.862  -5.841  1.00  0.00     0.344 HD
ENDBRANCH   1   2
BRANCH   1   6
ATOM      6  C   UNL     1      28.342  36.119  -8.349  1.00  0.00     0.096 C 
ATOM      7  O   UNL     1      29.125  35.250  -8.815  1.00  0.00    -0.544 OA
ATOM      8  O   UNL     1      27.988  37.215  -9.124  1.00  0.00    -0.544 OA
ENDBRANCH   1   6
TORSDOF 2
ENDMDL
