MODEL 1
REMARK VINA RESULT:    -3.341      0.000      0.000
REMARK INTER + INTRA:          -4.324
REMARK INTER:                  -4.123
REMARK INTRA:                  -0.202
REMARK UNBOUND:                -0.202
REMARK SMILES CCCCCC(=O)[O-]
REMARK SMILES IDX 4 1 5 2 6 3 7 4 8 5 3 6 2 7 1 8
REMARK H PARENT
REMARK Flexibility Score: inf
ROOT
ATOM      1  C   UNL     1      26.448  27.516 -17.207  1.00  0.00     0.006 C 
ENDROOT
BRANCH   1   2
ATOM      2  C   UNL     1      25.065  27.798 -16.613  1.00  0.00     0.053 C 
BRANCH   2   3
ATOM      3  C   UNL     1      25.058  29.117 -15.907  1.00  0.00     0.041 C 
ATOM      4  O   UNL     1      25.122  30.189 -16.565  1.00  0.00    -0.550 OA
ATOM      5  O   UNL     1      25.029  29.162 -14.519  1.00  0.00    -0.550 OA
ENDBRANCH   2   3
ENDBRANCH   1   2
BRANCH   1   6
ATOM      6  C   UNL     1      26.369  27.354 -18.729  1.00  0.00     0.000 C 
BRANCH   6   7
ATOM      7  C   UNL     1      27.428  28.214 -19.430  1.00  0.00    -0.003 C 
ATOM      8  C   UNL     1      27.950  29.308 -18.504  1.00  0.00     0.004 C 
ENDBRANCH   6   7
ENDBRANCH   1   6
TORSDOF 4
ENDMDL
MODEL 2
REMARK VINA RESULT:    -3.336     21.491     22.146
REMARK INTER + INTRA:          -4.317
REMARK INTER:                  -4.197
REMARK INTRA:                  -0.120
REMARK UNBOUND:                -0.202
REMARK SMILES CCCCCC(=O)[O-]
REMARK SMILES IDX 4 1 5 2 6 3 7 4 8 5 3 6 2 7 1 8
REMARK H PARENT
REMARK Flexibility Score: inf
ROOT
ATOM      1  C   UNL     1      34.194  14.735  -1.779  1.00  0.00     0.006 C 
ENDROOT
BRANCH   1   2
ATOM      2  C   UNL     1      33.138  13.627  -1.775  1.00  0.00     0.053 C 
BRANCH   2   3
ATOM      3  C   UNL     1      31.960  14.028  -0.945  1.00  0.00     0.041 C 
ATOM      4  O   UNL     1      31.101  13.171  -0.608  1.00  0.00    -0.550 OA
ATOM      5  O   UNL     1      31.785  15.357  -0.584  1.00  0.00    -0.550 OA
ENDBRANCH   2   3
ENDBRANCH   1   2
BRANCH   1   6
ATOM      6  C   UNL     1      34.995  14.728  -3.086  1.00  0.00     0.000 C 
BRANCH   6   7
ATOM      7  C   UNL     1      34.607  13.531  -3.962  1.00  0.00    -0.003 C 
ATOM      8  C   UNL     1      35.427  13.501  -5.248  1.00  0.00     0.004 C 
ENDBRANCH   6   7
ENDBRANCH   1   6
TORSDOF 4
ENDMDL
MODEL 3
REMARK VINA RESULT:    -3.277      0.836      1.379
REMARK INTER + INTRA:          -4.245
REMARK INTER:                  -4.046
REMARK INTRA:                  -0.200
REMARK UNBOUND:                -0.202
REMARK SMILES CCCCCC(=O)[O-]
REMARK SMILES IDX 4 1 5 2 6 3 7 4 8 5 3 6 2 7 1 8
REMARK H PARENT
REMARK Flexibility Score: inf
ROOT
ATOM      1  C   UNL     1      26.998  27.698 -17.566  1.00  0.00     0.006 C 
ENDROOT
BRANCH   1   2
ATOM      2  C   UNL     1      25.524  27.593 -17.162  1.00  0.00     0.053 C 
BRANCH   2   3
ATOM      3  C   UNL     1      25.243  28.460 -15.976  1.00  0.00     0.041 C 
ATOM      4  O   UNL     1      24.859  27.947 -14.892  1.00  0.00    -0.550 OA
ATOM      5  O   UNL     1      25.359  29.840 -16.081  1.00  0.00    -0.550 OA
ENDBRANCH   2   3
ENDBRANCH   1   2
BRANCH   1   6
ATOM      6  C   UNL     1      27.141  27.869 -19.082  1.00  0.00     0.000 C 
BRANCH   6   7
ATOM      7  C   UNL     1      27.473  29.321 -19.444  1.00  0.00    -0.003 C 
ATOM      8  C   UNL     1      28.231  30.012 -18.314  1.00  0.00     0.004 C 
ENDBRANCH   6   7
ENDBRANCH   1   6
TORSDOF 4
ENDMDL
MODEL 4
REMARK VINA RESULT:    -3.204      2.704      3.938
REMARK INTER + INTRA:          -4.155
REMARK INTER:                  -4.051
REMARK INTRA:                  -0.105
REMARK UNBOUND:                -0.202
REMARK SMILES CCCCCC(=O)[O-]
REMARK SMILES IDX 4 1 5 2 6 3 7 4 8 5 3 6 2 7 1 8
REMARK H PARENT
REMARK Flexibility Score: inf
ROOT
ATOM      1  C   UNL     1      27.121  28.186 -17.858  1.00  0.00     0.006 C 
ENDROOT
BRANCH   1   2
ATOM      2  C   UNL     1      26.854  29.683 -18.043  1.00  0.00     0.053 C 
BRANCH   2   3
ATOM      3  C   UNL     1      27.932  30.310 -18.868  1.00  0.00     0.041 C 
ATOM      4  O   UNL     1      27.892  30.237 -20.125  1.00  0.00    -0.550 OA
ATOM      5  O   UNL     1      29.008  30.933 -18.249  1.00  0.00    -0.550 OA
ENDBRANCH   2   3
ENDBRANCH   1   2
BRANCH   1   6
ATOM      6  C   UNL     1      25.958  27.506 -17.128  1.00  0.00     0.000 C 
BRANCH   6   7
ATOM      7  C   UNL     1      25.186  28.511 -16.265  1.00  0.00    -0.003 C 
ATOM      8  C   UNL     1      24.883  27.935 -14.885  1.00  0.00     0.004 C 
ENDBRANCH   6   7
ENDBRANCH   1   6
TORSDOF 4
ENDMDL
MODEL 5
REMARK VINA RESULT:    -3.122     21.321     22.158
REMARK INTER + INTRA:          -4.054
REMARK INTER:                  -3.976
REMARK INTRA:                  -0.078
REMARK UNBOUND:                -0.202
REMARK SMILES CCCCCC(=O)[O-]
REMARK SMILES IDX 4 1 5 2 6 3 7 4 8 5 3 6 2 7 1 8
REMARK H PARENT
REMARK Flexibility Score: inf
ROOT
ATOM      1  C   UNL     1      34.655  14.817  -2.492  1.00  0.00     0.006 C 
ENDROOT
BRANCH   1   2
ATOM      2  C   UNL     1      34.644  13.694  -3.533  1.00  0.00     0.053 C 
BRANCH   2   3
ATOM      3  C   UNL     1      35.477  14.069  -4.717  1.00  0.00     0.041 C 
ATOM      4  O   UNL     1      36.131  15.146  -4.717  1.00  0.00    -0.550 OA
ATOM      5  O   UNL     1      35.492  13.255  -5.842  1.00  0.00    -0.550 OA
ENDBRANCH   2   3
ENDBRANCH   1   2
BRANCH   1   6
ATOM      6  C   UNL     1      34.122  14.322  -1.143  1.00  0.00     0.000 C 
BRANCH   6   7
ATOM      7  C   UNL     1      32.600  14.139  -1.187  1.00  0.00    -0.003 C 
ATOM      8  C   UNL     1      31.887  15.275  -0.459  1.00  0.00     0.004 C 
ENDBRANCH   6   7
ENDBRANCH   1   6
TORSDOF 4
ENDMDL
MODEL 6
REMARK VINA RESULT:    -3.003     14.225     14.921
REMARK INTER + INTRA:          -3.907
REMARK INTER:                  -3.826
REMARK INTRA:                  -0.080
REMARK UNBOUND:                -0.202
REMARK SMILES CCCCCC(=O)[O-]
REMARK SMILES IDX 4 1 5 2 6 3 7 4 8 5 3 6 2 7 1 8
REMARK H PARENT
REMARK Flexibility Score: inf
ROOT
ATOM      1  C   UNL     1      34.187  15.747 -17.771  1.00  0.00     0.006 C 
ENDROOT
BRANCH   1   2
ATOM      2  C   UNL     1      34.706  17.187 -17.819  1.00  0.00     0.053 C 
BRANCH   2   3
ATOM      3  C   UNL     1      33.841  18.027 -18.705  1.00  0.00     0.041 C 
ATOM      4  O   UNL     1      33.674  17.710 -19.913  1.00  0.00    -0.550 OA
ATOM      5  O   UNL     1      33.258  19.186 -18.211  1.00  0.00    -0.550 OA
ENDBRANCH   2   3
ENDBRANCH   1   2
BRANCH   1   6
ATOM      6  C   UNL     1      34.747  15.000 -16.556  1.00  0.00     0.000 C 
BRANCH   6   7
ATOM      7  C   UNL     1      33.917  13.748 -16.249  1.00  0.00    -0.003 C 
ATOM      8  C   UNL     1      32.440  14.091 -16.085  1.00  0.00     0.004 C 
ENDBRANCH   6   7
ENDBRANCH   1   6
TORSDOF 4
ENDMDL
MODEL 7
REMARK VINA RESULT:    -2.998     14.655     15.311
REMARK INTER + INTRA:          -3.901
REMARK INTER:                  -3.798
REMARK INTRA:                  -0.102
REMARK UNBOUND:                -0.202
REMARK SMILES CCCCCC(=O)[O-]
REMARK SMILES IDX 4 1 5 2 6 3 7 4 8 5 3 6 2 7 1 8
REMARK H PARENT
REMARK Flexibility Score: inf
ROOT
ATOM      1  C   UNL     1      34.015  15.875 -17.876  1.00  0.00     0.006 C 
ENDROOT
BRANCH   1   2
ATOM      2  C   UNL     1      34.688  15.101 -16.738  1.00  0.00     0.053 C 
BRANCH   2   3
ATOM      3  C   UNL     1      33.770  14.046 -16.208  1.00  0.00     0.041 C 
ATOM      4  O   UNL     1      32.524  14.233 -16.203  1.00  0.00    -0.550 OA
ATOM      5  O   UNL     1      34.292  12.875 -15.675  1.00  0.00    -0.550 OA
ENDBRANCH   2   3
ENDBRANCH   1   2
BRANCH   1   6
ATOM      6  C   UNL     1      34.658  17.255 -18.059  1.00  0.00     0.000 C 
BRANCH   6   7
ATOM      7  C   UNL     1      33.610  18.302 -18.452  1.00  0.00    -0.003 C 
ATOM      8  C   UNL     1      32.275  17.647 -18.794  1.00  0.00     0.004 C 
ENDBRANCH   6   7
ENDBRANCH   1   6
TORSDOF 4
ENDMDL
MODEL 8
REMARK VINA RESULT:    -2.979      2.734      3.935
REMARK INTER + INTRA:          -3.877
REMARK INTER:                  -3.701
REMARK INTRA:                  -0.176
REMARK UNBOUND:                -0.202
REMARK SMILES CCCCCC(=O)[O-]
REMARK SMILES IDX 4 1 5 2 6 3 7 4 8 5 3 6 2 7 1 8
REMARK H PARENT
REMARK Flexibility Score: inf
ROOT
ATOM      1  C   UNL     1      25.807  29.991 -17.781  1.00  0.00     0.006 C 
ENDROOT
BRANCH   1   2
ATOM      2  C   UNL     1      26.839  31.101 -17.563  1.00  0.00     0.053 C 
BRANCH   2   3
ATOM      3  C   UNL     1      28.133  30.750 -18.224  1.00  0.00     0.041 C 
ATOM      4  O   UNL     1      29.216  31.229 -17.794  1.00  0.00    -0.550 OA
ATOM      5  O   UNL     1      28.141  29.931 -19.346  1.00  0.00    -0.550 OA
ENDBRANCH   2   3
ENDBRANCH   1   2
BRANCH   1   6
ATOM      6  C   UNL     1      25.279  29.461 -16.443  1.00  0.00     0.000 C 
BRANCH   6   7
ATOM      7  C   UNL     1      25.420  27.936 -16.362  1.00  0.00    -0.003 C 
ATOM      8  C   UNL     1      26.370  27.412 -17.435  1.00  0.00     0.004 C 
ENDBRANCH   6   7
ENDBRANCH   1   6
TORSDOF 4
ENDMDL
MODEL 9
REMARK VINA RESULT:    -2.945      1.472      2.228
REMARK INTER + INTRA:          -3.836
REMARK INTER:                  -3.593
REMARK INTRA:                  -0.242
REMARK UNBOUND:                -0.202
REMARK SMILES CCCCCC(=O)[O-]
REMARK SMILES IDX 4 1 5 2 6 3 7 4 8 5 3 6 2 7 1 8
REMARK H PARENT
REMARK Flexibility Score: inf
ROOT
ATOM      1  C   UNL     1      27.504  28.235 -18.169  1.00  0.00     0.006 C 
ENDROOT
BRANCH   1   2
ATOM      2  C   UNL     1      26.491  29.314 -17.775  1.00  0.00     0.053 C 
BRANCH   2   3
ATOM      3  C   UNL     1      25.653  28.852 -16.626  1.00  0.00     0.041 C 
ATOM      4  O   UNL     1      24.970  29.679 -15.966  1.00  0.00    -0.550 OA
ATOM      5  O   UNL     1      25.663  27.514 -16.253  1.00  0.00    -0.550 OA
ENDBRANCH   2   3
ENDBRANCH   1   2
BRANCH   1   6
ATOM      6  C   UNL     1      27.220  27.702 -19.578  1.00  0.00     0.000 C 
BRANCH   6   7
ATOM      7  C   UNL     1      26.471  26.366 -19.521  1.00  0.00    -0.003 C 
ATOM      8  C   UNL     1      24.971  26.566 -19.717  1.00  0.00     0.004 C 
ENDBRANCH   6   7
ENDBRANCH   1   6
TORSDOF 4
ENDMDL
