MODEL 1
REMARK VINA RESULT:    -3.397      0.000      0.000
REMARK INTER + INTRA:          -4.000
REMARK INTER:                  -3.694
REMARK INTRA:                  -0.306
REMARK UNBOUND:                -0.306
REMARK SMILES CC(=O)c1cc(C)ccc1O
REMARK SMILES IDX 7 1 6 2 5 3 4 4 10 5 9 6 8 7 2 8 3 9 1 10 11 11
REMARK H PARENT 11 12
REMARK Flexibility Score: inf
ROOT
ATOM      1  C   UNL     1      27.650  28.504  25.988  1.00  0.00     0.044 C 
ATOM      2  C   UNL     1      27.786  27.027  25.763  1.00  0.00    -0.050 A 
ATOM      3  C   UNL     1      26.741  26.159  26.112  1.00  0.00     0.019 A 
ATOM      4  C   UNL     1      26.863  24.768  25.933  1.00  0.00     0.059 A 
ATOM      5  C   UNL     1      28.079  24.249  25.428  1.00  0.00     0.126 A 
ATOM      6  C   UNL     1      29.125  25.121  25.094  1.00  0.00     0.047 A 
ATOM      7  C   UNL     1      28.983  26.498  25.264  1.00  0.00     0.007 A 
ENDROOT
BRANCH   4   8
ATOM      8  C   UNL     1      25.714  23.896  26.298  1.00  0.00     0.163 C 
ATOM      9  O   UNL     1      25.304  23.036  25.472  1.00  0.00    -0.294 OA
ATOM     10  C   UNL     1      25.017  23.997  27.621  1.00  0.00     0.093 C 
ENDBRANCH   4   8
BRANCH   5  11
ATOM     11  O   UNL     1      28.265  22.875  25.282  1.00  0.00    -0.507 OA
ATOM     12  H   UNL     1      27.521  22.212  25.472  1.00  0.00     0.293 HD
ENDBRANCH   5  11
TORSDOF 2
ENDMDL
MODEL 2
REMARK VINA RESULT:    -3.321      2.749      4.271
REMARK INTER + INTRA:          -3.918
REMARK INTER:                  -3.616
REMARK INTRA:                  -0.302
REMARK UNBOUND:                -0.306
REMARK SMILES CC(=O)c1cc(C)ccc1O
REMARK SMILES IDX 7 1 6 2 5 3 4 4 10 5 9 6 8 7 2 8 3 9 1 10 11 11
REMARK H PARENT 11 12
REMARK Flexibility Score: inf
ROOT
ATOM      1  C   UNL     1      28.105  30.797  23.313  1.00  0.00     0.044 C 
ATOM      2  C   UNL     1      28.413  30.060  24.583  1.00  0.00    -0.050 A 
ATOM      3  C   UNL     1      28.181  28.680  24.674  1.00  0.00     0.019 A 
ATOM      4  C   UNL     1      28.439  27.978  25.866  1.00  0.00     0.059 A 
ATOM      5  C   UNL     1      28.904  28.696  26.994  1.00  0.00     0.126 A 
ATOM      6  C   UNL     1      29.121  30.078  26.900  1.00  0.00     0.047 A 
ATOM      7  C   UNL     1      28.874  30.756  25.707  1.00  0.00     0.007 A 
ENDROOT
BRANCH   4   8
ATOM      8  C   UNL     1      28.197  26.510  25.900  1.00  0.00     0.163 C 
ATOM      9  O   UNL     1      29.018  25.762  26.497  1.00  0.00    -0.294 OA
ATOM     10  C   UNL     1      27.005  25.877  25.248  1.00  0.00     0.093 C 
ENDBRANCH   4   8
BRANCH   5  11
ATOM     11  O   UNL     1      29.124  28.053  28.211  1.00  0.00    -0.507 OA
ATOM     12  H   UNL     1      29.609  28.509  28.976  1.00  0.00     0.293 HD
ENDBRANCH   5  11
TORSDOF 2
ENDMDL
MODEL 3
REMARK VINA RESULT:    -3.270      4.496      5.426
REMARK INTER + INTRA:          -3.863
REMARK INTER:                  -3.692
REMARK INTRA:                  -0.171
REMARK UNBOUND:                -0.306
REMARK SMILES CC(=O)c1cc(C)ccc1O
REMARK SMILES IDX 7 1 6 2 5 3 4 4 10 5 9 6 8 7 2 8 3 9 1 10 11 11
REMARK H PARENT 11 12
REMARK Flexibility Score: inf
ROOT
ATOM      1  C   UNL     1      29.078  33.163  24.112  1.00  0.00     0.044 C 
ATOM      2  C   UNL     1      29.039  31.664  24.163  1.00  0.00    -0.050 A 
ATOM      3  C   UNL     1      28.986  30.999  25.397  1.00  0.00     0.019 A 
ATOM      4  C   UNL     1      28.976  29.593  25.463  1.00  0.00     0.059 A 
ATOM      5  C   UNL     1      29.059  28.852  24.260  1.00  0.00     0.126 A 
ATOM      6  C   UNL     1      29.125  29.524  23.030  1.00  0.00     0.047 A 
ATOM      7  C   UNL     1      29.120  30.917  22.981  1.00  0.00     0.007 A 
ENDROOT
BRANCH   4   8
ATOM      8  C   UNL     1      28.896  28.941  26.798  1.00  0.00     0.163 C 
ATOM      9  O   UNL     1      29.113  27.702  26.894  1.00  0.00    -0.294 OA
ATOM     10  C   UNL     1      28.566  29.701  28.047  1.00  0.00     0.093 C 
ENDBRANCH   4   8
BRANCH   5  11
ATOM     11  O   UNL     1      29.104  27.459  24.279  1.00  0.00    -0.507 OA
ATOM     12  H   UNL     1      29.828  26.955  24.779  1.00  0.00     0.293 HD
ENDBRANCH   5  11
TORSDOF 2
ENDMDL
MODEL 4
REMARK VINA RESULT:    -3.213      1.383      1.697
REMARK INTER + INTRA:          -3.800
REMARK INTER:                  -3.543
REMARK INTRA:                  -0.257
REMARK UNBOUND:                -0.306
REMARK SMILES CC(=O)c1cc(C)ccc1O
REMARK SMILES IDX 7 1 6 2 5 3 4 4 10 5 9 6 8 7 2 8 3 9 1 10 11 11
REMARK H PARENT 11 12
REMARK Flexibility Score: inf
ROOT
ATOM      1  C   UNL     1      27.277  28.921  25.031  1.00  0.00     0.044 C 
ATOM      2  C   UNL     1      27.648  27.507  25.364  1.00  0.00    -0.050 A 
ATOM      3  C   UNL     1      26.810  26.447  24.986  1.00  0.00     0.019 A 
ATOM      4  C   UNL     1      27.130  25.116  25.314  1.00  0.00     0.059 A 
ATOM      5  C   UNL     1      28.298  24.862  26.072  1.00  0.00     0.126 A 
ATOM      6  C   UNL     1      29.125  25.928  26.459  1.00  0.00     0.047 A 
ATOM      7  C   UNL     1      28.801  27.239  26.113  1.00  0.00     0.007 A 
ENDROOT
BRANCH   4   8
ATOM      8  C   UNL     1      26.218  24.029  24.867  1.00  0.00     0.163 C 
ATOM      9  O   UNL     1      25.527  23.412  25.723  1.00  0.00    -0.294 OA
ATOM     10  C   UNL     1      26.083  23.634  23.428  1.00  0.00     0.093 C 
ENDBRANCH   4   8
BRANCH   5  11
ATOM     11  O   UNL     1      28.629  23.567  26.465  1.00  0.00    -0.507 OA
ATOM     12  H   UNL     1      27.987  22.989  26.996  1.00  0.00     0.293 HD
ENDBRANCH   5  11
TORSDOF 2
ENDMDL
MODEL 5
REMARK VINA RESULT:    -3.105      1.736      4.139
REMARK INTER + INTRA:          -3.682
REMARK INTER:                  -3.377
REMARK INTRA:                  -0.305
REMARK UNBOUND:                -0.306
REMARK SMILES CC(=O)c1cc(C)ccc1O
REMARK SMILES IDX 7 1 6 2 5 3 4 4 10 5 9 6 8 7 2 8 3 9 1 10 11 11
REMARK H PARENT 11 12
REMARK Flexibility Score: inf
ROOT
ATOM      1  C   UNL     1      24.906  23.239  28.608  1.00  0.00     0.044 C 
ATOM      2  C   UNL     1      25.340  23.278  27.173  1.00  0.00    -0.050 A 
ATOM      3  C   UNL     1      26.604  23.780  26.830  1.00  0.00     0.019 A 
ATOM      4  C   UNL     1      27.017  23.849  25.486  1.00  0.00     0.059 A 
ATOM      5  C   UNL     1      26.117  23.438  24.474  1.00  0.00     0.126 A 
ATOM      6  C   UNL     1      24.849  22.950  24.823  1.00  0.00     0.047 A 
ATOM      7  C   UNL     1      24.461  22.875  26.160  1.00  0.00     0.007 A 
ENDROOT
BRANCH   4   8
ATOM      8  C   UNL     1      28.377  24.368  25.180  1.00  0.00     0.163 C 
ATOM      9  O   UNL     1      29.099  23.756  24.346  1.00  0.00    -0.294 OA
ATOM     10  C   UNL     1      28.932  25.600  25.828  1.00  0.00     0.093 C 
ENDBRANCH   4   8
BRANCH   5  11
ATOM     11  O   UNL     1      26.461  23.536  23.127  1.00  0.00    -0.507 OA
ATOM     12  H   UNL     1      26.125  24.294  22.543  1.00  0.00     0.293 HD
ENDBRANCH   5  11
TORSDOF 2
ENDMDL
MODEL 6
REMARK VINA RESULT:    -2.844      1.546      3.699
REMARK INTER + INTRA:          -3.399
REMARK INTER:                  -3.236
REMARK INTRA:                  -0.163
REMARK UNBOUND:                -0.306
REMARK SMILES CC(=O)c1cc(C)ccc1O
REMARK SMILES IDX 7 1 6 2 5 3 4 4 10 5 9 6 8 7 2 8 3 9 1 10 11 11
REMARK H PARENT 11 12
REMARK Flexibility Score: inf
ROOT
ATOM      1  C   UNL     1      24.313  24.001  27.654  1.00  0.00     0.044 C 
ATOM      2  C   UNL     1      25.601  24.055  26.887  1.00  0.00    -0.050 A 
ATOM      3  C   UNL     1      26.200  25.290  26.597  1.00  0.00     0.019 A 
ATOM      4  C   UNL     1      27.394  25.361  25.855  1.00  0.00     0.059 A 
ATOM      5  C   UNL     1      27.967  24.162  25.368  1.00  0.00     0.126 A 
ATOM      6  C   UNL     1      27.356  22.931  25.651  1.00  0.00     0.047 A 
ATOM      7  C   UNL     1      26.181  22.878  26.399  1.00  0.00     0.007 A 
ENDROOT
BRANCH   4   8
ATOM      8  C   UNL     1      27.998  26.696  25.596  1.00  0.00     0.163 C 
ATOM      9  O   UNL     1      29.125  26.765  25.034  1.00  0.00    -0.294 OA
ATOM     10  C   UNL     1      27.316  27.975  25.978  1.00  0.00     0.093 C 
ENDBRANCH   4   8
BRANCH   5  11
ATOM     11  O   UNL     1      29.121  24.185  24.586  1.00  0.00    -0.507 OA
ATOM     12  H   UNL     1      30.028  23.936  24.964  1.00  0.00     0.293 HD
ENDBRANCH   5  11
TORSDOF 2
ENDMDL
MODEL 7
REMARK VINA RESULT:    -2.544      1.949      2.700
REMARK INTER + INTRA:          -3.073
REMARK INTER:                  -2.768
REMARK INTRA:                  -0.305
REMARK UNBOUND:                -0.306
REMARK SMILES CC(=O)c1cc(C)ccc1O
REMARK SMILES IDX 7 1 6 2 5 3 4 4 10 5 9 6 8 7 2 8 3 9 1 10 11 11
REMARK H PARENT 11 12
REMARK Flexibility Score: inf
ROOT
ATOM      1  C   UNL     1      29.125  25.395  25.747  1.00  0.00     0.044 C 
ATOM      2  C   UNL     1      27.787  24.774  25.475  1.00  0.00    -0.050 A 
ATOM      3  C   UNL     1      26.894  24.530  26.529  1.00  0.00     0.019 A 
ATOM      4  C   UNL     1      25.645  23.924  26.296  1.00  0.00     0.059 A 
ATOM      5  C   UNL     1      25.315  23.525  24.978  1.00  0.00     0.126 A 
ATOM      6  C   UNL     1      26.218  23.760  23.931  1.00  0.00     0.047 A 
ATOM      7  C   UNL     1      27.445  24.375  24.178  1.00  0.00     0.007 A 
ENDROOT
BRANCH   4   8
ATOM      8  C   UNL     1      24.727  23.709  27.447  1.00  0.00     0.163 C 
ATOM      9  O   UNL     1      23.532  24.105  27.366  1.00  0.00    -0.294 OA
ATOM     10  C   UNL     1      25.166  23.035  28.711  1.00  0.00     0.093 C 
ENDBRANCH   4   8
BRANCH   5  11
ATOM     11  O   UNL     1      24.112  22.875  24.706  1.00  0.00    -0.507 OA
ATOM     12  H   UNL     1      23.700  22.219  25.361  1.00  0.00     0.293 HD
ENDBRANCH   5  11
TORSDOF 2
ENDMDL
MODEL 8
REMARK VINA RESULT:    -2.462      3.008      4.367
REMARK INTER + INTRA:          -2.983
REMARK INTER:                  -2.836
REMARK INTRA:                  -0.147
REMARK UNBOUND:                -0.306
REMARK SMILES CC(=O)c1cc(C)ccc1O
REMARK SMILES IDX 7 1 6 2 5 3 4 4 10 5 9 6 8 7 2 8 3 9 1 10 11 11
REMARK H PARENT 11 12
REMARK Flexibility Score: inf
ROOT
ATOM      1  C   UNL     1      22.542  22.915  27.256  1.00  0.00     0.044 C 
ATOM      2  C   UNL     1      24.033  23.016  27.123  1.00  0.00    -0.050 A 
ATOM      3  C   UNL     1      24.621  23.185  25.861  1.00  0.00     0.019 A 
ATOM      4  C   UNL     1      26.020  23.254  25.716  1.00  0.00     0.059 A 
ATOM      5  C   UNL     1      26.833  23.110  26.865  1.00  0.00     0.126 A 
ATOM      6  C   UNL     1      26.239  22.927  28.123  1.00  0.00     0.047 A 
ATOM      7  C   UNL     1      24.851  22.875  28.251  1.00  0.00     0.007 A 
ENDROOT
BRANCH   4   8
ATOM      8  C   UNL     1      26.589  23.459  24.357  1.00  0.00     0.163 C 
ATOM      9  O   UNL     1      27.841  23.504  24.212  1.00  0.00    -0.294 OA
ATOM     10  C   UNL     1      25.729  23.614  23.140  1.00  0.00     0.093 C 
ENDBRANCH   4   8
BRANCH   5  11
ATOM     11  O   UNL     1      28.223  23.120  26.765  1.00  0.00    -0.507 OA
ATOM     12  H   UNL     1      28.800  22.458  27.272  1.00  0.00     0.293 HD
ENDBRANCH   5  11
TORSDOF 2
ENDMDL
MODEL 9
REMARK VINA RESULT:    -2.294      5.546      7.504
REMARK INTER + INTRA:          -2.801
REMARK INTER:                  -3.237
REMARK INTRA:                   0.437
REMARK UNBOUND:                -0.306
REMARK SMILES CC(=O)c1cc(C)ccc1O
REMARK SMILES IDX 7 1 6 2 5 3 4 4 10 5 9 6 8 7 2 8 3 9 1 10 11 11
REMARK H PARENT 11 12
REMARK Flexibility Score: inf
ROOT
ATOM      1  C   UNL     1      28.669  34.168  21.304  1.00  0.00     0.044 C 
ATOM      2  C   UNL     1      28.826  33.387  22.574  1.00  0.00    -0.050 A 
ATOM      3  C   UNL     1      28.729  31.987  22.561  1.00  0.00     0.019 A 
ATOM      4  C   UNL     1      28.847  31.240  23.748  1.00  0.00     0.059 A 
ATOM      5  C   UNL     1      29.028  31.928  24.972  1.00  0.00     0.126 A 
ATOM      6  C   UNL     1      29.110  33.328  24.980  1.00  0.00     0.047 A 
ATOM      7  C   UNL     1      29.006  34.052  23.793  1.00  0.00     0.007 A 
ENDROOT
BRANCH   4   8
ATOM      8  C   UNL     1      28.760  29.757  23.672  1.00  0.00     0.163 C 
ATOM      9  O   UNL     1      29.120  29.170  22.616  1.00  0.00    -0.294 OA
ATOM     10  C   UNL     1      28.257  28.922  24.811  1.00  0.00     0.093 C 
ENDBRANCH   4   8
BRANCH   5  11
ATOM     11  O   UNL     1      29.099  31.235  26.179  1.00  0.00    -0.507 OA
ATOM     12  H   UNL     1      29.591  30.352  26.260  1.00  0.00     0.293 HD
ENDBRANCH   5  11
TORSDOF 2
ENDMDL
