MODEL 1
REMARK VINA RESULT:    -3.614      0.000      0.000
REMARK INTER + INTRA:          -4.312
REMARK INTER:                  -4.248
REMARK INTRA:                  -0.064
REMARK UNBOUND:                -0.064
REMARK SMILES O=C([O-])CCC(=O)[O-]
REMARK SMILES IDX 4 1 2 2 1 3 3 4 5 5 6 6 7 7 8 8
REMARK H PARENT
REMARK Flexibility Score: inf
ROOT
ATOM      1  C   UNL     1       3.325  42.601  69.038  1.00  0.00     0.059 C 
ENDROOT
BRANCH   1   2
ATOM      2  C   UNL     1       2.969  43.243  67.731  1.00  0.00     0.042 C 
ATOM      3  O   UNL     1       2.403  44.366  67.710  1.00  0.00    -0.550 OA
ATOM      4  O   UNL     1       3.303  42.617  66.536  1.00  0.00    -0.550 OA
ENDBRANCH   1   2
BRANCH   1   5
ATOM      5  C   UNL     1       2.750  43.381  70.224  1.00  0.00     0.059 C 
BRANCH   5   6
ATOM      6  C   UNL     1       3.797  43.658  71.260  1.00  0.00     0.042 C 
ATOM      7  O   UNL     1       3.525  44.369  72.263  1.00  0.00    -0.550 OA
ATOM      8  O   UNL     1       5.062  43.098  71.137  1.00  0.00    -0.550 OA
ENDBRANCH   5   6
ENDBRANCH   1   5
TORSDOF 3
ENDMDL
MODEL 2
REMARK VINA RESULT:    -3.608      0.405      4.034
REMARK INTER + INTRA:          -4.306
REMARK INTER:                  -4.241
REMARK INTRA:                  -0.064
REMARK UNBOUND:                -0.064
REMARK SMILES O=C([O-])CCC(=O)[O-]
REMARK SMILES IDX 4 1 2 2 1 3 3 4 5 5 6 6 7 7 8 8
REMARK H PARENT
REMARK Flexibility Score: inf
ROOT
ATOM      1  C   UNL     1       2.724  43.091  70.320  1.00  0.00     0.059 C 
ENDROOT
BRANCH   1   2
ATOM      2  C   UNL     1       3.794  43.558  71.259  1.00  0.00     0.042 C 
ATOM      3  O   UNL     1       3.512  44.343  72.202  1.00  0.00    -0.550 OA
ATOM      4  O   UNL     1       5.095  43.092  71.117  1.00  0.00    -0.550 OA
ENDBRANCH   1   2
BRANCH   1   5
ATOM      5  C   UNL     1       3.309  42.630  68.982  1.00  0.00     0.059 C 
BRANCH   5   6
ATOM      6  C   UNL     1       2.830  43.483  67.848  1.00  0.00     0.042 C 
ATOM      7  O   UNL     1       3.354  43.376  66.708  1.00  0.00    -0.550 OA
ATOM      8  O   UNL     1       1.776  44.368  68.040  1.00  0.00    -0.550 OA
ENDBRANCH   5   6
ENDBRANCH   1   5
TORSDOF 3
ENDMDL
MODEL 3
REMARK VINA RESULT:    -3.220     12.775     14.476
REMARK INTER + INTRA:          -3.849
REMARK INTER:                  -3.818
REMARK INTRA:                  -0.031
REMARK UNBOUND:                -0.064
REMARK SMILES O=C([O-])CCC(=O)[O-]
REMARK SMILES IDX 4 1 2 2 1 3 3 4 5 5 6 6 7 7 8 8
REMARK H PARENT
REMARK Flexibility Score: inf
ROOT
ATOM      1  C   UNL     1      16.199  40.276  74.021  1.00  0.00     0.059 C 
ENDROOT
BRANCH   1   2
ATOM      2  C   UNL     1      17.182  39.286  74.568  1.00  0.00     0.042 C 
ATOM      3  O   UNL     1      17.790  38.502  73.794  1.00  0.00    -0.550 OA
ATOM      4  O   UNL     1      17.457  39.258  75.930  1.00  0.00    -0.550 OA
ENDBRANCH   1   2
BRANCH   1   5
ATOM      5  C   UNL     1      16.660  41.717  74.258  1.00  0.00     0.059 C 
BRANCH   5   6
ATOM      6  C   UNL     1      15.599  42.704  73.878  1.00  0.00     0.042 C 
ATOM      7  O   UNL     1      15.916  43.825  73.400  1.00  0.00    -0.550 OA
ATOM      8  O   UNL     1      14.257  42.370  74.014  1.00  0.00    -0.550 OA
ENDBRANCH   5   6
ENDBRANCH   1   5
TORSDOF 3
ENDMDL
MODEL 4
REMARK VINA RESULT:    -3.209     12.752     14.262
REMARK INTER + INTRA:          -3.837
REMARK INTER:                  -3.806
REMARK INTRA:                  -0.031
REMARK UNBOUND:                -0.064
REMARK SMILES O=C([O-])CCC(=O)[O-]
REMARK SMILES IDX 4 1 2 2 1 3 3 4 5 5 6 6 7 7 8 8
REMARK H PARENT
REMARK Flexibility Score: inf
ROOT
ATOM      1  C   UNL     1      16.610  41.730  74.286  1.00  0.00     0.059 C 
ENDROOT
BRANCH   1   2
ATOM      2  C   UNL     1      15.544  42.694  73.861  1.00  0.00     0.042 C 
ATOM      3  O   UNL     1      15.856  43.791  73.329  1.00  0.00    -0.550 OA
ATOM      4  O   UNL     1      14.203  42.361  74.016  1.00  0.00    -0.550 OA
ENDBRANCH   1   2
BRANCH   1   5
ATOM      5  C   UNL     1      16.184  40.278  74.049  1.00  0.00     0.059 C 
BRANCH   5   6
ATOM      6  C   UNL     1      17.203  39.312  74.572  1.00  0.00     0.042 C 
ATOM      7  O   UNL     1      17.451  39.258  75.805  1.00  0.00    -0.550 OA
ATOM      8  O   UNL     1      17.850  38.445  73.701  1.00  0.00    -0.550 OA
ENDBRANCH   5   6
ENDBRANCH   1   5
TORSDOF 3
ENDMDL
MODEL 5
REMARK VINA RESULT:    -3.197      5.961      6.650
REMARK INTER + INTRA:          -3.823
REMARK INTER:                  -3.709
REMARK INTRA:                  -0.114
REMARK UNBOUND:                -0.064
REMARK SMILES O=C([O-])CCC(=O)[O-]
REMARK SMILES IDX 4 1 2 2 1 3 3 4 5 5 6 6 7 7 8 8
REMARK H PARENT
REMARK Flexibility Score: inf
ROOT
ATOM      1  C   UNL     1       7.561  47.760  70.238  1.00  0.00     0.059 C 
ENDROOT
BRANCH   1   2
ATOM      2  C   UNL     1       6.362  47.151  69.577  1.00  0.00     0.042 C 
ATOM      3  O   UNL     1       5.805  47.734  68.611  1.00  0.00    -0.550 OA
ATOM      4  O   UNL     1       5.885  45.917  70.004  1.00  0.00    -0.550 OA
ENDBRANCH   1   2
BRANCH   1   5
ATOM      5  C   UNL     1       8.515  48.380  69.213  1.00  0.00     0.059 C 
BRANCH   5   6
ATOM      6  C   UNL     1       9.522  47.385  68.724  1.00  0.00     0.042 C 
ATOM      7  O   UNL     1       9.293  46.708  67.688  1.00  0.00    -0.550 OA
ATOM      8  O   UNL     1      10.731  47.233  69.392  1.00  0.00    -0.550 OA
ENDBRANCH   5   6
ENDBRANCH   1   5
TORSDOF 3
ENDMDL
MODEL 6
REMARK VINA RESULT:    -3.174      5.956      6.721
REMARK INTER + INTRA:          -3.795
REMARK INTER:                  -3.676
REMARK INTRA:                  -0.119
REMARK UNBOUND:                -0.064
REMARK SMILES O=C([O-])CCC(=O)[O-]
REMARK SMILES IDX 4 1 2 2 1 3 3 4 5 5 6 6 7 7 8 8
REMARK H PARENT
REMARK Flexibility Score: inf
ROOT
ATOM      1  C   UNL     1       8.501  48.426  69.312  1.00  0.00     0.059 C 
ENDROOT
BRANCH   1   2
ATOM      2  C   UNL     1       9.514  47.461  68.777  1.00  0.00     0.042 C 
ATOM      3  O   UNL     1      10.587  47.255  69.402  1.00  0.00    -0.550 OA
ATOM      4  O   UNL     1       9.254  46.756  67.607  1.00  0.00    -0.550 OA
ENDBRANCH   1   2
BRANCH   1   5
ATOM      5  C   UNL     1       7.524  47.743  70.274  1.00  0.00     0.059 C 
BRANCH   5   6
ATOM      6  C   UNL     1       6.373  47.124  69.542  1.00  0.00     0.042 C 
ATOM      7  O   UNL     1       5.911  46.012  69.911  1.00  0.00    -0.550 OA
ATOM      8  O   UNL     1       5.784  47.794  68.477  1.00  0.00    -0.550 OA
ENDBRANCH   5   6
ENDBRANCH   1   5
TORSDOF 3
ENDMDL
MODEL 7
REMARK VINA RESULT:    -3.111     10.178     11.001
REMARK INTER + INTRA:          -3.721
REMARK INTER:                  -3.609
REMARK INTRA:                  -0.112
REMARK UNBOUND:                -0.064
REMARK SMILES O=C([O-])CCC(=O)[O-]
REMARK SMILES IDX 4 1 2 2 1 3 3 4 5 5 6 6 7 7 8 8
REMARK H PARENT
REMARK Flexibility Score: inf
ROOT
ATOM      1  C   UNL     1       7.248  33.771  67.270  1.00  0.00     0.059 C 
ENDROOT
BRANCH   1   2
ATOM      2  C   UNL     1       8.052  32.511  67.165  1.00  0.00     0.042 C 
ATOM      3  O   UNL     1       9.265  32.502  67.500  1.00  0.00    -0.550 OA
ATOM      4  O   UNL     1       7.449  31.335  66.736  1.00  0.00    -0.550 OA
ENDBRANCH   1   2
BRANCH   1   5
ATOM      5  C   UNL     1       7.790  34.696  68.363  1.00  0.00     0.059 C 
BRANCH   5   6
ATOM      6  C   UNL     1       7.063  34.503  69.659  1.00  0.00     0.042 C 
ATOM      7  O   UNL     1       7.412  33.589  70.452  1.00  0.00    -0.550 OA
ATOM      8  O   UNL     1       6.025  35.358  70.008  1.00  0.00    -0.550 OA
ENDBRANCH   5   6
ENDBRANCH   1   5
TORSDOF 3
ENDMDL
MODEL 8
REMARK VINA RESULT:    -3.108     10.181     11.409
REMARK INTER + INTRA:          -3.717
REMARK INTER:                  -3.606
REMARK INTRA:                  -0.112
REMARK UNBOUND:                -0.064
REMARK SMILES O=C([O-])CCC(=O)[O-]
REMARK SMILES IDX 4 1 2 2 1 3 3 4 5 5 6 6 7 7 8 8
REMARK H PARENT
REMARK Flexibility Score: inf
ROOT
ATOM      1  C   UNL     1       7.786  34.715  68.379  1.00  0.00     0.059 C 
ENDROOT
BRANCH   1   2
ATOM      2  C   UNL     1       7.043  34.442  69.652  1.00  0.00     0.042 C 
ATOM      3  O   UNL     1       7.446  33.550  70.443  1.00  0.00    -0.550 OA
ATOM      4  O   UNL     1       5.929  35.204  69.983  1.00  0.00    -0.550 OA
ENDBRANCH   1   2
BRANCH   1   5
ATOM      5  C   UNL     1       7.282  33.836  67.232  1.00  0.00     0.059 C 
BRANCH   5   6
ATOM      6  C   UNL     1       8.041  32.547  67.150  1.00  0.00     0.042 C 
ATOM      7  O   UNL     1       9.264  32.511  67.446  1.00  0.00    -0.550 OA
ATOM      8  O   UNL     1       7.386  31.376  66.786  1.00  0.00    -0.550 OA
ENDBRANCH   5   6
ENDBRANCH   1   5
TORSDOF 3
ENDMDL
MODEL 9
REMARK VINA RESULT:    -3.105     10.609     11.656
REMARK INTER + INTRA:          -3.715
REMARK INTER:                  -3.593
REMARK INTRA:                  -0.122
REMARK UNBOUND:                -0.064
REMARK SMILES O=C([O-])CCC(=O)[O-]
REMARK SMILES IDX 4 1 2 2 1 3 3 4 5 5 6 6 7 7 8 8
REMARK H PARENT
REMARK Flexibility Score: inf
ROOT
ATOM      1  C   UNL     1       7.852  34.054  68.373  1.00  0.00     0.059 C 
ENDROOT
BRANCH   1   2
ATOM      2  C   UNL     1       6.591  34.354  67.620  1.00  0.00     0.042 C 
ATOM      3  O   UNL     1       6.645  34.839  66.460  1.00  0.00    -0.550 OA
ATOM      4  O   UNL     1       5.357  34.056  68.186  1.00  0.00    -0.550 OA
ENDBRANCH   1   2
BRANCH   1   5
ATOM      5  C   UNL     1       8.093  32.547  68.494  1.00  0.00     0.059 C 
BRANCH   5   6
ATOM      6  C   UNL     1       8.751  31.994  67.267  1.00  0.00     0.042 C 
ATOM      7  O   UNL     1       8.059  31.454  66.364  1.00  0.00    -0.550 OA
ATOM      8  O   UNL     1      10.126  32.111  67.102  1.00  0.00    -0.550 OA
ENDBRANCH   5   6
ENDBRANCH   1   5
TORSDOF 3
ENDMDL
