MODEL 1
REMARK VINA RESULT:    -5.155      0.000      0.000
REMARK INTER + INTRA:          -6.352
REMARK INTER:                  -6.059
REMARK INTRA:                  -0.292
REMARK UNBOUND:                -0.292
REMARK SMILES O=c1c(O)c(-c2ccc(O)cc2)oc2cc(O)cc(O)c12
REMARK SMILES IDX 5 1 3 2 2 3 1 4 21 5 19 6 18 7 16 8 15 9 14 10 13 11 6 12
REMARK SMILES IDX 7 13 8 14 9 15 12 16 11 17 10 18 4 20 20 22 17 24
REMARK H PARENT 10 19 4 21 20 23 17 25
REMARK Flexibility Score: inf
ROOT
ATOM      1  C   UNL     1     110.448 108.381 113.325  1.00  0.00     0.180 A 
ATOM      2  C   UNL     1     109.713 107.306 113.855  1.00  0.00     0.208 A 
ATOM      3  C   UNL     1     108.316 107.410 113.935  1.00  0.00     0.238 A 
ATOM      4  O   UNL     1     107.668 106.467 114.460  1.00  0.00    -0.285 OA
ATOM      5  C   UNL     1     107.669 108.581 113.470  1.00  0.00     0.111 A 
ATOM      6  C   UNL     1     106.255 108.778 113.467  1.00  0.00     0.134 A 
ATOM      7  C   UNL     1     105.733 110.027 113.105  1.00  0.00     0.093 A 
ATOM      8  C   UNL     1     106.567 111.062 112.686  1.00  0.00     0.123 A 
ATOM      9  C   UNL     1     107.947 110.861 112.629  1.00  0.00     0.094 A 
ATOM     10  C   UNL     1     108.500 109.638 113.017  1.00  0.00     0.146 A 
ATOM     11  O   UNL     1     109.818 109.491 112.959  1.00  0.00    -0.452 OA
ENDROOT
BRANCH   1  12
ATOM     12  C   UNL     1     111.921 108.336 113.185  1.00  0.00     0.021 A 
ATOM     13  C   UNL     1     112.531 107.901 111.993  1.00  0.00     0.016 A 
ATOM     14  C   UNL     1     113.924 107.890 111.875  1.00  0.00     0.047 A 
ATOM     15  C   UNL     1     114.725 108.323 112.940  1.00  0.00     0.115 A 
ATOM     16  C   UNL     1     112.732 108.788 114.239  1.00  0.00     0.016 A 
ATOM     17  C   UNL     1     114.125 108.775 114.119  1.00  0.00     0.047 A 
BRANCH  15  18
ATOM     18  O   UNL     1     116.114 108.315 112.834  1.00  0.00    -0.508 OA
ATOM     19  H   UNL     1     116.701 108.024 113.606  1.00  0.00     0.293 HD
ENDBRANCH  15  18
ENDBRANCH   1  12
BRANCH   2  20
ATOM     20  O   UNL     1     110.374 106.168 114.327  1.00  0.00    -0.502 OA
ATOM     21  H   UNL     1     110.015 105.609 115.092  1.00  0.00     0.293 HD
ENDBRANCH   2  20
BRANCH   6  22
ATOM     22  O   UNL     1     105.327 107.781 113.780  1.00  0.00    -0.507 OA
ATOM     23  H   UNL     1     104.456 107.938 114.264  1.00  0.00     0.293 HD
ENDBRANCH   6  22
BRANCH   8  24
ATOM     24  O   UNL     1     106.013 112.286 112.319  1.00  0.00    -0.508 OA
ATOM     25  H   UNL     1     106.591 113.096 112.133  1.00  0.00     0.293 HD
ENDBRANCH   8  24
TORSDOF 5
ENDMDL
MODEL 2
REMARK VINA RESULT:    -5.014      1.742      6.959
REMARK INTER + INTRA:          -6.186
REMARK INTER:                  -5.885
REMARK INTRA:                  -0.300
REMARK UNBOUND:                -0.292
REMARK SMILES O=c1c(O)c(-c2ccc(O)cc2)oc2cc(O)cc(O)c12
REMARK SMILES IDX 5 1 3 2 2 3 1 4 21 5 19 6 18 7 16 8 15 9 14 10 13 11 6 12
REMARK SMILES IDX 7 13 8 14 9 15 12 16 11 17 10 18 4 20 20 22 17 24
REMARK H PARENT 10 19 4 21 20 23 17 25
REMARK Flexibility Score: inf
ROOT
ATOM      1  C   UNL     1     109.723 108.757 113.645  1.00  0.00     0.180 A 
ATOM      2  C   UNL     1     110.372 109.723 114.434  1.00  0.00     0.208 A 
ATOM      3  C   UNL     1     111.771 109.687 114.540  1.00  0.00     0.238 A 
ATOM      4  O   UNL     1     112.342 110.521 115.291  1.00  0.00    -0.285 OA
ATOM      5  C   UNL     1     112.505 108.696 113.844  1.00  0.00     0.111 A 
ATOM      6  C   UNL     1     113.929 108.590 113.849  1.00  0.00     0.134 A 
ATOM      7  C   UNL     1     114.541 107.492 113.231  1.00  0.00     0.093 A 
ATOM      8  C   UNL     1     113.788 106.533 112.556  1.00  0.00     0.123 A 
ATOM      9  C   UNL     1     112.399 106.659 112.494  1.00  0.00     0.094 A 
ATOM     10  C   UNL     1     111.757 107.724 113.131  1.00  0.00     0.146 A 
ATOM     11  O   UNL     1     110.434 107.801 113.059  1.00  0.00    -0.452 OA
ENDROOT
BRANCH   1  12
ATOM     12  C   UNL     1     108.254 108.745 113.464  1.00  0.00     0.021 A 
ATOM     13  C   UNL     1     107.637 109.468 112.426  1.00  0.00     0.016 A 
ATOM     14  C   UNL     1     106.249 109.423 112.260  1.00  0.00     0.047 A 
ATOM     15  C   UNL     1     105.462 108.646 113.119  1.00  0.00     0.115 A 
ATOM     16  C   UNL     1     107.458 107.952 114.308  1.00  0.00     0.016 A 
ATOM     17  C   UNL     1     106.071 107.909 114.140  1.00  0.00     0.047 A 
BRANCH  15  18
ATOM     18  O   UNL     1     104.079 108.593 112.964  1.00  0.00    -0.508 OA
ATOM     19  H   UNL     1     103.632 108.887 112.103  1.00  0.00     0.293 HD
ENDBRANCH  15  18
ENDBRANCH   1  12
BRANCH   2  20
ATOM     20  O   UNL     1     109.626 110.680 115.129  1.00  0.00    -0.502 OA
ATOM     21  H   UNL     1     108.871 110.430 115.756  1.00  0.00     0.293 HD
ENDBRANCH   2  20
BRANCH   6  22
ATOM     22  O   UNL     1     114.781 109.541 114.416  1.00  0.00    -0.507 OA
ATOM     23  H   UNL     1     115.213 109.457 115.324  1.00  0.00     0.293 HD
ENDBRANCH   6  22
BRANCH   8  24
ATOM     24  O   UNL     1     114.431 105.462 111.940  1.00  0.00    -0.508 OA
ATOM     25  H   UNL     1     114.218 104.503 112.185  1.00  0.00     0.293 HD
ENDBRANCH   8  24
TORSDOF 5
ENDMDL
MODEL 3
REMARK VINA RESULT:    -4.959      3.083      7.856
REMARK INTER + INTRA:          -6.121
REMARK INTER:                  -5.839
REMARK INTRA:                  -0.282
REMARK UNBOUND:                -0.292
REMARK SMILES O=c1c(O)c(-c2ccc(O)cc2)oc2cc(O)cc(O)c12
REMARK SMILES IDX 5 1 3 2 2 3 1 4 21 5 19 6 18 7 16 8 15 9 14 10 13 11 6 12
REMARK SMILES IDX 7 13 8 14 9 15 12 16 11 17 10 18 4 20 20 22 17 24
REMARK H PARENT 10 19 4 21 20 23 17 25
REMARK Flexibility Score: inf
ROOT
ATOM      1  C   UNL     1     113.106 108.017 114.318  1.00  0.00     0.180 A 
ATOM      2  C   UNL     1     114.070 108.050 113.295  1.00  0.00     0.208 A 
ATOM      3  C   UNL     1     115.166 107.175 113.362  1.00  0.00     0.238 A 
ATOM      4  O   UNL     1     116.053 107.248 112.472  1.00  0.00    -0.285 OA
ATOM      5  C   UNL     1     115.277 106.267 114.443  1.00  0.00     0.111 A 
ATOM      6  C   UNL     1     116.325 105.309 114.592  1.00  0.00     0.134 A 
ATOM      7  C   UNL     1     116.405 104.551 115.767  1.00  0.00     0.093 A 
ATOM      8  C   UNL     1     115.442 104.670 116.768  1.00  0.00     0.123 A 
ATOM      9  C   UNL     1     114.380 105.560 116.607  1.00  0.00     0.094 A 
ATOM     10  C   UNL     1     114.293 106.356 115.462  1.00  0.00     0.146 A 
ATOM     11  O   UNL     1     113.273 107.199 115.352  1.00  0.00    -0.452 OA
ENDROOT
BRANCH   1  12
ATOM     12  C   UNL     1     111.911 108.889 114.304  1.00  0.00     0.021 A 
ATOM     13  C   UNL     1     110.773 108.563 113.542  1.00  0.00     0.016 A 
ATOM     14  C   UNL     1     109.647 109.390 113.563  1.00  0.00     0.047 A 
ATOM     15  C   UNL     1     109.636 110.546 114.355  1.00  0.00     0.115 A 
ATOM     16  C   UNL     1     111.883 110.040 115.111  1.00  0.00     0.016 A 
ATOM     17  C   UNL     1     110.755 110.865 115.129  1.00  0.00     0.047 A 
BRANCH  15  18
ATOM     18  O   UNL     1     108.520 111.378 114.383  1.00  0.00    -0.508 OA
ATOM     19  H   UNL     1     108.609 112.379 114.514  1.00  0.00     0.293 HD
ENDBRANCH  15  18
ENDBRANCH   1  12
BRANCH   2  20
ATOM     20  O   UNL     1     113.952 108.969 112.248  1.00  0.00    -0.502 OA
ATOM     21  H   UNL     1     114.700 109.602 111.993  1.00  0.00     0.293 HD
ENDBRANCH   2  20
BRANCH   6  22
ATOM     22  O   UNL     1     117.286 105.046 113.612  1.00  0.00    -0.507 OA
ATOM     23  H   UNL     1     117.158 105.204 112.624  1.00  0.00     0.293 HD
ENDBRANCH   6  22
BRANCH   8  24
ATOM     24  O   UNL     1     115.546 103.889 117.917  1.00  0.00    -0.508 OA
ATOM     25  H   UNL     1     114.731 103.463 118.343  1.00  0.00     0.293 HD
ENDBRANCH   8  24
TORSDOF 5
ENDMDL
MODEL 4
REMARK VINA RESULT:    -4.829      2.253      3.707
REMARK INTER + INTRA:          -5.968
REMARK INTER:                  -5.683
REMARK INTRA:                  -0.285
REMARK UNBOUND:                -0.292
REMARK SMILES O=c1c(O)c(-c2ccc(O)cc2)oc2cc(O)cc(O)c12
REMARK SMILES IDX 5 1 3 2 2 3 1 4 21 5 19 6 18 7 16 8 15 9 14 10 13 11 6 12
REMARK SMILES IDX 7 13 8 14 9 15 12 16 11 17 10 18 4 20 20 22 17 24
REMARK H PARENT 10 19 4 21 20 23 17 25
REMARK Flexibility Score: inf
ROOT
ATOM      1  C   UNL     1     112.310 107.671 114.366  1.00  0.00     0.180 A 
ATOM      2  C   UNL     1     112.314 109.057 114.598  1.00  0.00     0.208 A 
ATOM      3  C   UNL     1     111.097 109.708 114.854  1.00  0.00     0.238 A 
ATOM      4  O   UNL     1     111.100 110.958 115.007  1.00  0.00    -0.285 OA
ATOM      5  C   UNL     1     109.893 108.963 114.889  1.00  0.00     0.111 A 
ATOM      6  C   UNL     1     108.607 109.514 115.177  1.00  0.00     0.134 A 
ATOM      7  C   UNL     1     107.469 108.707 115.056  1.00  0.00     0.093 A 
ATOM      8  C   UNL     1     107.574 107.358 114.721  1.00  0.00     0.123 A 
ATOM      9  C   UNL     1     108.830 106.795 114.495  1.00  0.00     0.094 A 
ATOM     10  C   UNL     1     109.982 107.582 114.573  1.00  0.00     0.146 A 
ATOM     11  O   UNL     1     111.157 107.011 114.340  1.00  0.00    -0.452 OA
ENDROOT
BRANCH   1  12
ATOM     12  C   UNL     1     113.555 106.911 114.115  1.00  0.00     0.021 A 
ATOM     13  C   UNL     1     114.097 106.795 112.821  1.00  0.00     0.016 A 
ATOM     14  C   UNL     1     115.287 106.092 112.613  1.00  0.00     0.047 A 
ATOM     15  C   UNL     1     115.958 105.507 113.694  1.00  0.00     0.115 A 
ATOM     16  C   UNL     1     114.246 106.338 115.196  1.00  0.00     0.016 A 
ATOM     17  C   UNL     1     115.436 105.635 114.985  1.00  0.00     0.047 A 
BRANCH  15  18
ATOM     18  O   UNL     1     117.144 104.804 113.498  1.00  0.00    -0.508 OA
ATOM     19  H   UNL     1     117.520 104.648 112.570  1.00  0.00     0.293 HD
ENDBRANCH  15  18
ENDBRANCH   1  12
BRANCH   2  20
ATOM     20  O   UNL     1     113.511 109.777 114.538  1.00  0.00    -0.502 OA
ATOM     21  H   UNL     1     113.760 110.476 115.227  1.00  0.00     0.293 HD
ENDBRANCH   2  20
BRANCH   6  22
ATOM     22  O   UNL     1     108.400 110.826 115.610  1.00  0.00    -0.507 OA
ATOM     23  H   UNL     1     109.128 111.514 115.728  1.00  0.00     0.293 HD
ENDBRANCH   6  22
BRANCH   8  24
ATOM     24  O   UNL     1     106.421 106.582 114.624  1.00  0.00    -0.508 OA
ATOM     25  H   UNL     1     105.826 106.414 115.426  1.00  0.00     0.293 HD
ENDBRANCH   8  24
TORSDOF 5
ENDMDL
MODEL 5
REMARK VINA RESULT:    -4.767      2.232      7.463
REMARK INTER + INTRA:          -5.895
REMARK INTER:                  -5.644
REMARK INTRA:                  -0.251
REMARK UNBOUND:                -0.292
REMARK SMILES O=c1c(O)c(-c2ccc(O)cc2)oc2cc(O)cc(O)c12
REMARK SMILES IDX 5 1 3 2 2 3 1 4 21 5 19 6 18 7 16 8 15 9 14 10 13 11 6 12
REMARK SMILES IDX 7 13 8 14 9 15 12 16 11 17 10 18 4 20 20 22 17 24
REMARK H PARENT 10 19 4 21 20 23 17 25
REMARK Flexibility Score: inf
ROOT
ATOM      1  C   UNL     1     106.842 109.310 113.957  1.00  0.00     0.180 A 
ATOM      2  C   UNL     1     107.687 110.433 113.953  1.00  0.00     0.208 A 
ATOM      3  C   UNL     1     109.071 110.244 114.098  1.00  0.00     0.238 A 
ATOM      4  O   UNL     1     109.817 111.256 114.148  1.00  0.00    -0.285 OA
ATOM      5  C   UNL     1     109.593 108.934 114.229  1.00  0.00     0.111 A 
ATOM      6  C   UNL     1     110.982 108.623 114.342  1.00  0.00     0.134 A 
ATOM      7  C   UNL     1     111.375 107.303 114.598  1.00  0.00     0.093 A 
ATOM      8  C   UNL     1     110.437 106.276 114.681  1.00  0.00     0.123 A 
ATOM      9  C   UNL     1     109.081 106.559 114.512  1.00  0.00     0.094 A 
ATOM     10  C   UNL     1     108.655 107.871 114.291  1.00  0.00     0.146 A 
ATOM     11  O   UNL     1     107.356 108.100 114.148  1.00  0.00    -0.452 OA
ENDROOT
BRANCH   1  12
ATOM     12  C   UNL     1     105.376 109.427 113.783  1.00  0.00     0.021 A 
ATOM     13  C   UNL     1     104.756 109.121 112.558  1.00  0.00     0.016 A 
ATOM     14  C   UNL     1     103.367 109.216 112.425  1.00  0.00     0.047 A 
ATOM     15  C   UNL     1     102.580 109.604 113.516  1.00  0.00     0.115 A 
ATOM     16  C   UNL     1     104.576 109.795 114.879  1.00  0.00     0.016 A 
ATOM     17  C   UNL     1     103.188 109.890 114.742  1.00  0.00     0.047 A 
BRANCH  15  18
ATOM     18  O   UNL     1     101.196 109.702 113.395  1.00  0.00    -0.508 OA
ATOM     19  H   UNL     1     100.752 110.554 113.071  1.00  0.00     0.293 HD
ENDBRANCH  15  18
ENDBRANCH   1  12
BRANCH   2  20
ATOM     20  O   UNL     1     107.149 111.718 113.843  1.00  0.00    -0.502 OA
ATOM     21  H   UNL     1     106.323 111.917 113.292  1.00  0.00     0.293 HD
ENDBRANCH   2  20
BRANCH   6  22
ATOM     22  O   UNL     1     112.007 109.560 114.185  1.00  0.00    -0.507 OA
ATOM     23  H   UNL     1     111.922 110.423 113.669  1.00  0.00     0.293 HD
ENDBRANCH   6  22
BRANCH   8  24
ATOM     24  O   UNL     1     110.865 104.972 114.921  1.00  0.00    -0.508 OA
ATOM     25  H   UNL     1     110.612 104.479 115.769  1.00  0.00     0.293 HD
ENDBRANCH   8  24
TORSDOF 5
ENDMDL
MODEL 6
REMARK VINA RESULT:    -4.662      2.112      7.492
REMARK INTER + INTRA:          -5.772
REMARK INTER:                  -5.499
REMARK INTRA:                  -0.273
REMARK UNBOUND:                -0.292
REMARK SMILES O=c1c(O)c(-c2ccc(O)cc2)oc2cc(O)cc(O)c12
REMARK SMILES IDX 5 1 3 2 2 3 1 4 21 5 19 6 18 7 16 8 15 9 14 10 13 11 6 12
REMARK SMILES IDX 7 13 8 14 9 15 12 16 11 17 10 18 4 20 20 22 17 24
REMARK H PARENT 10 19 4 21 20 23 17 25
REMARK Flexibility Score: inf
ROOT
ATOM      1  C   UNL     1     111.267 107.384 113.572  1.00  0.00     0.180 A 
ATOM      2  C   UNL     1     112.130 108.447 113.890  1.00  0.00     0.208 A 
ATOM      3  C   UNL     1     113.510 108.287 113.690  1.00  0.00     0.238 A 
ATOM      4  O   UNL     1     114.282 109.222 114.028  1.00  0.00    -0.285 OA
ATOM      5  C   UNL     1     114.009 107.072 113.160  1.00  0.00     0.111 A 
ATOM      6  C   UNL     1     115.385 106.815 112.880  1.00  0.00     0.134 A 
ATOM      7  C   UNL     1     115.780 105.532 112.479  1.00  0.00     0.093 A 
ATOM      8  C   UNL     1     114.843 104.517 112.288  1.00  0.00     0.123 A 
ATOM      9  C   UNL     1     113.488 104.774 112.502  1.00  0.00     0.094 A 
ATOM     10  C   UNL     1     113.068 106.034 112.936  1.00  0.00     0.146 A 
ATOM     11  O   UNL     1     111.771 106.234 113.139  1.00  0.00    -0.452 OA
ENDROOT
BRANCH   1  12
ATOM     12  C   UNL     1     109.798 107.486 113.731  1.00  0.00     0.021 A 
ATOM     13  C   UNL     1     109.151 107.013 114.887  1.00  0.00     0.016 A 
ATOM     14  C   UNL     1     107.766 107.142 115.025  1.00  0.00     0.047 A 
ATOM     15  C   UNL     1     107.012 107.757 114.018  1.00  0.00     0.115 A 
ATOM     16  C   UNL     1     109.037 108.120 112.735  1.00  0.00     0.016 A 
ATOM     17  C   UNL     1     107.651 108.248 112.876  1.00  0.00     0.047 A 
BRANCH  15  18
ATOM     18  O   UNL     1     105.631 107.891 114.144  1.00  0.00    -0.508 OA
ATOM     19  H   UNL     1     105.052 107.123 114.463  1.00  0.00     0.293 HD
ENDBRANCH  15  18
ENDBRANCH   1  12
BRANCH   2  20
ATOM     20  O   UNL     1     111.618 109.630 114.432  1.00  0.00    -0.502 OA
ATOM     21  H   UNL     1     112.204 110.312 114.899  1.00  0.00     0.293 HD
ENDBRANCH   2  20
BRANCH   6  22
ATOM     22  O   UNL     1     116.390 107.784 112.950  1.00  0.00    -0.507 OA
ATOM     23  H   UNL     1     116.634 108.298 113.783  1.00  0.00     0.293 HD
ENDBRANCH   6  22
BRANCH   8  24
ATOM     24  O   UNL     1     115.270 103.257 111.875  1.00  0.00    -0.508 OA
ATOM     25  H   UNL     1     115.667 102.592 112.527  1.00  0.00     0.293 HD
ENDBRANCH   8  24
TORSDOF 5
ENDMDL
MODEL 7
REMARK VINA RESULT:    -4.651      1.669      2.320
REMARK INTER + INTRA:          -5.759
REMARK INTER:                  -5.633
REMARK INTRA:                  -0.126
REMARK UNBOUND:                -0.292
REMARK SMILES O=c1c(O)c(-c2ccc(O)cc2)oc2cc(O)cc(O)c12
REMARK SMILES IDX 5 1 3 2 2 3 1 4 21 5 19 6 18 7 16 8 15 9 14 10 13 11 6 12
REMARK SMILES IDX 7 13 8 14 9 15 12 16 11 17 10 18 4 20 20 22 17 24
REMARK H PARENT 10 19 4 21 20 23 17 25
REMARK Flexibility Score: inf
ROOT
ATOM      1  C   UNL     1     110.946 107.993 114.532  1.00  0.00     0.180 A 
ATOM      2  C   UNL     1     110.645 107.570 115.838  1.00  0.00     0.208 A 
ATOM      3  C   UNL     1     109.300 107.453 116.224  1.00  0.00     0.238 A 
ATOM      4  O   UNL     1     109.037 107.127 117.410  1.00  0.00    -0.285 OA
ATOM      5  C   UNL     1     108.273 107.747 115.294  1.00  0.00     0.111 A 
ATOM      6  C   UNL     1     106.877 107.626 115.565  1.00  0.00     0.134 A 
ATOM      7  C   UNL     1     105.948 108.068 114.613  1.00  0.00     0.093 A 
ATOM      8  C   UNL     1     106.364 108.566 113.379  1.00  0.00     0.123 A 
ATOM      9  C   UNL     1     107.725 108.633 113.081  1.00  0.00     0.094 A 
ATOM     10  C   UNL     1     108.676 108.233 114.023  1.00  0.00     0.146 A 
ATOM     11  O   UNL     1     109.962 108.324 113.704  1.00  0.00    -0.452 OA
ENDROOT
BRANCH   1  12
ATOM     12  C   UNL     1     112.339 108.115 114.045  1.00  0.00     0.021 A 
ATOM     13  C   UNL     1     113.235 109.042 114.607  1.00  0.00     0.016 A 
ATOM     14  C   UNL     1     114.552 109.122 114.146  1.00  0.00     0.047 A 
ATOM     15  C   UNL     1     114.995 108.269 113.128  1.00  0.00     0.115 A 
ATOM     16  C   UNL     1     112.798 107.249 113.037  1.00  0.00     0.016 A 
ATOM     17  C   UNL     1     114.116 107.331 112.578  1.00  0.00     0.047 A 
BRANCH  15  18
ATOM     18  O   UNL     1     116.305 108.340 112.660  1.00  0.00    -0.508 OA
ATOM     19  H   UNL     1     116.514 108.631 111.712  1.00  0.00     0.293 HD
ENDBRANCH  15  18
ENDBRANCH   1  12
BRANCH   2  20
ATOM     20  O   UNL     1     111.674 107.305 116.747  1.00  0.00    -0.502 OA
ATOM     21  H   UNL     1     112.553 106.885 116.466  1.00  0.00     0.293 HD
ENDBRANCH   2  20
BRANCH   6  22
ATOM     22  O   UNL     1     106.354 107.058 116.729  1.00  0.00    -0.507 OA
ATOM     23  H   UNL     1     106.847 106.989 117.606  1.00  0.00     0.293 HD
ENDBRANCH   6  22
BRANCH   8  24
ATOM     24  O   UNL     1     105.413 108.983 112.450  1.00  0.00    -0.508 OA
ATOM     25  H   UNL     1     105.257 108.477 111.587  1.00  0.00     0.293 HD
ENDBRANCH   8  24
TORSDOF 5
ENDMDL
MODEL 8
REMARK VINA RESULT:    -4.565      8.647     11.251
REMARK INTER + INTRA:          -5.658
REMARK INTER:                  -5.364
REMARK INTRA:                  -0.294
REMARK UNBOUND:                -0.292
REMARK SMILES O=c1c(O)c(-c2ccc(O)cc2)oc2cc(O)cc(O)c12
REMARK SMILES IDX 5 1 3 2 2 3 1 4 21 5 19 6 18 7 16 8 15 9 14 10 13 11 6 12
REMARK SMILES IDX 7 13 8 14 9 15 12 16 11 17 10 18 4 20 20 22 17 24
REMARK H PARENT 10 19 4 21 20 23 17 25
REMARK Flexibility Score: inf
ROOT
ATOM      1  C   UNL     1     100.722 110.262 117.924  1.00  0.00     0.180 A 
ATOM      2  C   UNL     1     100.212 111.572 117.929  1.00  0.00     0.208 A 
ATOM      3  C   UNL     1     100.226 112.313 116.736  1.00  0.00     0.238 A 
ATOM      4  O   UNL     1      99.819 113.503 116.759  1.00  0.00    -0.285 OA
ATOM      5  C   UNL     1     100.734 111.728 115.550  1.00  0.00     0.111 A 
ATOM      6  C   UNL     1     100.760 112.373 114.277  1.00  0.00     0.134 A 
ATOM      7  C   UNL     1     101.404 111.750 113.201  1.00  0.00     0.093 A 
ATOM      8  C   UNL     1     101.966 110.481 113.335  1.00  0.00     0.123 A 
ATOM      9  C   UNL     1     101.893 109.816 114.560  1.00  0.00     0.094 A 
ATOM     10  C   UNL     1     101.289 110.427 115.661  1.00  0.00     0.146 A 
ATOM     11  O   UNL     1     101.251 109.766 116.811  1.00  0.00    -0.452 OA
ENDROOT
BRANCH   1  12
ATOM     12  C   UNL     1     100.718 109.410 119.135  1.00  0.00     0.021 A 
ATOM     13  C   UNL     1      99.647 108.542 119.418  1.00  0.00     0.016 A 
ATOM     14  C   UNL     1      99.677 107.730 120.555  1.00  0.00     0.047 A 
ATOM     15  C   UNL     1     100.780 107.765 121.417  1.00  0.00     0.115 A 
ATOM     16  C   UNL     1     101.829 109.424 119.995  1.00  0.00     0.016 A 
ATOM     17  C   UNL     1     101.856 108.611 121.132  1.00  0.00     0.047 A 
BRANCH  15  18
ATOM     18  O   UNL     1     100.820 106.961 122.554  1.00  0.00    -0.508 OA
ATOM     19  H   UNL     1     100.244 107.160 123.364  1.00  0.00     0.293 HD
ENDBRANCH  15  18
ENDBRANCH   1  12
BRANCH   2  20
ATOM     20  O   UNL     1      99.735 112.137 119.115  1.00  0.00    -0.502 OA
ATOM     21  H   UNL     1      98.818 111.923 119.489  1.00  0.00     0.293 HD
ENDBRANCH   2  20
BRANCH   6  22
ATOM     22  O   UNL     1     100.149 113.602 114.011  1.00  0.00    -0.507 OA
ATOM     23  H   UNL     1     100.538 114.501 114.251  1.00  0.00     0.293 HD
ENDBRANCH   6  22
BRANCH   8  24
ATOM     24  O   UNL     1     102.586 109.884 112.239  1.00  0.00    -0.508 OA
ATOM     25  H   UNL     1     102.379 110.172 111.291  1.00  0.00     0.293 HD
ENDBRANCH   8  24
TORSDOF 5
ENDMDL
MODEL 9
REMARK VINA RESULT:    -4.538      3.034      4.833
REMARK INTER + INTRA:          -5.626
REMARK INTER:                  -5.398
REMARK INTRA:                  -0.228
REMARK UNBOUND:                -0.292
REMARK SMILES O=c1c(O)c(-c2ccc(O)cc2)oc2cc(O)cc(O)c12
REMARK SMILES IDX 5 1 3 2 2 3 1 4 21 5 19 6 18 7 16 8 15 9 14 10 13 11 6 12
REMARK SMILES IDX 7 13 8 14 9 15 12 16 11 17 10 18 4 20 20 22 17 24
REMARK H PARENT 10 19 4 21 20 23 17 25
REMARK Flexibility Score: inf
ROOT
ATOM      1  C   UNL     1     106.577 109.632 114.301  1.00  0.00     0.180 A 
ATOM      2  C   UNL     1     105.903 109.383 113.093  1.00  0.00     0.208 A 
ATOM      3  C   UNL     1     104.499 109.390 113.082  1.00  0.00     0.238 A 
ATOM      4  O   UNL     1     103.901 109.113 112.010  1.00  0.00    -0.285 OA
ATOM      5  C   UNL     1     103.787 109.660 114.276  1.00  0.00     0.111 A 
ATOM      6  C   UNL     1     102.364 109.730 114.372  1.00  0.00     0.134 A 
ATOM      7  C   UNL     1     101.763 109.874 115.630  1.00  0.00     0.093 A 
ATOM      8  C   UNL     1     102.533 110.015 116.784  1.00  0.00     0.123 A 
ATOM      9  C   UNL     1     103.926 110.007 116.694  1.00  0.00     0.094 A 
ATOM     10  C   UNL     1     104.554 109.829 115.458  1.00  0.00     0.146 A 
ATOM     11  O   UNL     1     105.880 109.816 115.417  1.00  0.00    -0.452 OA
ENDROOT
BRANCH   1  12
ATOM     12  C   UNL     1     108.054 109.667 114.387  1.00  0.00     0.021 A 
ATOM     13  C   UNL     1     108.820 108.487 114.354  1.00  0.00     0.016 A 
ATOM     14  C   UNL     1     110.215 108.547 114.412  1.00  0.00     0.047 A 
ATOM     15  C   UNL     1     110.864 109.785 114.490  1.00  0.00     0.115 A 
ATOM     16  C   UNL     1     108.715 110.906 114.444  1.00  0.00     0.016 A 
ATOM     17  C   UNL     1     110.111 110.963 114.503  1.00  0.00     0.047 A 
BRANCH  15  18
ATOM     18  O   UNL     1     112.254 109.857 114.549  1.00  0.00    -0.508 OA
ATOM     19  H   UNL     1     112.818 109.902 113.708  1.00  0.00     0.293 HD
ENDBRANCH  15  18
ENDBRANCH   1  12
BRANCH   2  20
ATOM     20  O   UNL     1     106.625 109.098 111.931  1.00  0.00    -0.502 OA
ATOM     21  H   UNL     1     107.526 108.636 111.950  1.00  0.00     0.293 HD
ENDBRANCH   2  20
BRANCH   6  22
ATOM     22  O   UNL     1     101.505 109.692 113.271  1.00  0.00    -0.507 OA
ATOM     23  H   UNL     1     100.525 109.457 113.315  1.00  0.00     0.293 HD
ENDBRANCH   6  22
BRANCH   8  24
ATOM     24  O   UNL     1     101.903 110.172 118.016  1.00  0.00    -0.508 OA
ATOM     25  H   UNL     1     101.192 109.524 118.334  1.00  0.00     0.293 HD
ENDBRANCH   8  24
TORSDOF 5
ENDMDL
