MODEL 1
REMARK VINA RESULT:    -2.120      0.000      0.000
REMARK INTER + INTRA:          -2.365
REMARK INTER:                  -2.244
REMARK INTRA:                  -0.121
REMARK UNBOUND:                -0.121
REMARK SMILES C=C(C)[C@@H]1CC=C(C)CC1
REMARK SMILES IDX 8 1 7 2 6 3 5 4 4 5 10 6 9 7 2 8 1 9 3 10
REMARK H PARENT
REMARK Flexibility Score: inf
ROOT
ATOM      1  C   UNL     1     159.830 160.387 137.962  1.00  0.00     0.039 C 
ATOM      2  C   UNL     1     161.104 159.609 138.142  1.00  0.00    -0.077 C 
ATOM      3  C   UNL     1     161.998 159.573 137.130  1.00  0.00    -0.027 C 
ATOM      4  C   UNL     1     163.327 158.865 137.233  1.00  0.00     0.035 C 
ATOM      5  C   UNL     1     163.324 157.777 138.320  1.00  0.00     0.018 C 
ATOM      6  C   UNL     1     162.738 158.341 139.623  1.00  0.00     0.013 C 
ATOM      7  C   UNL     1     161.286 158.783 139.401  1.00  0.00     0.031 C 
ENDROOT
BRANCH   5   8
ATOM      8  C   UNL     1     164.719 157.204 138.534  1.00  0.00    -0.077 C 
ATOM      9  C   UNL     1     164.911 155.875 138.520  1.00  0.00     0.008 C 
ATOM     10  C   UNL     1     165.912 158.101 138.757  1.00  0.00     0.039 C 
ENDBRANCH   5   8
TORSDOF 1
ENDMDL
MODEL 2
REMARK VINA RESULT:    -2.117      1.195      4.688
REMARK INTER + INTRA:          -2.362
REMARK INTER:                  -2.242
REMARK INTRA:                  -0.120
REMARK UNBOUND:                -0.121
REMARK SMILES C=C(C)[C@@H]1CC=C(C)CC1
REMARK SMILES IDX 8 1 7 2 6 3 5 4 4 5 10 6 9 7 2 8 1 9 3 10
REMARK H PARENT
REMARK Flexibility Score: inf
ROOT
ATOM      1  C   UNL     1     167.298 156.101 139.471  1.00  0.00     0.039 C 
ATOM      2  C   UNL     1     166.029 156.846 139.157  1.00  0.00    -0.077 C 
ATOM      3  C   UNL     1     164.951 156.154 138.729  1.00  0.00    -0.027 C 
ATOM      4  C   UNL     1     163.620 156.802 138.440  1.00  0.00     0.035 C 
ATOM      5  C   UNL     1     163.757 158.306 138.146  1.00  0.00     0.018 C 
ATOM      6  C   UNL     1     164.633 158.971 139.219  1.00  0.00     0.013 C 
ATOM      7  C   UNL     1     166.040 158.363 139.203  1.00  0.00     0.031 C 
ENDROOT
BRANCH   5   8
ATOM      8  C   UNL     1     162.394 158.977 138.041  1.00  0.00    -0.077 C 
ATOM      9  C   UNL     1     161.993 159.510 136.875  1.00  0.00     0.008 C 
ATOM     10  C   UNL     1     161.461 159.052 139.225  1.00  0.00     0.039 C 
ENDBRANCH   5   8
TORSDOF 1
ENDMDL
MODEL 3
REMARK VINA RESULT:    -2.094      0.484      1.660
REMARK INTER + INTRA:          -2.338
REMARK INTER:                  -2.211
REMARK INTRA:                  -0.128
REMARK UNBOUND:                -0.121
REMARK SMILES C=C(C)[C@@H]1CC=C(C)CC1
REMARK SMILES IDX 8 1 7 2 6 3 5 4 4 5 10 6 9 7 2 8 1 9 3 10
REMARK H PARENT
REMARK Flexibility Score: inf
ROOT
ATOM      1  C   UNL     1     160.011 160.237 138.137  1.00  0.00     0.039 C 
ATOM      2  C   UNL     1     161.268 159.422 138.271  1.00  0.00    -0.077 C 
ATOM      3  C   UNL     1     161.471 158.713 139.403  1.00  0.00    -0.027 C 
ATOM      4  C   UNL     1     162.673 157.823 139.610  1.00  0.00     0.035 C 
ATOM      5  C   UNL     1     163.853 158.220 138.707  1.00  0.00     0.018 C 
ATOM      6  C   UNL     1     163.366 158.401 137.261  1.00  0.00     0.013 C 
ATOM      7  C   UNL     1     162.326 159.525 137.190  1.00  0.00     0.031 C 
ENDROOT
BRANCH   5   8
ATOM      8  C   UNL     1     164.984 157.204 138.795  1.00  0.00    -0.077 C 
ATOM      9  C   UNL     1     164.778 155.932 138.421  1.00  0.00     0.008 C 
ATOM     10  C   UNL     1     166.355 157.595 139.291  1.00  0.00     0.039 C 
ENDBRANCH   5   8
TORSDOF 1
ENDMDL
MODEL 4
REMARK VINA RESULT:    -2.052     19.290     20.742
REMARK INTER + INTRA:          -2.294
REMARK INTER:                  -2.164
REMARK INTRA:                  -0.130
REMARK UNBOUND:                -0.121
REMARK SMILES C=C(C)[C@@H]1CC=C(C)CC1
REMARK SMILES IDX 8 1 7 2 6 3 5 4 4 5 10 6 9 7 2 8 1 9 3 10
REMARK H PARENT
REMARK Flexibility Score: inf
ROOT
ATOM      1  C   UNL     1     175.058 175.293 143.451  1.00  0.00     0.039 C 
ATOM      2  C   UNL     1     174.980 175.168 141.954  1.00  0.00    -0.077 C 
ATOM      3  C   UNL     1     175.544 176.125 141.186  1.00  0.00    -0.027 C 
ATOM      4  C   UNL     1     175.566 176.062 139.678  1.00  0.00     0.035 C 
ATOM      5  C   UNL     1     174.456 175.157 139.118  1.00  0.00     0.018 C 
ATOM      6  C   UNL     1     174.448 173.815 139.867  1.00  0.00     0.013 C 
ATOM      7  C   UNL     1     174.157 174.043 141.355  1.00  0.00     0.031 C 
ENDROOT
BRANCH   5   8
ATOM      8  C   UNL     1     174.607 174.959 137.615  1.00  0.00    -0.077 C 
ATOM      9  C   UNL     1     175.249 175.879 136.876  1.00  0.00     0.008 C 
ATOM     10  C   UNL     1     174.057 173.736 136.924  1.00  0.00     0.039 C 
ENDBRANCH   5   8
TORSDOF 1
ENDMDL
MODEL 5
REMARK VINA RESULT:    -2.051      5.429      6.930
REMARK INTER + INTRA:          -2.292
REMARK INTER:                  -2.163
REMARK INTRA:                  -0.129
REMARK UNBOUND:                -0.121
REMARK SMILES C=C(C)[C@@H]1CC=C(C)CC1
REMARK SMILES IDX 8 1 7 2 6 3 5 4 4 5 10 6 9 7 2 8 1 9 3 10
REMARK H PARENT
REMARK Flexibility Score: inf
ROOT
ATOM      1  C   UNL     1     157.028 156.542 143.469  1.00  0.00     0.039 C 
ATOM      2  C   UNL     1     157.113 156.700 141.975  1.00  0.00    -0.077 C 
ATOM      3  C   UNL     1     157.940 157.637 141.462  1.00  0.00    -0.027 C 
ATOM      4  C   UNL     1     158.136 157.837 139.980  1.00  0.00     0.035 C 
ATOM      5  C   UNL     1     156.951 157.298 139.159  1.00  0.00     0.018 C 
ATOM      6  C   UNL     1     156.596 155.878 139.625  1.00  0.00     0.013 C 
ATOM      7  C   UNL     1     156.172 155.897 141.099  1.00  0.00     0.031 C 
ENDROOT
BRANCH   5   8
ATOM      8  C   UNL     1     157.247 157.341 137.666  1.00  0.00    -0.077 C 
ATOM      9  C   UNL     1     157.065 156.245 136.911  1.00  0.00     0.008 C 
ATOM     10  C   UNL     1     157.739 158.601 136.997  1.00  0.00     0.039 C 
ENDBRANCH   5   8
TORSDOF 1
ENDMDL
MODEL 6
REMARK VINA RESULT:    -2.050     15.705     16.864
REMARK INTER + INTRA:          -2.291
REMARK INTER:                  -2.171
REMARK INTRA:                  -0.120
REMARK UNBOUND:                -0.121
REMARK SMILES C=C(C)[C@@H]1CC=C(C)CC1
REMARK SMILES IDX 8 1 7 2 6 3 5 4 4 5 10 6 9 7 2 8 1 9 3 10
REMARK H PARENT
REMARK Flexibility Score: inf
ROOT
ATOM      1  C   UNL     1     172.072 171.657 138.079  1.00  0.00     0.039 C 
ATOM      2  C   UNL     1     170.791 172.423 138.265  1.00  0.00    -0.077 C 
ATOM      3  C   UNL     1     169.973 172.598 137.205  1.00  0.00    -0.027 C 
ATOM      4  C   UNL     1     168.643 173.305 137.301  1.00  0.00     0.035 C 
ATOM      5  C   UNL     1     168.572 174.248 138.515  1.00  0.00     0.018 C 
ATOM      6  C   UNL     1     169.060 173.516 139.774  1.00  0.00     0.013 C 
ATOM      7  C   UNL     1     170.522 173.087 139.603  1.00  0.00     0.031 C 
ENDROOT
BRANCH   5   8
ATOM      8  C   UNL     1     167.167 174.807 138.700  1.00  0.00    -0.077 C 
ATOM      9  C   UNL     1     166.935 176.117 138.522  1.00  0.00     0.008 C 
ATOM     10  C   UNL     1     166.009 173.915 139.076  1.00  0.00     0.039 C 
ENDBRANCH   5   8
TORSDOF 1
ENDMDL
MODEL 7
REMARK VINA RESULT:    -2.043     16.085     16.766
REMARK INTER + INTRA:          -2.284
REMARK INTER:                  -2.153
REMARK INTRA:                  -0.131
REMARK UNBOUND:                -0.121
REMARK SMILES C=C(C)[C@@H]1CC=C(C)CC1
REMARK SMILES IDX 8 1 7 2 6 3 5 4 4 5 10 6 9 7 2 8 1 9 3 10
REMARK H PARENT
REMARK Flexibility Score: inf
ROOT
ATOM      1  C   UNL     1     165.147 176.125 139.536  1.00  0.00     0.039 C 
ATOM      2  C   UNL     1     166.431 175.375 139.311  1.00  0.00    -0.077 C 
ATOM      3  C   UNL     1     166.379 174.124 138.805  1.00  0.00    -0.027 C 
ATOM      4  C   UNL     1     167.612 173.311 138.494  1.00  0.00     0.035 C 
ATOM      5  C   UNL     1     168.839 173.788 139.291  1.00  0.00     0.018 C 
ATOM      6  C   UNL     1     168.970 175.315 139.184  1.00  0.00     0.013 C 
ATOM      7  C   UNL     1     167.733 175.995 139.782  1.00  0.00     0.031 C 
ENDROOT
BRANCH   5   8
ATOM      8  C   UNL     1     170.107 173.082 138.830  1.00  0.00    -0.077 C 
ATOM      9  C   UNL     1     170.229 172.680 137.554  1.00  0.00     0.008 C 
ATOM     10  C   UNL     1     171.254 172.826 139.778  1.00  0.00     0.039 C 
ENDBRANCH   5   8
TORSDOF 1
ENDMDL
MODEL 8
REMARK VINA RESULT:    -1.988      2.332      5.539
REMARK INTER + INTRA:          -2.226
REMARK INTER:                  -2.102
REMARK INTRA:                  -0.124
REMARK UNBOUND:                -0.121
REMARK SMILES C=C(C)[C@@H]1CC=C(C)CC1
REMARK SMILES IDX 8 1 7 2 6 3 5 4 4 5 10 6 9 7 2 8 1 9 3 10
REMARK H PARENT
REMARK Flexibility Score: inf
ROOT
ATOM      1  C   UNL     1     169.710 157.239 140.217  1.00  0.00     0.039 C 
ATOM      2  C   UNL     1     168.260 157.201 139.817  1.00  0.00    -0.077 C 
ATOM      3  C   UNL     1     167.624 158.362 139.548  1.00  0.00    -0.027 C 
ATOM      4  C   UNL     1     166.188 158.425 139.087  1.00  0.00     0.035 C 
ATOM      5  C   UNL     1     165.396 157.166 139.481  1.00  0.00     0.018 C 
ATOM      6  C   UNL     1     166.191 155.908 139.099  1.00  0.00     0.013 C 
ATOM      7  C   UNL     1     167.524 155.875 139.857  1.00  0.00     0.031 C 
ENDROOT
BRANCH   5   8
ATOM      8  C   UNL     1     164.009 157.165 138.851  1.00  0.00    -0.077 C 
ATOM      9  C   UNL     1     162.993 156.532 139.460  1.00  0.00     0.008 C 
ATOM     10  C   UNL     1     163.737 157.874 137.547  1.00  0.00     0.039 C 
ENDBRANCH   5   8
TORSDOF 1
ENDMDL
MODEL 9
REMARK VINA RESULT:     0.417     16.037     16.819
REMARK INTER + INTRA:           0.319
REMARK INTER:                   0.451
REMARK INTRA:                  -0.132
REMARK UNBOUND:                -0.121
REMARK SMILES C=C(C)[C@@H]1CC=C(C)CC1
REMARK SMILES IDX 8 1 7 2 6 3 5 4 4 5 10 6 9 7 2 8 1 9 3 10
REMARK H PARENT
REMARK Flexibility Score: inf
ROOT
ATOM      1  C   UNL     1     167.219 174.896 139.506  1.00  0.00     0.039 C 
ATOM      2  C   UNL     1     166.927 174.487 140.924  1.00  0.00    -0.077 C 
ATOM      3  C   UNL     1     166.419 173.258 141.160  1.00  0.00    -0.027 C 
ATOM      4  C   UNL     1     166.142 172.735 142.548  1.00  0.00     0.035 C 
ATOM      5  C   UNL     1     165.965 173.870 143.572  1.00  0.00     0.018 C 
ATOM      6  C   UNL     1     167.109 174.886 143.429  1.00  0.00     0.013 C 
ATOM      7  C   UNL     1     167.087 175.513 142.030  1.00  0.00     0.031 C 
ENDROOT
BRANCH   5   8
ATOM      8  C   UNL     1     165.872 173.326 144.991  1.00  0.00    -0.077 C 
ATOM      9  C   UNL     1     166.190 172.046 145.245  1.00  0.00     0.008 C 
ATOM     10  C   UNL     1     165.434 174.200 146.141  1.00  0.00     0.039 C 
ENDBRANCH   5   8
TORSDOF 1
ENDMDL
