MODEL 1
REMARK VINA RESULT:    -2.360      0.000      0.000
REMARK INTER + INTRA:          -2.567
REMARK INTER:                  -2.567
REMARK INTRA:                   0.000
REMARK UNBOUND:                 0.000
REMARK SMILES [NH3+]CC(=O)[O-]
REMARK SMILES IDX 2 1 1 2 3 6 4 7 5 8
REMARK H PARENT 1 3 1 4 1 5
REMARK Flexibility Score: inf
ROOT
ATOM      1  C   UNL     1     158.636 147.638 146.175  1.00  0.00     0.312 C 
ENDROOT
BRANCH   1   2
ATOM      2  N   UNL     1     160.063 147.746 145.875  1.00  0.00    -0.353 N 
ATOM      3  H   UNL     1     160.412 146.819 145.540  1.00  0.00     0.344 HD
ATOM      4  H   UNL     1     160.591 148.016 146.736  1.00  0.00     0.344 HD
ATOM      5  H   UNL     1     160.219 148.458 145.125  1.00  0.00     0.344 HD
ENDBRANCH   1   2
BRANCH   1   6
ATOM      6  C   UNL     1     158.160 148.848 146.917  1.00  0.00     0.096 C 
ATOM      7  O   UNL     1     158.199 148.875 148.176  1.00  0.00    -0.544 OA
ATOM      8  O   UNL     1     157.721 149.965 146.218  1.00  0.00    -0.544 OA
ENDBRANCH   1   6
TORSDOF 2
ENDMDL
MODEL 2
REMARK VINA RESULT:    -2.259     18.911     19.008
REMARK INTER + INTRA:          -2.458
REMARK INTER:                  -2.458
REMARK INTRA:                   0.000
REMARK UNBOUND:                 0.000
REMARK SMILES [NH3+]CC(=O)[O-]
REMARK SMILES IDX 2 1 1 2 3 6 4 7 5 8
REMARK H PARENT 1 3 1 4 1 5
REMARK Flexibility Score: inf
ROOT
ATOM      1  C   UNL     1     142.237 137.954 147.248  1.00  0.00     0.312 C 
ENDROOT
BRANCH   1   2
ATOM      2  N   UNL     1     141.401 136.915 147.847  1.00  0.00    -0.353 N 
ATOM      3  H   UNL     1     141.905 136.001 147.798  1.00  0.00     0.344 HD
ATOM      4  H   UNL     1     140.499 136.835 147.323  1.00  0.00     0.344 HD
ATOM      5  H   UNL     1     141.209 137.144 148.850  1.00  0.00     0.344 HD
ENDBRANCH   1   2
BRANCH   1   6
ATOM      6  C   UNL     1     143.248 138.452 148.233  1.00  0.00     0.096 C 
ATOM      7  O   UNL     1     143.918 137.636 148.920  1.00  0.00    -0.544 OA
ATOM      8  O   UNL     1     143.486 139.814 148.357  1.00  0.00    -0.544 OA
ENDBRANCH   1   6
TORSDOF 2
ENDMDL
MODEL 3
REMARK VINA RESULT:    -2.219     18.505     19.049
REMARK INTER + INTRA:          -2.413
REMARK INTER:                  -2.413
REMARK INTRA:                   0.000
REMARK UNBOUND:                 0.000
REMARK SMILES [NH3+]CC(=O)[O-]
REMARK SMILES IDX 2 1 1 2 3 6 4 7 5 8
REMARK H PARENT 1 3 1 4 1 5
REMARK Flexibility Score: inf
ROOT
ATOM      1  C   UNL     1     158.297 153.400 165.730  1.00  0.00     0.312 C 
ENDROOT
BRANCH   1   2
ATOM      2  N   UNL     1     159.000 154.358 164.878  1.00  0.00    -0.353 N 
ATOM      3  H   UNL     1     160.025 154.305 165.079  1.00  0.00     0.344 HD
ATOM      4  H   UNL     1     158.665 155.328 165.077  1.00  0.00     0.344 HD
ATOM      5  H   UNL     1     158.840 154.127 163.870  1.00  0.00     0.344 HD
ENDBRANCH   1   2
BRANCH   1   6
ATOM      6  C   UNL     1     158.569 151.997 165.283  1.00  0.00     0.096 C 
ATOM      7  O   UNL     1     158.885 151.115 166.125  1.00  0.00    -0.544 OA
ATOM      8  O   UNL     1     158.427 151.653 163.945  1.00  0.00    -0.544 OA
ENDBRANCH   1   6
TORSDOF 2
ENDMDL
MODEL 4
REMARK VINA RESULT:    -2.064     22.417     22.685
REMARK INTER + INTRA:          -2.245
REMARK INTER:                  -2.245
REMARK INTRA:                   0.000
REMARK UNBOUND:                 0.000
REMARK SMILES [NH3+]CC(=O)[O-]
REMARK SMILES IDX 2 1 1 2 3 6 4 7 5 8
REMARK H PARENT 1 3 1 4 1 5
REMARK Flexibility Score: inf
ROOT
ATOM      1  C   UNL     1     144.603 155.073 163.574  1.00  0.00     0.312 C 
ENDROOT
BRANCH   1   2
ATOM      2  N   UNL     1     143.633 155.673 164.489  1.00  0.00    -0.353 N 
ATOM      3  H   UNL     1     144.145 156.122 165.282  1.00  0.00     0.344 HD
ATOM      4  H   UNL     1     142.997 154.936 164.870  1.00  0.00     0.344 HD
ATOM      5  H   UNL     1     143.073 156.402 163.991  1.00  0.00     0.344 HD
ENDBRANCH   1   2
BRANCH   1   6
ATOM      6  C   UNL     1     145.254 156.125 162.731  1.00  0.00     0.096 C 
ATOM      7  O   UNL     1     146.137 156.875 163.224  1.00  0.00    -0.544 OA
ATOM      8  O   UNL     1     144.920 156.244 161.388  1.00  0.00    -0.544 OA
ENDBRANCH   1   6
TORSDOF 2
ENDMDL
MODEL 5
REMARK VINA RESULT:    -2.029     17.800     17.907
REMARK INTER + INTRA:          -2.207
REMARK INTER:                  -2.207
REMARK INTRA:                   0.000
REMARK UNBOUND:                 0.000
REMARK SMILES [NH3+]CC(=O)[O-]
REMARK SMILES IDX 2 1 1 2 3 6 4 7 5 8
REMARK H PARENT 1 3 1 4 1 5
REMARK Flexibility Score: inf
ROOT
ATOM      1  C   UNL     1     144.463 138.036 148.826  1.00  0.00     0.312 C 
ENDROOT
BRANCH   1   2
ATOM      2  N   UNL     1     145.841 137.937 148.346  1.00  0.00    -0.353 N 
ATOM      3  H   UNL     1     145.852 138.078 147.311  1.00  0.00     0.344 HD
ATOM      4  H   UNL     1     146.229 136.992 148.565  1.00  0.00     0.344 HD
ATOM      5  H   UNL     1     146.430 138.676 148.795  1.00  0.00     0.344 HD
ENDBRANCH   1   2
BRANCH   1   6
ATOM      6  C   UNL     1     143.558 138.520 147.735  1.00  0.00     0.096 C 
ATOM      7  O   UNL     1     143.946 139.418 146.942  1.00  0.00    -0.544 OA
ATOM      8  O   UNL     1     142.306 137.944 147.564  1.00  0.00    -0.544 OA
ENDBRANCH   1   6
TORSDOF 2
ENDMDL
MODEL 6
REMARK VINA RESULT:    -2.016     14.644     15.062
REMARK INTER + INTRA:          -2.193
REMARK INTER:                  -2.193
REMARK INTRA:                   0.000
REMARK UNBOUND:                 0.000
REMARK SMILES [NH3+]CC(=O)[O-]
REMARK SMILES IDX 2 1 1 2 3 6 4 7 5 8
REMARK H PARENT 1 3 1 4 1 5
REMARK Flexibility Score: inf
ROOT
ATOM      1  C   UNL     1     153.523 155.998 159.461  1.00  0.00     0.312 C 
ENDROOT
BRANCH   1   2
ATOM      2  N   UNL     1     154.205 157.072 160.182  1.00  0.00    -0.353 N 
ATOM      3  H   UNL     1     154.203 156.851 161.204  1.00  0.00     0.344 HD
ATOM      4  H   UNL     1     153.706 157.978 160.030  1.00  0.00     0.344 HD
ATOM      5  H   UNL     1     155.195 157.152 159.855  1.00  0.00     0.344 HD
ENDBRANCH   1   2
BRANCH   1   6
ATOM      6  C   UNL     1     153.698 156.162 157.983  1.00  0.00     0.096 C 
ATOM      7  O   UNL     1     152.735 156.550 157.270  1.00  0.00    -0.544 OA
ATOM      8  O   UNL     1     154.938 155.935 157.400  1.00  0.00    -0.544 OA
ENDBRANCH   1   6
TORSDOF 2
ENDMDL
MODEL 7
REMARK VINA RESULT:    -2.001     15.670     16.133
REMARK INTER + INTRA:          -2.176
REMARK INTER:                  -2.176
REMARK INTRA:                   0.000
REMARK UNBOUND:                 0.000
REMARK SMILES [NH3+]CC(=O)[O-]
REMARK SMILES IDX 2 1 1 2 3 6 4 7 5 8
REMARK H PARENT 1 3 1 4 1 5
REMARK Flexibility Score: inf
ROOT
ATOM      1  C   UNL     1     153.783 155.971 159.372  1.00  0.00     0.312 C 
ENDROOT
BRANCH   1   2
ATOM      2  N   UNL     1     154.265 157.101 160.164  1.00  0.00    -0.353 N 
ATOM      3  H   UNL     1     154.417 156.788 161.150  1.00  0.00     0.344 HD
ATOM      4  H   UNL     1     153.558 157.871 160.158  1.00  0.00     0.344 HD
ATOM      5  H   UNL     1     155.173 157.449 159.776  1.00  0.00     0.344 HD
ENDBRANCH   1   2
BRANCH   1   6
ATOM      6  C   UNL     1     152.287 155.972 159.309  1.00  0.00     0.096 C 
ATOM      7  O   UNL     1     151.699 155.836 158.203  1.00  0.00    -0.544 OA
ATOM      8  O   UNL     1     151.542 156.071 160.477  1.00  0.00    -0.544 OA
ENDBRANCH   1   6
TORSDOF 2
ENDMDL
MODEL 8
REMARK VINA RESULT:    -1.961     11.004     11.602
REMARK INTER + INTRA:          -2.133
REMARK INTER:                  -2.133
REMARK INTRA:                   0.000
REMARK UNBOUND:                 0.000
REMARK SMILES [NH3+]CC(=O)[O-]
REMARK SMILES IDX 2 1 1 2 3 6 4 7 5 8
REMARK H PARENT 1 3 1 4 1 5
REMARK Flexibility Score: inf
ROOT
ATOM      1  C   UNL     1     158.369 138.230 151.032  1.00  0.00     0.312 C 
ENDROOT
BRANCH   1   2
ATOM      2  N   UNL     1     158.286 139.558 150.425  1.00  0.00    -0.353 N 
ATOM      3  H   UNL     1     158.950 140.199 150.914  1.00  0.00     0.344 HD
ATOM      4  H   UNL     1     157.316 139.935 150.521  1.00  0.00     0.344 HD
ATOM      5  H   UNL     1     158.548 139.506 149.413  1.00  0.00     0.344 HD
ENDBRANCH   1   2
BRANCH   1   6
ATOM      6  C   UNL     1     159.414 138.205 152.104  1.00  0.00     0.096 C 
ATOM      7  O   UNL     1     160.083 139.240 152.361  1.00  0.00    -0.544 OA
ATOM      8  O   UNL     1     159.615 137.052 152.852  1.00  0.00    -0.544 OA
ENDBRANCH   1   6
TORSDOF 2
ENDMDL
MODEL 9
REMARK VINA RESULT:    -1.885      4.312      4.899
REMARK INTER + INTRA:          -2.050
REMARK INTER:                  -2.050
REMARK INTRA:                   0.000
REMARK UNBOUND:                 0.000
REMARK SMILES [NH3+]CC(=O)[O-]
REMARK SMILES IDX 2 1 1 2 3 6 4 7 5 8
REMARK H PARENT 1 3 1 4 1 5
REMARK Flexibility Score: inf
ROOT
ATOM      1  C   UNL     1     158.117 152.026 149.889  1.00  0.00     0.312 C 
ENDROOT
BRANCH   1   2
ATOM      2  N   UNL     1     159.198 152.948 149.545  1.00  0.00    -0.353 N 
ATOM      3  H   UNL     1     160.061 152.398 149.332  1.00  0.00     0.344 HD
ATOM      4  H   UNL     1     159.393 153.588 150.348  1.00  0.00     0.344 HD
ATOM      5  H   UNL     1     158.937 153.508 148.700  1.00  0.00     0.344 HD
ENDBRANCH   1   2
BRANCH   1   6
ATOM      6  C   UNL     1     158.658 150.659 150.169  1.00  0.00     0.096 C 
ATOM      7  O   UNL     1     158.509 149.734 149.327  1.00  0.00    -0.544 OA
ATOM      8  O   UNL     1     159.370 150.419 151.337  1.00  0.00    -0.544 OA
ENDBRANCH   1   6
TORSDOF 2
ENDMDL
