MODEL 1
REMARK VINA RESULT:    -6.140      0.000      0.000
REMARK INTER + INTRA:         -12.694
REMARK INTER:                 -11.165
REMARK INTRA:                  -1.529
REMARK UNBOUND:                -1.529
REMARK SMILES CCCCCCCCCCCCCCCC(=O)[O-]
REMARK SMILES IDX 9 1 10 2 11 3 12 4 13 5 14 6 15 7 16 8 17 9 18 10 8 11 7 12
REMARK SMILES IDX 6 13 5 14 4 15 3 16 2 17 1 18
REMARK H PARENT
REMARK Flexibility Score: inf
ROOT
ATOM      1  C   UNL     1     -21.338  37.178   5.527  1.00  0.00     0.000 C 
ENDROOT
BRANCH   1   2
ATOM      2  C   UNL     1     -20.519  38.462   5.725  1.00  0.00     0.000 C 
BRANCH   2   3
ATOM      3  C   UNL     1     -21.358  39.619   6.295  1.00  0.00     0.000 C 
BRANCH   3   4
ATOM      4  C   UNL     1     -22.177  40.343   5.214  1.00  0.00     0.000 C 
BRANCH   4   5
ATOM      5  C   UNL     1     -21.450  40.408   3.859  1.00  0.00     0.000 C 
BRANCH   5   6
ATOM      6  C   UNL     1     -20.841  41.792   3.548  1.00  0.00     0.006 C 
BRANCH   6   7
ATOM      7  C   UNL     1     -19.609  42.089   4.412  1.00  0.00     0.053 C 
BRANCH   7   8
ATOM      8  C   UNL     1     -19.113  43.477   4.157  1.00  0.00     0.041 C 
ATOM      9  O   UNL     1     -18.543  44.126   5.075  1.00  0.00    -0.550 OA
ATOM     10  O   UNL     1     -19.323  44.074   2.921  1.00  0.00    -0.550 OA
ENDBRANCH   7   8
ENDBRANCH   6   7
ENDBRANCH   5   6
ENDBRANCH   4   5
ENDBRANCH   3   4
ENDBRANCH   2   3
ENDBRANCH   1   2
BRANCH   1  11
ATOM     11  C   UNL     1     -20.682  35.994   6.253  1.00  0.00     0.000 C 
BRANCH  11  12
ATOM     12  C   UNL     1     -19.519  36.425   7.161  1.00  0.00    -0.000 C 
BRANCH  12  13
ATOM     13  C   UNL     1     -19.793  36.145   8.646  1.00  0.00    -0.000 C 
BRANCH  13  14
ATOM     14  C   UNL     1     -21.246  35.704   8.862  1.00  0.00    -0.000 C 
BRANCH  14  15
ATOM     15  C   UNL     1     -22.000  36.704   9.746  1.00  0.00    -0.000 C 
BRANCH  15  16
ATOM     16  C   UNL     1     -22.633  37.817   8.903  1.00  0.00    -0.000 C 
BRANCH  16  17
ATOM     17  C   UNL     1     -23.999  37.382   8.357  1.00  0.00    -0.003 C 
ATOM     18  C   UNL     1     -25.070  37.437   9.443  1.00  0.00     0.004 C 
ENDBRANCH  16  17
ENDBRANCH  15  16
ENDBRANCH  14  15
ENDBRANCH  13  14
ENDBRANCH  12  13
ENDBRANCH  11  12
ENDBRANCH   1  11
TORSDOF 14
ENDMDL
MODEL 2
REMARK VINA RESULT:    -5.983      1.070      2.862
REMARK INTER + INTRA:         -12.409
REMARK INTER:                 -10.625
REMARK INTRA:                  -1.784
REMARK UNBOUND:                -1.529
REMARK SMILES CCCCCCCCCCCCCCCC(=O)[O-]
REMARK SMILES IDX 9 1 10 2 11 3 12 4 13 5 14 6 15 7 16 8 17 9 18 10 8 11 7 12
REMARK SMILES IDX 6 13 5 14 4 15 3 16 2 17 1 18
REMARK H PARENT
REMARK Flexibility Score: inf
ROOT
ATOM      1  C   UNL     1     -22.461  39.002   7.843  1.00  0.00     0.000 C 
ENDROOT
BRANCH   1   2
ATOM      2  C   UNL     1     -22.011  39.882   6.666  1.00  0.00     0.000 C 
BRANCH   2   3
ATOM      3  C   UNL     1     -22.357  39.267   5.300  1.00  0.00     0.000 C 
BRANCH   3   4
ATOM      4  C   UNL     1     -21.138  39.171   4.369  1.00  0.00     0.000 C 
BRANCH   4   5
ATOM      5  C   UNL     1     -19.966  40.057   4.827  1.00  0.00     0.000 C 
BRANCH   5   6
ATOM      6  C   UNL     1     -20.043  41.506   4.300  1.00  0.00     0.006 C 
BRANCH   6   7
ATOM      7  C   UNL     1     -18.696  42.232   4.405  1.00  0.00     0.053 C 
BRANCH   7   8
ATOM      8  C   UNL     1     -18.884  43.709   4.260  1.00  0.00     0.041 C 
ATOM      9  O   UNL     1     -19.388  44.184   3.208  1.00  0.00    -0.550 OA
ATOM     10  O   UNL     1     -18.456  44.566   5.266  1.00  0.00    -0.550 OA
ENDBRANCH   7   8
ENDBRANCH   6   7
ENDBRANCH   5   6
ENDBRANCH   4   5
ENDBRANCH   3   4
ENDBRANCH   2   3
ENDBRANCH   1   2
BRANCH   1  11
ATOM     11  C   UNL     1     -23.317  37.826   7.350  1.00  0.00     0.000 C 
BRANCH  11  12
ATOM     12  C   UNL     1     -23.443  36.705   8.394  1.00  0.00    -0.000 C 
BRANCH  12  13
ATOM     13  C   UNL     1     -22.447  36.861   9.552  1.00  0.00    -0.000 C 
BRANCH  13  14
ATOM     14  C   UNL     1     -21.291  35.862   9.419  1.00  0.00    -0.000 C 
BRANCH  14  15
ATOM     15  C   UNL     1     -19.969  36.584   9.132  1.00  0.00    -0.000 C 
BRANCH  15  16
ATOM     16  C   UNL     1     -19.294  36.019   7.877  1.00  0.00    -0.000 C 
BRANCH  16  17
ATOM     17  C   UNL     1     -20.008  36.497   6.607  1.00  0.00    -0.003 C 
ATOM     18  C   UNL     1     -20.848  35.380   5.993  1.00  0.00     0.004 C 
ENDBRANCH  16  17
ENDBRANCH  15  16
ENDBRANCH  14  15
ENDBRANCH  13  14
ENDBRANCH  12  13
ENDBRANCH  11  12
ENDBRANCH   1  11
TORSDOF 14
ENDMDL
MODEL 3
REMARK VINA RESULT:    -5.972      2.909      7.102
REMARK INTER + INTRA:         -12.389
REMARK INTER:                 -11.040
REMARK INTRA:                  -1.349
REMARK UNBOUND:                -1.529
REMARK SMILES CCCCCCCCCCCCCCCC(=O)[O-]
REMARK SMILES IDX 9 1 10 2 11 3 12 4 13 5 14 6 15 7 16 8 17 9 18 10 8 11 7 12
REMARK SMILES IDX 6 13 5 14 4 15 3 16 2 17 1 18
REMARK H PARENT
REMARK Flexibility Score: inf
ROOT
ATOM      1  C   UNL     1     -22.298  39.195   7.193  1.00  0.00     0.000 C 
ENDROOT
BRANCH   1   2
ATOM      2  C   UNL     1     -23.106  38.035   6.592  1.00  0.00     0.000 C 
BRANCH   2   3
ATOM      3  C   UNL     1     -23.392  36.921   7.613  1.00  0.00     0.000 C 
BRANCH   3   4
ATOM      4  C   UNL     1     -23.246  37.399   9.066  1.00  0.00     0.000 C 
BRANCH   4   5
ATOM      5  C   UNL     1     -21.984  36.846   9.752  1.00  0.00     0.000 C 
BRANCH   5   6
ATOM      6  C   UNL     1     -21.275  35.739   8.944  1.00  0.00     0.006 C 
BRANCH   6   7
ATOM      7  C   UNL     1     -19.874  36.164   8.487  1.00  0.00     0.053 C 
BRANCH   7   8
ATOM      8  C   UNL     1     -19.798  36.196   6.993  1.00  0.00     0.041 C 
ATOM      9  O   UNL     1     -18.990  36.971   6.416  1.00  0.00    -0.550 OA
ATOM     10  O   UNL     1     -20.654  35.407   6.236  1.00  0.00    -0.550 OA
ENDBRANCH   7   8
ENDBRANCH   6   7
ENDBRANCH   5   6
ENDBRANCH   4   5
ENDBRANCH   3   4
ENDBRANCH   2   3
ENDBRANCH   1   2
BRANCH   1  11
ATOM     11  C   UNL     1     -21.188  39.645   6.230  1.00  0.00     0.000 C 
BRANCH  11  12
ATOM     12  C   UNL     1     -21.518  39.339   4.760  1.00  0.00    -0.000 C 
BRANCH  12  13
ATOM     13  C   UNL     1     -21.577  40.604   3.892  1.00  0.00    -0.000 C 
BRANCH  13  14
ATOM     14  C   UNL     1     -20.418  41.553   4.225  1.00  0.00    -0.000 C 
BRANCH  14  15
ATOM     15  C   UNL     1     -20.051  42.420   3.015  1.00  0.00    -0.000 C 
BRANCH  15  16
ATOM     16  C   UNL     1     -19.308  43.688   3.453  1.00  0.00    -0.000 C 
BRANCH  16  17
ATOM     17  C   UNL     1     -18.524  43.446   4.748  1.00  0.00    -0.003 C 
ATOM     18  C   UNL     1     -18.245  44.758   5.477  1.00  0.00     0.004 C 
ENDBRANCH  16  17
ENDBRANCH  15  16
ENDBRANCH  14  15
ENDBRANCH  13  14
ENDBRANCH  12  13
ENDBRANCH  11  12
ENDBRANCH   1  11
TORSDOF 14
ENDMDL
MODEL 4
REMARK VINA RESULT:    -5.818      0.821      2.482
REMARK INTER + INTRA:         -12.109
REMARK INTER:                 -10.298
REMARK INTRA:                  -1.811
REMARK UNBOUND:                -1.529
REMARK SMILES CCCCCCCCCCCCCCCC(=O)[O-]
REMARK SMILES IDX 9 1 10 2 11 3 12 4 13 5 14 6 15 7 16 8 17 9 18 10 8 11 7 12
REMARK SMILES IDX 6 13 5 14 4 15 3 16 2 17 1 18
REMARK H PARENT
REMARK Flexibility Score: inf
ROOT
ATOM      1  C   UNL     1     -20.798  37.306   5.665  1.00  0.00     0.000 C 
ENDROOT
BRANCH   1   2
ATOM      2  C   UNL     1     -20.441  38.799   5.736  1.00  0.00     0.000 C 
BRANCH   2   3
ATOM      3  C   UNL     1     -21.576  39.652   6.328  1.00  0.00     0.000 C 
BRANCH   3   4
ATOM      4  C   UNL     1     -22.041  40.762   5.371  1.00  0.00     0.000 C 
BRANCH   4   5
ATOM      5  C   UNL     1     -21.473  40.600   3.950  1.00  0.00     0.000 C 
BRANCH   5   6
ATOM      6  C   UNL     1     -20.584  41.779   3.500  1.00  0.00     0.006 C 
BRANCH   6   7
ATOM      7  C   UNL     1     -19.612  42.224   4.600  1.00  0.00     0.053 C 
BRANCH   7   8
ATOM      8  C   UNL     1     -19.102  43.603   4.323  1.00  0.00     0.041 C 
ATOM      9  O   UNL     1     -19.317  44.146   3.207  1.00  0.00    -0.550 OA
ATOM     10  O   UNL     1     -18.345  44.268   5.278  1.00  0.00    -0.550 OA
ENDBRANCH   7   8
ENDBRANCH   6   7
ENDBRANCH   5   6
ENDBRANCH   4   5
ENDBRANCH   3   4
ENDBRANCH   2   3
ENDBRANCH   1   2
BRANCH   1  11
ATOM     11  C   UNL     1     -22.314  37.113   5.515  1.00  0.00     0.000 C 
BRANCH  11  12
ATOM     12  C   UNL     1     -22.866  36.012   6.435  1.00  0.00    -0.000 C 
BRANCH  12  13
ATOM     13  C   UNL     1     -24.018  36.505   7.322  1.00  0.00    -0.000 C 
BRANCH  13  14
ATOM     14  C   UNL     1     -23.548  37.625   8.259  1.00  0.00    -0.000 C 
BRANCH  14  15
ATOM     15  C   UNL     1     -22.853  37.051   9.499  1.00  0.00    -0.000 C 
BRANCH  15  16
ATOM     16  C   UNL     1     -21.339  37.283   9.439  1.00  0.00    -0.000 C 
BRANCH  16  17
ATOM     17  C   UNL     1     -20.594  35.976   9.144  1.00  0.00    -0.003 C 
ATOM     18  C   UNL     1     -19.206  36.249   8.573  1.00  0.00     0.004 C 
ENDBRANCH  16  17
ENDBRANCH  15  16
ENDBRANCH  14  15
ENDBRANCH  13  14
ENDBRANCH  12  13
ENDBRANCH  11  12
ENDBRANCH   1  11
TORSDOF 14
ENDMDL
MODEL 5
REMARK VINA RESULT:    -5.742      3.365      7.157
REMARK INTER + INTRA:         -11.971
REMARK INTER:                 -10.404
REMARK INTRA:                  -1.567
REMARK UNBOUND:                -1.529
REMARK SMILES CCCCCCCCCCCCCCCC(=O)[O-]
REMARK SMILES IDX 9 1 10 2 11 3 12 4 13 5 14 6 15 7 16 8 17 9 18 10 8 11 7 12
REMARK SMILES IDX 6 13 5 14 4 15 3 16 2 17 1 18
REMARK H PARENT
REMARK Flexibility Score: inf
ROOT
ATOM      1  C   UNL     1     -20.120  38.103   5.865  1.00  0.00     0.000 C 
ENDROOT
BRANCH   1   2
ATOM      2  C   UNL     1     -20.931  36.806   5.726  1.00  0.00     0.000 C 
BRANCH   2   3
ATOM      3  C   UNL     1     -20.423  35.686   6.649  1.00  0.00     0.000 C 
BRANCH   3   4
ATOM      4  C   UNL     1     -19.461  36.204   7.731  1.00  0.00     0.000 C 
BRANCH   4   5
ATOM      5  C   UNL     1     -20.085  36.195   9.138  1.00  0.00     0.000 C 
BRANCH   5   6
ATOM      6  C   UNL     1     -21.610  35.951   9.138  1.00  0.00     0.006 C 
BRANCH   6   7
ATOM      7  C   UNL     1     -22.406  37.260   9.200  1.00  0.00     0.053 C 
BRANCH   7   8
ATOM      8  C   UNL     1     -23.728  37.103   8.517  1.00  0.00     0.041 C 
ATOM      9  O   UNL     1     -24.747  37.692   8.966  1.00  0.00    -0.550 OA
ATOM     10  O   UNL     1     -23.846  36.267   7.416  1.00  0.00    -0.550 OA
ENDBRANCH   7   8
ENDBRANCH   6   7
ENDBRANCH   5   6
ENDBRANCH   4   5
ENDBRANCH   3   4
ENDBRANCH   2   3
ENDBRANCH   1   2
BRANCH   1  11
ATOM     11  C   UNL     1     -21.014  39.258   6.342  1.00  0.00     0.000 C 
BRANCH  11  12
ATOM     12  C   UNL     1     -22.386  39.272   5.648  1.00  0.00    -0.000 C 
BRANCH  12  13
ATOM     13  C   UNL     1     -22.565  40.479   4.716  1.00  0.00    -0.000 C 
BRANCH  13  14
ATOM     14  C   UNL     1     -21.494  40.486   3.617  1.00  0.00    -0.000 C 
BRANCH  14  15
ATOM     15  C   UNL     1     -20.846  41.870   3.488  1.00  0.00    -0.000 C 
BRANCH  15  16
ATOM     16  C   UNL     1     -19.571  41.961   4.334  1.00  0.00    -0.000 C 
BRANCH  16  17
ATOM     17  C   UNL     1     -18.712  43.158   3.906  1.00  0.00    -0.003 C 
ATOM     18  C   UNL     1     -18.624  44.199   5.018  1.00  0.00     0.004 C 
ENDBRANCH  16  17
ENDBRANCH  15  16
ENDBRANCH  14  15
ENDBRANCH  13  14
ENDBRANCH  12  13
ENDBRANCH  11  12
ENDBRANCH   1  11
TORSDOF 14
ENDMDL
MODEL 6
REMARK VINA RESULT:    -5.529     12.457     14.082
REMARK INTER + INTRA:         -11.584
REMARK INTER:                 -10.212
REMARK INTRA:                  -1.372
REMARK UNBOUND:                -1.529
REMARK SMILES CCCCCCCCCCCCCCCC(=O)[O-]
REMARK SMILES IDX 9 1 10 2 11 3 12 4 13 5 14 6 15 7 16 8 17 9 18 10 8 11 7 12
REMARK SMILES IDX 6 13 5 14 4 15 3 16 2 17 1 18
REMARK H PARENT
REMARK Flexibility Score: inf
ROOT
ATOM      1  C   UNL     1     -20.894  40.747  -5.949  1.00  0.00     0.000 C 
ENDROOT
BRANCH   1   2
ATOM      2  C   UNL     1     -22.345  40.336  -6.239  1.00  0.00     0.000 C 
BRANCH   2   3
ATOM      3  C   UNL     1     -23.182  41.487  -6.824  1.00  0.00     0.000 C 
BRANCH   3   4
ATOM      4  C   UNL     1     -23.494  42.577  -5.786  1.00  0.00     0.000 C 
BRANCH   4   5
ATOM      5  C   UNL     1     -22.777  43.906  -6.081  1.00  0.00     0.000 C 
BRANCH   5   6
ATOM      6  C   UNL     1     -23.597  44.870  -6.964  1.00  0.00     0.006 C 
BRANCH   6   7
ATOM      7  C   UNL     1     -24.946  45.231  -6.328  1.00  0.00     0.053 C 
BRANCH   7   8
ATOM      8  C   UNL     1     -25.920  45.666  -7.377  1.00  0.00     0.041 C 
ATOM      9  O   UNL     1     -25.679  45.451  -8.595  1.00  0.00    -0.550 OA
ATOM     10  O   UNL     1     -27.071  46.353  -7.014  1.00  0.00    -0.550 OA
ENDBRANCH   7   8
ENDBRANCH   6   7
ENDBRANCH   5   6
ENDBRANCH   4   5
ENDBRANCH   3   4
ENDBRANCH   2   3
ENDBRANCH   1   2
BRANCH   1  11
ATOM     11  C   UNL     1     -20.111  40.947  -7.255  1.00  0.00     0.000 C 
BRANCH  11  12
ATOM     12  C   UNL     1     -19.638  42.397  -7.448  1.00  0.00    -0.000 C 
BRANCH  12  13
ATOM     13  C   UNL     1     -18.239  42.646  -6.866  1.00  0.00    -0.000 C 
BRANCH  13  14
ATOM     14  C   UNL     1     -18.316  43.521  -5.609  1.00  0.00    -0.000 C 
BRANCH  14  15
ATOM     15  C   UNL     1     -17.991  42.709  -4.350  1.00  0.00    -0.000 C 
BRANCH  15  16
ATOM     16  C   UNL     1     -16.483  42.699  -4.076  1.00  0.00    -0.000 C 
BRANCH  16  17
ATOM     17  C   UNL     1     -16.005  41.295  -3.687  1.00  0.00    -0.003 C 
ATOM     18  C   UNL     1     -16.949  40.223  -4.224  1.00  0.00     0.004 C 
ENDBRANCH  16  17
ENDBRANCH  15  16
ENDBRANCH  14  15
ENDBRANCH  13  14
ENDBRANCH  12  13
ENDBRANCH  11  12
ENDBRANCH   1  11
TORSDOF 14
ENDMDL
MODEL 7
REMARK VINA RESULT:    -5.517     11.786     14.032
REMARK INTER + INTRA:         -11.562
REMARK INTER:                  -9.800
REMARK INTRA:                  -1.762
REMARK UNBOUND:                -1.529
REMARK SMILES CCCCCCCCCCCCCCCC(=O)[O-]
REMARK SMILES IDX 9 1 10 2 11 3 12 4 13 5 14 6 15 7 16 8 17 9 18 10 8 11 7 12
REMARK SMILES IDX 6 13 5 14 4 15 3 16 2 17 1 18
REMARK H PARENT
REMARK Flexibility Score: inf
ROOT
ATOM      1  C   UNL     1     -19.197  44.514  -6.583  1.00  0.00     0.000 C 
ENDROOT
BRANCH   1   2
ATOM      2  C   UNL     1     -19.797  44.835  -7.960  1.00  0.00     0.000 C 
BRANCH   2   3
ATOM      3  C   UNL     1     -21.331  44.949  -7.927  1.00  0.00     0.000 C 
BRANCH   3   4
ATOM      4  C   UNL     1     -21.876  45.170  -6.506  1.00  0.00     0.000 C 
BRANCH   4   5
ATOM      5  C   UNL     1     -23.129  44.328  -6.211  1.00  0.00     0.000 C 
BRANCH   5   6
ATOM      6  C   UNL     1     -22.814  42.898  -5.723  1.00  0.00     0.006 C 
BRANCH   6   7
ATOM      7  C   UNL     1     -23.617  41.837  -6.485  1.00  0.00     0.053 C 
BRANCH   7   8
ATOM      8  C   UNL     1     -22.713  40.753  -6.983  1.00  0.00     0.041 C 
ATOM      9  O   UNL     1     -22.260  40.795  -8.157  1.00  0.00    -0.550 OA
ATOM     10  O   UNL     1     -22.411  39.671  -6.167  1.00  0.00    -0.550 OA
ENDBRANCH   7   8
ENDBRANCH   6   7
ENDBRANCH   5   6
ENDBRANCH   4   5
ENDBRANCH   3   4
ENDBRANCH   2   3
ENDBRANCH   1   2
BRANCH   1  11
ATOM     11  C   UNL     1     -18.355  43.230  -6.639  1.00  0.00     0.000 C 
BRANCH  11  12
ATOM     12  C   UNL     1     -19.118  42.047  -7.256  1.00  0.00    -0.000 C 
BRANCH  12  13
ATOM     13  C   UNL     1     -18.892  40.735  -6.491  1.00  0.00    -0.000 C 
BRANCH  13  14
ATOM     14  C   UNL     1     -17.414  40.561  -6.123  1.00  0.00    -0.000 C 
BRANCH  14  15
ATOM     15  C   UNL     1     -17.246  40.301  -4.621  1.00  0.00    -0.000 C 
BRANCH  15  16
ATOM     16  C   UNL     1     -15.972  40.967  -4.086  1.00  0.00    -0.000 C 
BRANCH  16  17
ATOM     17  C   UNL     1     -16.218  42.446  -3.765  1.00  0.00    -0.003 C 
ATOM     18  C   UNL     1     -17.615  42.659  -3.188  1.00  0.00     0.004 C 
ENDBRANCH  16  17
ENDBRANCH  15  16
ENDBRANCH  14  15
ENDBRANCH  13  14
ENDBRANCH  12  13
ENDBRANCH  11  12
ENDBRANCH   1  11
TORSDOF 14
ENDMDL
MODEL 8
REMARK VINA RESULT:    -5.504     11.658     13.769
REMARK INTER + INTRA:         -11.538
REMARK INTER:                 -10.011
REMARK INTRA:                  -1.527
REMARK UNBOUND:                -1.529
REMARK SMILES CCCCCCCCCCCCCCCC(=O)[O-]
REMARK SMILES IDX 9 1 10 2 11 3 12 4 13 5 14 6 15 7 16 8 17 9 18 10 8 11 7 12
REMARK SMILES IDX 6 13 5 14 4 15 3 16 2 17 1 18
REMARK H PARENT
REMARK Flexibility Score: inf
ROOT
ATOM      1  C   UNL     1     -19.293  44.521  -7.237  1.00  0.00     0.000 C 
ENDROOT
BRANCH   1   2
ATOM      2  C   UNL     1     -18.756  43.443  -6.283  1.00  0.00     0.000 C 
BRANCH   2   3
ATOM      3  C   UNL     1     -18.315  42.166  -7.018  1.00  0.00     0.000 C 
BRANCH   3   4
ATOM      4  C   UNL     1     -18.625  40.889  -6.220  1.00  0.00     0.000 C 
BRANCH   4   5
ATOM      5  C   UNL     1     -17.356  40.160  -5.745  1.00  0.00     0.000 C 
BRANCH   5   6
ATOM      6  C   UNL     1     -17.259  40.018  -4.211  1.00  0.00     0.006 C 
BRANCH   6   7
ATOM      7  C   UNL     1     -16.132  40.873  -3.620  1.00  0.00     0.053 C 
BRANCH   7   8
ATOM      8  C   UNL     1     -16.540  42.312  -3.563  1.00  0.00     0.041 C 
ATOM      9  O   UNL     1     -17.598  42.648  -2.968  1.00  0.00    -0.550 OA
ATOM     10  O   UNL     1     -15.779  43.276  -4.211  1.00  0.00    -0.550 OA
ENDBRANCH   7   8
ENDBRANCH   6   7
ENDBRANCH   5   6
ENDBRANCH   4   5
ENDBRANCH   3   4
ENDBRANCH   2   3
ENDBRANCH   1   2
BRANCH   1  11
ATOM     11  C   UNL     1     -19.414  45.874  -6.520  1.00  0.00     0.000 C 
BRANCH  11  12
ATOM     12  C   UNL     1     -20.867  46.365  -6.419  1.00  0.00    -0.000 C 
BRANCH  12  13
ATOM     13  C   UNL     1     -21.878  45.330  -6.935  1.00  0.00    -0.000 C 
BRANCH  13  14
ATOM     14  C   UNL     1     -22.736  44.782  -5.788  1.00  0.00    -0.000 C 
BRANCH  14  15
ATOM     15  C   UNL     1     -23.451  43.491  -6.202  1.00  0.00    -0.000 C 
BRANCH  15  16
ATOM     16  C   UNL     1     -22.516  42.282  -6.086  1.00  0.00    -0.000 C 
BRANCH  16  17
ATOM     17  C   UNL     1     -23.253  40.981  -6.428  1.00  0.00    -0.003 C 
ATOM     18  C   UNL     1     -22.316  39.780  -6.353  1.00  0.00     0.004 C 
ENDBRANCH  16  17
ENDBRANCH  15  16
ENDBRANCH  14  15
ENDBRANCH  13  14
ENDBRANCH  12  13
ENDBRANCH  11  12
ENDBRANCH   1  11
TORSDOF 14
ENDMDL
MODEL 9
REMARK VINA RESULT:    -5.405     11.955     13.836
REMARK INTER + INTRA:         -11.357
REMARK INTER:                  -9.296
REMARK INTRA:                  -2.062
REMARK UNBOUND:                -1.529
REMARK SMILES CCCCCCCCCCCCCCCC(=O)[O-]
REMARK SMILES IDX 9 1 10 2 11 3 12 4 13 5 14 6 15 7 16 8 17 9 18 10 8 11 7 12
REMARK SMILES IDX 6 13 5 14 4 15 3 16 2 17 1 18
REMARK H PARENT
REMARK Flexibility Score: inf
ROOT
ATOM      1  C   UNL     1     -19.353  42.674  -8.321  1.00  0.00     0.000 C 
ENDROOT
BRANCH   1   2
ATOM      2  C   UNL     1     -19.763  41.235  -8.670  1.00  0.00     0.000 C 
BRANCH   2   3
ATOM      3  C   UNL     1     -21.288  41.036  -8.669  1.00  0.00     0.000 C 
BRANCH   3   4
ATOM      4  C   UNL     1     -21.776  40.228  -7.455  1.00  0.00     0.000 C 
BRANCH   4   5
ATOM      5  C   UNL     1     -22.843  40.973  -6.633  1.00  0.00     0.000 C 
BRANCH   5   6
ATOM      6  C   UNL     1     -22.926  42.482  -6.947  1.00  0.00     0.006 C 
BRANCH   6   7
ATOM      7  C   UNL     1     -23.864  43.222  -5.986  1.00  0.00     0.053 C 
BRANCH   7   8
ATOM      8  C   UNL     1     -24.124  44.612  -6.475  1.00  0.00     0.041 C 
ATOM      9  O   UNL     1     -23.237  45.235  -7.117  1.00  0.00    -0.550 OA
ATOM     10  O   UNL     1     -25.326  45.240  -6.177  1.00  0.00    -0.550 OA
ENDBRANCH   7   8
ENDBRANCH   6   7
ENDBRANCH   5   6
ENDBRANCH   4   5
ENDBRANCH   3   4
ENDBRANCH   2   3
ENDBRANCH   1   2
BRANCH   1  11
ATOM     11  C   UNL     1     -18.613  42.719  -6.975  1.00  0.00     0.000 C 
BRANCH  11  12
ATOM     12  C   UNL     1     -19.567  42.843  -5.776  1.00  0.00    -0.000 C 
BRANCH  12  13
ATOM     13  C   UNL     1     -19.535  41.607  -4.866  1.00  0.00    -0.000 C 
BRANCH  13  14
ATOM     14  C   UNL     1     -18.540  40.565  -5.390  1.00  0.00    -0.000 C 
BRANCH  14  15
ATOM     15  C   UNL     1     -17.752  39.927  -4.240  1.00  0.00    -0.000 C 
BRANCH  15  16
ATOM     16  C   UNL     1     -16.320  40.469  -4.186  1.00  0.00    -0.000 C 
BRANCH  16  17
ATOM     17  C   UNL     1     -16.235  41.709  -3.287  1.00  0.00    -0.003 C 
ATOM     18  C   UNL     1     -16.112  42.984  -4.116  1.00  0.00     0.004 C 
ENDBRANCH  16  17
ENDBRANCH  15  16
ENDBRANCH  14  15
ENDBRANCH  13  14
ENDBRANCH  12  13
ENDBRANCH  11  12
ENDBRANCH   1  11
TORSDOF 14
ENDMDL
