MODEL 1
REMARK VINA RESULT:    -4.688      0.000      0.000
REMARK INTER + INTRA:         -14.212
REMARK INTER:                 -10.716
REMARK INTRA:                  -3.495
REMARK UNBOUND:                -3.495
REMARK SMILES CCCCCCCCCCCCCCCCCCCCCCCC(=O)[O-]
REMARK SMILES IDX 13 1 14 2 15 3 16 4 17 5 18 6 19 7 20 8 21 9 22 10 23 11
REMARK SMILES IDX 24 12 25 13 26 14 12 15 11 16 10 17 9 18 8 19 7 20 6 21 5 22
REMARK SMILES IDX 4 23 3 24 2 25 1 26
REMARK H PARENT
REMARK Flexibility Score: inf
ROOT
ATOM      1  C   UNL     1     -27.275 -35.126 -13.614  1.00  0.00     0.000 C 
ENDROOT
BRANCH   1   2
ATOM      2  C   UNL     1     -27.688 -33.684 -13.952  1.00  0.00     0.000 C 
BRANCH   2   3
ATOM      3  C   UNL     1     -28.262 -32.935 -12.736  1.00  0.00     0.000 C 
BRANCH   3   4
ATOM      4  C   UNL     1     -28.397 -31.425 -12.984  1.00  0.00     0.000 C 
BRANCH   4   5
ATOM      5  C   UNL     1     -28.159 -30.597 -11.709  1.00  0.00     0.000 C 
BRANCH   5   6
ATOM      6  C   UNL     1     -26.701 -30.128 -11.570  1.00  0.00     0.000 C 
BRANCH   6   7
ATOM      7  C   UNL     1     -25.895 -30.844 -10.469  1.00  0.00     0.000 C 
BRANCH   7   8
ATOM      8  C   UNL     1     -25.192 -32.131 -10.950  1.00  0.00     0.000 C 
BRANCH   8   9
ATOM      9  C   UNL     1     -24.527 -31.953 -12.325  1.00  0.00     0.000 C 
BRANCH   9  10
ATOM     10  C   UNL     1     -23.196 -31.203 -12.205  1.00  0.00     0.006 C 
BRANCH  10  11
ATOM     11  C   UNL     1     -22.281 -31.870 -11.175  1.00  0.00     0.053 C 
BRANCH  11  12
ATOM     12  C   UNL     1     -21.773 -30.862 -10.192  1.00  0.00     0.041 C 
ATOM     13  O   UNL     1     -20.583 -30.454 -10.260  1.00  0.00    -0.550 OA
ATOM     14  O   UNL     1     -22.602 -30.404  -9.176  1.00  0.00    -0.550 OA
ENDBRANCH  11  12
ENDBRANCH  10  11
ENDBRANCH   9  10
ENDBRANCH   8   9
ENDBRANCH   7   8
ENDBRANCH   6   7
ENDBRANCH   5   6
ENDBRANCH   4   5
ENDBRANCH   3   4
ENDBRANCH   2   3
ENDBRANCH   1   2
BRANCH   1  15
ATOM     15  C   UNL     1     -26.186 -35.188 -12.529  1.00  0.00     0.000 C 
BRANCH  15  16
ATOM     16  C   UNL     1     -24.905 -35.894 -13.006  1.00  0.00     0.000 C 
BRANCH  16  17
ATOM     17  C   UNL     1     -23.656 -35.628 -12.142  1.00  0.00     0.000 C 
BRANCH  17  18
ATOM     18  C   UNL     1     -22.450 -35.029 -12.896  1.00  0.00    -0.000 C 
BRANCH  18  19
ATOM     19  C   UNL     1     -21.082 -35.280 -12.239  1.00  0.00    -0.000 C 
BRANCH  19  20
ATOM     20  C   UNL     1     -20.008 -35.718 -13.249  1.00  0.00    -0.000 C 
BRANCH  20  21
ATOM     21  C   UNL     1     -19.003 -34.598 -13.565  1.00  0.00    -0.000 C 
BRANCH  21  22
ATOM     22  C   UNL     1     -19.112 -33.415 -12.585  1.00  0.00    -0.000 C 
BRANCH  22  23
ATOM     23  C   UNL     1     -19.292 -32.063 -13.296  1.00  0.00    -0.000 C 
BRANCH  23  24
ATOM     24  C   UNL     1     -19.458 -32.144 -14.828  1.00  0.00    -0.000 C 
BRANCH  24  25
ATOM     25  C   UNL     1     -20.749 -31.509 -15.377  1.00  0.00    -0.003 C 
ATOM     26  C   UNL     1     -20.732 -31.340 -16.896  1.00  0.00     0.004 C 
ENDBRANCH  24  25
ENDBRANCH  23  24
ENDBRANCH  22  23
ENDBRANCH  21  22
ENDBRANCH  20  21
ENDBRANCH  19  20
ENDBRANCH  18  19
ENDBRANCH  17  18
ENDBRANCH  16  17
ENDBRANCH  15  16
ENDBRANCH   1  15
TORSDOF 22
ENDMDL
MODEL 2
REMARK VINA RESULT:    -4.424      2.380      6.683
REMARK INTER + INTRA:         -13.608
REMARK INTER:                  -9.690
REMARK INTRA:                  -3.918
REMARK UNBOUND:                -3.495
REMARK SMILES CCCCCCCCCCCCCCCCCCCCCCCC(=O)[O-]
REMARK SMILES IDX 13 1 14 2 15 3 16 4 17 5 18 6 19 7 20 8 21 9 22 10 23 11
REMARK SMILES IDX 24 12 25 13 26 14 12 15 11 16 10 17 9 18 8 19 7 20 6 21 5 22
REMARK SMILES IDX 4 23 3 24 2 25 1 26
REMARK H PARENT
REMARK Flexibility Score: inf
ROOT
ATOM      1  C   UNL     1     -24.059 -35.528 -12.681  1.00  0.00     0.000 C 
ENDROOT
BRANCH   1   2
ATOM      2  C   UNL     1     -22.582 -35.500 -12.260  1.00  0.00     0.000 C 
BRANCH   2   3
ATOM      3  C   UNL     1     -21.755 -34.492 -13.078  1.00  0.00     0.000 C 
BRANCH   3   4
ATOM      4  C   UNL     1     -20.360 -35.027 -13.438  1.00  0.00     0.000 C 
BRANCH   4   5
ATOM      5  C   UNL     1     -19.230 -34.138 -12.890  1.00  0.00     0.000 C 
BRANCH   5   6
ATOM      6  C   UNL     1     -19.702 -33.208 -11.760  1.00  0.00     0.000 C 
BRANCH   6   7
ATOM      7  C   UNL     1     -19.054 -31.810 -11.763  1.00  0.00     0.000 C 
BRANCH   7   8
ATOM      8  C   UNL     1     -19.047 -31.130 -13.148  1.00  0.00     0.000 C 
BRANCH   8   9
ATOM      9  C   UNL     1     -20.422 -30.552 -13.521  1.00  0.00     0.000 C 
BRANCH   9  10
ATOM     10  C   UNL     1     -21.060 -31.337 -14.673  1.00  0.00     0.006 C 
BRANCH  10  11
ATOM     11  C   UNL     1     -20.022 -31.680 -15.744  1.00  0.00     0.053 C 
BRANCH  11  12
ATOM     12  C   UNL     1     -20.422 -31.104 -17.067  1.00  0.00     0.041 C 
ATOM     13  O   UNL     1     -21.186 -31.747 -17.834  1.00  0.00    -0.550 OA
ATOM     14  O   UNL     1     -19.917 -29.875 -17.469  1.00  0.00    -0.550 OA
ENDBRANCH  11  12
ENDBRANCH  10  11
ENDBRANCH   9  10
ENDBRANCH   8   9
ENDBRANCH   7   8
ENDBRANCH   6   7
ENDBRANCH   5   6
ENDBRANCH   4   5
ENDBRANCH   3   4
ENDBRANCH   2   3
ENDBRANCH   1   2
BRANCH   1  15
ATOM     15  C   UNL     1     -25.016 -35.459 -11.478  1.00  0.00     0.000 C 
BRANCH  15  16
ATOM     16  C   UNL     1     -26.336 -34.738 -11.804  1.00  0.00     0.000 C 
BRANCH  16  17
ATOM     17  C   UNL     1     -26.841 -34.927 -13.249  1.00  0.00     0.000 C 
BRANCH  17  18
ATOM     18  C   UNL     1     -27.888 -33.896 -13.719  1.00  0.00    -0.000 C 
BRANCH  18  19
ATOM     19  C   UNL     1     -28.501 -33.034 -12.602  1.00  0.00    -0.000 C 
BRANCH  19  20
ATOM     20  C   UNL     1     -28.575 -31.543 -12.973  1.00  0.00    -0.000 C 
BRANCH  20  21
ATOM     21  C   UNL     1     -28.025 -30.631 -11.864  1.00  0.00    -0.000 C 
BRANCH  21  22
ATOM     22  C   UNL     1     -26.625 -31.060 -11.389  1.00  0.00    -0.000 C 
BRANCH  22  23
ATOM     23  C   UNL     1     -25.527 -30.773 -12.427  1.00  0.00    -0.000 C 
BRANCH  23  24
ATOM     24  C   UNL     1     -24.287 -31.687 -12.342  1.00  0.00    -0.000 C 
BRANCH  24  25
ATOM     25  C   UNL     1     -23.742 -31.915 -10.920  1.00  0.00    -0.003 C 
ATOM     26  C   UNL     1     -22.512 -31.063 -10.608  1.00  0.00     0.004 C 
ENDBRANCH  24  25
ENDBRANCH  23  24
ENDBRANCH  22  23
ENDBRANCH  21  22
ENDBRANCH  20  21
ENDBRANCH  19  20
ENDBRANCH  18  19
ENDBRANCH  17  18
ENDBRANCH  16  17
ENDBRANCH  15  16
ENDBRANCH   1  15
TORSDOF 22
ENDMDL
MODEL 3
REMARK VINA RESULT:    -4.241      2.015      4.126
REMARK INTER + INTRA:         -13.190
REMARK INTER:                 -10.177
REMARK INTRA:                  -3.013
REMARK UNBOUND:                -3.495
REMARK SMILES CCCCCCCCCCCCCCCCCCCCCCCC(=O)[O-]
REMARK SMILES IDX 13 1 14 2 15 3 16 4 17 5 18 6 19 7 20 8 21 9 22 10 23 11
REMARK SMILES IDX 24 12 25 13 26 14 12 15 11 16 10 17 9 18 8 19 7 20 6 21 5 22
REMARK SMILES IDX 4 23 3 24 2 25 1 26
REMARK H PARENT
REMARK Flexibility Score: inf
ROOT
ATOM      1  C   UNL     1     -22.703 -32.034 -12.410  1.00  0.00     0.000 C 
ENDROOT
BRANCH   1   2
ATOM      2  C   UNL     1     -23.977 -31.269 -12.019  1.00  0.00     0.000 C 
BRANCH   2   3
ATOM      3  C   UNL     1     -24.419 -31.560 -10.573  1.00  0.00     0.000 C 
BRANCH   3   4
ATOM      4  C   UNL     1     -25.943 -31.468 -10.393  1.00  0.00     0.000 C 
BRANCH   4   5
ATOM      5  C   UNL     1     -26.547 -30.254 -11.121  1.00  0.00     0.000 C 
BRANCH   5   6
ATOM      6  C   UNL     1     -27.983 -30.509 -11.608  1.00  0.00     0.000 C 
BRANCH   6   7
ATOM      7  C   UNL     1     -28.085 -31.202 -12.981  1.00  0.00     0.000 C 
BRANCH   7   8
ATOM      8  C   UNL     1     -28.621 -32.648 -12.910  1.00  0.00     0.000 C 
BRANCH   8   9
ATOM      9  C   UNL     1     -27.740 -33.635 -13.693  1.00  0.00     0.000 C 
BRANCH   9  10
ATOM     10  C   UNL     1     -27.173 -34.722 -12.772  1.00  0.00     0.006 C 
BRANCH  10  11
ATOM     11  C   UNL     1     -25.930 -35.370 -13.387  1.00  0.00     0.053 C 
BRANCH  11  12
ATOM     12  C   UNL     1     -24.847 -35.506 -12.364  1.00  0.00     0.041 C 
ATOM     13  O   UNL     1     -23.642 -35.589 -12.722  1.00  0.00    -0.550 OA
ATOM     14  O   UNL     1     -25.171 -35.584 -11.016  1.00  0.00    -0.550 OA
ENDBRANCH  11  12
ENDBRANCH  10  11
ENDBRANCH   9  10
ENDBRANCH   8   9
ENDBRANCH   7   8
ENDBRANCH   6   7
ENDBRANCH   5   6
ENDBRANCH   4   5
ENDBRANCH   3   4
ENDBRANCH   2   3
ENDBRANCH   1   2
BRANCH   1  15
ATOM     15  C   UNL     1     -21.423 -31.330 -11.928  1.00  0.00     0.000 C 
BRANCH  15  16
ATOM     16  C   UNL     1     -20.761 -32.042 -10.735  1.00  0.00     0.000 C 
BRANCH  16  17
ATOM     17  C   UNL     1     -19.352 -32.603 -11.011  1.00  0.00     0.000 C 
BRANCH  17  18
ATOM     18  C   UNL     1     -19.219 -34.135 -10.890  1.00  0.00    -0.000 C 
BRANCH  18  19
ATOM     19  C   UNL     1     -20.388 -34.939 -11.485  1.00  0.00    -0.000 C 
BRANCH  19  20
ATOM     20  C   UNL     1     -20.064 -35.521 -12.872  1.00  0.00    -0.000 C 
BRANCH  20  21
ATOM     21  C   UNL     1     -20.334 -34.521 -14.009  1.00  0.00    -0.000 C 
BRANCH  21  22
ATOM     22  C   UNL     1     -19.059 -33.783 -14.458  1.00  0.00    -0.000 C 
BRANCH  22  23
ATOM     23  C   UNL     1     -19.312 -32.304 -14.797  1.00  0.00    -0.000 C 
BRANCH  23  24
ATOM     24  C   UNL     1     -20.664 -32.007 -15.478  1.00  0.00    -0.000 C 
BRANCH  24  25
ATOM     25  C   UNL     1     -20.680 -30.758 -16.378  1.00  0.00    -0.003 C 
ATOM     26  C   UNL     1     -20.674 -31.095 -17.869  1.00  0.00     0.004 C 
ENDBRANCH  24  25
ENDBRANCH  23  24
ENDBRANCH  22  23
ENDBRANCH  21  22
ENDBRANCH  20  21
ENDBRANCH  19  20
ENDBRANCH  18  19
ENDBRANCH  17  18
ENDBRANCH  16  17
ENDBRANCH  15  16
ENDBRANCH   1  15
TORSDOF 22
ENDMDL
MODEL 4
REMARK VINA RESULT:    -4.223      2.767      7.486
REMARK INTER + INTRA:         -13.151
REMARK INTER:                 -10.460
REMARK INTRA:                  -2.690
REMARK UNBOUND:                -3.495
REMARK SMILES CCCCCCCCCCCCCCCCCCCCCCCC(=O)[O-]
REMARK SMILES IDX 13 1 14 2 15 3 16 4 17 5 18 6 19 7 20 8 21 9 22 10 23 11
REMARK SMILES IDX 24 12 25 13 26 14 12 15 11 16 10 17 9 18 8 19 7 20 6 21 5 22
REMARK SMILES IDX 4 23 3 24 2 25 1 26
REMARK H PARENT
REMARK Flexibility Score: inf
ROOT
ATOM      1  C   UNL     1     -23.925 -34.897 -12.266  1.00  0.00     0.000 C 
ENDROOT
BRANCH   1   2
ATOM      2  C   UNL     1     -22.581 -34.711 -12.988  1.00  0.00     0.000 C 
BRANCH   2   3
ATOM      3  C   UNL     1     -21.438 -35.491 -12.315  1.00  0.00     0.000 C 
BRANCH   3   4
ATOM      4  C   UNL     1     -20.514 -34.584 -11.486  1.00  0.00     0.000 C 
BRANCH   4   5
ATOM      5  C   UNL     1     -19.086 -34.522 -12.057  1.00  0.00     0.000 C 
BRANCH   5   6
ATOM      6  C   UNL     1     -19.035 -34.832 -13.562  1.00  0.00     0.000 C 
BRANCH   6   7
ATOM      7  C   UNL     1     -18.980 -33.591 -14.475  1.00  0.00     0.000 C 
BRANCH   7   8
ATOM      8  C   UNL     1     -20.355 -33.168 -15.034  1.00  0.00     0.000 C 
BRANCH   8   9
ATOM      9  C   UNL     1     -20.765 -31.761 -14.571  1.00  0.00     0.000 C 
BRANCH   9  10
ATOM     10  C   UNL     1     -20.711 -30.758 -15.729  1.00  0.00     0.006 C 
BRANCH  10  11
ATOM     11  C   UNL     1     -20.769 -31.476 -17.080  1.00  0.00     0.053 C 
BRANCH  11  12
ATOM     12  C   UNL     1     -20.295 -30.573 -18.175  1.00  0.00     0.041 C 
ATOM     13  O   UNL     1     -21.122 -30.051 -18.970  1.00  0.00    -0.550 OA
ATOM     14  O   UNL     1     -18.936 -30.341 -18.345  1.00  0.00    -0.550 OA
ENDBRANCH  11  12
ENDBRANCH  10  11
ENDBRANCH   9  10
ENDBRANCH   8   9
ENDBRANCH   7   8
ENDBRANCH   6   7
ENDBRANCH   5   6
ENDBRANCH   4   5
ENDBRANCH   3   4
ENDBRANCH   2   3
ENDBRANCH   1   2
BRANCH   1  15
ATOM     15  C   UNL     1     -24.506 -33.568 -11.753  1.00  0.00     0.000 C 
BRANCH  15  16
ATOM     16  C   UNL     1     -23.642 -32.352 -12.128  1.00  0.00     0.000 C 
BRANCH  16  17
ATOM     17  C   UNL     1     -23.887 -31.091 -11.276  1.00  0.00     0.000 C 
BRANCH  17  18
ATOM     18  C   UNL     1     -25.167 -31.118 -10.414  1.00  0.00    -0.000 C 
BRANCH  18  19
ATOM     19  C   UNL     1     -26.218 -30.054 -10.776  1.00  0.00    -0.000 C 
BRANCH  19  20
ATOM     20  C   UNL     1     -27.531 -30.666 -11.294  1.00  0.00    -0.000 C 
BRANCH  20  21
ATOM     21  C   UNL     1     -27.467 -31.021 -12.789  1.00  0.00    -0.000 C 
BRANCH  21  22
ATOM     22  C   UNL     1     -28.198 -32.337 -13.114  1.00  0.00    -0.000 C 
BRANCH  22  23
ATOM     23  C   UNL     1     -28.149 -33.350 -11.957  1.00  0.00    -0.000 C 
BRANCH  23  24
ATOM     24  C   UNL     1     -28.014 -34.827 -12.382  1.00  0.00    -0.000 C 
BRANCH  24  25
ATOM     25  C   UNL     1     -27.087 -35.076 -13.586  1.00  0.00    -0.003 C 
ATOM     26  C   UNL     1     -27.851 -35.408 -14.868  1.00  0.00     0.004 C 
ENDBRANCH  24  25
ENDBRANCH  23  24
ENDBRANCH  22  23
ENDBRANCH  21  22
ENDBRANCH  20  21
ENDBRANCH  19  20
ENDBRANCH  18  19
ENDBRANCH  17  18
ENDBRANCH  16  17
ENDBRANCH  15  16
ENDBRANCH   1  15
TORSDOF 22
ENDMDL
MODEL 5
REMARK VINA RESULT:    -4.170      2.366      6.204
REMARK INTER + INTRA:         -13.028
REMARK INTER:                  -9.982
REMARK INTRA:                  -3.045
REMARK UNBOUND:                -3.495
REMARK SMILES CCCCCCCCCCCCCCCCCCCCCCCC(=O)[O-]
REMARK SMILES IDX 13 1 14 2 15 3 16 4 17 5 18 6 19 7 20 8 21 9 22 10 23 11
REMARK SMILES IDX 24 12 25 13 26 14 12 15 11 16 10 17 9 18 8 19 7 20 6 21 5 22
REMARK SMILES IDX 4 23 3 24 2 25 1 26
REMARK H PARENT
REMARK Flexibility Score: inf
ROOT
ATOM      1  C   UNL     1     -26.669 -35.273 -13.555  1.00  0.00     0.000 C 
ENDROOT
BRANCH   1   2
ATOM      2  C   UNL     1     -25.645 -34.879 -12.479  1.00  0.00     0.000 C 
BRANCH   2   3
ATOM      3  C   UNL     1     -24.319 -35.650 -12.617  1.00  0.00     0.000 C 
BRANCH   3   4
ATOM      4  C   UNL     1     -23.097 -34.719 -12.642  1.00  0.00     0.000 C 
BRANCH   4   5
ATOM      5  C   UNL     1     -21.768 -35.495 -12.625  1.00  0.00     0.000 C 
BRANCH   5   6
ATOM      6  C   UNL     1     -20.697 -34.820 -11.752  1.00  0.00     0.000 C 
BRANCH   6   7
ATOM      7  C   UNL     1     -20.180 -33.473 -12.292  1.00  0.00     0.000 C 
BRANCH   7   8
ATOM      8  C   UNL     1     -18.980 -33.607 -13.254  1.00  0.00     0.000 C 
BRANCH   8   9
ATOM      9  C   UNL     1     -19.315 -33.128 -14.676  1.00  0.00     0.000 C 
BRANCH   9  10
ATOM     10  C   UNL     1     -20.744 -32.576 -14.752  1.00  0.00     0.006 C 
BRANCH  10  11
ATOM     11  C   UNL     1     -20.760 -31.178 -15.375  1.00  0.00     0.053 C 
BRANCH  11  12
ATOM     12  C   UNL     1     -20.375 -31.243 -16.820  1.00  0.00     0.041 C 
ATOM     13  O   UNL     1     -21.109 -31.847 -17.646  1.00  0.00    -0.550 OA
ATOM     14  O   UNL     1     -19.184 -30.669 -17.248  1.00  0.00    -0.550 OA
ENDBRANCH  11  12
ENDBRANCH  10  11
ENDBRANCH   9  10
ENDBRANCH   8   9
ENDBRANCH   7   8
ENDBRANCH   6   7
ENDBRANCH   5   6
ENDBRANCH   4   5
ENDBRANCH   3   4
ENDBRANCH   2   3
ENDBRANCH   1   2
BRANCH   1  15
ATOM     15  C   UNL     1     -27.996 -34.507 -13.414  1.00  0.00     0.000 C 
BRANCH  15  16
ATOM     16  C   UNL     1     -27.889 -33.294 -12.473  1.00  0.00     0.000 C 
BRANCH  16  17
ATOM     17  C   UNL     1     -28.195 -31.933 -13.130  1.00  0.00     0.000 C 
BRANCH  17  18
ATOM     18  C   UNL     1     -28.224 -30.729 -12.165  1.00  0.00    -0.000 C 
BRANCH  18  19
ATOM     19  C   UNL     1     -27.505 -30.953 -10.823  1.00  0.00    -0.000 C 
BRANCH  19  20
ATOM     20  C   UNL     1     -26.071 -30.395 -10.816  1.00  0.00    -0.000 C 
BRANCH  20  21
ATOM     21  C   UNL     1     -25.007 -31.503 -10.886  1.00  0.00    -0.000 C 
BRANCH  21  22
ATOM     22  C   UNL     1     -24.234 -31.494 -12.217  1.00  0.00    -0.000 C 
BRANCH  22  23
ATOM     23  C   UNL     1     -22.816 -30.915 -12.082  1.00  0.00    -0.000 C 
BRANCH  23  24
ATOM     24  C   UNL     1     -22.496 -30.269 -10.718  1.00  0.00    -0.000 C 
BRANCH  24  25
ATOM     25  C   UNL     1     -21.284 -30.868  -9.981  1.00  0.00    -0.003 C 
ATOM     26  C   UNL     1     -21.136 -30.346  -8.553  1.00  0.00     0.004 C 
ENDBRANCH  24  25
ENDBRANCH  23  24
ENDBRANCH  22  23
ENDBRANCH  21  22
ENDBRANCH  20  21
ENDBRANCH  19  20
ENDBRANCH  18  19
ENDBRANCH  17  18
ENDBRANCH  16  17
ENDBRANCH  15  16
ENDBRANCH   1  15
TORSDOF 22
ENDMDL
MODEL 6
REMARK VINA RESULT:    -4.135      1.973      7.202
REMARK INTER + INTRA:         -12.949
REMARK INTER:                 -10.084
REMARK INTRA:                  -2.865
REMARK UNBOUND:                -3.495
REMARK SMILES CCCCCCCCCCCCCCCCCCCCCCCC(=O)[O-]
REMARK SMILES IDX 13 1 14 2 15 3 16 4 17 5 18 6 19 7 20 8 21 9 22 10 23 11
REMARK SMILES IDX 24 12 25 13 26 14 12 15 11 16 10 17 9 18 8 19 7 20 6 21 5 22
REMARK SMILES IDX 4 23 3 24 2 25 1 26
REMARK H PARENT
REMARK Flexibility Score: inf
ROOT
ATOM      1  C   UNL     1     -22.299 -30.705 -10.844  1.00  0.00     0.000 C 
ENDROOT
BRANCH   1   2
ATOM      2  C   UNL     1     -21.104 -31.607 -11.191  1.00  0.00     0.000 C 
BRANCH   2   3
ATOM      3  C   UNL     1     -19.849 -30.801 -11.574  1.00  0.00     0.000 C 
BRANCH   3   4
ATOM      4  C   UNL     1     -19.361 -31.111 -12.998  1.00  0.00     0.000 C 
BRANCH   4   5
ATOM      5  C   UNL     1     -20.520 -31.428 -13.959  1.00  0.00     0.000 C 
BRANCH   5   6
ATOM      6  C   UNL     1     -20.141 -32.475 -15.020  1.00  0.00     0.000 C 
BRANCH   6   7
ATOM      7  C   UNL     1     -20.844 -33.838 -14.861  1.00  0.00     0.000 C 
BRANCH   7   8
ATOM      8  C   UNL     1     -21.496 -34.044 -13.477  1.00  0.00     0.000 C 
BRANCH   8   9
ATOM      9  C   UNL     1     -21.046 -35.353 -12.809  1.00  0.00     0.000 C 
BRANCH   9  10
ATOM     10  C   UNL     1     -19.560 -35.303 -12.437  1.00  0.00     0.006 C 
BRANCH  10  11
ATOM     11  C   UNL     1     -19.211 -36.393 -11.421  1.00  0.00     0.053 C 
BRANCH  11  12
ATOM     12  C   UNL     1     -18.974 -35.796 -10.069  1.00  0.00     0.041 C 
ATOM     13  O   UNL     1     -18.899 -36.535  -9.052  1.00  0.00    -0.550 OA
ATOM     14  O   UNL     1     -18.877 -34.417  -9.928  1.00  0.00    -0.550 OA
ENDBRANCH  11  12
ENDBRANCH  10  11
ENDBRANCH   9  10
ENDBRANCH   8   9
ENDBRANCH   7   8
ENDBRANCH   6   7
ENDBRANCH   5   6
ENDBRANCH   4   5
ENDBRANCH   3   4
ENDBRANCH   2   3
ENDBRANCH   1   2
BRANCH   1  15
ATOM     15  C   UNL     1     -23.606 -31.182 -11.500  1.00  0.00     0.000 C 
BRANCH  15  16
ATOM     16  C   UNL     1     -24.715 -31.483 -10.476  1.00  0.00     0.000 C 
BRANCH  16  17
ATOM     17  C   UNL     1     -25.895 -30.491 -10.485  1.00  0.00     0.000 C 
BRANCH  17  18
ATOM     18  C   UNL     1     -27.274 -31.112 -10.791  1.00  0.00    -0.000 C 
BRANCH  18  19
ATOM     19  C   UNL     1     -28.054 -30.436 -11.931  1.00  0.00    -0.000 C 
BRANCH  19  20
ATOM     20  C   UNL     1     -28.166 -31.323 -13.183  1.00  0.00    -0.000 C 
BRANCH  20  21
ATOM     21  C   UNL     1     -28.601 -32.760 -12.852  1.00  0.00    -0.000 C 
BRANCH  21  22
ATOM     22  C   UNL     1     -27.745 -33.816 -13.575  1.00  0.00    -0.000 C 
BRANCH  22  23
ATOM     23  C   UNL     1     -27.362 -34.998 -12.669  1.00  0.00    -0.000 C 
BRANCH  23  24
ATOM     24  C   UNL     1     -26.357 -34.668 -11.546  1.00  0.00    -0.000 C 
BRANCH  24  25
ATOM     25  C   UNL     1     -24.917 -35.150 -11.798  1.00  0.00    -0.003 C 
ATOM     26  C   UNL     1     -24.802 -36.083 -13.003  1.00  0.00     0.004 C 
ENDBRANCH  24  25
ENDBRANCH  23  24
ENDBRANCH  22  23
ENDBRANCH  21  22
ENDBRANCH  20  21
ENDBRANCH  19  20
ENDBRANCH  18  19
ENDBRANCH  17  18
ENDBRANCH  16  17
ENDBRANCH  15  16
ENDBRANCH   1  15
TORSDOF 22
ENDMDL
MODEL 7
REMARK VINA RESULT:    -4.068      2.712      4.993
REMARK INTER + INTRA:         -12.796
REMARK INTER:                  -8.984
REMARK INTRA:                  -3.811
REMARK UNBOUND:                -3.495
REMARK SMILES CCCCCCCCCCCCCCCCCCCCCCCC(=O)[O-]
REMARK SMILES IDX 13 1 14 2 15 3 16 4 17 5 18 6 19 7 20 8 21 9 22 10 23 11
REMARK SMILES IDX 24 12 25 13 26 14 12 15 11 16 10 17 9 18 8 19 7 20 6 21 5 22
REMARK SMILES IDX 4 23 3 24 2 25 1 26
REMARK H PARENT
REMARK Flexibility Score: inf
ROOT
ATOM      1  C   UNL     1     -22.830 -34.154 -12.710  1.00  0.00     0.000 C 
ENDROOT
BRANCH   1   2
ATOM      2  C   UNL     1     -22.306 -32.944 -11.921  1.00  0.00     0.000 C 
BRANCH   2   3
ATOM      3  C   UNL     1     -22.922 -31.616 -12.401  1.00  0.00     0.000 C 
BRANCH   3   4
ATOM      4  C   UNL     1     -23.269 -30.673 -11.238  1.00  0.00     0.000 C 
BRANCH   4   5
ATOM      5  C   UNL     1     -24.641 -29.999 -11.418  1.00  0.00     0.000 C 
BRANCH   5   6
ATOM      6  C   UNL     1     -25.309 -30.364 -12.754  1.00  0.00     0.000 C 
BRANCH   6   7
ATOM      7  C   UNL     1     -26.648 -31.116 -12.621  1.00  0.00     0.000 C 
BRANCH   7   8
ATOM      8  C   UNL     1     -26.769 -31.947 -11.325  1.00  0.00     0.000 C 
BRANCH   8   9
ATOM      9  C   UNL     1     -25.968 -33.257 -11.396  1.00  0.00     0.000 C 
BRANCH   9  10
ATOM     10  C   UNL     1     -26.890 -34.477 -11.279  1.00  0.00     0.006 C 
BRANCH  10  11
ATOM     11  C   UNL     1     -27.859 -34.548 -12.461  1.00  0.00     0.053 C 
BRANCH  11  12
ATOM     12  C   UNL     1     -27.186 -35.144 -13.658  1.00  0.00     0.041 C 
ATOM     13  O   UNL     1     -27.746 -35.109 -14.785  1.00  0.00    -0.550 OA
ATOM     14  O   UNL     1     -25.957 -35.777 -13.519  1.00  0.00    -0.550 OA
ENDBRANCH  11  12
ENDBRANCH  10  11
ENDBRANCH   9  10
ENDBRANCH   8   9
ENDBRANCH   7   8
ENDBRANCH   6   7
ENDBRANCH   5   6
ENDBRANCH   4   5
ENDBRANCH   3   4
ENDBRANCH   2   3
ENDBRANCH   1   2
BRANCH   1  15
ATOM     15  C   UNL     1     -22.167 -35.472 -12.275  1.00  0.00     0.000 C 
BRANCH  15  16
ATOM     16  C   UNL     1     -20.629 -35.408 -12.307  1.00  0.00     0.000 C 
BRANCH  16  17
ATOM     17  C   UNL     1     -20.011 -35.328 -13.718  1.00  0.00     0.000 C 
BRANCH  17  18
ATOM     18  C   UNL     1     -19.502 -33.933 -14.134  1.00  0.00    -0.000 C 
BRANCH  18  19
ATOM     19  C   UNL     1     -20.312 -33.250 -15.251  1.00  0.00    -0.000 C 
BRANCH  19  20
ATOM     20  C   UNL     1     -20.496 -31.741 -15.015  1.00  0.00    -0.000 C 
BRANCH  20  21
ATOM     21  C   UNL     1     -19.299 -31.107 -14.288  1.00  0.00    -0.000 C 
BRANCH  21  22
ATOM     22  C   UNL     1     -19.730 -30.065 -13.240  1.00  0.00    -0.000 C 
BRANCH  22  23
ATOM     23  C   UNL     1     -19.034 -30.259 -11.882  1.00  0.00    -0.000 C 
BRANCH  23  24
ATOM     24  C   UNL     1     -18.881 -31.725 -11.424  1.00  0.00    -0.000 C 
BRANCH  24  25
ATOM     25  C   UNL     1     -19.342 -32.008  -9.982  1.00  0.00    -0.003 C 
ATOM     26  C   UNL     1     -20.076 -30.827  -9.348  1.00  0.00     0.004 C 
ENDBRANCH  24  25
ENDBRANCH  23  24
ENDBRANCH  22  23
ENDBRANCH  21  22
ENDBRANCH  20  21
ENDBRANCH  19  20
ENDBRANCH  18  19
ENDBRANCH  17  18
ENDBRANCH  16  17
ENDBRANCH  15  16
ENDBRANCH   1  15
TORSDOF 22
ENDMDL
MODEL 8
REMARK VINA RESULT:    -4.063      2.600      7.091
REMARK INTER + INTRA:         -12.783
REMARK INTER:                  -9.671
REMARK INTRA:                  -3.112
REMARK UNBOUND:                -3.495
REMARK SMILES CCCCCCCCCCCCCCCCCCCCCCCC(=O)[O-]
REMARK SMILES IDX 13 1 14 2 15 3 16 4 17 5 18 6 19 7 20 8 21 9 22 10 23 11
REMARK SMILES IDX 24 12 25 13 26 14 12 15 11 16 10 17 9 18 8 19 7 20 6 21 5 22
REMARK SMILES IDX 4 23 3 24 2 25 1 26
REMARK H PARENT
REMARK Flexibility Score: inf
ROOT
ATOM      1  C   UNL     1     -22.744 -30.688  -9.898  1.00  0.00     0.000 C 
ENDROOT
BRANCH   1   2
ATOM      2  C   UNL     1     -21.242 -30.889 -10.155  1.00  0.00     0.000 C 
BRANCH   2   3
ATOM      3  C   UNL     1     -20.968 -31.773 -11.384  1.00  0.00     0.000 C 
BRANCH   3   4
ATOM      4  C   UNL     1     -20.306 -33.109 -11.013  1.00  0.00     0.000 C 
BRANCH   4   5
ATOM      5  C   UNL     1     -20.671 -34.238 -11.994  1.00  0.00     0.000 C 
BRANCH   5   6
ATOM      6  C   UNL     1     -21.559 -33.753 -13.152  1.00  0.00     0.000 C 
BRANCH   6   7
ATOM      7  C   UNL     1     -20.922 -33.881 -14.550  1.00  0.00     0.000 C 
BRANCH   7   8
ATOM      8  C   UNL     1     -19.450 -33.421 -14.608  1.00  0.00     0.000 C 
BRANCH   8   9
ATOM      9  C   UNL     1     -19.320 -31.893 -14.718  1.00  0.00     0.000 C 
BRANCH   9  10
ATOM     10  C   UNL     1     -20.607 -31.265 -15.264  1.00  0.00     0.006 C 
BRANCH  10  11
ATOM     11  C   UNL     1     -20.304 -30.314 -16.424  1.00  0.00     0.053 C 
BRANCH  11  12
ATOM     12  C   UNL     1     -20.739 -30.916 -17.724  1.00  0.00     0.041 C 
ATOM     13  O   UNL     1     -20.734 -30.224 -18.777  1.00  0.00    -0.550 OA
ATOM     14  O   UNL     1     -21.188 -32.229 -17.764  1.00  0.00    -0.550 OA
ENDBRANCH  11  12
ENDBRANCH  10  11
ENDBRANCH   9  10
ENDBRANCH   8   9
ENDBRANCH   7   8
ENDBRANCH   6   7
ENDBRANCH   5   6
ENDBRANCH   4   5
ENDBRANCH   3   4
ENDBRANCH   2   3
ENDBRANCH   1   2
BRANCH   1  15
ATOM     15  C   UNL     1     -23.586 -30.842 -11.177  1.00  0.00     0.000 C 
BRANCH  15  16
ATOM     16  C   UNL     1     -25.064 -31.157 -10.886  1.00  0.00     0.000 C 
BRANCH  16  17
ATOM     17  C   UNL     1     -25.407 -32.659 -10.816  1.00  0.00     0.000 C 
BRANCH  17  18
ATOM     18  C   UNL     1     -24.775 -33.530 -11.921  1.00  0.00    -0.000 C 
BRANCH  18  19
ATOM     19  C   UNL     1     -25.111 -35.030 -11.840  1.00  0.00    -0.000 C 
BRANCH  19  20
ATOM     20  C   UNL     1     -25.498 -35.627 -13.203  1.00  0.00    -0.000 C 
BRANCH  20  21
ATOM     21  C   UNL     1     -26.878 -35.152 -13.686  1.00  0.00    -0.000 C 
BRANCH  21  22
ATOM     22  C   UNL     1     -27.916 -35.108 -12.549  1.00  0.00    -0.000 C 
BRANCH  22  23
ATOM     23  C   UNL     1     -28.573 -33.726 -12.392  1.00  0.00    -0.000 C 
BRANCH  23  24
ATOM     24  C   UNL     1     -28.017 -32.625 -13.319  1.00  0.00    -0.000 C 
BRANCH  24  25
ATOM     25  C   UNL     1     -28.552 -31.208 -13.039  1.00  0.00    -0.003 C 
ATOM     26  C   UNL     1     -27.493 -30.122 -13.230  1.00  0.00     0.004 C 
ENDBRANCH  24  25
ENDBRANCH  23  24
ENDBRANCH  22  23
ENDBRANCH  21  22
ENDBRANCH  20  21
ENDBRANCH  19  20
ENDBRANCH  18  19
ENDBRANCH  17  18
ENDBRANCH  16  17
ENDBRANCH  15  16
ENDBRANCH   1  15
TORSDOF 22
ENDMDL
MODEL 9
REMARK VINA RESULT:    -4.013      2.357      4.879
REMARK INTER + INTRA:         -12.669
REMARK INTER:                  -9.997
REMARK INTRA:                  -2.672
REMARK UNBOUND:                -3.495
REMARK SMILES CCCCCCCCCCCCCCCCCCCCCCCC(=O)[O-]
REMARK SMILES IDX 13 1 14 2 15 3 16 4 17 5 18 6 19 7 20 8 21 9 22 10 23 11
REMARK SMILES IDX 24 12 25 13 26 14 12 15 11 16 10 17 9 18 8 19 7 20 6 21 5 22
REMARK SMILES IDX 4 23 3 24 2 25 1 26
REMARK H PARENT
REMARK Flexibility Score: inf
ROOT
ATOM      1  C   UNL     1     -24.869 -31.389 -10.550  1.00  0.00     0.000 C 
ENDROOT
BRANCH   1   2
ATOM      2  C   UNL     1     -26.222 -30.956  -9.966  1.00  0.00     0.000 C 
BRANCH   2   3
ATOM      3  C   UNL     1     -27.113 -30.249 -11.003  1.00  0.00     0.000 C 
BRANCH   3   4
ATOM      4  C   UNL     1     -26.356 -29.911 -12.297  1.00  0.00     0.000 C 
BRANCH   4   5
ATOM      5  C   UNL     1     -26.796 -30.790 -13.481  1.00  0.00     0.000 C 
BRANCH   5   6
ATOM      6  C   UNL     1     -28.183 -31.419 -13.271  1.00  0.00     0.000 C 
BRANCH   6   7
ATOM      7  C   UNL     1     -28.209 -32.959 -13.330  1.00  0.00     0.000 C 
BRANCH   7   8
ATOM      8  C   UNL     1     -28.615 -33.626 -11.998  1.00  0.00     0.000 C 
BRANCH   8   9
ATOM      9  C   UNL     1     -27.644 -34.744 -11.586  1.00  0.00     0.000 C 
BRANCH   9  10
ATOM     10  C   UNL     1     -26.199 -34.234 -11.538  1.00  0.00     0.006 C 
BRANCH  10  11
ATOM     11  C   UNL     1     -25.218 -35.384 -11.295  1.00  0.00     0.053 C 
BRANCH  11  12
ATOM     12  C   UNL     1     -24.536 -35.771 -12.569  1.00  0.00     0.041 C 
ATOM     13  O   UNL     1     -25.189 -36.315 -13.498  1.00  0.00    -0.550 OA
ATOM     14  O   UNL     1     -23.170 -35.569 -12.714  1.00  0.00    -0.550 OA
ENDBRANCH  11  12
ENDBRANCH  10  11
ENDBRANCH   9  10
ENDBRANCH   8   9
ENDBRANCH   7   8
ENDBRANCH   6   7
ENDBRANCH   5   6
ENDBRANCH   4   5
ENDBRANCH   3   4
ENDBRANCH   2   3
ENDBRANCH   1   2
BRANCH   1  15
ATOM     15  C   UNL     1     -23.695 -30.569  -9.987  1.00  0.00     0.000 C 
BRANCH  15  16
ATOM     16  C   UNL     1     -22.344 -30.942 -10.624  1.00  0.00     0.000 C 
BRANCH  16  17
ATOM     17  C   UNL     1     -21.856 -29.980 -11.725  1.00  0.00     0.000 C 
BRANCH  17  18
ATOM     18  C   UNL     1     -22.618 -30.070 -13.063  1.00  0.00    -0.000 C 
BRANCH  18  19
ATOM     19  C   UNL     1     -21.733 -30.280 -14.304  1.00  0.00    -0.000 C 
BRANCH  19  20
ATOM     20  C   UNL     1     -20.659 -31.361 -14.093  1.00  0.00    -0.000 C 
BRANCH  20  21
ATOM     21  C   UNL     1     -21.264 -32.747 -13.816  1.00  0.00    -0.000 C 
BRANCH  21  22
ATOM     22  C   UNL     1     -20.496 -33.877 -14.526  1.00  0.00    -0.000 C 
BRANCH  22  23
ATOM     23  C   UNL     1     -19.348 -34.446 -13.674  1.00  0.00    -0.000 C 
BRANCH  23  24
ATOM     24  C   UNL     1     -19.611 -35.837 -13.061  1.00  0.00    -0.000 C 
BRANCH  24  25
ATOM     25  C   UNL     1     -19.841 -35.844 -11.538  1.00  0.00    -0.003 C 
ATOM     26  C   UNL     1     -19.400 -34.547 -10.862  1.00  0.00     0.004 C 
ENDBRANCH  24  25
ENDBRANCH  23  24
ENDBRANCH  22  23
ENDBRANCH  21  22
ENDBRANCH  20  21
ENDBRANCH  19  20
ENDBRANCH  18  19
ENDBRANCH  17  18
ENDBRANCH  16  17
ENDBRANCH  15  16
ENDBRANCH   1  15
TORSDOF 22
ENDMDL
