MODEL 1
REMARK VINA RESULT:    -3.246      0.000      0.000
REMARK INTER + INTRA:          -3.664
REMARK INTER:                  -3.626
REMARK INTRA:                  -0.038
REMARK UNBOUND:                -0.038
REMARK SMILES CCCC(=O)[O-]
REMARK SMILES IDX 3 1 4 2 5 3 6 4 2 5 1 6
REMARK H PARENT
REMARK Flexibility Score: inf
ROOT
ATOM      1  C   UNL     1      15.982  23.643  26.242  1.00  0.00     0.052 C 
ENDROOT
BRANCH   1   2
ATOM      2  C   UNL     1      16.336  22.345  25.584  1.00  0.00     0.041 C 
ATOM      3  O   UNL     1      17.053  21.503  26.187  1.00  0.00    -0.550 OA
ATOM      4  O   UNL     1      15.899  22.079  24.293  1.00  0.00    -0.550 OA
ENDBRANCH   1   2
BRANCH   1   5
ATOM      5  C   UNL     1      16.776  23.857  27.538  1.00  0.00     0.003 C 
ATOM      6  C   UNL     1      15.913  23.676  28.785  1.00  0.00     0.004 C 
ENDBRANCH   1   5
TORSDOF 2
ENDMDL
MODEL 2
REMARK VINA RESULT:    -3.227      2.331      3.372
REMARK INTER + INTRA:          -3.642
REMARK INTER:                  -3.637
REMARK INTRA:                  -0.005
REMARK UNBOUND:                -0.038
REMARK SMILES CCCC(=O)[O-]
REMARK SMILES IDX 3 1 4 2 5 3 6 4 2 5 1 6
REMARK H PARENT
REMARK Flexibility Score: inf
ROOT
ATOM      1  C   UNL     1      15.930  23.696  26.328  1.00  0.00     0.052 C 
ENDROOT
BRANCH   1   2
ATOM      2  C   UNL     1      16.214  23.822  27.794  1.00  0.00     0.041 C 
ATOM      3  O   UNL     1      17.401  23.929  28.203  1.00  0.00    -0.550 OA
ATOM      4  O   UNL     1      15.171  23.787  28.709  1.00  0.00    -0.550 OA
ENDBRANCH   1   2
BRANCH   1   5
ATOM      5  C   UNL     1      16.224  22.282  25.813  1.00  0.00     0.003 C 
ATOM      6  C   UNL     1      15.978  22.147  24.311  1.00  0.00     0.004 C 
ENDBRANCH   1   5
TORSDOF 2
ENDMDL
MODEL 3
REMARK VINA RESULT:    -3.218      2.379      3.414
REMARK INTER + INTRA:          -3.632
REMARK INTER:                  -3.627
REMARK INTRA:                  -0.005
REMARK UNBOUND:                -0.038
REMARK SMILES CCCC(=O)[O-]
REMARK SMILES IDX 3 1 4 2 5 3 6 4 2 5 1 6
REMARK H PARENT
REMARK Flexibility Score: inf
ROOT
ATOM      1  C   UNL     1      15.932  23.643  26.410  1.00  0.00     0.052 C 
ENDROOT
BRANCH   1   2
ATOM      2  C   UNL     1      16.440  23.792  27.811  1.00  0.00     0.041 C 
ATOM      3  O   UNL     1      15.656  23.656  28.788  1.00  0.00    -0.550 OA
ATOM      4  O   UNL     1      17.771  24.114  28.037  1.00  0.00    -0.550 OA
ENDBRANCH   1   2
BRANCH   1   5
ATOM      5  C   UNL     1      16.249  22.257  25.836  1.00  0.00     0.003 C 
ATOM      6  C   UNL     1      15.999  22.179  24.330  1.00  0.00     0.004 C 
ENDBRANCH   1   5
TORSDOF 2
ENDMDL
MODEL 4
REMARK VINA RESULT:    -3.182      1.795      2.109
REMARK INTER + INTRA:          -3.592
REMARK INTER:                  -3.523
REMARK INTRA:                  -0.069
REMARK UNBOUND:                -0.038
REMARK SMILES CCCC(=O)[O-]
REMARK SMILES IDX 3 1 4 2 5 3 6 4 2 5 1 6
REMARK H PARENT
REMARK Flexibility Score: inf
ROOT
ATOM      1  C   UNL     1      16.671  21.821  26.250  1.00  0.00     0.052 C 
ENDROOT
BRANCH   1   2
ATOM      2  C   UNL     1      16.165  22.690  25.139  1.00  0.00     0.041 C 
ATOM      3  O   UNL     1      16.025  23.929  25.317  1.00  0.00    -0.550 OA
ATOM      4  O   UNL     1      15.818  22.126  23.919  1.00  0.00    -0.550 OA
ENDBRANCH   1   2
BRANCH   1   5
ATOM      5  C   UNL     1      15.775  21.909  27.492  1.00  0.00     0.003 C 
ATOM      6  C   UNL     1      14.345  21.448  27.211  1.00  0.00     0.004 C 
ENDBRANCH   1   5
TORSDOF 2
ENDMDL
MODEL 5
REMARK VINA RESULT:    -3.182      2.469      3.286
REMARK INTER + INTRA:          -3.592
REMARK INTER:                  -3.582
REMARK INTRA:                  -0.010
REMARK UNBOUND:                -0.038
REMARK SMILES CCCC(=O)[O-]
REMARK SMILES IDX 3 1 4 2 5 3 6 4 2 5 1 6
REMARK H PARENT
REMARK Flexibility Score: inf
ROOT
ATOM      1  C   UNL     1      16.966  21.695  26.463  1.00  0.00     0.052 C 
ENDROOT
BRANCH   1   2
ATOM      2  C   UNL     1      16.603  21.604  27.913  1.00  0.00     0.041 C 
ATOM      3  O   UNL     1      17.278  20.878  28.691  1.00  0.00    -0.550 OA
ATOM      4  O   UNL     1      15.501  22.294  28.399  1.00  0.00    -0.550 OA
ENDBRANCH   1   2
BRANCH   1   5
ATOM      5  C   UNL     1      15.894  22.439  25.656  1.00  0.00     0.003 C 
ATOM      6  C   UNL     1      15.943  22.097  24.168  1.00  0.00     0.004 C 
ENDBRANCH   1   5
TORSDOF 2
ENDMDL
MODEL 6
REMARK VINA RESULT:    -3.123      2.268      3.024
REMARK INTER + INTRA:          -3.526
REMARK INTER:                  -3.482
REMARK INTRA:                  -0.044
REMARK UNBOUND:                -0.038
REMARK SMILES CCCC(=O)[O-]
REMARK SMILES IDX 3 1 4 2 5 3 6 4 2 5 1 6
REMARK H PARENT
REMARK Flexibility Score: inf
ROOT
ATOM      1  C   UNL     1      16.444  22.191  26.473  1.00  0.00     0.052 C 
ENDROOT
BRANCH   1   2
ATOM      2  C   UNL     1      16.512  23.649  26.808  1.00  0.00     0.041 C 
ATOM      3  O   UNL     1      15.959  24.498  26.060  1.00  0.00    -0.550 OA
ATOM      4  O   UNL     1      17.214  24.073  27.929  1.00  0.00    -0.550 OA
ENDBRANCH   1   2
BRANCH   1   5
ATOM      5  C   UNL     1      15.025  21.766  26.076  1.00  0.00     0.003 C 
ATOM      6  C   UNL     1      14.174  21.375  27.284  1.00  0.00     0.004 C 
ENDBRANCH   1   5
TORSDOF 2
ENDMDL
MODEL 7
REMARK VINA RESULT:    -3.095     19.843     20.729
REMARK INTER + INTRA:          -3.494
REMARK INTER:                  -3.464
REMARK INTRA:                  -0.030
REMARK UNBOUND:                -0.038
REMARK SMILES CCCC(=O)[O-]
REMARK SMILES IDX 3 1 4 2 5 3 6 4 2 5 1 6
REMARK H PARENT
REMARK Flexibility Score: inf
ROOT
ATOM      1  C   UNL     1       6.443  37.228  16.204  1.00  0.00     0.052 C 
ENDROOT
BRANCH   1   2
ATOM      2  C   UNL     1       5.466  36.093  16.157  1.00  0.00     0.041 C 
ATOM      3  O   UNL     1       4.568  36.066  15.274  1.00  0.00    -0.550 OA
ATOM      4  O   UNL     1       5.528  35.083  17.107  1.00  0.00    -0.550 OA
ENDBRANCH   1   2
BRANCH   1   5
ATOM      5  C   UNL     1       6.034  38.368  15.263  1.00  0.00     0.003 C 
ATOM      6  C   UNL     1       7.157  38.763  14.306  1.00  0.00     0.004 C 
ENDBRANCH   1   5
TORSDOF 2
ENDMDL
MODEL 8
REMARK VINA RESULT:    -3.028     20.237     20.948
REMARK INTER + INTRA:          -3.419
REMARK INTER:                  -3.411
REMARK INTRA:                  -0.009
REMARK UNBOUND:                -0.038
REMARK SMILES CCCC(=O)[O-]
REMARK SMILES IDX 3 1 4 2 5 3 6 4 2 5 1 6
REMARK H PARENT
REMARK Flexibility Score: inf
ROOT
ATOM      1  C   UNL     1       5.001  37.510  15.636  1.00  0.00     0.052 C 
ENDROOT
BRANCH   1   2
ATOM      2  C   UNL     1       4.720  36.043  15.754  1.00  0.00     0.041 C 
ATOM      3  O   UNL     1       5.368  35.338  16.572  1.00  0.00    -0.550 OA
ATOM      4  O   UNL     1       3.767  35.450  14.937  1.00  0.00    -0.550 OA
ENDBRANCH   1   2
BRANCH   1   5
ATOM      5  C   UNL     1       6.507  37.802  15.637  1.00  0.00     0.003 C 
ATOM      6  C   UNL     1       6.899  38.841  14.588  1.00  0.00     0.004 C 
ENDBRANCH   1   5
TORSDOF 2
ENDMDL
MODEL 9
REMARK VINA RESULT:    -2.970      2.589      3.582
REMARK INTER + INTRA:          -3.355
REMARK INTER:                  -3.314
REMARK INTRA:                  -0.041
REMARK UNBOUND:                -0.038
REMARK SMILES CCCC(=O)[O-]
REMARK SMILES IDX 3 1 4 2 5 3 6 4 2 5 1 6
REMARK H PARENT
REMARK Flexibility Score: inf
ROOT
ATOM      1  C   UNL     1      16.862  23.814  27.555  1.00  0.00     0.052 C 
ENDROOT
BRANCH   1   2
ATOM      2  C   UNL     1      16.054  23.476  28.771  1.00  0.00     0.041 C 
ATOM      3  O   UNL     1      14.858  23.858  28.863  1.00  0.00    -0.550 OA
ATOM      4  O   UNL     1      16.634  22.769  29.816  1.00  0.00    -0.550 OA
ENDBRANCH   1   2
BRANCH   1   5
ATOM      5  C   UNL     1      16.041  23.663  26.269  1.00  0.00     0.003 C 
ATOM      6  C   UNL     1      16.140  22.258  25.676  1.00  0.00     0.004 C 
ENDBRANCH   1   5
TORSDOF 2
ENDMDL
