MODEL 1
REMARK VINA RESULT:    -5.507      0.000      0.000
REMARK INTER + INTRA:          -6.075
REMARK INTER:                  -5.990
REMARK INTRA:                  -0.085
REMARK UNBOUND:                -0.085
REMARK SMILES C=C(C)[C@H]1CC=C(C)[C@H](O)C1
REMARK SMILES IDX 8 1 7 2 6 3 5 4 4 5 11 6 9 7 10 8 2 10 1 11 3 12
REMARK H PARENT 10 9
REMARK Flexibility Score: inf
ROOT
ATOM      1  C   UNL     1      15.099  14.861  29.625  1.00  0.00     0.042 C 
ATOM      2  C   UNL     1      14.579  15.541  28.388  1.00  0.00    -0.049 C 
ATOM      3  C   UNL     1      14.452  14.820  27.252  1.00  0.00    -0.025 C 
ATOM      4  C   UNL     1      14.003  15.418  25.941  1.00  0.00     0.035 C 
ATOM      5  C   UNL     1      13.209  16.720  26.136  1.00  0.00     0.021 C 
ATOM      6  C   UNL     1      13.957  17.647  27.108  1.00  0.00     0.044 C 
ATOM      7  C   UNL     1      14.101  16.979  28.487  1.00  0.00     0.140 C 
ENDROOT
BRANCH   7   8
ATOM      8  O   UNL     1      12.870  16.996  29.162  1.00  0.00    -0.389 OA
ATOM      9  H   UNL     1      12.436  16.119  28.992  1.00  0.00     0.211 HD
ENDBRANCH   7   8
BRANCH   5  10
ATOM     10  C   UNL     1      12.936  17.407  24.805  1.00  0.00    -0.077 C 
ATOM     11  C   UNL     1      11.704  17.376  24.271  1.00  0.00     0.008 C 
ATOM     12  C   UNL     1      14.029  18.125  24.051  1.00  0.00     0.039 C 
ENDBRANCH   5  10
TORSDOF 2
ENDMDL
MODEL 2
REMARK VINA RESULT:    -5.467      1.116      1.536
REMARK INTER + INTRA:          -6.032
REMARK INTER:                  -5.935
REMARK INTRA:                  -0.097
REMARK UNBOUND:                -0.085
REMARK SMILES C=C(C)[C@H]1CC=C(C)[C@H](O)C1
REMARK SMILES IDX 8 1 7 2 6 3 5 4 4 5 11 6 9 7 10 8 2 10 1 11 3 12
REMARK H PARENT 10 9
REMARK Flexibility Score: inf
ROOT
ATOM      1  C   UNL     1      14.718  14.755  29.850  1.00  0.00     0.042 C 
ATOM      2  C   UNL     1      14.372  15.432  28.552  1.00  0.00    -0.049 C 
ATOM      3  C   UNL     1      15.287  15.441  27.558  1.00  0.00    -0.025 C 
ATOM      4  C   UNL     1      15.068  16.148  26.242  1.00  0.00     0.035 C 
ATOM      5  C   UNL     1      13.577  16.363  25.938  1.00  0.00     0.021 C 
ATOM      6  C   UNL     1      12.871  16.949  27.171  1.00  0.00     0.044 C 
ATOM      7  C   UNL     1      12.967  15.975  28.360  1.00  0.00     0.140 C 
ENDROOT
BRANCH   7   8
ATOM      8  O   UNL     1      12.091  14.895  28.170  1.00  0.00    -0.389 OA
ATOM      9  H   UNL     1      11.729  14.657  29.063  1.00  0.00     0.211 HD
ENDBRANCH   7   8
BRANCH   5  10
ATOM     10  C   UNL     1      13.383  17.244  24.711  1.00  0.00    -0.077 C 
ATOM     11  C   UNL     1      14.402  17.983  24.244  1.00  0.00     0.008 C 
ATOM     12  C   UNL     1      12.054  17.320  23.999  1.00  0.00     0.039 C 
ENDBRANCH   5  10
TORSDOF 2
ENDMDL
MODEL 3
REMARK VINA RESULT:    -5.276      1.916      4.422
REMARK INTER + INTRA:          -5.823
REMARK INTER:                  -5.728
REMARK INTRA:                  -0.095
REMARK UNBOUND:                -0.085
REMARK SMILES C=C(C)[C@H]1CC=C(C)[C@H](O)C1
REMARK SMILES IDX 8 1 7 2 6 3 5 4 4 5 11 6 9 7 10 8 2 10 1 11 3 12
REMARK H PARENT 10 9
REMARK Flexibility Score: inf
ROOT
ATOM      1  C   UNL     1      12.318  17.521  23.120  1.00  0.00     0.042 C 
ATOM      2  C   UNL     1      12.778  17.021  24.462  1.00  0.00    -0.049 C 
ATOM      3  C   UNL     1      12.219  15.899  24.967  1.00  0.00    -0.025 C 
ATOM      4  C   UNL     1      12.559  15.349  26.330  1.00  0.00     0.035 C 
ATOM      5  C   UNL     1      13.931  15.834  26.828  1.00  0.00     0.021 C 
ATOM      6  C   UNL     1      14.048  17.355  26.639  1.00  0.00     0.044 C 
ATOM      7  C   UNL     1      13.938  17.722  25.148  1.00  0.00     0.140 C 
ENDROOT
BRANCH   7   8
ATOM      8  O   UNL     1      15.125  17.384  24.479  1.00  0.00    -0.389 OA
ATOM      9  H   UNL     1      15.733  18.164  24.558  1.00  0.00     0.211 HD
ENDBRANCH   7   8
BRANCH   5  10
ATOM     10  C   UNL     1      14.169  15.430  28.277  1.00  0.00    -0.077 C 
ATOM     11  C   UNL     1      13.278  15.761  29.224  1.00  0.00     0.008 C 
ATOM     12  C   UNL     1      15.404  14.665  28.687  1.00  0.00     0.039 C 
ENDBRANCH   5  10
TORSDOF 2
ENDMDL
MODEL 4
REMARK VINA RESULT:    -5.263      1.565      2.315
REMARK INTER + INTRA:          -5.810
REMARK INTER:                  -5.715
REMARK INTRA:                  -0.095
REMARK UNBOUND:                -0.085
REMARK SMILES C=C(C)[C@H]1CC=C(C)[C@H](O)C1
REMARK SMILES IDX 8 1 7 2 6 3 5 4 4 5 11 6 9 7 10 8 2 10 1 11 3 12
REMARK H PARENT 10 9
REMARK Flexibility Score: inf
ROOT
ATOM      1  C   UNL     1      14.714  14.336  30.525  1.00  0.00     0.042 C 
ATOM      2  C   UNL     1      14.429  15.108  29.265  1.00  0.00    -0.049 C 
ATOM      3  C   UNL     1      13.369  15.945  29.240  1.00  0.00    -0.025 C 
ATOM      4  C   UNL     1      12.955  16.716  28.010  1.00  0.00     0.035 C 
ATOM      5  C   UNL     1      14.112  16.886  27.013  1.00  0.00     0.021 C 
ATOM      6  C   UNL     1      14.812  15.536  26.789  1.00  0.00     0.044 C 
ATOM      7  C   UNL     1      15.408  15.013  28.108  1.00  0.00     0.140 C 
ENDROOT
BRANCH   7   8
ATOM      8  O   UNL     1      16.562  15.741  28.438  1.00  0.00    -0.389 OA
ATOM      9  H   UNL     1      17.095  15.173  29.054  1.00  0.00     0.211 HD
ENDBRANCH   7   8
BRANCH   5  10
ATOM     10  C   UNL     1      13.629  17.490  25.701  1.00  0.00    -0.077 C 
ATOM     11  C   UNL     1      14.496  17.707  24.700  1.00  0.00     0.008 C 
ATOM     12  C   UNL     1      12.183  17.869  25.494  1.00  0.00     0.039 C 
ENDBRANCH   5  10
TORSDOF 2
ENDMDL
MODEL 5
REMARK VINA RESULT:    -5.209      1.879      4.688
REMARK INTER + INTRA:          -5.750
REMARK INTER:                  -5.654
REMARK INTRA:                  -0.097
REMARK UNBOUND:                -0.085
REMARK SMILES C=C(C)[C@H]1CC=C(C)[C@H](O)C1
REMARK SMILES IDX 8 1 7 2 6 3 5 4 4 5 11 6 9 7 10 8 2 10 1 11 3 12
REMARK H PARENT 10 9
REMARK Flexibility Score: inf
ROOT
ATOM      1  C   UNL     1      12.702  18.120  22.293  1.00  0.00     0.042 C 
ATOM      2  C   UNL     1      13.057  17.537  23.633  1.00  0.00    -0.049 C 
ATOM      3  C   UNL     1      14.195  17.941  24.239  1.00  0.00    -0.025 C 
ATOM      4  C   UNL     1      14.678  17.373  25.551  1.00  0.00     0.035 C 
ATOM      5  C   UNL     1      13.539  16.739  26.366  1.00  0.00     0.021 C 
ATOM      6  C   UNL     1      12.706  15.811  25.467  1.00  0.00     0.044 C 
ATOM      7  C   UNL     1      12.067  16.608  24.315  1.00  0.00     0.140 C 
ENDROOT
BRANCH   7   8
ATOM      8  O   UNL     1      10.993  17.373  24.796  1.00  0.00    -0.389 OA
ATOM      9  H   UNL     1      10.176  16.818  24.698  1.00  0.00     0.211 HD
ENDBRANCH   7   8
BRANCH   5  10
ATOM     10  C   UNL     1      14.073  16.003  27.587  1.00  0.00    -0.077 C 
ATOM     11  C   UNL     1      15.308  15.477  27.570  1.00  0.00     0.008 C 
ATOM     12  C   UNL     1      13.237  15.836  28.833  1.00  0.00     0.039 C 
ENDBRANCH   5  10
TORSDOF 2
ENDMDL
MODEL 6
REMARK VINA RESULT:    -5.135      1.871      4.592
REMARK INTER + INTRA:          -5.670
REMARK INTER:                  -5.583
REMARK INTRA:                  -0.086
REMARK UNBOUND:                -0.085
REMARK SMILES C=C(C)[C@H]1CC=C(C)[C@H](O)C1
REMARK SMILES IDX 8 1 7 2 6 3 5 4 4 5 11 6 9 7 10 8 2 10 1 11 3 12
REMARK H PARENT 10 9
REMARK Flexibility Score: inf
ROOT
ATOM      1  C   UNL     1      12.121  18.081  23.552  1.00  0.00     0.042 C 
ATOM      2  C   UNL     1      12.641  17.429  24.804  1.00  0.00    -0.049 C 
ATOM      3  C   UNL     1      12.495  18.073  25.983  1.00  0.00    -0.025 C 
ATOM      4  C   UNL     1      13.038  17.540  27.287  1.00  0.00     0.035 C 
ATOM      5  C   UNL     1      13.263  16.020  27.246  1.00  0.00     0.021 C 
ATOM      6  C   UNL     1      14.022  15.638  25.965  1.00  0.00     0.044 C 
ATOM      7  C   UNL     1      13.202  16.020  24.719  1.00  0.00     0.140 C 
ENDROOT
BRANCH   7   8
ATOM      8  O   UNL     1      12.136  15.123  24.549  1.00  0.00    -0.389 OA
ATOM      9  H   UNL     1      11.838  14.854  25.458  1.00  0.00     0.211 HD
ENDBRANCH   7   8
BRANCH   5  10
ATOM     10  C   UNL     1      13.989  15.533  28.493  1.00  0.00    -0.077 C 
ATOM     11  C   UNL     1      13.346  15.481  29.670  1.00  0.00     0.008 C 
ATOM     12  C   UNL     1      15.438  15.109  28.445  1.00  0.00     0.039 C 
ENDBRANCH   5  10
TORSDOF 2
ENDMDL
MODEL 7
REMARK VINA RESULT:    -4.515      1.459      4.808
REMARK INTER + INTRA:          -4.995
REMARK INTER:                  -4.904
REMARK INTRA:                  -0.091
REMARK UNBOUND:                -0.085
REMARK SMILES C=C(C)[C@H]1CC=C(C)[C@H](O)C1
REMARK SMILES IDX 8 1 7 2 6 3 5 4 4 5 11 6 9 7 10 8 2 10 1 11 3 12
REMARK H PARENT 10 9
REMARK Flexibility Score: inf
ROOT
ATOM      1  C   UNL     1      13.968  17.238  25.669  1.00  0.00     0.042 C 
ATOM      2  C   UNL     1      14.146  16.401  26.907  1.00  0.00    -0.049 C 
ATOM      3  C   UNL     1      15.358  15.860  27.159  1.00  0.00    -0.025 C 
ATOM      4  C   UNL     1      15.629  14.953  28.334  1.00  0.00     0.035 C 
ATOM      5  C   UNL     1      14.605  15.144  29.465  1.00  0.00     0.021 C 
ATOM      6  C   UNL     1      13.180  15.134  28.888  1.00  0.00     0.044 C 
ATOM      7  C   UNL     1      12.994  16.293  27.891  1.00  0.00     0.140 C 
ENDROOT
BRANCH   7   8
ATOM      8  O   UNL     1      12.880  17.509  28.583  1.00  0.00    -0.389 OA
ATOM      9  H   UNL     1      12.074  17.968  28.228  1.00  0.00     0.211 HD
ENDBRANCH   7   8
BRANCH   5  10
ATOM     10  C   UNL     1      14.776  14.091  30.552  1.00  0.00    -0.077 C 
ATOM     11  C   UNL     1      14.397  14.356  31.812  1.00  0.00     0.008 C 
ATOM     12  C   UNL     1      15.378  12.740  30.250  1.00  0.00     0.039 C 
ENDBRANCH   5  10
TORSDOF 2
ENDMDL
MODEL 8
REMARK VINA RESULT:    -4.415      2.077      5.278
REMARK INTER + INTRA:          -4.887
REMARK INTER:                  -4.790
REMARK INTRA:                  -0.097
REMARK UNBOUND:                -0.085
REMARK SMILES C=C(C)[C@H]1CC=C(C)[C@H](O)C1
REMARK SMILES IDX 8 1 7 2 6 3 5 4 4 5 11 6 9 7 10 8 2 10 1 11 3 12
REMARK H PARENT 10 9
REMARK Flexibility Score: inf
ROOT
ATOM      1  C   UNL     1      13.379  17.765  26.935  1.00  0.00     0.042 C 
ATOM      2  C   UNL     1      13.811  16.705  27.911  1.00  0.00    -0.049 C 
ATOM      3  C   UNL     1      13.058  16.486  29.011  1.00  0.00    -0.025 C 
ATOM      4  C   UNL     1      13.434  15.495  30.086  1.00  0.00     0.035 C 
ATOM      5  C   UNL     1      14.401  14.416  29.570  1.00  0.00     0.021 C 
ATOM      6  C   UNL     1      15.552  15.074  28.792  1.00  0.00     0.044 C 
ATOM      7  C   UNL     1      15.009  15.836  27.569  1.00  0.00     0.140 C 
ENDROOT
BRANCH   7   8
ATOM      8  O   UNL     1      14.632  14.930  26.565  1.00  0.00    -0.389 OA
ATOM      9  H   UNL     1      14.042  14.255  26.992  1.00  0.00     0.211 HD
ENDBRANCH   7   8
BRANCH   5  10
ATOM     10  C   UNL     1      14.919  13.547  30.707  1.00  0.00    -0.077 C 
ATOM     11  C   UNL     1      14.833  13.975  31.977  1.00  0.00     0.008 C 
ATOM     12  C   UNL     1      15.548  12.199  30.444  1.00  0.00     0.039 C 
ENDBRANCH   5  10
TORSDOF 2
ENDMDL
MODEL 9
REMARK VINA RESULT:    -3.895      1.676      2.229
REMARK INTER + INTRA:          -4.321
REMARK INTER:                  -4.224
REMARK INTRA:                  -0.097
REMARK UNBOUND:                -0.085
REMARK SMILES C=C(C)[C@H]1CC=C(C)[C@H](O)C1
REMARK SMILES IDX 8 1 7 2 6 3 5 4 4 5 11 6 9 7 10 8 2 10 1 11 3 12
REMARK H PARENT 10 9
REMARK Flexibility Score: inf
ROOT
ATOM      1  C   UNL     1      12.820  15.604  29.092  1.00  0.00     0.042 C 
ATOM      2  C   UNL     1      12.926  16.092  27.673  1.00  0.00    -0.049 C 
ATOM      3  C   UNL     1      11.989  16.946  27.205  1.00  0.00    -0.025 C 
ATOM      4  C   UNL     1      11.964  17.445  25.781  1.00  0.00     0.035 C 
ATOM      5  C   UNL     1      13.341  17.345  25.105  1.00  0.00     0.021 C 
ATOM      6  C   UNL     1      13.942  15.951  25.347  1.00  0.00     0.044 C 
ATOM      7  C   UNL     1      14.145  15.706  26.853  1.00  0.00     0.140 C 
ENDROOT
BRANCH   7   8
ATOM      8  O   UNL     1      15.247  16.441  27.317  1.00  0.00    -0.389 OA
ATOM      9  H   UNL     1      15.239  17.308  26.834  1.00  0.00     0.211 HD
ENDBRANCH   7   8
BRANCH   5  10
ATOM     10  C   UNL     1      13.253  17.666  23.619  1.00  0.00    -0.077 C 
ATOM     11  C   UNL     1      12.086  17.536  22.968  1.00  0.00     0.008 C 
ATOM     12  C   UNL     1      14.463  18.125  22.840  1.00  0.00     0.039 C 
ENDBRANCH   5  10
TORSDOF 2
ENDMDL
