MODEL 1
REMARK VINA RESULT:    -6.256      0.000      0.000
REMARK INTER + INTRA:         -12.499
REMARK INTER:                 -11.377
REMARK INTRA:                  -1.122
REMARK UNBOUND:                -1.122
REMARK SMILES CCCCCCCCCCCCCCCC(=O)[O-]
REMARK SMILES IDX 9 1 10 2 11 3 12 4 13 5 14 6 15 7 16 8 17 9 18 10 8 11 7 12
REMARK SMILES IDX 6 13 5 14 4 15 3 16 2 17 1 18
REMARK H PARENT
REMARK Flexibility Score: inf
ROOT
ATOM      1  C   UNL     1      17.114  -2.979  32.948  1.00  0.00     0.000 C 
ENDROOT
BRANCH   1   2
ATOM      2  C   UNL     1      17.553  -1.539  32.626  1.00  0.00     0.000 C 
BRANCH   2   3
ATOM      3  C   UNL     1      17.179  -1.125  31.186  1.00  0.00     0.000 C 
BRANCH   3   4
ATOM      4  C   UNL     1      18.395  -0.768  30.314  1.00  0.00     0.000 C 
BRANCH   4   5
ATOM      5  C   UNL     1      19.554  -1.766  30.469  1.00  0.00     0.000 C 
BRANCH   5   6
ATOM      6  C   UNL     1      20.843  -1.100  30.976  1.00  0.00     0.006 C 
BRANCH   6   7
ATOM      7  C   UNL     1      21.105   0.258  30.311  1.00  0.00     0.053 C 
BRANCH   7   8
ATOM      8  C   UNL     1      22.509   0.704  30.573  1.00  0.00     0.041 C 
ATOM      9  O   UNL     1      22.739   1.612  31.415  1.00  0.00    -0.550 OA
ATOM     10  O   UNL     1      23.568   0.083  29.923  1.00  0.00    -0.550 OA
ENDBRANCH   7   8
ENDBRANCH   6   7
ENDBRANCH   5   6
ENDBRANCH   4   5
ENDBRANCH   3   4
ENDBRANCH   2   3
ENDBRANCH   1   2
BRANCH   1  11
ATOM     11  C   UNL     1      18.303  -3.914  33.219  1.00  0.00     0.000 C 
BRANCH  11  12
ATOM     12  C   UNL     1      19.493  -3.188  33.863  1.00  0.00    -0.000 C 
BRANCH  12  13
ATOM     13  C   UNL     1      19.854  -3.819  35.214  1.00  0.00    -0.000 C 
BRANCH  13  14
ATOM     14  C   UNL     1      19.518  -5.317  35.230  1.00  0.00    -0.000 C 
BRANCH  14  15
ATOM     15  C   UNL     1      20.310  -6.098  36.293  1.00  0.00    -0.000 C 
BRANCH  15  16
ATOM     16  C   UNL     1      19.658  -6.146  37.690  1.00  0.00    -0.000 C 
BRANCH  16  17
ATOM     17  C   UNL     1      20.381  -7.037  38.715  1.00  0.00    -0.003 C 
ATOM     18  C   UNL     1      21.877  -7.175  38.432  1.00  0.00     0.004 C 
ENDBRANCH  16  17
ENDBRANCH  15  16
ENDBRANCH  14  15
ENDBRANCH  13  14
ENDBRANCH  12  13
ENDBRANCH  11  12
ENDBRANCH   1  11
TORSDOF 14
ENDMDL
MODEL 2
REMARK VINA RESULT:    -6.090      1.190      1.854
REMARK INTER + INTRA:         -12.197
REMARK INTER:                 -11.500
REMARK INTRA:                  -0.697
REMARK UNBOUND:                -1.122
REMARK SMILES CCCCCCCCCCCCCCCC(=O)[O-]
REMARK SMILES IDX 9 1 10 2 11 3 12 4 13 5 14 6 15 7 16 8 17 9 18 10 8 11 7 12
REMARK SMILES IDX 6 13 5 14 4 15 3 16 2 17 1 18
REMARK H PARENT
REMARK Flexibility Score: inf
ROOT
ATOM      1  C   UNL     1      18.313  -1.858  32.800  1.00  0.00     0.000 C 
ENDROOT
BRANCH   1   2
ATOM      2  C   UNL     1      17.978  -1.342  31.389  1.00  0.00     0.000 C 
BRANCH   2   3
ATOM      3  C   UNL     1      19.145  -1.551  30.401  1.00  0.00     0.000 C 
BRANCH   3   4
ATOM      4  C   UNL     1      20.516  -1.156  30.977  1.00  0.00     0.000 C 
BRANCH   4   5
ATOM      5  C   UNL     1      21.054   0.159  30.390  1.00  0.00     0.000 C 
BRANCH   5   6
ATOM      6  C   UNL     1      22.502   0.447  30.815  1.00  0.00     0.006 C 
BRANCH   6   7
ATOM      7  C   UNL     1      22.851   1.939  30.743  1.00  0.00     0.053 C 
BRANCH   7   8
ATOM      8  C   UNL     1      24.333   2.124  30.663  1.00  0.00     0.041 C 
ATOM      9  O   UNL     1      24.938   2.787  31.547  1.00  0.00    -0.550 OA
ATOM     10  O   UNL     1      25.055   1.523  29.639  1.00  0.00    -0.550 OA
ENDBRANCH   7   8
ENDBRANCH   6   7
ENDBRANCH   5   6
ENDBRANCH   4   5
ENDBRANCH   3   4
ENDBRANCH   2   3
ENDBRANCH   1   2
BRANCH   1  11
ATOM     11  C   UNL     1      18.054  -3.366  32.956  1.00  0.00     0.000 C 
BRANCH  11  12
ATOM     12  C   UNL     1      19.350  -4.183  33.046  1.00  0.00    -0.000 C 
BRANCH  12  13
ATOM     13  C   UNL     1      19.230  -5.288  34.102  1.00  0.00    -0.000 C 
BRANCH  13  14
ATOM     14  C   UNL     1      19.176  -4.694  35.517  1.00  0.00    -0.000 C 
BRANCH  14  15
ATOM     15  C   UNL     1      19.575  -5.704  36.607  1.00  0.00    -0.000 C 
BRANCH  15  16
ATOM     16  C   UNL     1      21.089  -5.975  36.725  1.00  0.00    -0.000 C 
BRANCH  16  17
ATOM     17  C   UNL     1      21.475  -7.087  37.715  1.00  0.00    -0.003 C 
ATOM     18  C   UNL     1      20.561  -7.138  38.939  1.00  0.00     0.004 C 
ENDBRANCH  16  17
ENDBRANCH  15  16
ENDBRANCH  14  15
ENDBRANCH  13  14
ENDBRANCH  12  13
ENDBRANCH  11  12
ENDBRANCH   1  11
TORSDOF 14
ENDMDL
MODEL 3
REMARK VINA RESULT:    -5.964      2.838      4.812
REMARK INTER + INTRA:         -11.969
REMARK INTER:                 -10.969
REMARK INTRA:                  -1.000
REMARK UNBOUND:                -1.122
REMARK SMILES CCCCCCCCCCCCCCCC(=O)[O-]
REMARK SMILES IDX 9 1 10 2 11 3 12 4 13 5 14 6 15 7 16 8 17 9 18 10 8 11 7 12
REMARK SMILES IDX 6 13 5 14 4 15 3 16 2 17 1 18
REMARK H PARENT
REMARK Flexibility Score: inf
ROOT
ATOM      1  C   UNL     1      19.483  -5.399  36.061  1.00  0.00     0.000 C 
ENDROOT
BRANCH   1   2
ATOM      2  C   UNL     1      19.099  -5.815  34.630  1.00  0.00     0.000 C 
BRANCH   2   3
ATOM      3  C   UNL     1      18.770  -4.598  33.739  1.00  0.00     0.000 C 
BRANCH   3   4
ATOM      4  C   UNL     1      19.992  -3.718  33.424  1.00  0.00     0.000 C 
BRANCH   4   5
ATOM      5  C   UNL     1      20.041  -3.270  31.955  1.00  0.00     0.000 C 
BRANCH   5   6
ATOM      6  C   UNL     1      19.620  -1.803  31.771  1.00  0.00     0.006 C 
BRANCH   6   7
ATOM      7  C   UNL     1      18.447  -1.646  30.795  1.00  0.00     0.053 C 
BRANCH   7   8
ATOM      8  C   UNL     1      17.168  -1.445  31.546  1.00  0.00     0.041 C 
ATOM      9  O   UNL     1      16.738  -2.344  32.317  1.00  0.00    -0.550 OA
ATOM     10  O   UNL     1      16.476  -0.246  31.432  1.00  0.00    -0.550 OA
ENDBRANCH   7   8
ENDBRANCH   6   7
ENDBRANCH   5   6
ENDBRANCH   4   5
ENDBRANCH   3   4
ENDBRANCH   2   3
ENDBRANCH   1   2
BRANCH   1  11
ATOM     11  C   UNL     1      20.954  -5.699  36.391  1.00  0.00     0.000 C 
BRANCH  11  12
ATOM     12  C   UNL     1      21.134  -7.028  37.140  1.00  0.00    -0.000 C 
BRANCH  12  13
ATOM     13  C   UNL     1      20.444  -6.984  38.508  1.00  0.00    -0.000 C 
BRANCH  13  14
ATOM     14  C   UNL     1      21.475  -7.016  39.646  1.00  0.00    -0.000 C 
BRANCH  14  15
ATOM     15  C   UNL     1      22.900  -7.328  39.155  1.00  0.00    -0.000 C 
BRANCH  15  16
ATOM     16  C   UNL     1      23.958  -6.261  39.501  1.00  0.00    -0.000 C 
BRANCH  16  17
ATOM     17  C   UNL     1      24.564  -5.530  38.291  1.00  0.00    -0.003 C 
ATOM     18  C   UNL     1      24.601  -4.012  38.470  1.00  0.00     0.004 C 
ENDBRANCH  16  17
ENDBRANCH  15  16
ENDBRANCH  14  15
ENDBRANCH  13  14
ENDBRANCH  12  13
ENDBRANCH  11  12
ENDBRANCH   1  11
TORSDOF 14
ENDMDL
MODEL 4
REMARK VINA RESULT:    -5.927      4.154      8.428
REMARK INTER + INTRA:         -11.900
REMARK INTER:                 -11.297
REMARK INTRA:                  -0.603
REMARK UNBOUND:                -1.122
REMARK SMILES CCCCCCCCCCCCCCCC(=O)[O-]
REMARK SMILES IDX 9 1 10 2 11 3 12 4 13 5 14 6 15 7 16 8 17 9 18 10 8 11 7 12
REMARK SMILES IDX 6 13 5 14 4 15 3 16 2 17 1 18
REMARK H PARENT
REMARK Flexibility Score: inf
ROOT
ATOM      1  C   UNL     1      18.091  -1.931  32.874  1.00  0.00     0.000 C 
ENDROOT
BRANCH   1   2
ATOM      2  C   UNL     1      17.923  -3.456  32.995  1.00  0.00     0.000 C 
BRANCH   2   3
ATOM      3  C   UNL     1      19.244  -4.159  33.377  1.00  0.00     0.000 C 
BRANCH   3   4
ATOM      4  C   UNL     1      19.097  -5.150  34.545  1.00  0.00     0.000 C 
BRANCH   4   5
ATOM      5  C   UNL     1      20.241  -5.041  35.566  1.00  0.00     0.000 C 
BRANCH   5   6
ATOM      6  C   UNL     1      20.245  -6.202  36.573  1.00  0.00     0.006 C 
BRANCH   6   7
ATOM      7  C   UNL     1      21.599  -6.366  37.277  1.00  0.00     0.053 C 
BRANCH   7   8
ATOM      8  C   UNL     1      21.432  -7.120  38.558  1.00  0.00     0.041 C 
ATOM      9  O   UNL     1      20.283  -7.307  39.039  1.00  0.00    -0.550 OA
ATOM     10  O   UNL     1      22.542  -7.660  39.196  1.00  0.00    -0.550 OA
ENDBRANCH   7   8
ENDBRANCH   6   7
ENDBRANCH   5   6
ENDBRANCH   4   5
ENDBRANCH   3   4
ENDBRANCH   2   3
ENDBRANCH   1   2
BRANCH   1  11
ATOM     11  C   UNL     1      17.719  -1.404  31.479  1.00  0.00     0.000 C 
BRANCH  11  12
ATOM     12  C   UNL     1      18.884  -1.490  30.482  1.00  0.00    -0.000 C 
BRANCH  12  13
ATOM     13  C   UNL     1      20.218  -1.178  31.170  1.00  0.00    -0.000 C 
BRANCH  13  14
ATOM     14  C   UNL     1      20.999  -0.105  30.397  1.00  0.00    -0.000 C 
BRANCH  14  15
ATOM     15  C   UNL     1      22.331   0.270  31.072  1.00  0.00    -0.000 C 
BRANCH  15  16
ATOM     16  C   UNL     1      23.550   0.319  30.129  1.00  0.00    -0.000 C 
BRANCH  16  17
ATOM     17  C   UNL     1      24.556   1.443  30.426  1.00  0.00    -0.003 C 
ATOM     18  C   UNL     1      23.909   2.828  30.461  1.00  0.00     0.004 C 
ENDBRANCH  16  17
ENDBRANCH  15  16
ENDBRANCH  14  15
ENDBRANCH  13  14
ENDBRANCH  12  13
ENDBRANCH  11  12
ENDBRANCH   1  11
TORSDOF 14
ENDMDL
MODEL 5
REMARK VINA RESULT:    -5.870      1.384      3.126
REMARK INTER + INTRA:         -11.797
REMARK INTER:                 -11.047
REMARK INTRA:                  -0.750
REMARK UNBOUND:                -1.122
REMARK SMILES CCCCCCCCCCCCCCCC(=O)[O-]
REMARK SMILES IDX 9 1 10 2 11 3 12 4 13 5 14 6 15 7 16 8 17 9 18 10 8 11 7 12
REMARK SMILES IDX 6 13 5 14 4 15 3 16 2 17 1 18
REMARK H PARENT
REMARK Flexibility Score: inf
ROOT
ATOM      1  C   UNL     1      19.334  -5.426  34.466  1.00  0.00     0.000 C 
ENDROOT
BRANCH   1   2
ATOM      2  C   UNL     1      19.483  -4.365  33.361  1.00  0.00     0.000 C 
BRANCH   2   3
ATOM      3  C   UNL     1      18.162  -3.610  33.097  1.00  0.00     0.000 C 
BRANCH   3   4
ATOM      4  C   UNL     1      18.366  -2.164  32.613  1.00  0.00     0.000 C 
BRANCH   4   5
ATOM      5  C   UNL     1      18.326  -2.036  31.082  1.00  0.00     0.000 C 
BRANCH   5   6
ATOM      6  C   UNL     1      19.216  -0.896  30.562  1.00  0.00     0.006 C 
BRANCH   6   7
ATOM      7  C   UNL     1      20.666  -1.010  31.052  1.00  0.00     0.053 C 
BRANCH   7   8
ATOM      8  C   UNL     1      21.487   0.120  30.518  1.00  0.00     0.041 C 
ATOM      9  O   UNL     1      22.738   0.119  30.663  1.00  0.00    -0.550 OA
ATOM     10  O   UNL     1      20.876   1.153  29.817  1.00  0.00    -0.550 OA
ENDBRANCH   7   8
ENDBRANCH   6   7
ENDBRANCH   5   6
ENDBRANCH   4   5
ENDBRANCH   3   4
ENDBRANCH   2   3
ENDBRANCH   1   2
BRANCH   1  11
ATOM     11  C   UNL     1      20.098  -5.057  35.748  1.00  0.00     0.000 C 
BRANCH  11  12
ATOM     12  C   UNL     1      19.590  -5.817  36.981  1.00  0.00    -0.000 C 
BRANCH  12  13
ATOM     13  C   UNL     1      20.643  -6.810  37.486  1.00  0.00    -0.000 C 
BRANCH  13  14
ATOM     14  C   UNL     1      20.391  -7.180  38.955  1.00  0.00    -0.000 C 
BRANCH  14  15
ATOM     15  C   UNL     1      21.629  -6.971  39.846  1.00  0.00    -0.000 C 
BRANCH  15  16
ATOM     16  C   UNL     1      22.962  -7.447  39.235  1.00  0.00    -0.000 C 
BRANCH  16  17
ATOM     17  C   UNL     1      24.087  -6.398  39.232  1.00  0.00    -0.003 C 
ATOM     18  C   UNL     1      24.007  -5.442  38.042  1.00  0.00     0.004 C 
ENDBRANCH  16  17
ENDBRANCH  15  16
ENDBRANCH  14  15
ENDBRANCH  13  14
ENDBRANCH  12  13
ENDBRANCH  11  12
ENDBRANCH   1  11
TORSDOF 14
ENDMDL
MODEL 6
REMARK VINA RESULT:    -5.852      3.301      8.202
REMARK INTER + INTRA:         -11.765
REMARK INTER:                 -10.598
REMARK INTRA:                  -1.166
REMARK UNBOUND:                -1.122
REMARK SMILES CCCCCCCCCCCCCCCC(=O)[O-]
REMARK SMILES IDX 9 1 10 2 11 3 12 4 13 5 14 6 15 7 16 8 17 9 18 10 8 11 7 12
REMARK SMILES IDX 6 13 5 14 4 15 3 16 2 17 1 18
REMARK H PARENT
REMARK Flexibility Score: inf
ROOT
ATOM      1  C   UNL     1      19.414  -5.075  35.900  1.00  0.00     0.000 C 
ENDROOT
BRANCH   1   2
ATOM      2  C   UNL     1      20.812  -5.543  36.342  1.00  0.00     0.000 C 
BRANCH   2   3
ATOM      3  C   UNL     1      20.764  -6.895  37.087  1.00  0.00     0.000 C 
BRANCH   3   4
ATOM      4  C   UNL     1      20.162  -6.796  38.500  1.00  0.00     0.000 C 
BRANCH   4   5
ATOM      5  C   UNL     1      21.117  -7.307  39.591  1.00  0.00     0.000 C 
BRANCH   5   6
ATOM      6  C   UNL     1      22.582  -7.335  39.128  1.00  0.00     0.006 C 
BRANCH   6   7
ATOM      7  C   UNL     1      23.387  -6.137  39.647  1.00  0.00     0.053 C 
BRANCH   7   8
ATOM      8  C   UNL     1      23.762  -5.232  38.516  1.00  0.00     0.041 C 
ATOM      9  O   UNL     1      24.125  -5.716  37.411  1.00  0.00    -0.550 OA
ATOM     10  O   UNL     1      23.663  -3.855  38.665  1.00  0.00    -0.550 OA
ENDBRANCH   7   8
ENDBRANCH   6   7
ENDBRANCH   5   6
ENDBRANCH   4   5
ENDBRANCH   3   4
ENDBRANCH   2   3
ENDBRANCH   1   2
BRANCH   1  11
ATOM     11  C   UNL     1      19.076  -5.496  34.461  1.00  0.00     0.000 C 
BRANCH  11  12
ATOM     12  C   UNL     1      18.765  -4.299  33.551  1.00  0.00    -0.000 C 
BRANCH  12  13
ATOM     13  C   UNL     1      19.205  -2.984  34.204  1.00  0.00    -0.000 C 
BRANCH  13  14
ATOM     14  C   UNL     1      18.522  -1.781  33.536  1.00  0.00    -0.000 C 
BRANCH  14  15
ATOM     15  C   UNL     1      17.692  -2.174  32.301  1.00  0.00    -0.000 C 
BRANCH  15  16
ATOM     16  C   UNL     1      18.261  -1.692  30.951  1.00  0.00    -0.000 C 
BRANCH  16  17
ATOM     17  C   UNL     1      19.756  -1.984  30.735  1.00  0.00    -0.003 C 
ATOM     18  C   UNL     1      20.609  -0.717  30.690  1.00  0.00     0.004 C 
ENDBRANCH  16  17
ENDBRANCH  15  16
ENDBRANCH  14  15
ENDBRANCH  13  14
ENDBRANCH  12  13
ENDBRANCH  11  12
ENDBRANCH   1  11
TORSDOF 14
ENDMDL
MODEL 7
REMARK VINA RESULT:    -5.850      3.710      8.211
REMARK INTER + INTRA:         -11.760
REMARK INTER:                 -11.114
REMARK INTRA:                  -0.646
REMARK UNBOUND:                -1.122
REMARK SMILES CCCCCCCCCCCCCCCC(=O)[O-]
REMARK SMILES IDX 9 1 10 2 11 3 12 4 13 5 14 6 15 7 16 8 17 9 18 10 8 11 7 12
REMARK SMILES IDX 6 13 5 14 4 15 3 16 2 17 1 18
REMARK H PARENT
REMARK Flexibility Score: inf
ROOT
ATOM      1  C   UNL     1      18.146  -1.254  30.703  1.00  0.00     0.000 C 
ENDROOT
BRANCH   1   2
ATOM      2  C   UNL     1      17.670  -1.445  32.154  1.00  0.00     0.000 C 
BRANCH   2   3
ATOM      3  C   UNL     1      17.701  -2.927  32.587  1.00  0.00     0.000 C 
BRANCH   3   4
ATOM      4  C   UNL     1      18.779  -3.237  33.640  1.00  0.00     0.000 C 
BRANCH   4   5
ATOM      5  C   UNL     1      18.841  -4.727  34.009  1.00  0.00     0.000 C 
BRANCH   5   6
ATOM      6  C   UNL     1      19.994  -5.050  34.972  1.00  0.00     0.006 C 
BRANCH   6   7
ATOM      7  C   UNL     1      19.501  -5.558  36.333  1.00  0.00     0.053 C 
BRANCH   7   8
ATOM      8  C   UNL     1      20.622  -6.201  37.087  1.00  0.00     0.041 C 
ATOM      9  O   UNL     1      20.378  -7.063  37.973  1.00  0.00    -0.550 OA
ATOM     10  O   UNL     1      21.939  -5.885  36.777  1.00  0.00    -0.550 OA
ENDBRANCH   7   8
ENDBRANCH   6   7
ENDBRANCH   5   6
ENDBRANCH   4   5
ENDBRANCH   3   4
ENDBRANCH   2   3
ENDBRANCH   1   2
BRANCH   1  11
ATOM     11  C   UNL     1      19.568  -1.790  30.471  1.00  0.00     0.000 C 
BRANCH  11  12
ATOM     12  C   UNL     1      20.636  -0.980  31.219  1.00  0.00    -0.000 C 
BRANCH  12  13
ATOM     13  C   UNL     1      21.180   0.154  30.341  1.00  0.00    -0.000 C 
BRANCH  13  14
ATOM     14  C   UNL     1      22.485   0.721  30.921  1.00  0.00    -0.000 C 
BRANCH  14  15
ATOM     15  C   UNL     1      23.712   0.417  30.043  1.00  0.00    -0.000 C 
BRANCH  15  16
ATOM     16  C   UNL     1      24.971   1.245  30.370  1.00  0.00    -0.000 C 
BRANCH  16  17
ATOM     17  C   UNL     1      24.733   2.756  30.524  1.00  0.00    -0.003 C 
ATOM     18  C   UNL     1      24.922   3.525  29.216  1.00  0.00     0.004 C 
ENDBRANCH  16  17
ENDBRANCH  15  16
ENDBRANCH  14  15
ENDBRANCH  13  14
ENDBRANCH  12  13
ENDBRANCH  11  12
ENDBRANCH   1  11
TORSDOF 14
ENDMDL
MODEL 8
REMARK VINA RESULT:    -5.684      4.437      8.653
REMARK INTER + INTRA:         -11.458
REMARK INTER:                 -10.661
REMARK INTRA:                  -0.797
REMARK UNBOUND:                -1.122
REMARK SMILES CCCCCCCCCCCCCCCC(=O)[O-]
REMARK SMILES IDX 9 1 10 2 11 3 12 4 13 5 14 6 15 7 16 8 17 9 18 10 8 11 7 12
REMARK SMILES IDX 6 13 5 14 4 15 3 16 2 17 1 18
REMARK H PARENT
REMARK Flexibility Score: inf
ROOT
ATOM      1  C   UNL     1      18.315  -5.204  34.136  1.00  0.00     0.000 C 
ENDROOT
BRANCH   1   2
ATOM      2  C   UNL     1      19.496  -5.509  35.074  1.00  0.00     0.000 C 
BRANCH   2   3
ATOM      3  C   UNL     1      19.151  -5.232  36.554  1.00  0.00     0.000 C 
BRANCH   3   4
ATOM      4  C   UNL     1      19.862  -6.178  37.538  1.00  0.00     0.000 C 
BRANCH   4   5
ATOM      5  C   UNL     1      21.085  -6.873  36.919  1.00  0.00     0.000 C 
BRANCH   5   6
ATOM      6  C   UNL     1      22.412  -6.366  37.505  1.00  0.00     0.006 C 
BRANCH   6   7
ATOM      7  C   UNL     1      22.314  -6.060  39.005  1.00  0.00     0.053 C 
BRANCH   7   8
ATOM      8  C   UNL     1      22.374  -7.326  39.800  1.00  0.00     0.041 C 
ATOM      9  O   UNL     1      21.428  -7.634  40.574  1.00  0.00    -0.550 OA
ATOM     10  O   UNL     1      23.451  -8.191  39.651  1.00  0.00    -0.550 OA
ENDBRANCH   7   8
ENDBRANCH   6   7
ENDBRANCH   5   6
ENDBRANCH   4   5
ENDBRANCH   3   4
ENDBRANCH   2   3
ENDBRANCH   1   2
BRANCH   1  11
ATOM     11  C   UNL     1      18.517  -3.909  33.332  1.00  0.00     0.000 C 
BRANCH  11  12
ATOM     12  C   UNL     1      19.938  -3.779  32.766  1.00  0.00    -0.000 C 
BRANCH  12  13
ATOM     13  C   UNL     1      19.906  -3.335  31.299  1.00  0.00    -0.000 C 
BRANCH  13  14
ATOM     14  C   UNL     1      18.964  -2.137  31.107  1.00  0.00    -0.000 C 
BRANCH  14  15
ATOM     15  C   UNL     1      19.667  -0.916  30.486  1.00  0.00    -0.000 C 
BRANCH  15  16
ATOM     16  C   UNL     1      21.077  -0.623  31.037  1.00  0.00    -0.000 C 
BRANCH  16  17
ATOM     17  C   UNL     1      21.858   0.464  30.278  1.00  0.00    -0.003 C 
ATOM     18  C   UNL     1      22.700   1.345  31.201  1.00  0.00     0.004 C 
ENDBRANCH  16  17
ENDBRANCH  15  16
ENDBRANCH  14  15
ENDBRANCH  13  14
ENDBRANCH  12  13
ENDBRANCH  11  12
ENDBRANCH   1  11
TORSDOF 14
ENDMDL
