MODEL 1
REMARK VINA RESULT:    -6.802      0.000      0.000
REMARK INTER + INTRA:          -8.259
REMARK INTER:                  -7.995
REMARK INTRA:                  -0.265
REMARK UNBOUND:                -0.265
REMARK SMILES O=c1c(O)c(-c2ccc(O)cc2)oc2cc(O)cc(O)c12
REMARK SMILES IDX 5 1 3 2 2 3 1 4 21 5 19 6 18 7 16 8 15 9 14 10 13 11 6 12
REMARK SMILES IDX 7 13 8 14 9 15 12 16 11 17 10 18 4 20 20 22 17 24
REMARK H PARENT 10 19 4 21 20 23 17 25
REMARK Flexibility Score: inf
ROOT
ATOM      1  C   UNL     1     135.599 101.686  94.175  1.00  0.00     0.180 A 
ATOM      2  C   UNL     1     136.258 102.877  93.825  1.00  0.00     0.208 A 
ATOM      3  C   UNL     1     135.538 104.083  93.836  1.00  0.00     0.238 A 
ATOM      4  O   UNL     1     136.145 105.153  93.576  1.00  0.00    -0.285 OA
ATOM      5  C   UNL     1     134.164 104.078  94.181  1.00  0.00     0.111 A 
ATOM      6  C   UNL     1     133.326 105.235  94.185  1.00  0.00     0.134 A 
ATOM      7  C   UNL     1     132.016 105.135  94.668  1.00  0.00     0.093 A 
ATOM      8  C   UNL     1     131.492 103.909  95.085  1.00  0.00     0.123 A 
ATOM      9  C   UNL     1     132.283 102.764  95.028  1.00  0.00     0.094 A 
ATOM     10  C   UNL     1     133.606 102.838  94.584  1.00  0.00     0.146 A 
ATOM     11  O   UNL     1     134.329 101.725  94.556  1.00  0.00    -0.452 OA
ENDROOT
BRANCH   1  12
ATOM     12  C   UNL     1     136.286 100.373  94.163  1.00  0.00     0.021 A 
ATOM     13  C   UNL     1     137.071  99.994  95.264  1.00  0.00     0.016 A 
ATOM     14  C   UNL     1     137.711  98.750  95.282  1.00  0.00     0.047 A 
ATOM     15  C   UNL     1     137.560  97.865  94.211  1.00  0.00     0.115 A 
ATOM     16  C   UNL     1     136.122  99.470  93.096  1.00  0.00     0.016 A 
ATOM     17  C   UNL     1     136.760  98.227  93.119  1.00  0.00     0.047 A 
BRANCH  15  18
ATOM     18  O   UNL     1     138.202  96.630  94.243  1.00  0.00    -0.508 OA
ATOM     19  H   UNL     1     137.684  95.766  94.359  1.00  0.00     0.293 HD
ENDBRANCH  15  18
ENDBRANCH   1  12
BRANCH   2  20
ATOM     20  O   UNL     1     137.620 102.861  93.511  1.00  0.00    -0.502 OA
ATOM     21  H   UNL     1     138.100 103.670  93.134  1.00  0.00     0.293 HD
ENDBRANCH   2  20
BRANCH   6  22
ATOM     22  O   UNL     1     133.722 106.486  93.705  1.00  0.00    -0.507 OA
ATOM     23  H   UNL     1     133.128 107.119  93.190  1.00  0.00     0.293 HD
ENDBRANCH   6  22
BRANCH   8  24
ATOM     24  O   UNL     1     130.182 103.817  95.550  1.00  0.00    -0.508 OA
ATOM     25  H   UNL     1     129.494 104.531  95.340  1.00  0.00     0.293 HD
ENDBRANCH   8  24
TORSDOF 5
ENDMDL
MODEL 2
REMARK VINA RESULT:    -6.243      1.553      6.308
REMARK INTER + INTRA:          -7.602
REMARK INTER:                  -7.303
REMARK INTRA:                  -0.299
REMARK UNBOUND:                -0.265
REMARK SMILES O=c1c(O)c(-c2ccc(O)cc2)oc2cc(O)cc(O)c12
REMARK SMILES IDX 5 1 3 2 2 3 1 4 21 5 19 6 18 7 16 8 15 9 14 10 13 11 6 12
REMARK SMILES IDX 7 13 8 14 9 15 12 16 11 17 10 18 4 20 20 22 17 24
REMARK H PARENT 10 19 4 21 20 23 17 25
REMARK Flexibility Score: inf
ROOT
ATOM      1  C   UNL     1     134.981 102.114  94.326  1.00  0.00     0.180 A 
ATOM      2  C   UNL     1     135.913 103.157  94.191  1.00  0.00     0.208 A 
ATOM      3  C   UNL     1     137.281 102.870  94.324  1.00  0.00     0.238 A 
ATOM      4  O   UNL     1     138.114 103.796  94.148  1.00  0.00    -0.285 OA
ATOM      5  C   UNL     1     137.698 101.546  94.608  1.00  0.00     0.111 A 
ATOM      6  C   UNL     1     139.055 101.149  94.805  1.00  0.00     0.134 A 
ATOM      7  C   UNL     1     139.362  99.791  94.951  1.00  0.00     0.093 A 
ATOM      8  C   UNL     1     138.355  98.822  94.973  1.00  0.00     0.123 A 
ATOM      9  C   UNL     1     137.024  99.207  94.841  1.00  0.00     0.094 A 
ATOM     10  C   UNL     1     136.688 100.551  94.659  1.00  0.00     0.146 A 
ATOM     11  O   UNL     1     135.408 100.873  94.527  1.00  0.00    -0.452 OA
ENDROOT
BRANCH   1  12
ATOM     12  C   UNL     1     133.521 102.343  94.223  1.00  0.00     0.021 A 
ATOM     13  C   UNL     1     132.874 102.137  92.993  1.00  0.00     0.016 A 
ATOM     14  C   UNL     1     131.493 102.327  92.879  1.00  0.00     0.047 A 
ATOM     15  C   UNL     1     130.741 102.708  93.993  1.00  0.00     0.115 A 
ATOM     16  C   UNL     1     132.755 102.708  95.346  1.00  0.00     0.016 A 
ATOM     17  C   UNL     1     131.375 102.896  95.228  1.00  0.00     0.047 A 
BRANCH  15  18
ATOM     18  O   UNL     1     129.366 102.894  93.865  1.00  0.00    -0.508 OA
ATOM     19  H   UNL     1     128.742 102.116  93.686  1.00  0.00     0.293 HD
ENDBRANCH  15  18
ENDBRANCH   1  12
BRANCH   2  20
ATOM     20  O   UNL     1     135.481 104.451  93.888  1.00  0.00    -0.502 OA
ATOM     21  H   UNL     1     134.684 104.879  94.345  1.00  0.00     0.293 HD
ENDBRANCH   2  20
BRANCH   6  22
ATOM     22  O   UNL     1     140.125 102.044  94.891  1.00  0.00    -0.507 OA
ATOM     23  H   UNL     1     140.033 103.039  95.032  1.00  0.00     0.293 HD
ENDBRANCH   6  22
BRANCH   8  24
ATOM     24  O   UNL     1     138.670  97.474  95.134  1.00  0.00    -0.508 OA
ATOM     25  H   UNL     1     137.964  96.753  95.050  1.00  0.00     0.293 HD
ENDBRANCH   8  24
TORSDOF 5
ENDMDL
MODEL 3
REMARK VINA RESULT:    -5.892      1.956      2.261
REMARK INTER + INTRA:          -7.190
REMARK INTER:                  -6.909
REMARK INTRA:                  -0.281
REMARK UNBOUND:                -0.265
REMARK SMILES O=c1c(O)c(-c2ccc(O)cc2)oc2cc(O)cc(O)c12
REMARK SMILES IDX 5 1 3 2 2 3 1 4 21 5 19 6 18 7 16 8 15 9 14 10 13 11 6 12
REMARK SMILES IDX 7 13 8 14 9 15 12 16 11 17 10 18 4 20 20 22 17 24
REMARK H PARENT 10 19 4 21 20 23 17 25
REMARK Flexibility Score: inf
ROOT
ATOM      1  C   UNL     1     135.457 101.350  93.819  1.00  0.00     0.180 A 
ATOM      2  C   UNL     1     135.461 101.763  92.475  1.00  0.00     0.208 A 
ATOM      3  C   UNL     1     134.362 102.483  91.981  1.00  0.00     0.238 A 
ATOM      4  O   UNL     1     134.395 102.898  90.794  1.00  0.00    -0.285 OA
ATOM      5  C   UNL     1     133.266 102.767  92.832  1.00  0.00     0.111 A 
ATOM      6  C   UNL     1     132.082 103.454  92.426  1.00  0.00     0.134 A 
ATOM      7  C   UNL     1     131.119 103.794  93.384  1.00  0.00     0.093 A 
ATOM      8  C   UNL     1     131.266 103.414  94.721  1.00  0.00     0.123 A 
ATOM      9  C   UNL     1     132.390 102.692  95.114  1.00  0.00     0.094 A 
ATOM     10  C   UNL     1     133.385 102.369  94.189  1.00  0.00     0.146 A 
ATOM     11  O   UNL     1     134.445 101.689  94.608  1.00  0.00    -0.452 OA
ENDROOT
BRANCH   1  12
ATOM     12  C   UNL     1     136.568 100.566  94.405  1.00  0.00     0.021 A 
ATOM     13  C   UNL     1     136.597  99.172  94.234  1.00  0.00     0.016 A 
ATOM     14  C   UNL     1     137.648  98.414  94.761  1.00  0.00     0.047 A 
ATOM     15  C   UNL     1     138.690  99.041  95.450  1.00  0.00     0.115 A 
ATOM     16  C   UNL     1     137.630 101.193  95.084  1.00  0.00     0.016 A 
ATOM     17  C   UNL     1     138.680 100.433  95.607  1.00  0.00     0.047 A 
BRANCH  15  18
ATOM     18  O   UNL     1     139.731  98.275  95.969  1.00  0.00    -0.508 OA
ATOM     19  H   UNL     1     140.452  98.685  96.551  1.00  0.00     0.293 HD
ENDBRANCH  15  18
ENDBRANCH   1  12
BRANCH   2  20
ATOM     20  O   UNL     1     136.563 101.492  91.660  1.00  0.00    -0.502 OA
ATOM     21  H   UNL     1     137.518 101.578  91.989  1.00  0.00     0.293 HD
ENDBRANCH   2  20
BRANCH   6  22
ATOM     22  O   UNL     1     131.794 103.798  91.103  1.00  0.00    -0.507 OA
ATOM     23  H   UNL     1     130.869 103.980  90.743  1.00  0.00     0.293 HD
ENDBRANCH   6  22
BRANCH   8  24
ATOM     24  O   UNL     1     130.295 103.744  95.664  1.00  0.00    -0.508 OA
ATOM     25  H   UNL     1     129.313 103.558  95.500  1.00  0.00     0.293 HD
ENDBRANCH   8  24
TORSDOF 5
ENDMDL
MODEL 4
REMARK VINA RESULT:    -5.685      1.786      6.602
REMARK INTER + INTRA:          -6.947
REMARK INTER:                  -6.696
REMARK INTRA:                  -0.251
REMARK UNBOUND:                -0.265
REMARK SMILES O=c1c(O)c(-c2ccc(O)cc2)oc2cc(O)cc(O)c12
REMARK SMILES IDX 5 1 3 2 2 3 1 4 21 5 19 6 18 7 16 8 15 9 14 10 13 11 6 12
REMARK SMILES IDX 7 13 8 14 9 15 12 16 11 17 10 18 4 20 20 22 17 24
REMARK H PARENT 10 19 4 21 20 23 17 25
REMARK Flexibility Score: inf
ROOT
ATOM      1  C   UNL     1     134.351 102.527  94.105  1.00  0.00     0.180 A 
ATOM      2  C   UNL     1     135.572 102.673  94.786  1.00  0.00     0.208 A 
ATOM      3  C   UNL     1     136.615 101.773  94.516  1.00  0.00     0.238 A 
ATOM      4  O   UNL     1     137.723 101.941  95.087  1.00  0.00    -0.285 OA
ATOM      5  C   UNL     1     136.417 100.728  93.580  1.00  0.00     0.111 A 
ATOM      6  C   UNL     1     137.391  99.733  93.258  1.00  0.00     0.134 A 
ATOM      7  C   UNL     1     137.134  98.827  92.223  1.00  0.00     0.093 A 
ATOM      8  C   UNL     1     135.914  98.835  91.542  1.00  0.00     0.123 A 
ATOM      9  C   UNL     1     134.936  99.764  91.889  1.00  0.00     0.094 A 
ATOM     10  C   UNL     1     135.176 100.705  92.894  1.00  0.00     0.146 A 
ATOM     11  O   UNL     1     134.220 101.578  93.186  1.00  0.00    -0.452 OA
ENDROOT
BRANCH   1  12
ATOM     12  C   UNL     1     133.198 103.422  94.354  1.00  0.00     0.021 A 
ATOM     13  C   UNL     1     132.165 102.998  95.207  1.00  0.00     0.016 A 
ATOM     14  C   UNL     1     131.077 103.836  95.473  1.00  0.00     0.047 A 
ATOM     15  C   UNL     1     131.016 105.112  94.905  1.00  0.00     0.115 A 
ATOM     16  C   UNL     1     133.140 104.715  93.802  1.00  0.00     0.016 A 
ATOM     17  C   UNL     1     132.053 105.551  94.071  1.00  0.00     0.047 A 
BRANCH  15  18
ATOM     18  O   UNL     1     129.927 105.936  95.180  1.00  0.00    -0.508 OA
ATOM     19  H   UNL     1     129.161 105.624  95.765  1.00  0.00     0.293 HD
ENDBRANCH  15  18
ENDBRANCH   1  12
BRANCH   2  20
ATOM     20  O   UNL     1     135.752 103.725  95.688  1.00  0.00    -0.502 OA
ATOM     21  H   UNL     1     135.481 104.678  95.474  1.00  0.00     0.293 HD
ENDBRANCH   2  20
BRANCH   6  22
ATOM     22  O   UNL     1     138.602  99.580  93.938  1.00  0.00    -0.507 OA
ATOM     23  H   UNL     1     139.509  99.795  93.553  1.00  0.00     0.293 HD
ENDBRANCH   6  22
BRANCH   8  24
ATOM     24  O   UNL     1     135.662  97.919  90.524  1.00  0.00    -0.508 OA
ATOM     25  H   UNL     1     135.336  96.981  90.725  1.00  0.00     0.293 HD
ENDBRANCH   8  24
TORSDOF 5
ENDMDL
MODEL 5
REMARK VINA RESULT:    -5.610      1.963      6.873
REMARK INTER + INTRA:          -6.858
REMARK INTER:                  -6.563
REMARK INTRA:                  -0.295
REMARK UNBOUND:                -0.265
REMARK SMILES O=c1c(O)c(-c2ccc(O)cc2)oc2cc(O)cc(O)c12
REMARK SMILES IDX 5 1 3 2 2 3 1 4 21 5 19 6 18 7 16 8 15 9 14 10 13 11 6 12
REMARK SMILES IDX 7 13 8 14 9 15 12 16 11 17 10 18 4 20 20 22 17 24
REMARK H PARENT 10 19 4 21 20 23 17 25
REMARK Flexibility Score: inf
ROOT
ATOM      1  C   UNL     1     133.876 101.929  93.500  1.00  0.00     0.180 A 
ATOM      2  C   UNL     1     133.741 101.242  92.281  1.00  0.00     0.208 A 
ATOM      3  C   UNL     1     134.708 100.287  91.926  1.00  0.00     0.238 A 
ATOM      4  O   UNL     1     134.555  99.636  90.861  1.00  0.00    -0.285 OA
ATOM      5  C   UNL     1     135.806 100.044  92.788  1.00  0.00     0.111 A 
ATOM      6  C   UNL     1     136.867  99.129  92.511  1.00  0.00     0.134 A 
ATOM      7  C   UNL     1     137.831  98.873  93.492  1.00  0.00     0.093 A 
ATOM      8  C   UNL     1     137.811  99.547  94.716  1.00  0.00     0.123 A 
ATOM      9  C   UNL     1     136.814 100.485  94.972  1.00  0.00     0.094 A 
ATOM     10  C   UNL     1     135.817 100.737  94.026  1.00  0.00     0.146 A 
ATOM     11  O   UNL     1     134.880 101.631  94.315  1.00  0.00    -0.452 OA
ENDROOT
BRANCH   1  12
ATOM     12  C   UNL     1     132.910 102.966  93.930  1.00  0.00     0.021 A 
ATOM     13  C   UNL     1     131.878 102.624  94.819  1.00  0.00     0.016 A 
ATOM     14  C   UNL     1     130.968 103.592  95.255  1.00  0.00     0.047 A 
ATOM     15  C   UNL     1     131.088 104.916  94.821  1.00  0.00     0.115 A 
ATOM     16  C   UNL     1     133.037 104.304  93.513  1.00  0.00     0.016 A 
ATOM     17  C   UNL     1     132.128 105.270  93.952  1.00  0.00     0.047 A 
BRANCH  15  18
ATOM     18  O   UNL     1     130.175 105.871  95.264  1.00  0.00    -0.508 OA
ATOM     19  H   UNL     1     130.173 106.813  94.893  1.00  0.00     0.293 HD
ENDBRANCH  15  18
ENDBRANCH   1  12
BRANCH   2  20
ATOM     20  O   UNL     1     132.638 101.481  91.457  1.00  0.00    -0.502 OA
ATOM     21  H   UNL     1     132.501 102.362  90.974  1.00  0.00     0.293 HD
ENDBRANCH   2  20
BRANCH   6  22
ATOM     22  O   UNL     1     137.031  98.473  91.288  1.00  0.00    -0.507 OA
ATOM     23  H   UNL     1     136.992  97.473  91.162  1.00  0.00     0.293 HD
ENDBRANCH   6  22
BRANCH   8  24
ATOM     24  O   UNL     1     138.785  99.297  95.681  1.00  0.00    -0.508 OA
ATOM     25  H   UNL     1     139.566  98.680  95.497  1.00  0.00     0.293 HD
ENDBRANCH   8  24
TORSDOF 5
ENDMDL
MODEL 6
REMARK VINA RESULT:    -5.545      4.590      6.111
REMARK INTER + INTRA:          -6.781
REMARK INTER:                  -6.483
REMARK INTRA:                  -0.299
REMARK UNBOUND:                -0.265
REMARK SMILES O=c1c(O)c(-c2ccc(O)cc2)oc2cc(O)cc(O)c12
REMARK SMILES IDX 5 1 3 2 2 3 1 4 21 5 19 6 18 7 16 8 15 9 14 10 13 11 6 12
REMARK SMILES IDX 7 13 8 14 9 15 12 16 11 17 10 18 4 20 20 22 17 24
REMARK H PARENT 10 19 4 21 20 23 17 25
REMARK Flexibility Score: inf
ROOT
ATOM      1  C   UNL     1     136.062  99.212  91.988  1.00  0.00     0.180 A 
ATOM      2  C   UNL     1     136.983  99.703  91.046  1.00  0.00     0.208 A 
ATOM      3  C   UNL     1     138.146 100.345  91.501  1.00  0.00     0.238 A 
ATOM      4  O   UNL     1     138.994 100.733  90.657  1.00  0.00    -0.285 OA
ATOM      5  C   UNL     1     138.364 100.502  92.892  1.00  0.00     0.111 A 
ATOM      6  C   UNL     1     139.487 101.173  93.465  1.00  0.00     0.134 A 
ATOM      7  C   UNL     1     139.667 101.155  94.853  1.00  0.00     0.093 A 
ATOM      8  C   UNL     1     138.730 100.548  95.694  1.00  0.00     0.123 A 
ATOM      9  C   UNL     1     137.601  99.943  95.147  1.00  0.00     0.094 A 
ATOM     10  C   UNL     1     137.412  99.914  93.763  1.00  0.00     0.146 A 
ATOM     11  O   UNL     1     136.328  99.318  93.284  1.00  0.00    -0.452 OA
ENDROOT
BRANCH   1  12
ATOM     12  C   UNL     1     134.802  98.546  91.584  1.00  0.00     0.021 A 
ATOM     13  C   UNL     1     134.768  97.147  91.461  1.00  0.00     0.016 A 
ATOM     14  C   UNL     1     133.583  96.497  91.102  1.00  0.00     0.047 A 
ATOM     15  C   UNL     1     132.416  97.233  90.878  1.00  0.00     0.115 A 
ATOM     16  C   UNL     1     133.619  99.280  91.376  1.00  0.00     0.016 A 
ATOM     17  C   UNL     1     132.436  98.626  91.019  1.00  0.00     0.047 A 
BRANCH  15  18
ATOM     18  O   UNL     1     131.243  96.571  90.521  1.00  0.00    -0.508 OA
ATOM     19  H   UNL     1     130.910  96.562  89.564  1.00  0.00     0.293 HD
ENDBRANCH  15  18
ENDBRANCH   1  12
BRANCH   2  20
ATOM     20  O   UNL     1     136.759  99.516  89.679  1.00  0.00    -0.502 OA
ATOM     21  H   UNL     1     136.222  98.736  89.318  1.00  0.00     0.293 HD
ENDBRANCH   2  20
BRANCH   6  22
ATOM     22  O   UNL     1     140.432 101.887  92.722  1.00  0.00    -0.507 OA
ATOM     23  H   UNL     1     140.306 102.185  91.767  1.00  0.00     0.293 HD
ENDBRANCH   6  22
BRANCH   8  24
ATOM     24  O   UNL     1     138.909 100.549  97.076  1.00  0.00    -0.508 OA
ATOM     25  H   UNL     1     138.527  99.815  97.659  1.00  0.00     0.293 HD
ENDBRANCH   8  24
TORSDOF 5
ENDMDL
MODEL 7
REMARK VINA RESULT:    -5.499      2.532      4.047
REMARK INTER + INTRA:          -6.728
REMARK INTER:                  -6.518
REMARK INTRA:                  -0.211
REMARK UNBOUND:                -0.265
REMARK SMILES O=c1c(O)c(-c2ccc(O)cc2)oc2cc(O)cc(O)c12
REMARK SMILES IDX 5 1 3 2 2 3 1 4 21 5 19 6 18 7 16 8 15 9 14 10 13 11 6 12
REMARK SMILES IDX 7 13 8 14 9 15 12 16 11 17 10 18 4 20 20 22 17 24
REMARK H PARENT 10 19 4 21 20 23 17 25
REMARK Flexibility Score: inf
ROOT
ATOM      1  C   UNL     1     133.942 102.252  94.131  1.00  0.00     0.180 A 
ATOM      2  C   UNL     1     133.183 102.951  95.085  1.00  0.00     0.208 A 
ATOM      3  C   UNL     1     131.805 103.115  94.872  1.00  0.00     0.238 A 
ATOM      4  O   UNL     1     131.120 103.693  95.755  1.00  0.00    -0.285 OA
ATOM      5  C   UNL     1     131.207 102.591  93.700  1.00  0.00     0.111 A 
ATOM      6  C   UNL     1     129.827 102.734  93.361  1.00  0.00     0.134 A 
ATOM      7  C   UNL     1     129.318 102.064  92.242  1.00  0.00     0.093 A 
ATOM      8  C   UNL     1     130.153 101.311  91.412  1.00  0.00     0.123 A 
ATOM      9  C   UNL     1     131.511 101.215  91.701  1.00  0.00     0.094 A 
ATOM     10  C   UNL     1     132.042 101.843  92.831  1.00  0.00     0.146 A 
ATOM     11  O   UNL     1     133.340 101.717  93.076  1.00  0.00    -0.452 OA
ENDROOT
BRANCH   1  12
ATOM     12  C   UNL     1     135.404 102.060  94.274  1.00  0.00     0.021 A 
ATOM     13  C   UNL     1     136.266 103.154  94.092  1.00  0.00     0.016 A 
ATOM     14  C   UNL     1     137.647 103.001  94.243  1.00  0.00     0.047 A 
ATOM     15  C   UNL     1     138.183 101.758  94.594  1.00  0.00     0.115 A 
ATOM     16  C   UNL     1     135.947 100.816  94.646  1.00  0.00     0.016 A 
ATOM     17  C   UNL     1     137.328 100.666  94.798  1.00  0.00     0.047 A 
BRANCH  15  18
ATOM     18  O   UNL     1     139.561 101.619  94.742  1.00  0.00    -0.508 OA
ATOM     19  H   UNL     1     140.006 101.689  95.649  1.00  0.00     0.293 HD
ENDBRANCH  15  18
ENDBRANCH   1  12
BRANCH   2  20
ATOM     20  O   UNL     1     133.789 103.439  96.246  1.00  0.00    -0.502 OA
ATOM     21  H   UNL     1     133.297 104.021  96.913  1.00  0.00     0.293 HD
ENDBRANCH   2  20
BRANCH   6  22
ATOM     22  O   UNL     1     128.929 103.536  94.070  1.00  0.00    -0.507 OA
ATOM     23  H   UNL     1     129.171 104.104  94.868  1.00  0.00     0.293 HD
ENDBRANCH   6  22
BRANCH   8  24
ATOM     24  O   UNL     1     129.640 100.660  90.291  1.00  0.00    -0.508 OA
ATOM     25  H   UNL     1     129.767 101.034  89.358  1.00  0.00     0.293 HD
ENDBRANCH   8  24
TORSDOF 5
ENDMDL
MODEL 8
REMARK VINA RESULT:    -5.424      3.226      3.759
REMARK INTER + INTRA:          -6.640
REMARK INTER:                  -6.366
REMARK INTRA:                  -0.274
REMARK UNBOUND:                -0.265
REMARK SMILES O=c1c(O)c(-c2ccc(O)cc2)oc2cc(O)cc(O)c12
REMARK SMILES IDX 5 1 3 2 2 3 1 4 21 5 19 6 18 7 16 8 15 9 14 10 13 11 6 12
REMARK SMILES IDX 7 13 8 14 9 15 12 16 11 17 10 18 4 20 20 22 17 24
REMARK H PARENT 10 19 4 21 20 23 17 25
REMARK Flexibility Score: inf
ROOT
ATOM      1  C   UNL     1     133.519 100.930  91.811  1.00  0.00     0.180 A 
ATOM      2  C   UNL     1     133.436 101.911  90.808  1.00  0.00     0.208 A 
ATOM      3  C   UNL     1     133.383 103.264  91.182  1.00  0.00     0.238 A 
ATOM      4  O   UNL     1     133.364 104.141  90.281  1.00  0.00    -0.285 OA
ATOM      5  C   UNL     1     133.397 103.616  92.554  1.00  0.00     0.111 A 
ATOM      6  C   UNL     1     133.307 104.952  93.049  1.00  0.00     0.134 A 
ATOM      7  C   UNL     1     133.462 105.193  94.419  1.00  0.00     0.093 A 
ATOM      8  C   UNL     1     133.639 104.140  95.321  1.00  0.00     0.123 A 
ATOM      9  C   UNL     1     133.669 102.828  94.854  1.00  0.00     0.094 A 
ATOM     10  C   UNL     1     133.552 102.559  93.488  1.00  0.00     0.146 A 
ATOM     11  O   UNL     1     133.597 101.295  93.084  1.00  0.00    -0.452 OA
ENDROOT
BRANCH   1  12
ATOM     12  C   UNL     1     133.554  99.483  91.495  1.00  0.00     0.021 A 
ATOM     13  C   UNL     1     134.773  98.789  91.564  1.00  0.00     0.016 A 
ATOM     14  C   UNL     1     134.825  97.418  91.291  1.00  0.00     0.047 A 
ATOM     15  C   UNL     1     133.658  96.722  90.963  1.00  0.00     0.115 A 
ATOM     16  C   UNL     1     132.380  98.772  91.183  1.00  0.00     0.016 A 
ATOM     17  C   UNL     1     132.435  97.402  90.913  1.00  0.00     0.047 A 
BRANCH  15  18
ATOM     18  O   UNL     1     133.725  95.357  90.694  1.00  0.00    -0.508 OA
ATOM     19  H   UNL     1     133.720  94.670  91.438  1.00  0.00     0.293 HD
ENDBRANCH  15  18
ENDBRANCH   1  12
BRANCH   2  20
ATOM     20  O   UNL     1     133.446 101.543  89.460  1.00  0.00    -0.502 OA
ATOM     21  H   UNL     1     133.486 100.575  89.162  1.00  0.00     0.293 HD
ENDBRANCH   2  20
BRANCH   6  22
ATOM     22  O   UNL     1     133.041 106.065  92.246  1.00  0.00    -0.507 OA
ATOM     23  H   UNL     1     132.123 106.453  92.086  1.00  0.00     0.293 HD
ENDBRANCH   6  22
BRANCH   8  24
ATOM     24  O   UNL     1     133.777 104.388  96.685  1.00  0.00    -0.508 OA
ATOM     25  H   UNL     1     133.682 103.648  97.369  1.00  0.00     0.293 HD
ENDBRANCH   8  24
TORSDOF 5
ENDMDL
MODEL 9
REMARK VINA RESULT:    -5.354      5.166      6.201
REMARK INTER + INTRA:          -6.557
REMARK INTER:                  -6.280
REMARK INTRA:                  -0.277
REMARK UNBOUND:                -0.265
REMARK SMILES O=c1c(O)c(-c2ccc(O)cc2)oc2cc(O)cc(O)c12
REMARK SMILES IDX 5 1 3 2 2 3 1 4 21 5 19 6 18 7 16 8 15 9 14 10 13 11 6 12
REMARK SMILES IDX 7 13 8 14 9 15 12 16 11 17 10 18 4 20 20 22 17 24
REMARK H PARENT 10 19 4 21 20 23 17 25
REMARK Flexibility Score: inf
ROOT
ATOM      1  C   UNL     1     130.255 100.646  91.306  1.00  0.00     0.180 A 
ATOM      2  C   UNL     1     129.959 101.445  90.188  1.00  0.00     0.208 A 
ATOM      3  C   UNL     1     129.818 102.832  90.361  1.00  0.00     0.238 A 
ATOM      4  O   UNL     1     129.607 103.549  89.349  1.00  0.00    -0.285 OA
ATOM      5  C   UNL     1     129.959 103.398  91.652  1.00  0.00     0.111 A 
ATOM      6  C   UNL     1     129.797 104.785  91.950  1.00  0.00     0.134 A 
ATOM      7  C   UNL     1     130.088 105.253  93.237  1.00  0.00     0.093 A 
ATOM      8  C   UNL     1     130.472 104.374  94.253  1.00  0.00     0.123 A 
ATOM      9  C   UNL     1     130.575 103.012  93.987  1.00  0.00     0.094 A 
ATOM     10  C   UNL     1     130.325 102.519  92.703  1.00  0.00     0.146 A 
ATOM     11  O   UNL     1     130.446 101.215  92.489  1.00  0.00    -0.452 OA
ENDROOT
BRANCH   1  12
ATOM     12  C   UNL     1     130.393  99.174  91.207  1.00  0.00     0.021 A 
ATOM     13  C   UNL     1     129.243  98.369  91.226  1.00  0.00     0.016 A 
ATOM     14  C   UNL     1     129.349  96.979  91.112  1.00  0.00     0.047 A 
ATOM     15  C   UNL     1     130.603  96.379  90.962  1.00  0.00     0.115 A 
ATOM     16  C   UNL     1     131.651  98.566  91.037  1.00  0.00     0.016 A 
ATOM     17  C   UNL     1     131.754  97.177  90.922  1.00  0.00     0.047 A 
BRANCH  15  18
ATOM     18  O   UNL     1     130.694  94.994  90.850  1.00  0.00    -0.508 OA
ATOM     19  H   UNL     1     130.829  94.543  89.953  1.00  0.00     0.293 HD
ENDBRANCH  15  18
ENDBRANCH   1  12
BRANCH   2  20
ATOM     20  O   UNL     1     129.846 100.868  88.921  1.00  0.00    -0.502 OA
ATOM     21  H   UNL     1     129.410 101.347  88.142  1.00  0.00     0.293 HD
ENDBRANCH   2  20
BRANCH   6  22
ATOM     22  O   UNL     1     129.331 105.731  91.032  1.00  0.00    -0.507 OA
ATOM     23  H   UNL     1     129.189 105.557  90.048  1.00  0.00     0.293 HD
ENDBRANCH   6  22
BRANCH   8  24
ATOM     24  O   UNL     1     130.745 104.847  95.535  1.00  0.00    -0.508 OA
ATOM     25  H   UNL     1     130.418 105.754  95.846  1.00  0.00     0.293 HD
ENDBRANCH   8  24
TORSDOF 5
ENDMDL
