MODEL 1
REMARK VINA RESULT:    -4.140      0.000      0.000
REMARK INTER + INTRA:          -8.891
REMARK INTER:                  -7.771
REMARK INTRA:                  -1.120
REMARK UNBOUND:                -1.120
REMARK SMILES O=C([O-])CCCCCCCCCCCCCCC(=O)[O-]
REMARK SMILES IDX 10 1 9 2 8 3 7 4 6 5 5 6 4 7 2 8 1 9 3 10 11 11 12 12 13 13
REMARK SMILES IDX 14 14 15 15 16 16 17 17 18 18 19 19 20 20
REMARK H PARENT
REMARK Flexibility Score: inf
ROOT
ATOM      1  C   UNL     1     173.446 180.033 188.665  1.00  0.00     0.000 C 
ENDROOT
BRANCH   1   2
ATOM      2  C   UNL     1     172.172 179.180 188.792  1.00  0.00     0.000 C 
BRANCH   2   3
ATOM      3  C   UNL     1     170.889 179.975 188.488  1.00  0.00     0.000 C 
BRANCH   3   4
ATOM      4  C   UNL     1     170.550 180.125 186.991  1.00  0.00     0.000 C 
BRANCH   4   5
ATOM      5  C   UNL     1     169.087 179.825 186.619  1.00  0.00     0.000 C 
BRANCH   5   6
ATOM      6  C   UNL     1     168.118 180.016 187.799  1.00  0.00     0.006 C 
BRANCH   6   7
ATOM      7  C   UNL     1     167.296 178.751 188.081  1.00  0.00     0.053 C 
BRANCH   7   8
ATOM      8  C   UNL     1     167.584 178.197 189.443  1.00  0.00     0.041 C 
ATOM      9  O   UNL     1     168.543 177.400 189.614  1.00  0.00    -0.550 OA
ATOM     10  O   UNL     1     166.767 178.532 190.517  1.00  0.00    -0.550 OA
ENDBRANCH   7   8
ENDBRANCH   6   7
ENDBRANCH   5   6
ENDBRANCH   4   5
ENDBRANCH   3   4
ENDBRANCH   2   3
ENDBRANCH   1   2
BRANCH   1  11
ATOM     11  C   UNL     1     174.581 179.287 187.943  1.00  0.00     0.000 C 
BRANCH  11  12
ATOM     12  C   UNL     1     174.200 178.899 186.502  1.00  0.00     0.000 C 
BRANCH  12  13
ATOM     13  C   UNL     1     174.622 177.466 186.144  1.00  0.00     0.000 C 
BRANCH  13  14
ATOM     14  C   UNL     1     175.906 177.022 186.862  1.00  0.00     0.000 C 
BRANCH  14  15
ATOM     15  C   UNL     1     175.660 175.752 187.685  1.00  0.00     0.000 C 
BRANCH  15  16
ATOM     16  C   UNL     1     176.759 175.550 188.736  1.00  0.00     0.006 C 
BRANCH  16  17
ATOM     17  C   UNL     1     177.386 174.158 188.610  1.00  0.00     0.053 C 
BRANCH  17  18
ATOM     18  C   UNL     1     178.769 174.253 188.044  1.00  0.00     0.041 C 
ATOM     19  O   UNL     1     178.982 174.934 187.007  1.00  0.00    -0.550 OA
ATOM     20  O   UNL     1     179.827 173.614 188.680  1.00  0.00    -0.550 OA
ENDBRANCH  17  18
ENDBRANCH  16  17
ENDBRANCH  15  16
ENDBRANCH  14  15
ENDBRANCH  13  14
ENDBRANCH  12  13
ENDBRANCH  11  12
ENDBRANCH   1  11
TORSDOF 15
ENDMDL
MODEL 2
REMARK VINA RESULT:    -4.125     13.699     16.399
REMARK INTER + INTRA:          -8.862
REMARK INTER:                  -6.494
REMARK INTRA:                  -2.368
REMARK UNBOUND:                -1.120
REMARK SMILES O=C([O-])CCCCCCCCCCCCCCC(=O)[O-]
REMARK SMILES IDX 10 1 9 2 8 3 7 4 6 5 5 6 4 7 2 8 1 9 3 10 11 11 12 12 13 13
REMARK SMILES IDX 14 14 15 15 16 16 17 17 18 18 19 19 20 20
REMARK H PARENT
REMARK Flexibility Score: inf
ROOT
ATOM      1  C   UNL     1     173.268 161.061 188.707  1.00  0.00     0.000 C 
ENDROOT
BRANCH   1   2
ATOM      2  C   UNL     1     174.338 159.956 188.650  1.00  0.00     0.000 C 
BRANCH   2   3
ATOM      3  C   UNL     1     175.701 160.470 188.156  1.00  0.00     0.000 C 
BRANCH   3   4
ATOM      4  C   UNL     1     176.238 161.715 188.891  1.00  0.00     0.000 C 
BRANCH   4   5
ATOM      5  C   UNL     1     176.834 162.804 187.982  1.00  0.00     0.000 C 
BRANCH   5   6
ATOM      6  C   UNL     1     176.745 164.212 188.597  1.00  0.00     0.006 C 
BRANCH   6   7
ATOM      7  C   UNL     1     176.097 164.194 189.988  1.00  0.00     0.053 C 
BRANCH   7   8
ATOM      8  C   UNL     1     174.742 164.831 189.975  1.00  0.00     0.041 C 
ATOM      9  O   UNL     1     173.712 164.138 190.189  1.00  0.00    -0.550 OA
ATOM     10  O   UNL     1     174.612 166.185 189.689  1.00  0.00    -0.550 OA
ENDBRANCH   7   8
ENDBRANCH   6   7
ENDBRANCH   5   6
ENDBRANCH   4   5
ENDBRANCH   3   4
ENDBRANCH   2   3
ENDBRANCH   1   2
BRANCH   1  11
ATOM     11  C   UNL     1     172.089 160.784 187.759  1.00  0.00     0.000 C 
BRANCH  11  12
ATOM     12  C   UNL     1     172.150 161.649 186.486  1.00  0.00     0.000 C 
BRANCH  12  13
ATOM     13  C   UNL     1     173.189 162.777 186.585  1.00  0.00     0.000 C 
BRANCH  13  14
ATOM     14  C   UNL     1     174.212 162.750 185.439  1.00  0.00     0.000 C 
BRANCH  14  15
ATOM     15  C   UNL     1     174.215 161.385 184.741  1.00  0.00     0.000 C 
BRANCH  15  16
ATOM     16  C   UNL     1     175.644 160.865 184.544  1.00  0.00     0.006 C 
BRANCH  16  17
ATOM     17  C   UNL     1     176.631 162.027 184.388  1.00  0.00     0.053 C 
BRANCH  17  18
ATOM     18  C   UNL     1     177.526 161.804 183.209  1.00  0.00     0.041 C 
ATOM     19  O   UNL     1     177.429 162.542 182.194  1.00  0.00    -0.550 OA
ATOM     20  O   UNL     1     178.487 160.801 183.244  1.00  0.00    -0.550 OA
ENDBRANCH  17  18
ENDBRANCH  16  17
ENDBRANCH  15  16
ENDBRANCH  14  15
ENDBRANCH  13  14
ENDBRANCH  12  13
ENDBRANCH  11  12
ENDBRANCH   1  11
TORSDOF 15
ENDMDL
MODEL 3
REMARK VINA RESULT:    -4.102     17.902     19.163
REMARK INTER + INTRA:          -8.819
REMARK INTER:                  -6.664
REMARK INTRA:                  -2.155
REMARK UNBOUND:                -1.120
REMARK SMILES O=C([O-])CCCCCCCCCCCCCCC(=O)[O-]
REMARK SMILES IDX 10 1 9 2 8 3 7 4 6 5 5 6 4 7 2 8 1 9 3 10 11 11 12 12 13 13
REMARK SMILES IDX 14 14 15 15 16 16 17 17 18 18 19 19 20 20
REMARK H PARENT
REMARK Flexibility Score: inf
ROOT
ATOM      1  C   UNL     1     163.952 160.749 188.308  1.00  0.00     0.000 C 
ENDROOT
BRANCH   1   2
ATOM      2  C   UNL     1     163.775 162.276 188.387  1.00  0.00     0.000 C 
BRANCH   2   3
ATOM      3  C   UNL     1     162.298 162.702 188.448  1.00  0.00     0.000 C 
BRANCH   3   4
ATOM      4  C   UNL     1     161.288 161.547 188.610  1.00  0.00     0.000 C 
BRANCH   4   5
ATOM      5  C   UNL     1     159.919 161.778 187.947  1.00  0.00     0.000 C 
BRANCH   5   6
ATOM      6  C   UNL     1     160.033 162.319 186.511  1.00  0.00     0.006 C 
BRANCH   6   7
ATOM      7  C   UNL     1     160.389 161.216 185.505  1.00  0.00     0.053 C 
BRANCH   7   8
ATOM      8  C   UNL     1     161.802 161.341 185.023  1.00  0.00     0.041 C 
ATOM      9  O   UNL     1     162.538 160.322 184.943  1.00  0.00    -0.550 OA
ATOM     10  O   UNL     1     162.318 162.590 184.699  1.00  0.00    -0.550 OA
ENDBRANCH   7   8
ENDBRANCH   6   7
ENDBRANCH   5   6
ENDBRANCH   4   5
ENDBRANCH   3   4
ENDBRANCH   2   3
ENDBRANCH   1   2
BRANCH   1  11
ATOM     11  C   UNL     1     164.808 160.198 189.460  1.00  0.00     0.000 C 
BRANCH  11  12
ATOM     12  C   UNL     1     166.127 160.974 189.630  1.00  0.00     0.000 C 
BRANCH  12  13
ATOM     13  C   UNL     1     167.278 160.373 188.807  1.00  0.00     0.000 C 
BRANCH  13  14
ATOM     14  C   UNL     1     167.686 161.254 187.616  1.00  0.00     0.000 C 
BRANCH  14  15
ATOM     15  C   UNL     1     167.746 160.432 186.323  1.00  0.00     0.000 C 
BRANCH  15  16
ATOM     16  C   UNL     1     166.365 160.336 185.662  1.00  0.00     0.006 C 
BRANCH  16  17
ATOM     17  C   UNL     1     165.871 161.719 185.227  1.00  0.00     0.053 C 
BRANCH  17  18
ATOM     18  C   UNL     1     165.634 161.754 183.750  1.00  0.00     0.041 C 
ATOM     19  O   UNL     1     165.642 160.685 183.084  1.00  0.00    -0.550 OA
ATOM     20  O   UNL     1     165.375 162.962 183.114  1.00  0.00    -0.550 OA
ENDBRANCH  17  18
ENDBRANCH  16  17
ENDBRANCH  15  16
ENDBRANCH  14  15
ENDBRANCH  13  14
ENDBRANCH  12  13
ENDBRANCH  11  12
ENDBRANCH   1  11
TORSDOF 15
ENDMDL
MODEL 4
REMARK VINA RESULT:    -4.095     16.057     17.219
REMARK INTER + INTRA:          -8.806
REMARK INTER:                  -7.765
REMARK INTRA:                  -1.041
REMARK UNBOUND:                -1.120
REMARK SMILES O=C([O-])CCCCCCCCCCCCCCC(=O)[O-]
REMARK SMILES IDX 10 1 9 2 8 3 7 4 6 5 5 6 4 7 2 8 1 9 3 10 11 11 12 12 13 13
REMARK SMILES IDX 14 14 15 15 16 16 17 17 18 18 19 19 20 20
REMARK H PARENT
REMARK Flexibility Score: inf
ROOT
ATOM      1  C   UNL     1     169.092 161.791 187.596  1.00  0.00     0.000 C 
ENDROOT
BRANCH   1   2
ATOM      2  C   UNL     1     167.741 161.897 188.326  1.00  0.00     0.000 C 
BRANCH   2   3
ATOM      3  C   UNL     1     167.290 160.560 188.942  1.00  0.00     0.000 C 
BRANCH   3   4
ATOM      4  C   UNL     1     166.103 160.658 189.923  1.00  0.00     0.000 C 
BRANCH   4   5
ATOM      5  C   UNL     1     164.842 159.885 189.502  1.00  0.00     0.000 C 
BRANCH   5   6
ATOM      6  C   UNL     1     164.303 160.321 188.128  1.00  0.00     0.006 C 
BRANCH   6   7
ATOM      7  C   UNL     1     163.667 161.717 188.174  1.00  0.00     0.053 C 
BRANCH   7   8
ATOM      8  C   UNL     1     162.187 161.658 187.949  1.00  0.00     0.041 C 
ATOM      9  O   UNL     1     161.393 161.729 188.924  1.00  0.00    -0.550 OA
ATOM     10  O   UNL     1     161.685 161.484 186.665  1.00  0.00    -0.550 OA
ENDBRANCH   7   8
ENDBRANCH   6   7
ENDBRANCH   5   6
ENDBRANCH   4   5
ENDBRANCH   3   4
ENDBRANCH   2   3
ENDBRANCH   1   2
BRANCH   1  11
ATOM     11  C   UNL     1     169.537 160.333 187.396  1.00  0.00     0.000 C 
BRANCH  11  12
ATOM     12  C   UNL     1     171.059 160.161 187.560  1.00  0.00     0.000 C 
BRANCH  12  13
ATOM     13  C   UNL     1     171.785 161.497 187.788  1.00  0.00     0.000 C 
BRANCH  13  14
ATOM     14  C   UNL     1     172.977 161.373 188.749  1.00  0.00     0.000 C 
BRANCH  14  15
ATOM     15  C   UNL     1     173.672 160.016 188.586  1.00  0.00     0.000 C 
BRANCH  15  16
ATOM     16  C   UNL     1     175.193 160.182 188.479  1.00  0.00     0.006 C 
BRANCH  16  17
ATOM     17  C   UNL     1     175.579 160.838 187.150  1.00  0.00     0.053 C 
BRANCH  17  18
ATOM     18  C   UNL     1     176.522 161.977 187.378  1.00  0.00     0.041 C 
ATOM     19  O   UNL     1     176.308 162.797 188.309  1.00  0.00    -0.550 OA
ATOM     20  O   UNL     1     177.654 162.115 186.584  1.00  0.00    -0.550 OA
ENDBRANCH  17  18
ENDBRANCH  16  17
ENDBRANCH  15  16
ENDBRANCH  14  15
ENDBRANCH  13  14
ENDBRANCH  12  13
ENDBRANCH  11  12
ENDBRANCH   1  11
TORSDOF 15
ENDMDL
MODEL 5
REMARK VINA RESULT:    -4.085      7.586     11.611
REMARK INTER + INTRA:          -8.787
REMARK INTER:                  -7.734
REMARK INTRA:                  -1.053
REMARK UNBOUND:                -1.120
REMARK SMILES O=C([O-])CCCCCCCCCCCCCCC(=O)[O-]
REMARK SMILES IDX 10 1 9 2 8 3 7 4 6 5 5 6 4 7 2 8 1 9 3 10 11 11 12 12 13 13
REMARK SMILES IDX 14 14 15 15 16 16 17 17 18 18 19 19 20 20
REMARK H PARENT
REMARK Flexibility Score: inf
ROOT
ATOM      1  C   UNL     1     179.429 168.901 188.138  1.00  0.00     0.000 C 
ENDROOT
BRANCH   1   2
ATOM      2  C   UNL     1     178.819 170.166 188.767  1.00  0.00     0.000 C 
BRANCH   2   3
ATOM      3  C   UNL     1     178.602 171.296 187.745  1.00  0.00     0.000 C 
BRANCH   3   4
ATOM      4  C   UNL     1     179.575 172.487 187.868  1.00  0.00     0.000 C 
BRANCH   4   5
ATOM      5  C   UNL     1     179.120 173.607 188.819  1.00  0.00     0.000 C 
BRANCH   5   6
ATOM      6  C   UNL     1     177.668 174.052 188.568  1.00  0.00     0.006 C 
BRANCH   6   7
ATOM      7  C   UNL     1     176.881 174.217 189.875  1.00  0.00     0.053 C 
BRANCH   7   8
ATOM      8  C   UNL     1     175.798 173.191 190.002  1.00  0.00     0.041 C 
ATOM      9  O   UNL     1     176.068 172.029 190.405  1.00  0.00    -0.550 OA
ATOM     10  O   UNL     1     174.495 173.506 189.636  1.00  0.00    -0.550 OA
ENDBRANCH   7   8
ENDBRANCH   6   7
ENDBRANCH   5   6
ENDBRANCH   4   5
ENDBRANCH   3   4
ENDBRANCH   2   3
ENDBRANCH   1   2
BRANCH   1  11
ATOM     11  C   UNL     1     178.381 168.045 187.409  1.00  0.00     0.000 C 
BRANCH  11  12
ATOM     12  C   UNL     1     178.913 166.641 187.064  1.00  0.00     0.000 C 
BRANCH  12  13
ATOM     13  C   UNL     1     178.216 165.530 187.867  1.00  0.00     0.000 C 
BRANCH  13  14
ATOM     14  C   UNL     1     176.705 165.762 188.022  1.00  0.00     0.000 C 
BRANCH  14  15
ATOM     15  C   UNL     1     176.093 164.745 188.992  1.00  0.00     0.000 C 
BRANCH  15  16
ATOM     16  C   UNL     1     177.100 163.645 189.351  1.00  0.00     0.006 C 
BRANCH  16  17
ATOM     17  C   UNL     1     176.561 162.264 188.967  1.00  0.00     0.053 C 
BRANCH  17  18
ATOM     18  C   UNL     1     176.580 162.084 187.482  1.00  0.00     0.041 C 
ATOM     19  O   UNL     1     175.508 161.869 186.857  1.00  0.00    -0.550 OA
ATOM     20  O   UNL     1     177.778 162.186 186.783  1.00  0.00    -0.550 OA
ENDBRANCH  17  18
ENDBRANCH  16  17
ENDBRANCH  15  16
ENDBRANCH  14  15
ENDBRANCH  13  14
ENDBRANCH  12  13
ENDBRANCH  11  12
ENDBRANCH   1  11
TORSDOF 15
ENDMDL
MODEL 6
REMARK VINA RESULT:    -4.058     16.866     18.752
REMARK INTER + INTRA:          -8.737
REMARK INTER:                  -6.695
REMARK INTRA:                  -2.042
REMARK UNBOUND:                -1.120
REMARK SMILES O=C([O-])CCCCCCCCCCCCCCC(=O)[O-]
REMARK SMILES IDX 10 1 9 2 8 3 7 4 6 5 5 6 4 7 2 8 1 9 3 10 11 11 12 12 13 13
REMARK SMILES IDX 14 14 15 15 16 16 17 17 18 18 19 19 20 20
REMARK H PARENT
REMARK Flexibility Score: inf
ROOT
ATOM      1  C   UNL     1     162.204 163.820 187.815  1.00  0.00     0.000 C 
ENDROOT
BRANCH   1   2
ATOM      2  C   UNL     1     160.824 163.277 188.227  1.00  0.00     0.000 C 
BRANCH   2   3
ATOM      3  C   UNL     1     159.875 163.092 187.030  1.00  0.00     0.000 C 
BRANCH   3   4
ATOM      4  C   UNL     1     160.555 163.107 185.645  1.00  0.00     0.000 C 
BRANCH   4   5
ATOM      5  C   UNL     1     160.540 161.765 184.894  1.00  0.00     0.000 C 
BRANCH   5   6
ATOM      6  C   UNL     1     161.874 161.005 185.001  1.00  0.00     0.006 C 
BRANCH   6   7
ATOM      7  C   UNL     1     163.073 161.888 184.632  1.00  0.00     0.053 C 
BRANCH   7   8
ATOM      8  C   UNL     1     164.114 161.121 183.875  1.00  0.00     0.041 C 
ATOM      9  O   UNL     1     164.217 159.875 184.024  1.00  0.00    -0.550 OA
ATOM     10  O   UNL     1     164.997 161.789 183.036  1.00  0.00    -0.550 OA
ENDBRANCH   7   8
ENDBRANCH   6   7
ENDBRANCH   5   6
ENDBRANCH   4   5
ENDBRANCH   3   4
ENDBRANCH   2   3
ENDBRANCH   1   2
BRANCH   1  11
ATOM     11  C   UNL     1     163.341 162.833 188.133  1.00  0.00     0.000 C 
BRANCH  11  12
ATOM     12  C   UNL     1     162.811 161.463 188.596  1.00  0.00     0.000 C 
BRANCH  12  13
ATOM     13  C   UNL     1     163.694 160.297 188.123  1.00  0.00     0.000 C 
BRANCH  13  14
ATOM     14  C   UNL     1     165.195 160.616 188.196  1.00  0.00     0.000 C 
BRANCH  14  15
ATOM     15  C   UNL     1     165.711 160.489 189.635  1.00  0.00     0.000 C 
BRANCH  15  16
ATOM     16  C   UNL     1     166.959 161.353 189.854  1.00  0.00     0.006 C 
BRANCH  16  17
ATOM     17  C   UNL     1     166.776 162.743 189.238  1.00  0.00     0.053 C 
BRANCH  17  18
ATOM     18  C   UNL     1     166.856 163.802 190.292  1.00  0.00     0.041 C 
ATOM     19  O   UNL     1     165.881 163.999 191.064  1.00  0.00    -0.550 OA
ATOM     20  O   UNL     1     168.017 164.550 190.442  1.00  0.00    -0.550 OA
ENDBRANCH  17  18
ENDBRANCH  16  17
ENDBRANCH  15  16
ENDBRANCH  14  15
ENDBRANCH  13  14
ENDBRANCH  12  13
ENDBRANCH  11  12
ENDBRANCH   1  11
TORSDOF 15
ENDMDL
MODEL 7
REMARK VINA RESULT:    -4.046     17.943     19.551
REMARK INTER + INTRA:          -8.714
REMARK INTER:                  -6.365
REMARK INTRA:                  -2.349
REMARK UNBOUND:                -1.120
REMARK SMILES O=C([O-])CCCCCCCCCCCCCCC(=O)[O-]
REMARK SMILES IDX 10 1 9 2 8 3 7 4 6 5 5 6 4 7 2 8 1 9 3 10 11 11 12 12 13 13
REMARK SMILES IDX 14 14 15 15 16 16 17 17 18 18 19 19 20 20
REMARK H PARENT
REMARK Flexibility Score: inf
ROOT
ATOM      1  C   UNL     1     161.707 164.458 185.552  1.00  0.00     0.000 C 
ENDROOT
BRANCH   1   2
ATOM      2  C   UNL     1     161.757 164.103 184.055  1.00  0.00     0.000 C 
BRANCH   2   3
ATOM      3  C   UNL     1     160.928 162.853 183.711  1.00  0.00     0.000 C 
BRANCH   3   4
ATOM      4  C   UNL     1     160.524 161.981 184.918  1.00  0.00     0.000 C 
BRANCH   4   5
ATOM      5  C   UNL     1     161.364 160.708 185.115  1.00  0.00     0.000 C 
BRANCH   5   6
ATOM      6  C   UNL     1     162.585 160.645 184.180  1.00  0.00     0.006 C 
BRANCH   6   7
ATOM      7  C   UNL     1     163.882 161.039 184.899  1.00  0.00     0.053 C 
BRANCH   7   8
ATOM      8  C   UNL     1     164.934 161.490 183.933  1.00  0.00     0.041 C 
ATOM      9  O   UNL     1     164.636 162.266 182.987  1.00  0.00    -0.550 OA
ATOM     10  O   UNL     1     166.237 161.023 184.054  1.00  0.00    -0.550 OA
ENDBRANCH   7   8
ENDBRANCH   6   7
ENDBRANCH   5   6
ENDBRANCH   4   5
ENDBRANCH   3   4
ENDBRANCH   2   3
ENDBRANCH   1   2
BRANCH   1  11
ATOM     11  C   UNL     1     160.577 165.448 185.882  1.00  0.00     0.000 C 
BRANCH  11  12
ATOM     12  C   UNL     1     159.943 165.171 187.257  1.00  0.00     0.000 C 
BRANCH  12  13
ATOM     13  C   UNL     1     160.800 164.239 188.128  1.00  0.00     0.000 C 
BRANCH  13  14
ATOM     14  C   UNL     1     160.006 163.053 188.696  1.00  0.00     0.000 C 
BRANCH  14  15
ATOM     15  C   UNL     1     160.835 161.764 188.638  1.00  0.00     0.000 C 
BRANCH  15  16
ATOM     16  C   UNL     1     162.326 162.070 188.452  1.00  0.00     0.006 C 
BRANCH  16  17
ATOM     17  C   UNL     1     163.155 160.783 188.474  1.00  0.00     0.053 C 
BRANCH  17  18
ATOM     18  C   UNL     1     164.608 161.094 188.649  1.00  0.00     0.041 C 
ATOM     19  O   UNL     1     165.110 162.103 188.086  1.00  0.00    -0.550 OA
ATOM     20  O   UNL     1     165.401 160.290 189.459  1.00  0.00    -0.550 OA
ENDBRANCH  17  18
ENDBRANCH  16  17
ENDBRANCH  15  16
ENDBRANCH  14  15
ENDBRANCH  13  14
ENDBRANCH  12  13
ENDBRANCH  11  12
ENDBRANCH   1  11
TORSDOF 15
ENDMDL
MODEL 8
REMARK VINA RESULT:    -4.045     16.872     18.620
REMARK INTER + INTRA:          -8.712
REMARK INTER:                  -6.695
REMARK INTRA:                  -2.017
REMARK UNBOUND:                -1.120
REMARK SMILES O=C([O-])CCCCCCCCCCCCCCC(=O)[O-]
REMARK SMILES IDX 10 1 9 2 8 3 7 4 6 5 5 6 4 7 2 8 1 9 3 10 11 11 12 12 13 13
REMARK SMILES IDX 14 14 15 15 16 16 17 17 18 18 19 19 20 20
REMARK H PARENT
REMARK Flexibility Score: inf
ROOT
ATOM      1  C   UNL     1     162.154 161.852 185.197  1.00  0.00     0.000 C 
ENDROOT
BRANCH   1   2
ATOM      2  C   UNL     1     160.997 160.960 185.680  1.00  0.00     0.000 C 
BRANCH   2   3
ATOM      3  C   UNL     1     159.916 161.747 186.443  1.00  0.00     0.000 C 
BRANCH   3   4
ATOM      4  C   UNL     1     159.875 161.498 187.965  1.00  0.00     0.000 C 
BRANCH   4   5
ATOM      5  C   UNL     1     160.251 162.709 188.836  1.00  0.00     0.000 C 
BRANCH   5   6
ATOM      6  C   UNL     1     160.127 164.047 188.086  1.00  0.00     0.006 C 
BRANCH   6   7
ATOM      7  C   UNL     1     161.482 164.753 187.937  1.00  0.00     0.053 C 
BRANCH   7   8
ATOM      8  C   UNL     1     161.676 165.291 186.553  1.00  0.00     0.041 C 
ATOM      9  O   UNL     1     160.695 165.736 185.901  1.00  0.00    -0.550 OA
ATOM     10  O   UNL     1     162.936 165.265 185.966  1.00  0.00    -0.550 OA
ENDBRANCH   7   8
ENDBRANCH   6   7
ENDBRANCH   5   6
ENDBRANCH   4   5
ENDBRANCH   3   4
ENDBRANCH   2   3
ENDBRANCH   1   2
BRANCH   1  11
ATOM     11  C   UNL     1     163.368 161.799 186.139  1.00  0.00     0.000 C 
BRANCH  11  12
ATOM     12  C   UNL     1     163.224 160.705 187.214  1.00  0.00     0.000 C 
BRANCH  12  13
ATOM     13  C   UNL     1     163.729 161.159 188.593  1.00  0.00     0.000 C 
BRANCH  13  14
ATOM     14  C   UNL     1     164.979 160.394 189.054  1.00  0.00     0.000 C 
BRANCH  14  15
ATOM     15  C   UNL     1     166.029 161.357 189.624  1.00  0.00     0.000 C 
BRANCH  15  16
ATOM     16  C   UNL     1     167.282 161.397 188.740  1.00  0.00     0.006 C 
BRANCH  16  17
ATOM     17  C   UNL     1     166.939 161.882 187.329  1.00  0.00     0.053 C 
BRANCH  17  18
ATOM     18  C   UNL     1     167.351 160.868 186.308  1.00  0.00     0.041 C 
ATOM     19  O   UNL     1     166.613 159.875 186.070  1.00  0.00    -0.550 OA
ATOM     20  O   UNL     1     168.534 161.035 185.598  1.00  0.00    -0.550 OA
ENDBRANCH  17  18
ENDBRANCH  16  17
ENDBRANCH  15  16
ENDBRANCH  14  15
ENDBRANCH  13  14
ENDBRANCH  12  13
ENDBRANCH  11  12
ENDBRANCH   1  11
TORSDOF 15
ENDMDL
MODEL 9
REMARK VINA RESULT:    -3.179     16.816     18.389
REMARK INTER + INTRA:          -7.087
REMARK INTER:                  -5.204
REMARK INTRA:                  -1.883
REMARK UNBOUND:                -1.120
REMARK SMILES O=C([O-])CCCCCCCCCCCCCCC(=O)[O-]
REMARK SMILES IDX 10 1 9 2 8 3 7 4 6 5 5 6 4 7 2 8 1 9 3 10 11 11 12 12 13 13
REMARK SMILES IDX 14 14 15 15 16 16 17 17 18 18 19 19 20 20
REMARK H PARENT
REMARK Flexibility Score: inf
ROOT
ATOM      1  C   UNL     1     163.439 163.799 186.845  1.00  0.00     0.000 C 
ENDROOT
BRANCH   1   2
ATOM      2  C   UNL     1     162.753 164.339 188.113  1.00  0.00     0.000 C 
BRANCH   2   3
ATOM      3  C   UNL     1     161.223 164.186 188.074  1.00  0.00     0.000 C 
BRANCH   3   4
ATOM      4  C   UNL     1     160.624 163.297 189.184  1.00  0.00     0.000 C 
BRANCH   4   5
ATOM      5  C   UNL     1     159.875 162.048 188.688  1.00  0.00     0.000 C 
BRANCH   5   6
ATOM      6  C   UNL     1     160.722 161.178 187.742  1.00  0.00     0.006 C 
BRANCH   6   7
ATOM      7  C   UNL     1     160.057 161.001 186.371  1.00  0.00     0.053 C 
BRANCH   7   8
ATOM      8  C   UNL     1     161.011 161.284 185.252  1.00  0.00     0.041 C 
ATOM      9  O   UNL     1     160.978 162.392 184.655  1.00  0.00    -0.550 OA
ATOM     10  O   UNL     1     161.911 160.308 184.842  1.00  0.00    -0.550 OA
ENDBRANCH   7   8
ENDBRANCH   6   7
ENDBRANCH   5   6
ENDBRANCH   4   5
ENDBRANCH   3   4
ENDBRANCH   2   3
ENDBRANCH   1   2
BRANCH   1  11
ATOM     11  C   UNL     1     164.067 162.413 187.063  1.00  0.00     0.000 C 
BRANCH  11  12
ATOM     12  C   UNL     1     164.374 162.139 188.548  1.00  0.00     0.000 C 
BRANCH  12  13
ATOM     13  C   UNL     1     164.431 160.638 188.873  1.00  0.00     0.000 C 
BRANCH  13  14
ATOM     14  C   UNL     1     165.693 160.243 189.656  1.00  0.00     0.000 C 
BRANCH  14  15
ATOM     15  C   UNL     1     166.881 161.126 189.257  1.00  0.00     0.000 C 
BRANCH  15  16
ATOM     16  C   UNL     1     167.792 160.411 188.251  1.00  0.00     0.006 C 
BRANCH  16  17
ATOM     17  C   UNL     1     168.215 161.361 187.127  1.00  0.00     0.053 C 
BRANCH  17  18
ATOM     18  C   UNL     1     169.627 161.817 187.326  1.00  0.00     0.041 C 
ATOM     19  O   UNL     1     170.570 161.229 186.734  1.00  0.00    -0.550 OA
ATOM     20  O   UNL     1     169.898 162.910 188.140  1.00  0.00    -0.550 OA
ENDBRANCH  17  18
ENDBRANCH  16  17
ENDBRANCH  15  16
ENDBRANCH  14  15
ENDBRANCH  13  14
ENDBRANCH  12  13
ENDBRANCH  11  12
ENDBRANCH   1  11
TORSDOF 15
ENDMDL
