MODEL 1
REMARK VINA RESULT:    -2.259      0.000      0.000
REMARK INTER + INTRA:          -2.259
REMARK INTER:                  -2.259
REMARK INTRA:                   0.000
REMARK UNBOUND:                 0.000
REMARK SMILES CC(=O)[O-]
REMARK SMILES IDX 1 1 2 2 3 3 4 4
REMARK H PARENT
REMARK Flexibility Score: inf
ROOT
ATOM      1  C   UNL     1      -2.543  -2.439   1.358  1.00  0.00     0.063 C 
ATOM      2  C   UNL     1      -3.948  -2.233   1.811  1.00  0.00     0.038 C 
ATOM      3  O   UNL     1      -4.215  -1.336   2.653  1.00  0.00    -0.550 OA
ATOM      4  O   UNL     1      -4.959  -3.064   1.346  1.00  0.00    -0.550 OA
ENDROOT
TORSDOF 0
ENDMDL
MODEL 2
REMARK VINA RESULT:    -2.160     10.657     11.012
REMARK INTER + INTRA:          -2.160
REMARK INTER:                  -2.160
REMARK INTRA:                   0.000
REMARK UNBOUND:                 0.000
REMARK SMILES CC(=O)[O-]
REMARK SMILES IDX 1 1 2 2 3 3 4 4
REMARK H PARENT
REMARK Flexibility Score: inf
ROOT
ATOM      1  C   UNL     1     -11.857   3.800  -2.647  1.00  0.00     0.063 C 
ATOM      2  C   UNL     1     -10.661   4.394  -3.311  1.00  0.00     0.038 C 
ATOM      3  O   UNL     1      -9.810   3.648  -3.862  1.00  0.00    -0.550 OA
ATOM      4  O   UNL     1     -10.456   5.766  -3.277  1.00  0.00    -0.550 OA
ENDROOT
TORSDOF 0
ENDMDL
MODEL 3
REMARK VINA RESULT:    -2.099      1.339      1.745
REMARK INTER + INTRA:          -2.099
REMARK INTER:                  -2.099
REMARK INTRA:                   0.000
REMARK UNBOUND:                 0.000
REMARK SMILES CC(=O)[O-]
REMARK SMILES IDX 1 1 2 2 3 3 4 4
REMARK H PARENT
REMARK Flexibility Score: inf
ROOT
ATOM      1  C   UNL     1      -4.686  -3.377   1.500  1.00  0.00     0.063 C 
ATOM      2  C   UNL     1      -3.827  -2.206   1.834  1.00  0.00     0.038 C 
ATOM      3  O   UNL     1      -4.248  -1.318   2.621  1.00  0.00    -0.550 OA
ATOM      4  O   UNL     1      -2.581  -2.063   1.238  1.00  0.00    -0.550 OA
ENDROOT
TORSDOF 0
ENDMDL
MODEL 4
REMARK VINA RESULT:    -2.051     10.818     11.240
REMARK INTER + INTRA:          -2.051
REMARK INTER:                  -2.051
REMARK INTRA:                   0.000
REMARK UNBOUND:                 0.000
REMARK SMILES CC(=O)[O-]
REMARK SMILES IDX 1 1 2 2 3 3 4 4
REMARK H PARENT
REMARK Flexibility Score: inf
ROOT
ATOM      1  C   UNL     1       1.453   3.159  -4.781  1.00  0.00     0.063 C 
ATOM      2  C   UNL     1       2.594   4.095  -4.566  1.00  0.00     0.038 C 
ATOM      3  O   UNL     1       2.645   5.183  -5.196  1.00  0.00    -0.550 OA
ATOM      4  O   UNL     1       3.628   3.745  -3.708  1.00  0.00    -0.550 OA
ENDROOT
TORSDOF 0
ENDMDL
MODEL 5
REMARK VINA RESULT:    -2.040      3.602      3.869
REMARK INTER + INTRA:          -2.040
REMARK INTER:                  -2.040
REMARK INTRA:                   0.000
REMARK UNBOUND:                 0.000
REMARK SMILES CC(=O)[O-]
REMARK SMILES IDX 1 1 2 2 3 3 4 4
REMARK H PARENT
REMARK Flexibility Score: inf
ROOT
ATOM      1  C   UNL     1      -2.091  -2.306   1.079  1.00  0.00     0.063 C 
ATOM      2  C   UNL     1      -0.859  -2.467   0.255  1.00  0.00     0.038 C 
ATOM      3  O   UNL     1       0.267  -2.545   0.812  1.00  0.00    -0.550 OA
ATOM      4  O   UNL     1      -0.944  -2.477  -1.131  1.00  0.00    -0.550 OA
ENDROOT
TORSDOF 0
ENDMDL
MODEL 6
REMARK VINA RESULT:    -2.010      2.596      2.986
REMARK INTER + INTRA:          -2.010
REMARK INTER:                  -2.010
REMARK INTRA:                   0.000
REMARK UNBOUND:                 0.000
REMARK SMILES CC(=O)[O-]
REMARK SMILES IDX 1 1 2 2 3 3 4 4
REMARK H PARENT
REMARK Flexibility Score: inf
ROOT
ATOM      1  C   UNL     1      -0.134  -2.610   0.617  1.00  0.00     0.063 C 
ATOM      2  C   UNL     1      -1.382  -2.920   1.371  1.00  0.00     0.038 C 
ATOM      3  O   UNL     1      -1.463  -3.975   2.053  1.00  0.00    -0.550 OA
ATOM      4  O   UNL     1      -2.478  -2.072   1.281  1.00  0.00    -0.550 OA
ENDROOT
TORSDOF 0
ENDMDL
MODEL 7
REMARK VINA RESULT:    -2.005      2.567      2.823
REMARK INTER + INTRA:          -2.005
REMARK INTER:                  -2.005
REMARK INTRA:                   0.000
REMARK UNBOUND:                 0.000
REMARK SMILES CC(=O)[O-]
REMARK SMILES IDX 1 1 2 2 3 3 4 4
REMARK H PARENT
REMARK Flexibility Score: inf
ROOT
ATOM      1  C   UNL     1      -0.158  -2.604   0.634  1.00  0.00     0.063 C 
ATOM      2  C   UNL     1      -1.447  -2.892   1.326  1.00  0.00     0.038 C 
ATOM      3  O   UNL     1      -2.398  -2.071   1.255  1.00  0.00    -0.550 OA
ATOM      4  O   UNL     1      -1.583  -4.039   2.095  1.00  0.00    -0.550 OA
ENDROOT
TORSDOF 0
ENDMDL
MODEL 8
REMARK VINA RESULT:    -1.985     11.203     11.561
REMARK INTER + INTRA:          -1.985
REMARK INTER:                  -1.985
REMARK INTRA:                   0.000
REMARK UNBOUND:                 0.000
REMARK SMILES CC(=O)[O-]
REMARK SMILES IDX 1 1 2 2 3 3 4 4
REMARK H PARENT
REMARK Flexibility Score: inf
ROOT
ATOM      1  C   UNL     1       1.366   3.720  -4.793  1.00  0.00     0.063 C 
ATOM      2  C   UNL     1       1.420   5.179  -5.096  1.00  0.00     0.038 C 
ATOM      3  O   UNL     1       0.598   5.966  -4.557  1.00  0.00    -0.550 OA
ATOM      4  O   UNL     1       2.341   5.666  -6.013  1.00  0.00    -0.550 OA
ENDROOT
TORSDOF 0
ENDMDL
MODEL 9
REMARK VINA RESULT:    -1.914     10.658     10.989
REMARK INTER + INTRA:          -1.914
REMARK INTER:                  -1.914
REMARK INTRA:                   0.000
REMARK UNBOUND:                 0.000
REMARK SMILES CC(=O)[O-]
REMARK SMILES IDX 1 1 2 2 3 3 4 4
REMARK H PARENT
REMARK Flexibility Score: inf
ROOT
ATOM      1  C   UNL     1       3.715   3.772  -4.077  1.00  0.00     0.063 C 
ATOM      2  C   UNL     1       2.354   4.082  -4.602  1.00  0.00     0.038 C 
ATOM      3  O   UNL     1       2.088   5.238  -5.023  1.00  0.00    -0.550 OA
ATOM      4  O   UNL     1       1.362   3.111  -4.579  1.00  0.00    -0.550 OA
ENDROOT
TORSDOF 0
ENDMDL
