MODEL 1
REMARK VINA RESULT:    -4.485      0.000      0.000
REMARK INTER + INTRA:         -10.133
REMARK INTER:                  -8.681
REMARK INTRA:                  -1.453
REMARK UNBOUND:                -1.453
REMARK SMILES CCCCCCCCCCCCCCCCCC(=O)[O-]
REMARK SMILES IDX 10 1 11 2 12 3 13 4 14 5 15 6 16 7 17 8 18 9 19 10 20 11
REMARK SMILES IDX 9 12 8 13 7 14 6 15 5 16 4 17 3 18 2 19 1 20
REMARK H PARENT
REMARK Flexibility Score: inf
ROOT
ATOM      1  C   UNL     1       1.414   6.500   3.400  1.00  0.00     0.000 C 
ENDROOT
BRANCH   1   2
ATOM      2  C   UNL     1       2.863   5.991   3.331  1.00  0.00     0.000 C 
BRANCH   2   3
ATOM      3  C   UNL     1       3.023   4.944   2.218  1.00  0.00     0.000 C 
BRANCH   3   4
ATOM      4  C   UNL     1       2.138   5.236   0.996  1.00  0.00     0.000 C 
BRANCH   4   5
ATOM      5  C   UNL     1       2.815   4.857  -0.329  1.00  0.00     0.000 C 
BRANCH   5   6
ATOM      6  C   UNL     1       2.250   5.685  -1.490  1.00  0.00     0.000 C 
BRANCH   6   7
ATOM      7  C   UNL     1       3.361   6.481  -2.190  1.00  0.00     0.006 C 
BRANCH   7   8
ATOM      8  C   UNL     1       4.761   5.983  -1.809  1.00  0.00     0.053 C 
BRANCH   8   9
ATOM      9  C   UNL     1       5.791   6.402  -2.813  1.00  0.00     0.041 C 
ATOM     10  O   UNL     1       6.531   7.395  -2.587  1.00  0.00    -0.550 OA
ATOM     11  O   UNL     1       5.954   5.675  -3.986  1.00  0.00    -0.550 OA
ENDBRANCH   8   9
ENDBRANCH   7   8
ENDBRANCH   6   7
ENDBRANCH   5   6
ENDBRANCH   4   5
ENDBRANCH   3   4
ENDBRANCH   2   3
ENDBRANCH   1   2
BRANCH   1  12
ATOM     12  C   UNL     1       1.304   7.893   4.041  1.00  0.00     0.000 C 
BRANCH  12  13
ATOM     13  C   UNL     1       0.588   7.862   5.402  1.00  0.00    -0.000 C 
BRANCH  13  14
ATOM     14  C   UNL     1       1.390   7.114   6.484  1.00  0.00    -0.000 C 
BRANCH  14  15
ATOM     15  C   UNL     1       0.775   5.782   6.951  1.00  0.00    -0.000 C 
BRANCH  15  16
ATOM     16  C   UNL     1       1.820   4.671   7.138  1.00  0.00    -0.000 C 
BRANCH  16  17
ATOM     17  C   UNL     1       3.241   5.218   6.954  1.00  0.00    -0.000 C 
BRANCH  17  18
ATOM     18  C   UNL     1       4.270   4.319   7.655  1.00  0.00    -0.000 C 
BRANCH  18  19
ATOM     19  C   UNL     1       5.497   4.032   6.777  1.00  0.00    -0.003 C 
ATOM     20  C   UNL     1       5.135   3.804   5.309  1.00  0.00     0.004 C 
ENDBRANCH  18  19
ENDBRANCH  17  18
ENDBRANCH  16  17
ENDBRANCH  15  16
ENDBRANCH  14  15
ENDBRANCH  13  14
ENDBRANCH  12  13
ENDBRANCH   1  12
TORSDOF 16
ENDMDL
MODEL 2
REMARK VINA RESULT:    -4.429      3.202      6.974
REMARK INTER + INTRA:         -10.024
REMARK INTER:                  -7.935
REMARK INTRA:                  -2.088
REMARK UNBOUND:                -1.453
REMARK SMILES CCCCCCCCCCCCCCCCCC(=O)[O-]
REMARK SMILES IDX 10 1 11 2 12 3 13 4 14 5 15 6 16 7 17 8 18 9 19 10 20 11
REMARK SMILES IDX 9 12 8 13 7 14 6 15 5 16 4 17 3 18 2 19 1 20
REMARK H PARENT
REMARK Flexibility Score: inf
ROOT
ATOM      1  C   UNL     1      -0.569   8.651   5.239  1.00  0.00     0.000 C 
ENDROOT
BRANCH   1   2
ATOM      2  C   UNL     1      -0.460   8.620   6.772  1.00  0.00     0.000 C 
BRANCH   2   3
ATOM      3  C   UNL     1       0.831   7.912   7.214  1.00  0.00     0.000 C 
BRANCH   3   4
ATOM      4  C   UNL     1       0.567   6.537   7.848  1.00  0.00     0.000 C 
BRANCH   4   5
ATOM      5  C   UNL     1       1.152   5.383   7.021  1.00  0.00     0.000 C 
BRANCH   5   6
ATOM      6  C   UNL     1       2.605   5.673   6.624  1.00  0.00     0.000 C 
BRANCH   6   7
ATOM      7  C   UNL     1       3.520   4.494   6.983  1.00  0.00     0.006 C 
BRANCH   7   8
ATOM      8  C   UNL     1       4.321   3.991   5.775  1.00  0.00     0.053 C 
BRANCH   8   9
ATOM      9  C   UNL     1       5.781   3.875   6.087  1.00  0.00     0.041 C 
ATOM     10  O   UNL     1       6.209   4.159   7.237  1.00  0.00    -0.550 OA
ATOM     11  O   UNL     1       6.666   3.424   5.116  1.00  0.00    -0.550 OA
ENDBRANCH   8   9
ENDBRANCH   7   8
ENDBRANCH   6   7
ENDBRANCH   5   6
ENDBRANCH   4   5
ENDBRANCH   3   4
ENDBRANCH   2   3
ENDBRANCH   1   2
BRANCH   1  12
ATOM     12  C   UNL     1      -1.102   7.333   4.654  1.00  0.00     0.000 C 
BRANCH  12  13
ATOM     13  C   UNL     1      -0.105   6.670   3.688  1.00  0.00    -0.000 C 
BRANCH  13  14
ATOM     14  C   UNL     1       1.246   7.408   3.620  1.00  0.00    -0.000 C 
BRANCH  14  15
ATOM     15  C   UNL     1       2.452   6.531   3.236  1.00  0.00    -0.000 C 
BRANCH  15  16
ATOM     16  C   UNL     1       2.058   5.089   2.883  1.00  0.00    -0.000 C 
BRANCH  16  17
ATOM     17  C   UNL     1       2.440   4.754   1.436  1.00  0.00    -0.000 C 
BRANCH  17  18
ATOM     18  C   UNL     1       1.564   5.532   0.443  1.00  0.00    -0.000 C 
BRANCH  18  19
ATOM     19  C   UNL     1       1.554   4.900  -0.957  1.00  0.00    -0.003 C 
ATOM     20  C   UNL     1       2.396   5.681  -1.965  1.00  0.00     0.004 C 
ENDBRANCH  18  19
ENDBRANCH  17  18
ENDBRANCH  16  17
ENDBRANCH  15  16
ENDBRANCH  14  15
ENDBRANCH  13  14
ENDBRANCH  12  13
ENDBRANCH   1  12
TORSDOF 16
ENDMDL
MODEL 3
REMARK VINA RESULT:    -4.403      4.499      8.729
REMARK INTER + INTRA:          -9.974
REMARK INTER:                  -8.590
REMARK INTRA:                  -1.384
REMARK UNBOUND:                -1.453
REMARK SMILES CCCCCCCCCCCCCCCCCC(=O)[O-]
REMARK SMILES IDX 10 1 11 2 12 3 13 4 14 5 15 6 16 7 17 8 18 9 19 10 20 11
REMARK SMILES IDX 9 12 8 13 7 14 6 15 5 16 4 17 3 18 2 19 1 20
REMARK H PARENT
REMARK Flexibility Score: inf
ROOT
ATOM      1  C   UNL     1       1.349   4.838   1.626  1.00  0.00     0.000 C 
ENDROOT
BRANCH   1   2
ATOM      2  C   UNL     1       2.757   5.231   2.099  1.00  0.00     0.000 C 
BRANCH   2   3
ATOM      3  C   UNL     1       2.687   6.319   3.182  1.00  0.00     0.000 C 
BRANCH   3   4
ATOM      4  C   UNL     1       1.245   6.736   3.512  1.00  0.00     0.000 C 
BRANCH   4   5
ATOM      5  C   UNL     1       1.172   8.073   4.263  1.00  0.00     0.000 C 
BRANCH   5   6
ATOM      6  C   UNL     1       1.075   7.847   5.778  1.00  0.00     0.000 C 
BRANCH   6   7
ATOM      7  C   UNL     1      -0.002   8.746   6.401  1.00  0.00     0.006 C 
BRANCH   7   8
ATOM      8  C   UNL     1      -1.266   7.962   6.779  1.00  0.00     0.053 C 
BRANCH   8   9
ATOM      9  C   UNL     1      -2.304   8.032   5.703  1.00  0.00     0.041 C 
ATOM     10  O   UNL     1      -3.114   7.082   5.538  1.00  0.00    -0.550 OA
ATOM     11  O   UNL     1      -2.398   9.163   4.900  1.00  0.00    -0.550 OA
ENDBRANCH   8   9
ENDBRANCH   7   8
ENDBRANCH   6   7
ENDBRANCH   5   6
ENDBRANCH   4   5
ENDBRANCH   3   4
ENDBRANCH   2   3
ENDBRANCH   1   2
BRANCH   1  12
ATOM     12  C   UNL     1       1.193   4.912   0.098  1.00  0.00     0.000 C 
BRANCH  12  13
ATOM     13  C   UNL     1       2.544   5.048  -0.627  1.00  0.00    -0.000 C 
BRANCH  13  14
ATOM     14  C   UNL     1       2.393   5.472  -2.100  1.00  0.00    -0.000 C 
BRANCH  14  15
ATOM     15  C   UNL     1       3.255   6.676  -2.525  1.00  0.00    -0.000 C 
BRANCH  15  16
ATOM     16  C   UNL     1       4.551   6.805  -1.710  1.00  0.00    -0.000 C 
BRANCH  16  17
ATOM     17  C   UNL     1       5.763   6.348  -2.531  1.00  0.00    -0.000 C 
BRANCH  17  18
ATOM     18  C   UNL     1       6.084   4.870  -2.259  1.00  0.00    -0.000 C 
BRANCH  18  19
ATOM     19  C   UNL     1       6.224   4.050  -3.551  1.00  0.00    -0.003 C 
ATOM     20  C   UNL     1       5.509   4.692  -4.740  1.00  0.00     0.004 C 
ENDBRANCH  18  19
ENDBRANCH  17  18
ENDBRANCH  16  17
ENDBRANCH  15  16
ENDBRANCH  14  15
ENDBRANCH  13  14
ENDBRANCH  12  13
ENDBRANCH   1  12
TORSDOF 16
ENDMDL
MODEL 4
REMARK VINA RESULT:    -4.392      4.339      7.016
REMARK INTER + INTRA:          -9.953
REMARK INTER:                  -7.104
REMARK INTRA:                  -2.849
REMARK UNBOUND:                -1.453
REMARK SMILES CCCCCCCCCCCCCCCCCC(=O)[O-]
REMARK SMILES IDX 10 1 11 2 12 3 13 4 14 5 15 6 16 7 17 8 18 9 19 10 20 11
REMARK SMILES IDX 9 12 8 13 7 14 6 15 5 16 4 17 3 18 2 19 1 20
REMARK H PARENT
REMARK Flexibility Score: inf
ROOT
ATOM      1  C   UNL     1       0.300   4.775   5.299  1.00  0.00     0.000 C 
ENDROOT
BRANCH   1   2
ATOM      2  C   UNL     1      -0.139   4.774   6.772  1.00  0.00     0.000 C 
BRANCH   2   3
ATOM      3  C   UNL     1       0.758   5.698   7.611  1.00  0.00     0.000 C 
BRANCH   3   4
ATOM      4  C   UNL     1       2.162   5.867   7.011  1.00  0.00     0.000 C 
BRANCH   4   5
ATOM      5  C   UNL     1       3.276   5.694   8.053  1.00  0.00     0.000 C 
BRANCH   5   6
ATOM      6  C   UNL     1       4.333   4.695   7.565  1.00  0.00     0.000 C 
BRANCH   6   7
ATOM      7  C   UNL     1       3.708   3.638   6.644  1.00  0.00     0.006 C 
BRANCH   7   8
ATOM      8  C   UNL     1       4.454   3.518   5.308  1.00  0.00     0.053 C 
BRANCH   8   9
ATOM      9  C   UNL     1       5.883   3.117   5.506  1.00  0.00     0.041 C 
ATOM     10  O   UNL     1       6.812   3.808   5.009  1.00  0.00    -0.550 OA
ATOM     11  O   UNL     1       6.192   1.995   6.266  1.00  0.00    -0.550 OA
ENDBRANCH   8   9
ENDBRANCH   7   8
ENDBRANCH   6   7
ENDBRANCH   5   6
ENDBRANCH   4   5
ENDBRANCH   3   4
ENDBRANCH   2   3
ENDBRANCH   1   2
BRANCH   1  12
ATOM     12  C   UNL     1      -0.828   5.196   4.343  1.00  0.00     0.000 C 
BRANCH  12  13
ATOM     13  C   UNL     1      -0.383   6.281   3.347  1.00  0.00    -0.000 C 
BRANCH  13  14
ATOM     14  C   UNL     1       1.105   6.655   3.493  1.00  0.00    -0.000 C 
BRANCH  14  15
ATOM     15  C   UNL     1       1.375   8.004   4.186  1.00  0.00    -0.000 C 
BRANCH  15  16
ATOM     16  C   UNL     1       0.092   8.707   4.654  1.00  0.00    -0.000 C 
BRANCH  16  17
ATOM     17  C   UNL     1       0.088   8.885   6.177  1.00  0.00    -0.000 C 
BRANCH  17  18
ATOM     18  C   UNL     1      -1.334   8.748   6.742  1.00  0.00    -0.000 C 
BRANCH  18  19
ATOM     19  C   UNL     1      -2.390   8.564   5.641  1.00  0.00    -0.003 C 
ATOM     20  C   UNL     1      -3.338   7.397   5.919  1.00  0.00     0.004 C 
ENDBRANCH  18  19
ENDBRANCH  17  18
ENDBRANCH  16  17
ENDBRANCH  15  16
ENDBRANCH  14  15
ENDBRANCH  13  14
ENDBRANCH  12  13
ENDBRANCH   1  12
TORSDOF 16
ENDMDL
MODEL 5
REMARK VINA RESULT:    -4.375      4.719      8.647
REMARK INTER + INTRA:          -9.920
REMARK INTER:                  -8.600
REMARK INTRA:                  -1.320
REMARK UNBOUND:                -1.453
REMARK SMILES CCCCCCCCCCCCCCCCCC(=O)[O-]
REMARK SMILES IDX 10 1 11 2 12 3 13 4 14 5 15 6 16 7 17 8 18 9 19 10 20 11
REMARK SMILES IDX 9 12 8 13 7 14 6 15 5 16 4 17 3 18 2 19 1 20
REMARK H PARENT
REMARK Flexibility Score: inf
ROOT
ATOM      1  C   UNL     1       3.495   5.004   3.916  1.00  0.00     0.000 C 
ENDROOT
BRANCH   1   2
ATOM      2  C   UNL     1       3.212   4.890   5.423  1.00  0.00     0.000 C 
BRANCH   2   3
ATOM      3  C   UNL     1       1.870   5.550   5.779  1.00  0.00     0.000 C 
BRANCH   3   4
ATOM      4  C   UNL     1       1.942   6.382   7.069  1.00  0.00     0.000 C 
BRANCH   4   5
ATOM      5  C   UNL     1       1.102   7.665   6.994  1.00  0.00     0.000 C 
BRANCH   5   6
ATOM      6  C   UNL     1       0.733   7.994   5.542  1.00  0.00     0.000 C 
BRANCH   6   7
ATOM      7  C   UNL     1      -0.458   8.961   5.482  1.00  0.00     0.006 C 
BRANCH   7   8
ATOM      8  C   UNL     1      -1.797   8.250   5.720  1.00  0.00     0.053 C 
BRANCH   8   9
ATOM      9  C   UNL     1      -2.570   8.883   6.836  1.00  0.00     0.041 C 
ATOM     10  O   UNL     1      -2.188   8.751   8.028  1.00  0.00    -0.550 OA
ATOM     11  O   UNL     1      -3.697   9.646   6.556  1.00  0.00    -0.550 OA
ENDBRANCH   8   9
ENDBRANCH   7   8
ENDBRANCH   6   7
ENDBRANCH   5   6
ENDBRANCH   4   5
ENDBRANCH   3   4
ENDBRANCH   2   3
ENDBRANCH   1   2
BRANCH   1  12
ATOM     12  C   UNL     1       2.657   6.100   3.236  1.00  0.00     0.000 C 
BRANCH  12  13
ATOM     13  C   UNL     1       1.962   5.602   1.956  1.00  0.00    -0.000 C 
BRANCH  13  14
ATOM     14  C   UNL     1       2.745   4.481   1.246  1.00  0.00    -0.000 C 
BRANCH  14  15
ATOM     15  C   UNL     1       3.379   4.877  -0.100  1.00  0.00    -0.000 C 
BRANCH  15  16
ATOM     16  C   UNL     1       2.382   5.543  -1.061  1.00  0.00    -0.000 C 
BRANCH  16  17
ATOM     17  C   UNL     1       3.111   6.197  -2.241  1.00  0.00    -0.000 C 
BRANCH  17  18
ATOM     18  C   UNL     1       4.454   6.794  -1.794  1.00  0.00    -0.000 C 
BRANCH  18  19
ATOM     19  C   UNL     1       5.647   6.193  -2.553  1.00  0.00    -0.003 C 
ATOM     20  C   UNL     1       5.225   5.414  -3.798  1.00  0.00     0.004 C 
ENDBRANCH  18  19
ENDBRANCH  17  18
ENDBRANCH  16  17
ENDBRANCH  15  16
ENDBRANCH  14  15
ENDBRANCH  13  14
ENDBRANCH  12  13
ENDBRANCH   1  12
TORSDOF 16
ENDMDL
MODEL 6
REMARK VINA RESULT:    -4.366      4.433      5.445
REMARK INTER + INTRA:          -9.902
REMARK INTER:                  -7.444
REMARK INTRA:                  -2.459
REMARK UNBOUND:                -1.453
REMARK SMILES CCCCCCCCCCCCCCCCCC(=O)[O-]
REMARK SMILES IDX 10 1 11 2 12 3 13 4 14 5 15 6 16 7 17 8 18 9 19 10 20 11
REMARK SMILES IDX 9 12 8 13 7 14 6 15 5 16 4 17 3 18 2 19 1 20
REMARK H PARENT
REMARK Flexibility Score: inf
ROOT
ATOM      1  C   UNL     1      -0.898   6.840   4.536  1.00  0.00     0.000 C 
ENDROOT
BRANCH   1   2
ATOM      2  C   UNL     1       0.161   6.735   3.427  1.00  0.00     0.000 C 
BRANCH   2   3
ATOM      3  C   UNL     1       1.477   7.398   3.863  1.00  0.00     0.000 C 
BRANCH   3   4
ATOM      4  C   UNL     1       2.710   6.541   3.534  1.00  0.00     0.000 C 
BRANCH   4   5
ATOM      5  C   UNL     1       2.351   5.079   3.234  1.00  0.00     0.000 C 
BRANCH   5   6
ATOM      6  C   UNL     1       2.582   4.193   4.465  1.00  0.00     0.000 C 
BRANCH   6   7
ATOM      7  C   UNL     1       3.836   4.634   5.233  1.00  0.00     0.006 C 
BRANCH   7   8
ATOM      8  C   UNL     1       5.064   3.787   4.875  1.00  0.00     0.053 C 
BRANCH   8   9
ATOM      9  C   UNL     1       5.830   3.378   6.096  1.00  0.00     0.041 C 
ATOM     10  O   UNL     1       6.074   4.217   7.003  1.00  0.00    -0.550 OA
ATOM     11  O   UNL     1       6.249   2.062   6.245  1.00  0.00    -0.550 OA
ENDBRANCH   8   9
ENDBRANCH   7   8
ENDBRANCH   6   7
ENDBRANCH   5   6
ENDBRANCH   4   5
ENDBRANCH   3   4
ENDBRANCH   2   3
ENDBRANCH   1   2
BRANCH   1  12
ATOM     12  C   UNL     1      -1.205   8.294   4.930  1.00  0.00     0.000 C 
BRANCH  12  13
ATOM     13  C   UNL     1      -1.244   8.497   6.454  1.00  0.00    -0.000 C 
BRANCH  13  14
ATOM     14  C   UNL     1       0.135   8.842   7.049  1.00  0.00    -0.000 C 
BRANCH  14  15
ATOM     15  C   UNL     1       0.335   8.431   8.519  1.00  0.00    -0.000 C 
BRANCH  15  16
ATOM     16  C   UNL     1       1.494   7.442   8.714  1.00  0.00    -0.000 C 
BRANCH  16  17
ATOM     17  C   UNL     1       1.699   6.583   7.459  1.00  0.00    -0.000 C 
BRANCH  17  18
ATOM     18  C   UNL     1       0.981   5.232   7.595  1.00  0.00    -0.000 C 
BRANCH  18  19
ATOM     19  C   UNL     1       1.430   4.449   8.838  1.00  0.00    -0.003 C 
ATOM     20  C   UNL     1       2.880   3.975   8.747  1.00  0.00     0.004 C 
ENDBRANCH  18  19
ENDBRANCH  17  18
ENDBRANCH  16  17
ENDBRANCH  15  16
ENDBRANCH  14  15
ENDBRANCH  13  14
ENDBRANCH  12  13
ENDBRANCH   1  12
TORSDOF 16
ENDMDL
MODEL 7
REMARK VINA RESULT:    -4.339      1.433      2.859
REMARK INTER + INTRA:          -9.851
REMARK INTER:                  -8.324
REMARK INTRA:                  -1.526
REMARK UNBOUND:                -1.453
REMARK SMILES CCCCCCCCCCCCCCCCCC(=O)[O-]
REMARK SMILES IDX 10 1 11 2 12 3 13 4 14 5 15 6 16 7 17 8 18 9 19 10 20 11
REMARK SMILES IDX 9 12 8 13 7 14 6 15 5 16 4 17 3 18 2 19 1 20
REMARK H PARENT
REMARK Flexibility Score: inf
ROOT
ATOM      1  C   UNL     1       2.455   4.759   1.870  1.00  0.00     0.000 C 
ENDROOT
BRANCH   1   2
ATOM      2  C   UNL     1       3.173   4.954   0.525  1.00  0.00     0.000 C 
BRANCH   2   3
ATOM      3  C   UNL     1       2.161   5.175  -0.609  1.00  0.00     0.000 C 
BRANCH   3   4
ATOM      4  C   UNL     1       2.827   5.260  -1.992  1.00  0.00     0.000 C 
BRANCH   4   5
ATOM      5  C   UNL     1       3.303   6.679  -2.334  1.00  0.00     0.000 C 
BRANCH   5   6
ATOM      6  C   UNL     1       4.806   6.833  -2.067  1.00  0.00     0.000 C 
BRANCH   6   7
ATOM      7  C   UNL     1       5.529   5.485  -2.197  1.00  0.00     0.006 C 
BRANCH   7   8
ATOM      8  C   UNL     1       6.629   5.517  -3.267  1.00  0.00     0.053 C 
BRANCH   8   9
ATOM      9  C   UNL     1       6.146   4.969  -4.574  1.00  0.00     0.041 C 
ATOM     10  O   UNL     1       5.023   4.404  -4.650  1.00  0.00    -0.550 OA
ATOM     11  O   UNL     1       6.923   5.110  -5.717  1.00  0.00    -0.550 OA
ENDBRANCH   8   9
ENDBRANCH   7   8
ENDBRANCH   6   7
ENDBRANCH   5   6
ENDBRANCH   4   5
ENDBRANCH   3   4
ENDBRANCH   2   3
ENDBRANCH   1   2
BRANCH   1  12
ATOM     12  C   UNL     1       2.644   5.950   2.823  1.00  0.00     0.000 C 
BRANCH  12  13
ATOM     13  C   UNL     1       1.307   6.568   3.268  1.00  0.00    -0.000 C 
BRANCH  13  14
ATOM     14  C   UNL     1       1.480   7.920   3.984  1.00  0.00    -0.000 C 
BRANCH  14  15
ATOM     15  C   UNL     1       0.400   8.249   5.032  1.00  0.00    -0.000 C 
BRANCH  15  16
ATOM     16  C   UNL     1       0.209   7.132   6.069  1.00  0.00    -0.000 C 
BRANCH  16  17
ATOM     17  C   UNL     1       0.989   7.437   7.354  1.00  0.00    -0.000 C 
BRANCH  17  18
ATOM     18  C   UNL     1       2.191   6.493   7.504  1.00  0.00    -0.000 C 
BRANCH  18  19
ATOM     19  C   UNL     1       2.049   5.218   6.659  1.00  0.00    -0.003 C 
ATOM     20  C   UNL     1       3.396   4.654   6.208  1.00  0.00     0.004 C 
ENDBRANCH  18  19
ENDBRANCH  17  18
ENDBRANCH  16  17
ENDBRANCH  15  16
ENDBRANCH  14  15
ENDBRANCH  13  14
ENDBRANCH  12  13
ENDBRANCH   1  12
TORSDOF 16
ENDMDL
MODEL 8
REMARK VINA RESULT:    -4.331      4.192      7.807
REMARK INTER + INTRA:          -9.835
REMARK INTER:                  -7.937
REMARK INTRA:                  -1.897
REMARK UNBOUND:                -1.453
REMARK SMILES CCCCCCCCCCCCCCCCCC(=O)[O-]
REMARK SMILES IDX 10 1 11 2 12 3 13 4 14 5 15 6 16 7 17 8 18 9 19 10 20 11
REMARK SMILES IDX 9 12 8 13 7 14 6 15 5 16 4 17 3 18 2 19 1 20
REMARK H PARENT
REMARK Flexibility Score: inf
ROOT
ATOM      1  C   UNL     1       3.417   2.623   0.062  1.00  0.00     0.000 C 
ENDROOT
BRANCH   1   2
ATOM      2  C   UNL     1       3.577   3.837   0.992  1.00  0.00     0.000 C 
BRANCH   2   3
ATOM      3  C   UNL     1       3.022   3.531   2.392  1.00  0.00     0.000 C 
BRANCH   3   4
ATOM      4  C   UNL     1       3.146   4.724   3.353  1.00  0.00     0.000 C 
BRANCH   4   5
ATOM      5  C   UNL     1       2.724   6.051   2.707  1.00  0.00     0.000 C 
BRANCH   5   6
ATOM      6  C   UNL     1       1.229   6.042   2.362  1.00  0.00     0.000 C 
BRANCH   6   7
ATOM      7  C   UNL     1       0.404   6.708   3.471  1.00  0.00     0.006 C 
BRANCH   7   8
ATOM      8  C   UNL     1       1.168   7.846   4.161  1.00  0.00     0.053 C 
BRANCH   8   9
ATOM      9  C   UNL     1       0.372   8.454   5.275  1.00  0.00     0.041 C 
ATOM     10  O   UNL     1      -0.679   9.101   5.025  1.00  0.00    -0.550 OA
ATOM     11  O   UNL     1       0.774   8.278   6.593  1.00  0.00    -0.550 OA
ENDBRANCH   8   9
ENDBRANCH   7   8
ENDBRANCH   6   7
ENDBRANCH   5   6
ENDBRANCH   4   5
ENDBRANCH   3   4
ENDBRANCH   2   3
ENDBRANCH   1   2
BRANCH   1  12
ATOM     12  C   UNL     1       2.515   2.916  -1.148  1.00  0.00     0.000 C 
BRANCH  12  13
ATOM     13  C   UNL     1       1.292   3.773  -0.778  1.00  0.00    -0.000 C 
BRANCH  13  14
ATOM     14  C   UNL     1       1.324   5.172  -1.421  1.00  0.00    -0.000 C 
BRANCH  14  15
ATOM     15  C   UNL     1       2.329   5.339  -2.576  1.00  0.00    -0.000 C 
BRANCH  15  16
ATOM     16  C   UNL     1       3.180   6.612  -2.451  1.00  0.00    -0.000 C 
BRANCH  16  17
ATOM     17  C   UNL     1       4.451   6.346  -1.635  1.00  0.00    -0.000 C 
BRANCH  17  18
ATOM     18  C   UNL     1       5.709   6.650  -2.463  1.00  0.00    -0.000 C 
BRANCH  18  19
ATOM     19  C   UNL     1       6.732   5.505  -2.423  1.00  0.00    -0.003 C 
ATOM     20  C   UNL     1       6.163   4.224  -1.812  1.00  0.00     0.004 C 
ENDBRANCH  18  19
ENDBRANCH  17  18
ENDBRANCH  16  17
ENDBRANCH  15  16
ENDBRANCH  14  15
ENDBRANCH  13  14
ENDBRANCH  12  13
ENDBRANCH   1  12
TORSDOF 16
ENDMDL
MODEL 9
REMARK VINA RESULT:    -4.329     12.647     15.425
REMARK INTER + INTRA:          -9.830
REMARK INTER:                  -8.336
REMARK INTRA:                  -1.494
REMARK UNBOUND:                -1.453
REMARK SMILES CCCCCCCCCCCCCCCCCC(=O)[O-]
REMARK SMILES IDX 10 1 11 2 12 3 13 4 14 5 15 6 16 7 17 8 18 9 19 10 20 11
REMARK SMILES IDX 9 12 8 13 7 14 6 15 5 16 4 17 3 18 2 19 1 20
REMARK H PARENT
REMARK Flexibility Score: inf
ROOT
ATOM      1  C   UNL     1      -2.547  -4.700   2.513  1.00  0.00     0.000 C 
ENDROOT
BRANCH   1   2
ATOM      2  C   UNL     1      -2.986  -6.064   3.069  1.00  0.00     0.000 C 
BRANCH   2   3
ATOM      3  C   UNL     1      -1.797  -6.806   3.700  1.00  0.00     0.000 C 
BRANCH   3   4
ATOM      4  C   UNL     1      -1.224  -6.076   4.925  1.00  0.00     0.000 C 
BRANCH   4   5
ATOM      5  C   UNL     1      -1.253  -6.939   6.195  1.00  0.00     0.000 C 
BRANCH   5   6
ATOM      6  C   UNL     1      -1.982  -6.215   7.334  1.00  0.00     0.000 C 
BRANCH   6   7
ATOM      7  C   UNL     1      -2.732  -4.981   6.811  1.00  0.00     0.006 C 
BRANCH   7   8
ATOM      8  C   UNL     1      -4.083  -4.784   7.510  1.00  0.00     0.053 C 
BRANCH   8   9
ATOM      9  C   UNL     1      -5.068  -4.083   6.625  1.00  0.00     0.041 C 
ATOM     10  O   UNL     1      -6.171  -3.691   7.088  1.00  0.00    -0.550 OA
ATOM     11  O   UNL     1      -4.753  -3.836   5.294  1.00  0.00    -0.550 OA
ENDBRANCH   8   9
ENDBRANCH   7   8
ENDBRANCH   6   7
ENDBRANCH   5   6
ENDBRANCH   4   5
ENDBRANCH   3   4
ENDBRANCH   2   3
ENDBRANCH   1   2
BRANCH   1  12
ATOM     12  C   UNL     1      -3.069  -4.443   1.090  1.00  0.00     0.000 C 
BRANCH  12  13
ATOM     13  C   UNL     1      -2.197  -5.111   0.012  1.00  0.00    -0.000 C 
BRANCH  13  14
ATOM     14  C   UNL     1      -2.148  -4.309  -1.302  1.00  0.00    -0.000 C 
BRANCH  14  15
ATOM     15  C   UNL     1      -2.298  -5.146  -2.586  1.00  0.00    -0.000 C 
BRANCH  15  16
ATOM     16  C   UNL     1      -2.908  -6.533  -2.331  1.00  0.00    -0.000 C 
BRANCH  16  17
ATOM     17  C   UNL     1      -4.440  -6.463  -2.305  1.00  0.00    -0.000 C 
BRANCH  17  18
ATOM     18  C   UNL     1      -4.966  -5.542  -3.416  1.00  0.00    -0.000 C 
BRANCH  18  19
ATOM     19  C   UNL     1      -6.158  -4.688  -2.959  1.00  0.00    -0.003 C 
ATOM     20  C   UNL     1      -5.815  -3.776  -1.781  1.00  0.00     0.004 C 
ENDBRANCH  18  19
ENDBRANCH  17  18
ENDBRANCH  16  17
ENDBRANCH  15  16
ENDBRANCH  14  15
ENDBRANCH  13  14
ENDBRANCH  12  13
ENDBRANCH   1  12
TORSDOF 16
ENDMDL
