MODEL 1
REMARK VINA RESULT:    -6.741      0.000      0.000
REMARK INTER + INTRA:          -8.388
REMARK INTER:                  -7.726
REMARK INTRA:                  -0.662
REMARK UNBOUND:                -0.662
REMARK SMILES C=C(C)[C@@H]1CC[C@@]2(C(=O)[O-])CC[C@@]3(C)[C@@H](CC[C@@H]4[C@]5(C)CC[C@@H](O)C(C)(C)[C@@H]5CC[C@@]43C)[C@@H]12
REMARK SMILES IDX 7 1 6 2 33 3 11 4 5 5 15 6 4 7 12 8 16 9 13 10 17 11 31 12
REMARK SMILES IDX 14 13 18 14 30 15 32 16 19 17 29 18 21 19 20 20 28 21 22 22
REMARK SMILES IDX 25 23 23 24 26 25 27 26 8 27 9 28 10 29 2 30 3 31 1 32 24 33
REMARK H PARENT 24 34
REMARK Flexibility Score: inf
ROOT
ATOM      1  C   UNL     1      33.988   8.599 -17.337  1.00  0.00     0.014 C 
ATOM      2  C   UNL     1      35.504   8.749 -17.115  1.00  0.00     0.014 C 
ATOM      3  C   UNL     1      33.728   9.448 -18.619  1.00  0.00     0.012 C 
ATOM      4  C   UNL     1      33.230   9.117 -16.082  1.00  0.00     0.014 C 
ATOM      5  C   UNL     1      35.875  10.141 -17.611  1.00  0.00     0.009 C 
ATOM      6  C   UNL     1      32.262   9.984 -18.773  1.00  0.00     0.000 C 
ATOM      7  C   UNL     1      34.878  10.490 -18.725  1.00  0.00     0.018 C 
ATOM      8  C   UNL     1      31.759   9.466 -16.364  1.00  0.00     0.008 C 
ATOM      9  C   UNL     1      32.103  10.938 -19.965  1.00  0.00     0.005 C 
ATOM     10  C   UNL     1      31.558  10.540 -17.487  1.00  0.00    -0.024 C 
ATOM     11  C   UNL     1      30.639  11.071 -20.360  1.00  0.00     0.005 C 
ATOM     12  C   UNL     1      29.968  10.784 -17.800  1.00  0.00    -0.024 C 
ATOM     13  C   UNL     1      32.282  11.836 -16.993  1.00  0.00     0.012 C 
ATOM     14  C   UNL     1      29.661  11.485 -19.213  1.00  0.00     0.002 C 
ATOM     15  C   UNL     1      29.274  11.612 -16.673  1.00  0.00     0.008 C 
ATOM     16  C   UNL     1      29.223   9.391 -17.812  1.00  0.00     0.012 C 
ATOM     17  C   UNL     1      29.133  13.003 -19.250  1.00  0.00    -0.026 C 
ATOM     18  C   UNL     1      27.899  12.147 -17.091  1.00  0.00     0.005 C 
ATOM     19  C   UNL     1      30.284  14.012 -19.059  1.00  0.00     0.010 C 
ATOM     20  C   UNL     1      28.508  13.249 -20.673  1.00  0.00     0.012 C 
ATOM     21  C   UNL     1      28.008  13.277 -18.150  1.00  0.00     0.003 C 
ATOM     22  C   UNL     1      29.852  15.483 -19.186  1.00  0.00     0.033 C 
ATOM     23  C   UNL     1      27.972  14.750 -17.513  1.00  0.00    -0.006 C 
ATOM     24  C   UNL     1      28.495  15.833 -18.522  1.00  0.00     0.120 C 
ATOM     25  C   UNL     1      28.789  14.906 -16.193  1.00  0.00     0.014 C 
ATOM     26  C   UNL     1      26.504  15.095 -17.137  1.00  0.00     0.014 C 
ENDROOT
BRANCH   1  27
ATOM     27  C   UNL     1      33.634   7.133 -17.546  1.00  0.00     0.048 C 
ATOM     28  O   UNL     1      33.590   6.652 -18.710  1.00  0.00    -0.550 OA
ATOM     29  O   UNL     1      33.436   6.285 -16.463  1.00  0.00    -0.550 OA
ENDBRANCH   1  27
BRANCH   7  30
ATOM     30  C   UNL     1      35.544  10.508 -20.104  1.00  0.00    -0.077 C 
ATOM     31  C   UNL     1      35.114   9.530 -21.167  1.00  0.00     0.039 C 
ATOM     32  C   UNL     1      36.506  11.398 -20.407  1.00  0.00     0.008 C 
ENDBRANCH   7  30
BRANCH  24  33
ATOM     33  O   UNL     1      27.542  16.090 -19.528  1.00  0.00    -0.393 OA
ATOM     34  H   UNL     1      26.921  15.316 -19.567  1.00  0.00     0.210 HD
ENDBRANCH  24  33
TORSDOF 3
ENDMDL
MODEL 2
REMARK VINA RESULT:    -6.612      4.067      6.390
REMARK INTER + INTRA:          -8.241
REMARK INTER:                  -7.556
REMARK INTRA:                  -0.685
REMARK UNBOUND:                -0.662
REMARK SMILES C=C(C)[C@@H]1CC[C@@]2(C(=O)[O-])CC[C@@]3(C)[C@@H](CC[C@@H]4[C@]5(C)CC[C@@H](O)C(C)(C)[C@@H]5CC[C@@]43C)[C@@H]12
REMARK SMILES IDX 7 1 6 2 33 3 11 4 5 5 15 6 4 7 12 8 16 9 13 10 17 11 31 12
REMARK SMILES IDX 14 13 18 14 30 15 32 16 19 17 29 18 21 19 20 20 28 21 22 22
REMARK SMILES IDX 25 23 23 24 26 25 27 26 8 27 9 28 10 29 2 30 3 31 1 32 24 33
REMARK H PARENT 24 34
REMARK Flexibility Score: inf
ROOT
ATOM      1  C   UNL     1      28.663  10.557 -21.549  1.00  0.00     0.014 C 
ATOM      2  C   UNL     1      28.402  10.419 -23.061  1.00  0.00     0.014 C 
ATOM      3  C   UNL     1      27.242  10.818 -20.963  1.00  0.00     0.012 C 
ATOM      4  C   UNL     1      29.664  11.723 -21.304  1.00  0.00     0.014 C 
ATOM      5  C   UNL     1      27.229  11.335 -23.379  1.00  0.00     0.009 C 
ATOM      6  C   UNL     1      27.221  11.573 -19.589  1.00  0.00     0.000 C 
ATOM      7  C   UNL     1      26.370  11.408 -22.109  1.00  0.00     0.018 C 
ATOM      8  C   UNL     1      29.624  12.261 -19.865  1.00  0.00     0.008 C 
ATOM      9  C   UNL     1      25.801  11.940 -19.137  1.00  0.00     0.005 C 
ATOM     10  C   UNL     1      28.215  12.772 -19.408  1.00  0.00    -0.024 C 
ATOM     11  C   UNL     1      25.768  12.240 -17.644  1.00  0.00     0.005 C 
ATOM     12  C   UNL     1      28.230  13.234 -17.835  1.00  0.00    -0.024 C 
ATOM     13  C   UNL     1      27.834  13.940 -20.377  1.00  0.00     0.012 C 
ATOM     14  C   UNL     1      26.781  13.323 -17.148  1.00  0.00     0.002 C 
ATOM     15  C   UNL     1      28.957  14.601 -17.638  1.00  0.00     0.008 C 
ATOM     16  C   UNL     1      29.069  12.191 -16.997  1.00  0.00     0.012 C 
ATOM     17  C   UNL     1      26.157  14.759 -16.787  1.00  0.00    -0.026 C 
ATOM     18  C   UNL     1      28.692  15.222 -16.262  1.00  0.00     0.005 C 
ATOM     19  C   UNL     1      25.550  15.446 -18.028  1.00  0.00     0.010 C 
ATOM     20  C   UNL     1      24.995  14.521 -15.753  1.00  0.00     0.012 C 
ATOM     21  C   UNL     1      27.233  15.734 -16.123  1.00  0.00     0.003 C 
ATOM     22  C   UNL     1      24.850  16.781 -17.724  1.00  0.00     0.033 C 
ATOM     23  C   UNL     1      27.076  17.299 -16.443  1.00  0.00    -0.006 C 
ATOM     24  C   UNL     1      25.580  17.693 -16.705  1.00  0.00     0.120 C 
ATOM     25  C   UNL     1      27.912  17.799 -17.662  1.00  0.00     0.014 C 
ATOM     26  C   UNL     1      27.593  18.112 -15.223  1.00  0.00     0.014 C 
ENDROOT
BRANCH   1  27
ATOM     27  C   UNL     1      29.274   9.273 -21.005  1.00  0.00     0.048 C 
ATOM     28  O   UNL     1      28.551   8.259 -20.816  1.00  0.00    -0.550 OA
ATOM     29  O   UNL     1      30.643   9.170 -20.789  1.00  0.00    -0.550 OA
ENDBRANCH   1  27
BRANCH   7  30
ATOM     30  C   UNL     1      25.034  10.681 -22.279  1.00  0.00    -0.077 C 
ATOM     31  C   UNL     1      24.989   9.174 -22.314  1.00  0.00     0.039 C 
ATOM     32  C   UNL     1      23.875  11.356 -22.382  1.00  0.00     0.008 C 
ENDBRANCH   7  30
BRANCH  24  33
ATOM     33  O   UNL     1      24.846  17.720 -15.502  1.00  0.00    -0.393 OA
ATOM     34  H   UNL     1      24.753  16.786 -15.178  1.00  0.00     0.210 HD
ENDBRANCH  24  33
TORSDOF 3
ENDMDL
MODEL 3
REMARK VINA RESULT:    -6.186      1.716      2.687
REMARK INTER + INTRA:          -7.753
REMARK INTER:                  -7.010
REMARK INTRA:                  -0.742
REMARK UNBOUND:                -0.662
REMARK SMILES C=C(C)[C@@H]1CC[C@@]2(C(=O)[O-])CC[C@@]3(C)[C@@H](CC[C@@H]4[C@]5(C)CC[C@@H](O)C(C)(C)[C@@H]5CC[C@@]43C)[C@@H]12
REMARK SMILES IDX 7 1 6 2 33 3 11 4 5 5 15 6 4 7 12 8 16 9 13 10 17 11 31 12
REMARK SMILES IDX 14 13 18 14 30 15 32 16 19 17 29 18 21 19 20 20 28 21 22 22
REMARK SMILES IDX 25 23 23 24 26 25 27 26 8 27 9 28 10 29 2 30 3 31 1 32 24 33
REMARK H PARENT 24 34
REMARK Flexibility Score: inf
ROOT
ATOM      1  C   UNL     1      34.582   9.289 -18.815  1.00  0.00     0.014 C 
ATOM      2  C   UNL     1      35.529   8.939 -19.978  1.00  0.00     0.014 C 
ATOM      3  C   UNL     1      33.169   8.990 -19.403  1.00  0.00     0.012 C 
ATOM      4  C   UNL     1      34.790  10.776 -18.411  1.00  0.00     0.014 C 
ATOM      5  C   UNL     1      34.776   9.269 -21.259  1.00  0.00     0.009 C 
ATOM      6  C   UNL     1      31.992   9.774 -18.726  1.00  0.00     0.000 C 
ATOM      7  C   UNL     1      33.283   9.082 -20.951  1.00  0.00     0.018 C 
ATOM      8  C   UNL     1      33.603  11.360 -17.626  1.00  0.00     0.008 C 
ATOM      9  C   UNL     1      30.651   9.563 -19.443  1.00  0.00     0.005 C 
ATOM     10  C   UNL     1      32.233  11.284 -18.382  1.00  0.00    -0.024 C 
ATOM     11  C   UNL     1      29.487   9.937 -18.535  1.00  0.00     0.005 C 
ATOM     12  C   UNL     1      31.005  11.832 -17.444  1.00  0.00    -0.024 C 
ATOM     13  C   UNL     1      32.407  12.116 -19.695  1.00  0.00     0.012 C 
ATOM     14  C   UNL     1      29.541  11.373 -17.921  1.00  0.00     0.002 C 
ATOM     15  C   UNL     1      31.020  13.388 -17.316  1.00  0.00     0.008 C 
ATOM     16  C   UNL     1      31.196  11.291 -15.972  1.00  0.00     0.012 C 
ATOM     17  C   UNL     1      28.537  12.453 -18.562  1.00  0.00    -0.026 C 
ATOM     18  C   UNL     1      29.713  13.950 -16.747  1.00  0.00     0.005 C 
ATOM     19  C   UNL     1      28.871  12.734 -20.041  1.00  0.00     0.010 C 
ATOM     20  C   UNL     1      27.088  11.841 -18.504  1.00  0.00     0.012 C 
ATOM     21  C   UNL     1      28.537  13.831 -17.754  1.00  0.00     0.003 C 
ATOM     22  C   UNL     1      27.882  13.685 -20.735  1.00  0.00     0.033 C 
ATOM     23  C   UNL     1      28.299  15.165 -18.613  1.00  0.00    -0.006 C 
ATOM     24  C   UNL     1      27.415  14.891 -19.881  1.00  0.00     0.120 C 
ATOM     25  C   UNL     1      29.607  15.867 -19.097  1.00  0.00     0.014 C 
ATOM     26  C   UNL     1      27.572  16.210 -17.722  1.00  0.00     0.014 C 
ENDROOT
BRANCH   1  27
ATOM     27  C   UNL     1      34.892   8.412 -17.609  1.00  0.00     0.048 C 
ATOM     28  O   UNL     1      34.327   7.293 -17.478  1.00  0.00    -0.550 OA
ATOM     29  O   UNL     1      35.856   8.788 -16.681  1.00  0.00    -0.550 OA
ENDBRANCH   1  27
BRANCH   7  30
ATOM     30  C   UNL     1      32.700   7.862 -21.668  1.00  0.00    -0.077 C 
ATOM     31  C   UNL     1      32.832   6.489 -21.058  1.00  0.00     0.039 C 
ATOM     32  C   UNL     1      32.045   7.980 -22.837  1.00  0.00     0.008 C 
ENDBRANCH   7  30
BRANCH  24  33
ATOM     33  O   UNL     1      26.063  14.709 -19.526  1.00  0.00    -0.393 OA
ATOM     34  H   UNL     1      25.874  15.284 -18.738  1.00  0.00     0.210 HD
ENDBRANCH  24  33
TORSDOF 3
ENDMDL
MODEL 4
REMARK VINA RESULT:    -6.150      4.587      7.189
REMARK INTER + INTRA:          -7.711
REMARK INTER:                  -7.182
REMARK INTRA:                  -0.528
REMARK UNBOUND:                -0.662
REMARK SMILES C=C(C)[C@@H]1CC[C@@]2(C(=O)[O-])CC[C@@]3(C)[C@@H](CC[C@@H]4[C@]5(C)CC[C@@H](O)C(C)(C)[C@@H]5CC[C@@]43C)[C@@H]12
REMARK SMILES IDX 7 1 6 2 33 3 11 4 5 5 15 6 4 7 12 8 16 9 13 10 17 11 31 12
REMARK SMILES IDX 14 13 18 14 30 15 32 16 19 17 29 18 21 19 20 20 28 21 22 22
REMARK SMILES IDX 25 23 23 24 26 25 27 26 8 27 9 28 10 29 2 30 3 31 1 32 24 33
REMARK H PARENT 24 34
REMARK Flexibility Score: inf
ROOT
ATOM      1  C   UNL     1      25.537   9.360 -22.176  1.00  0.00     0.014 C 
ATOM      2  C   UNL     1      24.299   8.456 -22.019  1.00  0.00     0.014 C 
ATOM      3  C   UNL     1      26.238   9.250 -20.788  1.00  0.00     0.012 C 
ATOM      4  C   UNL     1      25.079  10.802 -22.533  1.00  0.00     0.014 C 
ATOM      5  C   UNL     1      23.878   8.557 -20.559  1.00  0.00     0.009 C 
ATOM      6  C   UNL     1      27.159  10.464 -20.415  1.00  0.00     0.000 C 
ATOM      7  C   UNL     1      25.153   8.840 -19.752  1.00  0.00     0.018 C 
ATOM      8  C   UNL     1      26.150  11.866 -22.242  1.00  0.00     0.008 C 
ATOM      9  C   UNL     1      27.697  10.378 -18.980  1.00  0.00     0.005 C 
ATOM     10  C   UNL     1      26.632  11.901 -20.752  1.00  0.00    -0.024 C 
ATOM     11  C   UNL     1      28.912  11.280 -18.803  1.00  0.00     0.005 C 
ATOM     12  C   UNL     1      27.842  12.987 -20.542  1.00  0.00    -0.024 C 
ATOM     13  C   UNL     1      25.370  12.229 -19.887  1.00  0.00     0.012 C 
ATOM     14  C   UNL     1      28.709  12.777 -19.207  1.00  0.00     0.002 C 
ATOM     15  C   UNL     1      27.314  14.457 -20.565  1.00  0.00     0.008 C 
ATOM     16  C   UNL     1      28.845  12.887 -21.759  1.00  0.00     0.012 C 
ATOM     17  C   UNL     1      28.571  13.822 -17.994  1.00  0.00    -0.026 C 
ATOM     18  C   UNL     1      28.341  15.464 -20.035  1.00  0.00     0.005 C 
ATOM     19  C   UNL     1      27.308  13.554 -17.151  1.00  0.00     0.010 C 
ATOM     20  C   UNL     1      29.823  13.628 -17.060  1.00  0.00     0.012 C 
ATOM     21  C   UNL     1      28.549  15.336 -18.503  1.00  0.00     0.003 C 
ATOM     22  C   UNL     1      27.176  14.462 -15.916  1.00  0.00     0.033 C 
ATOM     23  C   UNL     1      27.658  16.365 -17.652  1.00  0.00    -0.006 C 
ATOM     24  C   UNL     1      27.565  15.945 -16.142  1.00  0.00     0.120 C 
ATOM     25  C   UNL     1      26.200  16.548 -18.177  1.00  0.00     0.014 C 
ATOM     26  C   UNL     1      28.309  17.774 -17.732  1.00  0.00     0.014 C 
ENDROOT
BRANCH   1  27
ATOM     27  C   UNL     1      26.422   8.840 -23.302  1.00  0.00     0.048 C 
ATOM     28  O   UNL     1      25.970   8.000 -24.125  1.00  0.00    -0.550 OA
ATOM     29  O   UNL     1      27.704   9.342 -23.491  1.00  0.00    -0.550 OA
ENDBRANCH   1  27
BRANCH   7  30
ATOM     30  C   UNL     1      25.567   7.641 -18.896  1.00  0.00    -0.077 C 
ATOM     31  C   UNL     1      26.190   6.428 -19.539  1.00  0.00     0.039 C 
ATOM     32  C   UNL     1      25.405   7.642 -17.560  1.00  0.00     0.008 C 
ENDBRANCH   7  30
BRANCH  24  33
ATOM     33  O   UNL     1      28.773  16.213 -15.467  1.00  0.00    -0.393 OA
ATOM     34  H   UNL     1      29.419  15.494 -15.698  1.00  0.00     0.210 HD
ENDBRANCH  24  33
TORSDOF 3
ENDMDL
MODEL 5
REMARK VINA RESULT:    -6.060      8.125     11.945
REMARK INTER + INTRA:          -7.608
REMARK INTER:                  -6.973
REMARK INTRA:                  -0.635
REMARK UNBOUND:                -0.662
REMARK SMILES C=C(C)[C@@H]1CC[C@@]2(C(=O)[O-])CC[C@@]3(C)[C@@H](CC[C@@H]4[C@]5(C)CC[C@@H](O)C(C)(C)[C@@H]5CC[C@@]43C)[C@@H]12
REMARK SMILES IDX 7 1 6 2 33 3 11 4 5 5 15 6 4 7 12 8 16 9 13 10 17 11 31 12
REMARK SMILES IDX 14 13 18 14 30 15 32 16 19 17 29 18 21 19 20 20 28 21 22 22
REMARK SMILES IDX 25 23 23 24 26 25 27 26 8 27 9 28 10 29 2 30 3 31 1 32 24 33
REMARK H PARENT 24 34
REMARK Flexibility Score: inf
ROOT
ATOM      1  C   UNL     1      34.017   3.251 -18.074  1.00  0.00     0.014 C 
ATOM      2  C   UNL     1      33.427   2.080 -18.883  1.00  0.00     0.014 C 
ATOM      3  C   UNL     1      35.509   2.842 -17.889  1.00  0.00     0.012 C 
ATOM      4  C   UNL     1      33.237   3.396 -16.736  1.00  0.00     0.014 C 
ATOM      5  C   UNL     1      34.182   0.833 -18.445  1.00  0.00     0.009 C 
ATOM      6  C   UNL     1      36.223   3.485 -16.649  1.00  0.00     0.000 C 
ATOM      7  C   UNL     1      35.585   1.294 -18.024  1.00  0.00     0.018 C 
ATOM      8  C   UNL     1      34.016   4.178 -15.665  1.00  0.00     0.008 C 
ATOM      9  C   UNL     1      37.636   2.929 -16.426  1.00  0.00     0.005 C 
ATOM     10  C   UNL     1      35.413   3.565 -15.310  1.00  0.00    -0.024 C 
ATOM     11  C   UNL     1      38.452   3.864 -15.543  1.00  0.00     0.005 C 
ATOM     12  C   UNL     1      36.222   4.507 -14.240  1.00  0.00    -0.024 C 
ATOM     13  C   UNL     1      35.137   2.126 -14.760  1.00  0.00     0.012 C 
ATOM     14  C   UNL     1      37.804   4.237 -14.170  1.00  0.00     0.002 C 
ATOM     15  C   UNL     1      35.634   4.386 -12.798  1.00  0.00     0.008 C 
ATOM     16  C   UNL     1      36.036   6.024 -14.640  1.00  0.00     0.012 C 
ATOM     17  C   UNL     1      38.434   3.522 -12.875  1.00  0.00    -0.026 C 
ATOM     18  C   UNL     1      36.563   4.970 -11.728  1.00  0.00     0.005 C 
ATOM     19  C   UNL     1      38.230   1.994 -12.911  1.00  0.00     0.010 C 
ATOM     20  C   UNL     1      39.983   3.801 -12.891  1.00  0.00     0.012 C 
ATOM     21  C   UNL     1      37.830   4.100 -11.514  1.00  0.00     0.003 C 
ATOM     22  C   UNL     1      38.899   1.246 -11.746  1.00  0.00     0.033 C 
ATOM     23  C   UNL     1      37.692   3.064 -10.296  1.00  0.00    -0.006 C 
ATOM     24  C   UNL     1      38.782   1.937 -10.363  1.00  0.00     0.120 C 
ATOM     25  C   UNL     1      36.300   2.365 -10.193  1.00  0.00     0.014 C 
ATOM     26  C   UNL     1      37.867   3.840  -8.960  1.00  0.00     0.014 C 
ENDROOT
BRANCH   1  27
ATOM     27  C   UNL     1      33.877   4.549 -18.858  1.00  0.00     0.048 C 
ATOM     28  O   UNL     1      34.731   4.855 -19.733  1.00  0.00    -0.550 OA
ATOM     29  O   UNL     1      32.771   5.373 -18.684  1.00  0.00    -0.550 OA
ENDBRANCH   1  27
BRANCH   7  30
ATOM     30  C   UNL     1      36.659   0.832 -19.012  1.00  0.00    -0.077 C 
ATOM     31  C   UNL     1      37.805  -0.026 -18.540  1.00  0.00     0.039 C 
ATOM     32  C   UNL     1      36.602   1.159 -20.316  1.00  0.00     0.008 C 
ENDBRANCH   7  30
BRANCH  24  33
ATOM     33  O   UNL     1      40.046   2.432  -9.985  1.00  0.00    -0.393 OA
ATOM     34  H   UNL     1      40.193   3.291 -10.461  1.00  0.00     0.210 HD
ENDBRANCH  24  33
TORSDOF 3
ENDMDL
MODEL 6
REMARK VINA RESULT:    -6.041      4.679      8.192
REMARK INTER + INTRA:          -7.586
REMARK INTER:                  -7.058
REMARK INTRA:                  -0.528
REMARK UNBOUND:                -0.662
REMARK SMILES C=C(C)[C@@H]1CC[C@@]2(C(=O)[O-])CC[C@@]3(C)[C@@H](CC[C@@H]4[C@]5(C)CC[C@@H](O)C(C)(C)[C@@H]5CC[C@@]43C)[C@@H]12
REMARK SMILES IDX 7 1 6 2 33 3 11 4 5 5 15 6 4 7 12 8 16 9 13 10 17 11 31 12
REMARK SMILES IDX 14 13 18 14 30 15 32 16 19 17 29 18 21 19 20 20 28 21 22 22
REMARK SMILES IDX 25 23 23 24 26 25 27 26 8 27 9 28 10 29 2 30 3 31 1 32 24 33
REMARK H PARENT 24 34
REMARK Flexibility Score: inf
ROOT
ATOM      1  C   UNL     1      25.523  15.412 -15.600  1.00  0.00     0.014 C 
ATOM      2  C   UNL     1      25.086  16.889 -15.599  1.00  0.00     0.014 C 
ATOM      3  C   UNL     1      26.798  15.417 -16.496  1.00  0.00     0.012 C 
ATOM      4  C   UNL     1      24.368  14.534 -16.160  1.00  0.00     0.014 C 
ATOM      5  C   UNL     1      25.476  17.452 -16.958  1.00  0.00     0.009 C 
ATOM      6  C   UNL     1      27.136  14.043 -17.174  1.00  0.00     0.000 C 
ATOM      7  C   UNL     1      26.705  16.661 -17.425  1.00  0.00     0.018 C 
ATOM      8  C   UNL     1      24.840  13.157 -16.655  1.00  0.00     0.008 C 
ATOM      9  C   UNL     1      28.304  14.144 -18.164  1.00  0.00     0.005 C 
ATOM     10  C   UNL     1      25.943  13.218 -17.767  1.00  0.00    -0.024 C 
ATOM     11  C   UNL     1      28.896  12.769 -18.445  1.00  0.00     0.005 C 
ATOM     12  C   UNL     1      26.466  11.717 -18.169  1.00  0.00    -0.024 C 
ATOM     13  C   UNL     1      25.308  13.980 -18.977  1.00  0.00     0.012 C 
ATOM     14  C   UNL     1      27.882  11.681 -18.927  1.00  0.00     0.002 C 
ATOM     15  C   UNL     1      25.419  10.949 -19.036  1.00  0.00     0.008 C 
ATOM     16  C   UNL     1      26.630  10.856 -16.855  1.00  0.00     0.012 C 
ATOM     17  C   UNL     1      27.940  11.305 -20.489  1.00  0.00    -0.026 C 
ATOM     18  C   UNL     1      26.006   9.703 -19.709  1.00  0.00     0.005 C 
ATOM     19  C   UNL     1      27.556  12.505 -21.379  1.00  0.00     0.010 C 
ATOM     20  C   UNL     1      29.427  10.914 -20.824  1.00  0.00     0.012 C 
ATOM     21  C   UNL     1      26.999  10.065 -20.846  1.00  0.00     0.003 C 
ATOM     22  C   UNL     1      27.690  12.232 -22.887  1.00  0.00     0.033 C 
ATOM     23  C   UNL     1      26.323  10.074 -22.301  1.00  0.00    -0.006 C 
ATOM     24  C   UNL     1      27.210  10.833 -23.351  1.00  0.00     0.120 C 
ATOM     25  C   UNL     1      24.896  10.706 -22.350  1.00  0.00     0.014 C 
ATOM     26  C   UNL     1      26.144   8.606 -22.778  1.00  0.00     0.014 C 
ENDROOT
BRANCH   1  27
ATOM     27  C   UNL     1      25.829  14.958 -14.179  1.00  0.00     0.048 C 
ATOM     28  O   UNL     1      25.157  15.406 -13.212  1.00  0.00    -0.550 OA
ATOM     29  O   UNL     1      26.791  13.985 -13.932  1.00  0.00    -0.550 OA
ENDBRANCH   1  27
BRANCH   7  30
ATOM     30  C   UNL     1      27.976  17.515 -17.409  1.00  0.00    -0.077 C 
ATOM     31  C   UNL     1      28.775  17.710 -18.673  1.00  0.00     0.039 C 
ATOM     32  C   UNL     1      28.400  18.123 -16.286  1.00  0.00     0.008 C 
ENDBRANCH   7  30
BRANCH  24  33
ATOM     33  O   UNL     1      28.330  10.061 -23.720  1.00  0.00    -0.393 OA
ATOM     34  H   UNL     1      28.436   9.336 -23.049  1.00  0.00     0.210 HD
ENDBRANCH  24  33
TORSDOF 3
ENDMDL
MODEL 7
REMARK VINA RESULT:    -6.016      1.985      7.786
REMARK INTER + INTRA:          -7.557
REMARK INTER:                  -6.843
REMARK INTRA:                  -0.714
REMARK UNBOUND:                -0.662
REMARK SMILES C=C(C)[C@@H]1CC[C@@]2(C(=O)[O-])CC[C@@]3(C)[C@@H](CC[C@@H]4[C@]5(C)CC[C@@H](O)C(C)(C)[C@@H]5CC[C@@]43C)[C@@H]12
REMARK SMILES IDX 7 1 6 2 33 3 11 4 5 5 15 6 4 7 12 8 16 9 13 10 17 11 31 12
REMARK SMILES IDX 14 13 18 14 30 15 32 16 19 17 29 18 21 19 20 20 28 21 22 22
REMARK SMILES IDX 25 23 23 24 26 25 27 26 8 27 9 28 10 29 2 30 3 31 1 32 24 33
REMARK H PARENT 24 34
REMARK Flexibility Score: inf
ROOT
ATOM      1  C   UNL     1      26.947  14.514 -16.241  1.00  0.00     0.014 C 
ATOM      2  C   UNL     1      25.671  14.703 -17.083  1.00  0.00     0.014 C 
ATOM      3  C   UNL     1      28.072  14.415 -17.316  1.00  0.00     0.012 C 
ATOM      4  C   UNL     1      26.802  13.236 -15.368  1.00  0.00     0.014 C 
ATOM      5  C   UNL     1      25.894  13.935 -18.379  1.00  0.00     0.009 C 
ATOM      6  C   UNL     1      29.361  13.649 -16.855  1.00  0.00     0.000 C 
ATOM      7  C   UNL     1      27.406  13.947 -18.642  1.00  0.00     0.018 C 
ATOM      8  C   UNL     1      28.150  12.687 -14.872  1.00  0.00     0.008 C 
ATOM      9  C   UNL     1      30.368  13.446 -17.996  1.00  0.00     0.005 C 
ATOM     10  C   UNL     1      29.162  12.339 -16.017  1.00  0.00    -0.024 C 
ATOM     11  C   UNL     1      31.753  13.132 -17.446  1.00  0.00     0.005 C 
ATOM     12  C   UNL     1      30.607  11.858 -15.410  1.00  0.00    -0.024 C 
ATOM     13  C   UNL     1      28.478  11.238 -16.892  1.00  0.00     0.012 C 
ATOM     14  C   UNL     1      31.830  11.931 -16.448  1.00  0.00     0.002 C 
ATOM     15  C   UNL     1      30.538  10.411 -14.825  1.00  0.00     0.008 C 
ATOM     16  C   UNL     1      30.989  12.783 -14.188  1.00  0.00     0.012 C 
ATOM     17  C   UNL     1      32.467  10.573 -17.027  1.00  0.00    -0.026 C 
ATOM     18  C   UNL     1      31.924   9.808 -14.570  1.00  0.00     0.005 C 
ATOM     19  C   UNL     1      31.609   9.980 -18.163  1.00  0.00     0.010 C 
ATOM     20  C   UNL     1      33.877  10.933 -17.626  1.00  0.00     0.012 C 
ATOM     21  C   UNL     1      32.667   9.470 -15.890  1.00  0.00     0.003 C 
ATOM     22  C   UNL     1      32.222   8.733 -18.822  1.00  0.00     0.033 C 
ATOM     23  C   UNL     1      32.496   7.939 -16.340  1.00  0.00    -0.006 C 
ATOM     24  C   UNL     1      32.885   7.728 -17.846  1.00  0.00     0.120 C 
ATOM     25  C   UNL     1      31.060   7.360 -16.142  1.00  0.00     0.014 C 
ATOM     26  C   UNL     1      33.426   7.054 -15.463  1.00  0.00     0.014 C 
ENDROOT
BRANCH   1  27
ATOM     27  C   UNL     1      27.145  15.710 -15.320  1.00  0.00     0.048 C 
ATOM     28  O   UNL     1      26.382  15.881 -14.332  1.00  0.00    -0.550 OA
ATOM     29  O   UNL     1      28.213  16.581 -15.500  1.00  0.00    -0.550 OA
ENDBRANCH   1  27
BRANCH   7  30
ATOM     30  C   UNL     1      27.772  14.830 -19.838  1.00  0.00    -0.077 C 
ATOM     31  C   UNL     1      28.391  16.187 -19.619  1.00  0.00     0.039 C 
ATOM     32  C   UNL     1      27.572  14.417 -21.102  1.00  0.00     0.008 C 
ENDBRANCH   7  30
BRANCH  24  33
ATOM     33  O   UNL     1      34.283   7.771 -18.019  1.00  0.00    -0.393 OA
ATOM     34  H   UNL     1      34.685   7.074 -17.437  1.00  0.00     0.210 HD
ENDBRANCH  24  33
TORSDOF 3
ENDMDL
MODEL 8
REMARK VINA RESULT:    -5.954      5.140      8.548
REMARK INTER + INTRA:          -7.487
REMARK INTER:                  -6.763
REMARK INTRA:                  -0.723
REMARK UNBOUND:                -0.662
REMARK SMILES C=C(C)[C@@H]1CC[C@@]2(C(=O)[O-])CC[C@@]3(C)[C@@H](CC[C@@H]4[C@]5(C)CC[C@@H](O)C(C)(C)[C@@H]5CC[C@@]43C)[C@@H]12
REMARK SMILES IDX 7 1 6 2 33 3 11 4 5 5 15 6 4 7 12 8 16 9 13 10 17 11 31 12
REMARK SMILES IDX 14 13 18 14 30 15 32 16 19 17 29 18 21 19 20 20 28 21 22 22
REMARK SMILES IDX 25 23 23 24 26 25 27 26 8 27 9 28 10 29 2 30 3 31 1 32 24 33
REMARK H PARENT 24 34
REMARK Flexibility Score: inf
ROOT
ATOM      1  C   UNL     1      28.296  14.662 -18.123  1.00  0.00     0.014 C 
ATOM      2  C   UNL     1      28.429  14.785 -16.594  1.00  0.00     0.014 C 
ATOM      3  C   UNL     1      26.829  14.171 -18.316  1.00  0.00     0.012 C 
ATOM      4  C   UNL     1      29.364  13.663 -18.653  1.00  0.00     0.014 C 
ATOM      5  C   UNL     1      27.541  13.702 -15.997  1.00  0.00     0.009 C 
ATOM      6  C   UNL     1      26.561  13.397 -19.654  1.00  0.00     0.000 C 
ATOM      7  C   UNL     1      26.397  13.473 -16.995  1.00  0.00     0.018 C 
ATOM      8  C   UNL     1      29.027  13.100 -20.044  1.00  0.00     0.008 C 
ATOM      9  C   UNL     1      25.147  12.804 -19.720  1.00  0.00     0.005 C 
ATOM     10  C   UNL     1      27.645  12.366 -20.122  1.00  0.00    -0.024 C 
ATOM     11  C   UNL     1      24.764  12.477 -21.158  1.00  0.00     0.005 C 
ATOM     12  C   UNL     1      27.312  11.884 -21.652  1.00  0.00    -0.024 C 
ATOM     13  C   UNL     1      27.722  11.171 -19.115  1.00  0.00     0.012 C 
ATOM     14  C   UNL     1      25.764  11.557 -21.932  1.00  0.00     0.002 C 
ATOM     15  C   UNL     1      28.164  10.644 -22.070  1.00  0.00     0.008 C 
ATOM     16  C   UNL     1      27.724  13.030 -22.658  1.00  0.00     0.012 C 
ATOM     17  C   UNL     1      25.298  10.034 -22.149  1.00  0.00    -0.026 C 
ATOM     18  C   UNL     1      27.641   9.965 -23.341  1.00  0.00     0.005 C 
ATOM     19  C   UNL     1      25.159   9.284 -20.809  1.00  0.00     0.010 C 
ATOM     20  C   UNL     1      23.880  10.069 -22.831  1.00  0.00     0.012 C 
ATOM     21  C   UNL     1      26.297   9.228 -23.100  1.00  0.00     0.003 C 
ATOM     22  C   UNL     1      24.619   7.850 -20.949  1.00  0.00     0.033 C 
ATOM     23  C   UNL     1      26.476   7.664 -22.788  1.00  0.00    -0.006 C 
ATOM     24  C   UNL     1      25.184   7.046 -22.147  1.00  0.00     0.120 C 
ATOM     25  C   UNL     1      27.674   7.323 -21.847  1.00  0.00     0.014 C 
ATOM     26  C   UNL     1      26.770   6.920 -24.121  1.00  0.00     0.014 C 
ENDROOT
BRANCH   1  27
ATOM     27  C   UNL     1      28.533  16.016 -18.778  1.00  0.00     0.048 C 
ATOM     28  O   UNL     1      27.598  16.858 -18.847  1.00  0.00    -0.550 OA
ATOM     29  O   UNL     1      29.796  16.378 -19.232  1.00  0.00    -0.550 OA
ENDBRANCH   1  27
BRANCH   7  30
ATOM     30  C   UNL     1      25.058  13.985 -16.458  1.00  0.00    -0.077 C 
ATOM     31  C   UNL     1      24.738  15.458 -16.497  1.00  0.00     0.039 C 
ATOM     32  C   UNL     1      24.133  13.145 -15.960  1.00  0.00     0.008 C 
ENDBRANCH   7  30
BRANCH  24  33
ATOM     33  O   UNL     1      24.169   6.882 -23.112  1.00  0.00    -0.393 OA
ATOM     34  H   UNL     1      24.605   6.767 -23.998  1.00  0.00     0.210 HD
ENDBRANCH  24  33
TORSDOF 3
ENDMDL
MODEL 9
REMARK VINA RESULT:    -5.894      1.965      2.837
REMARK INTER + INTRA:          -7.417
REMARK INTER:                  -6.703
REMARK INTRA:                  -0.714
REMARK UNBOUND:                -0.662
REMARK SMILES C=C(C)[C@@H]1CC[C@@]2(C(=O)[O-])CC[C@@]3(C)[C@@H](CC[C@@H]4[C@]5(C)CC[C@@H](O)C(C)(C)[C@@H]5CC[C@@]43C)[C@@H]12
REMARK SMILES IDX 7 1 6 2 33 3 11 4 5 5 15 6 4 7 12 8 16 9 13 10 17 11 31 12
REMARK SMILES IDX 14 13 18 14 30 15 32 16 19 17 29 18 21 19 20 20 28 21 22 22
REMARK SMILES IDX 25 23 23 24 26 25 27 26 8 27 9 28 10 29 2 30 3 31 1 32 24 33
REMARK H PARENT 24 34
REMARK Flexibility Score: inf
ROOT
ATOM      1  C   UNL     1      34.962   9.677 -18.015  1.00  0.00     0.014 C 
ATOM      2  C   UNL     1      36.350  10.178 -18.455  1.00  0.00     0.014 C 
ATOM      3  C   UNL     1      34.301   9.230 -19.354  1.00  0.00     0.012 C 
ATOM      4  C   UNL     1      34.203  10.830 -17.297  1.00  0.00     0.014 C 
ATOM      5  C   UNL     1      36.171  10.767 -19.848  1.00  0.00     0.009 C 
ATOM      6  C   UNL     1      32.732   9.234 -19.351  1.00  0.00     0.000 C 
ATOM      7  C   UNL     1      35.009  10.006 -20.501  1.00  0.00     0.018 C 
ATOM      8  C   UNL     1      32.681  10.615 -17.251  1.00  0.00     0.008 C 
ATOM      9  C   UNL     1      32.138   8.938 -20.735  1.00  0.00     0.005 C 
ATOM     10  C   UNL     1      32.014  10.442 -18.658  1.00  0.00    -0.024 C 
ATOM     11  C   UNL     1      30.684   8.499 -20.618  1.00  0.00     0.005 C 
ATOM     12  C   UNL     1      30.413  10.117 -18.522  1.00  0.00    -0.024 C 
ATOM     13  C   UNL     1      32.297  11.763 -19.447  1.00  0.00     0.012 C 
ATOM     14  C   UNL     1      29.745   9.471 -19.832  1.00  0.00     0.002 C 
ATOM     15  C   UNL     1      29.594  11.386 -18.122  1.00  0.00     0.008 C 
ATOM     16  C   UNL     1      30.191   9.090 -17.342  1.00  0.00     0.012 C 
ATOM     17  C   UNL     1      28.729  10.343 -20.721  1.00  0.00    -0.026 C 
ATOM     18  C   UNL     1      28.085  11.205 -18.322  1.00  0.00     0.005 C 
ATOM     19  C   UNL     1      29.479  11.319 -21.651  1.00  0.00     0.010 C 
ATOM     20  C   UNL     1      27.918   9.343 -21.626  1.00  0.00     0.012 C 
ATOM     21  C   UNL     1      27.695  11.164 -19.823  1.00  0.00     0.003 C 
ATOM     22  C   UNL     1      28.560  12.109 -22.598  1.00  0.00     0.033 C 
ATOM     23  C   UNL     1      27.222  12.587 -20.396  1.00  0.00    -0.006 C 
ATOM     24  C   UNL     1      27.239  12.618 -21.965  1.00  0.00     0.120 C 
ATOM     25  C   UNL     1      28.065  13.801 -19.894  1.00  0.00     0.014 C 
ATOM     26  C   UNL     1      25.770  12.861 -19.914  1.00  0.00     0.014 C 
ENDROOT
BRANCH   1  27
ATOM     27  C   UNL     1      35.111   8.517 -17.040  1.00  0.00     0.048 C 
ATOM     28  O   UNL     1      35.375   8.738 -15.828  1.00  0.00    -0.550 OA
ATOM     29  O   UNL     1      34.877   7.209 -17.446  1.00  0.00    -0.550 OA
ENDBRANCH   1  27
BRANCH   7  30
ATOM     30  C   UNL     1      35.486   9.095 -21.634  1.00  0.00    -0.077 C 
ATOM     31  C   UNL     1      35.478   7.597 -21.458  1.00  0.00     0.039 C 
ATOM     32  C   UNL     1      35.904   9.596 -22.811  1.00  0.00     0.008 C 
ENDBRANCH   7  30
BRANCH  24  33
ATOM     33  O   UNL     1      26.160  11.886 -22.498  1.00  0.00    -0.393 OA
ATOM     34  H   UNL     1      26.424  10.929 -22.529  1.00  0.00     0.210 HD
ENDBRANCH  24  33
TORSDOF 3
ENDMDL
