MODEL 1
REMARK VINA RESULT:    -2.480      0.000      0.000
REMARK INTER + INTRA:          -2.480
REMARK INTER:                  -2.480
REMARK INTRA:                   0.000
REMARK UNBOUND:                 0.000
REMARK SMILES CC(=O)[O-]
REMARK SMILES IDX 1 1 2 2 3 3 4 4
REMARK H PARENT
REMARK Flexibility Score: inf
ROOT
ATOM      1  C   UNL     1      10.174  34.450  15.959  1.00  0.00     0.063 C 
ATOM      2  C   UNL     1       8.876  34.584  15.238  1.00  0.00     0.038 C 
ATOM      3  O   UNL     1       8.027  33.655  15.286  1.00  0.00    -0.550 OA
ATOM      4  O   UNL     1       8.621  35.710  14.466  1.00  0.00    -0.550 OA
ENDROOT
TORSDOF 0
ENDMDL
MODEL 2
REMARK VINA RESULT:    -2.443     16.111     16.650
REMARK INTER + INTRA:          -2.443
REMARK INTER:                  -2.443
REMARK INTRA:                   0.000
REMARK UNBOUND:                 0.000
REMARK SMILES CC(=O)[O-]
REMARK SMILES IDX 1 1 2 2 3 3 4 4
REMARK H PARENT
REMARK Flexibility Score: inf
ROOT
ATOM      1  C   UNL     1      -8.637  32.934  16.168  1.00  0.00     0.063 C 
ATOM      2  C   UNL     1      -7.421  33.289  16.956  1.00  0.00     0.038 C 
ATOM      3  O   UNL     1      -6.401  32.553  16.909  1.00  0.00    -0.550 OA
ATOM      4  O   UNL     1      -7.430  34.402  17.786  1.00  0.00    -0.550 OA
ENDROOT
TORSDOF 0
ENDMDL
MODEL 3
REMARK VINA RESULT:    -2.321      1.393      1.770
REMARK INTER + INTRA:          -2.321
REMARK INTER:                  -2.321
REMARK INTRA:                   0.000
REMARK UNBOUND:                 0.000
REMARK SMILES CC(=O)[O-]
REMARK SMILES IDX 1 1 2 2 3 3 4 4
REMARK H PARENT
REMARK Flexibility Score: inf
ROOT
ATOM      1  C   UNL     1       8.692  35.665  14.473  1.00  0.00     0.063 C 
ATOM      2  C   UNL     1       8.981  34.448  15.283  1.00  0.00     0.038 C 
ATOM      3  O   UNL     1       8.121  33.533  15.379  1.00  0.00    -0.550 OA
ATOM      4  O   UNL     1      10.178  34.344  15.980  1.00  0.00    -0.550 OA
ENDROOT
TORSDOF 0
ENDMDL
MODEL 4
REMARK VINA RESULT:    -2.314     16.182     16.659
REMARK INTER + INTRA:          -2.314
REMARK INTER:                  -2.314
REMARK INTRA:                   0.000
REMARK UNBOUND:                 0.000
REMARK SMILES CC(=O)[O-]
REMARK SMILES IDX 1 1 2 2 3 3 4 4
REMARK H PARENT
REMARK Flexibility Score: inf
ROOT
ATOM      1  C   UNL     1      -7.400  34.401  17.789  1.00  0.00     0.063 C 
ATOM      2  C   UNL     1      -7.517  33.229  16.873  1.00  0.00     0.038 C 
ATOM      3  O   UNL     1      -6.569  32.407  16.776  1.00  0.00    -0.550 OA
ATOM      4  O   UNL     1      -8.649  33.072  16.085  1.00  0.00    -0.550 OA
ENDROOT
TORSDOF 0
ENDMDL
MODEL 5
REMARK VINA RESULT:    -2.047      1.401      2.097
REMARK INTER + INTRA:          -2.047
REMARK INTER:                  -2.047
REMARK INTRA:                   0.000
REMARK UNBOUND:                 0.000
REMARK SMILES CC(=O)[O-]
REMARK SMILES IDX 1 1 2 2 3 3 4 4
REMARK H PARENT
REMARK Flexibility Score: inf
ROOT
ATOM      1  C   UNL     1       7.920  33.632  15.186  1.00  0.00     0.063 C 
ATOM      2  C   UNL     1       8.963  34.698  15.149  1.00  0.00     0.038 C 
ATOM      3  O   UNL     1       8.824  35.690  14.386  1.00  0.00    -0.550 OA
ATOM      4  O   UNL     1      10.115  34.572  15.914  1.00  0.00    -0.550 OA
ENDROOT
TORSDOF 0
ENDMDL
MODEL 6
REMARK VINA RESULT:    -1.840     20.911     21.604
REMARK INTER + INTRA:          -1.840
REMARK INTER:                  -1.840
REMARK INTRA:                   0.000
REMARK UNBOUND:                 0.000
REMARK SMILES CC(=O)[O-]
REMARK SMILES IDX 1 1 2 2 3 3 4 4
REMARK H PARENT
REMARK Flexibility Score: inf
ROOT
ATOM      1  C   UNL     1      -6.602  21.126  14.711  1.00  0.00     0.063 C 
ATOM      2  C   UNL     1      -7.757  20.982  15.643  1.00  0.00     0.038 C 
ATOM      3  O   UNL     1      -7.914  21.802  16.586  1.00  0.00    -0.550 OA
ATOM      4  O   UNL     1      -8.632  19.912  15.507  1.00  0.00    -0.550 OA
ENDROOT
TORSDOF 0
ENDMDL
MODEL 7
REMARK VINA RESULT:    -1.815     16.809     17.308
REMARK INTER + INTRA:          -1.815
REMARK INTER:                  -1.815
REMARK INTRA:                   0.000
REMARK UNBOUND:                 0.000
REMARK SMILES CC(=O)[O-]
REMARK SMILES IDX 1 1 2 2 3 3 4 4
REMARK H PARENT
REMARK Flexibility Score: inf
ROOT
ATOM      1  C   UNL     1      -2.474  19.990  16.420  1.00  0.00     0.063 C 
ATOM      2  C   UNL     1      -1.367  20.968  16.623  1.00  0.00     0.038 C 
ATOM      3  O   UNL     1      -0.625  21.293  15.659  1.00  0.00    -0.550 OA
ATOM      4  O   UNL     1      -1.115  21.483  17.889  1.00  0.00    -0.550 OA
ENDROOT
TORSDOF 0
ENDMDL
MODEL 8
REMARK VINA RESULT:    -1.577     17.287     17.764
REMARK INTER + INTRA:          -1.577
REMARK INTER:                  -1.577
REMARK INTRA:                   0.000
REMARK UNBOUND:                 0.000
REMARK SMILES CC(=O)[O-]
REMARK SMILES IDX 1 1 2 2 3 3 4 4
REMARK H PARENT
REMARK Flexibility Score: inf
ROOT
ATOM      1  C   UNL     1      -0.628  21.107  16.061  1.00  0.00     0.063 C 
ATOM      2  C   UNL     1      -1.785  20.576  16.838  1.00  0.00     0.038 C 
ATOM      3  O   UNL     1      -1.716  20.486  18.091  1.00  0.00    -0.550 OA
ATOM      4  O   UNL     1      -2.921  20.129  16.176  1.00  0.00    -0.550 OA
ENDROOT
TORSDOF 0
ENDMDL
MODEL 9
REMARK VINA RESULT:    -1.552     13.880     14.211
REMARK INTER + INTRA:          -1.552
REMARK INTER:                  -1.552
REMARK INTRA:                   0.000
REMARK UNBOUND:                 0.000
REMARK SMILES CC(=O)[O-]
REMARK SMILES IDX 1 1 2 2 3 3 4 4
REMARK H PARENT
REMARK Flexibility Score: inf
ROOT
ATOM      1  C   UNL     1       7.038  19.904  15.994  1.00  0.00     0.063 C 
ATOM      2  C   UNL     1       5.902  20.816  15.673  1.00  0.00     0.038 C 
ATOM      3  O   UNL     1       5.443  21.588  16.555  1.00  0.00    -0.550 OA
ATOM      4  O   UNL     1       5.312  20.778  14.416  1.00  0.00    -0.550 OA
ENDROOT
TORSDOF 0
ENDMDL
