MODEL 1
REMARK VINA RESULT:    -2.272      0.000      0.000
REMARK INTER + INTRA:          -2.570
REMARK INTER:                  -2.538
REMARK INTRA:                  -0.032
REMARK UNBOUND:                -0.032
REMARK SMILES CCCC(=O)[O-]
REMARK SMILES IDX 3 1 4 2 5 3 6 4 2 5 1 6
REMARK H PARENT
REMARK Flexibility Score: inf
ROOT
ATOM      1  C   UNL     1      -4.194   7.734  31.921  1.00  0.00     0.052 C 
ENDROOT
BRANCH   1   2
ATOM      2  C   UNL     1      -5.482   8.223  31.338  1.00  0.00     0.041 C 
ATOM      3  O   UNL     1      -6.125   9.147  31.904  1.00  0.00    -0.550 OA
ATOM      4  O   UNL     1      -5.950   7.692  30.142  1.00  0.00    -0.550 OA
ENDBRANCH   1   2
BRANCH   1   5
ATOM      5  C   UNL     1      -4.299   6.250  32.281  1.00  0.00     0.003 C 
ATOM      6  C   UNL     1      -5.539   5.973  33.124  1.00  0.00     0.004 C 
ENDBRANCH   1   5
TORSDOF 2
ENDMDL
MODEL 2
REMARK VINA RESULT:    -2.193      2.098      3.009
REMARK INTER + INTRA:          -2.482
REMARK INTER:                  -2.410
REMARK INTRA:                  -0.071
REMARK UNBOUND:                -0.032
REMARK SMILES CCCC(=O)[O-]
REMARK SMILES IDX 3 1 4 2 5 3 6 4 2 5 1 6
REMARK H PARENT
REMARK Flexibility Score: inf
ROOT
ATOM      1  C   UNL     1      -4.726   8.172  32.334  1.00  0.00     0.052 C 
ENDROOT
BRANCH   1   2
ATOM      2  C   UNL     1      -4.660   6.685  32.479  1.00  0.00     0.041 C 
ATOM      3  O   UNL     1      -3.653   6.051  32.064  1.00  0.00    -0.550 OA
ATOM      4  O   UNL     1      -5.688   6.001  33.117  1.00  0.00    -0.550 OA
ENDBRANCH   1   2
BRANCH   1   5
ATOM      5  C   UNL     1      -6.012   8.583  31.612  1.00  0.00     0.003 C 
ATOM      6  C   UNL     1      -6.053   8.017  30.196  1.00  0.00     0.004 C 
ENDBRANCH   1   5
TORSDOF 2
ENDMDL
MODEL 3
REMARK VINA RESULT:    -1.893      2.113      2.890
REMARK INTER + INTRA:          -2.147
REMARK INTER:                  -2.170
REMARK INTRA:                   0.023
REMARK UNBOUND:                -0.032
REMARK SMILES CCCC(=O)[O-]
REMARK SMILES IDX 3 1 4 2 5 3 6 4 2 5 1 6
REMARK H PARENT
REMARK Flexibility Score: inf
ROOT
ATOM      1  C   UNL     1      -5.653   7.721  31.157  1.00  0.00     0.052 C 
ENDROOT
BRANCH   1   2
ATOM      2  C   UNL     1      -5.172   6.584  32.001  1.00  0.00     0.041 C 
ATOM      3  O   UNL     1      -3.947   6.288  32.027  1.00  0.00    -0.550 OA
ATOM      4  O   UNL     1      -6.066   5.880  32.797  1.00  0.00    -0.550 OA
ENDBRANCH   1   2
BRANCH   1   5
ATOM      5  C   UNL     1      -6.122   8.881  32.038  1.00  0.00     0.003 C 
ATOM      6  C   UNL     1      -5.099   9.195  33.125  1.00  0.00     0.004 C 
ENDBRANCH   1   5
TORSDOF 2
ENDMDL
MODEL 4
REMARK VINA RESULT:    -1.192      1.822      2.378
REMARK INTER + INTRA:          -1.364
REMARK INTER:                  -1.478
REMARK INTRA:                   0.114
REMARK UNBOUND:                -0.032
REMARK SMILES CCCC(=O)[O-]
REMARK SMILES IDX 3 1 4 2 5 3 6 4 2 5 1 6
REMARK H PARENT
REMARK Flexibility Score: inf
ROOT
ATOM      1  C   UNL     1      -4.668   6.423  32.323  1.00  0.00     0.052 C 
ENDROOT
BRANCH   1   2
ATOM      2  C   UNL     1      -3.937   7.725  32.240  1.00  0.00     0.041 C 
ATOM      3  O   UNL     1      -4.119   8.612  33.118  1.00  0.00    -0.550 OA
ATOM      4  O   UNL     1      -3.017   7.944  31.222  1.00  0.00    -0.550 OA
ENDBRANCH   1   2
BRANCH   1   5
ATOM      5  C   UNL     1      -6.089   6.572  31.774  1.00  0.00     0.003 C 
ATOM      6  C   UNL     1      -6.122   7.518  30.579  1.00  0.00     0.004 C 
ENDBRANCH   1   5
TORSDOF 2
ENDMDL
MODEL 5
REMARK VINA RESULT:    -1.113      1.894      2.236
REMARK INTER + INTRA:          -1.275
REMARK INTER:                  -1.248
REMARK INTRA:                  -0.027
REMARK UNBOUND:                -0.032
REMARK SMILES CCCC(=O)[O-]
REMARK SMILES IDX 3 1 4 2 5 3 6 4 2 5 1 6
REMARK H PARENT
REMARK Flexibility Score: inf
ROOT
ATOM      1  C   UNL     1      -5.955   8.635  31.381  1.00  0.00     0.052 C 
ENDROOT
BRANCH   1   2
ATOM      2  C   UNL     1      -6.049   7.694  30.221  1.00  0.00     0.041 C 
ATOM      3  O   UNL     1      -6.125   6.452  30.418  1.00  0.00    -0.550 OA
ATOM      4  O   UNL     1      -6.101   8.190  28.925  1.00  0.00    -0.550 OA
ENDBRANCH   1   2
BRANCH   1   5
ATOM      5  C   UNL     1      -5.395   7.915  32.610  1.00  0.00     0.003 C 
ATOM      6  C   UNL     1      -4.055   8.510  33.033  1.00  0.00     0.004 C 
ENDBRANCH   1   5
TORSDOF 2
ENDMDL
MODEL 6
REMARK VINA RESULT:     0.579     16.436     17.213
REMARK INTER + INTRA:           0.614
REMARK INTER:                   0.627
REMARK INTRA:                  -0.012
REMARK UNBOUND:                -0.032
REMARK SMILES CCCC(=O)[O-]
REMARK SMILES IDX 3 1 4 2 5 3 6 4 2 5 1 6
REMARK H PARENT
REMARK Flexibility Score: inf
ROOT
ATOM      1  C   UNL     1       7.357  18.169  33.125  1.00  0.00     0.052 C 
ENDROOT
BRANCH   1   2
ATOM      2  C   UNL     1       8.297  17.101  32.661  1.00  0.00     0.041 C 
ATOM      3  O   UNL     1       9.300  17.400  31.960  1.00  0.00    -0.550 OA
ATOM      4  O   UNL     1       8.093  15.781  33.044  1.00  0.00    -0.550 OA
ENDBRANCH   1   2
BRANCH   1   5
ATOM      5  C   UNL     1       7.771  19.529  32.556  1.00  0.00     0.003 C 
ATOM      6  C   UNL     1       6.726  20.596  32.867  1.00  0.00     0.004 C 
ENDBRANCH   1   5
TORSDOF 2
ENDMDL
