MODEL 1
REMARK VINA RESULT:    -4.336      0.000      0.000
REMARK INTER + INTRA:          -5.977
REMARK INTER:                  -5.350
REMARK INTRA:                  -0.627
REMARK UNBOUND:                -0.627
REMARK SMILES CC(C)=CCC[C@H](C)c1ccc(C)cc1
REMARK SMILES IDX 6 1 7 2 8 3 9 4 13 5 12 6 11 7 14 8 10 9 15 10 5 11 4 12
REMARK SMILES IDX 2 13 1 14 3 15
REMARK H PARENT
REMARK Flexibility Score: inf
ROOT
ATOM      1  C   UNL     1      -0.844   3.886  13.878  1.00  0.00     0.012 C 
ENDROOT
BRANCH   1   2
ATOM      2  C   UNL     1      -1.521   3.633  15.248  1.00  0.00     0.016 C 
ATOM      3  C   UNL     1      -0.646   2.727  16.124  1.00  0.00     0.013 C 
BRANCH   2   4
ATOM      4  C   UNL     1      -2.911   3.035  15.108  1.00  0.00    -0.045 A 
ATOM      5  C   UNL     1      -6.843   1.311  14.635  1.00  0.00     0.044 C 
ATOM      6  C   UNL     1      -5.469   1.896  14.788  1.00  0.00    -0.051 A 
ATOM      7  C   UNL     1      -5.019   2.883  13.901  1.00  0.00     0.004 A 
ATOM      8  C   UNL     1      -4.651   1.506  15.857  1.00  0.00     0.004 A 
ATOM      9  C   UNL     1      -3.750   3.447  14.058  1.00  0.00     0.004 A 
ATOM     10  C   UNL     1      -3.382   2.068  16.016  1.00  0.00     0.004 A 
ENDBRANCH   2   4
ENDBRANCH   1   2
BRANCH   1  11
ATOM     11  C   UNL     1       0.677   4.120  13.967  1.00  0.00     0.028 C 
BRANCH  11  12
ATOM     12  C   UNL     1       1.430   3.639  12.751  1.00  0.00    -0.028 C 
ATOM     13  C   UNL     1       2.296   2.601  12.735  1.00  0.00    -0.080 C 
ATOM     14  C   UNL     1       2.652   1.829  13.984  1.00  0.00     0.039 C 
ATOM     15  C   UNL     1       2.945   2.233  11.426  1.00  0.00     0.039 C 
ENDBRANCH  11  12
ENDBRANCH   1  11
TORSDOF 4
ENDMDL
MODEL 2
REMARK VINA RESULT:    -4.274      2.046      6.930
REMARK INTER + INTRA:          -5.900
REMARK INTER:                  -5.231
REMARK INTRA:                  -0.669
REMARK UNBOUND:                -0.627
REMARK SMILES CC(C)=CCC[C@H](C)c1ccc(C)cc1
REMARK SMILES IDX 6 1 7 2 8 3 9 4 13 5 12 6 11 7 14 8 10 9 15 10 5 11 4 12
REMARK SMILES IDX 2 13 1 14 3 15
REMARK H PARENT
REMARK Flexibility Score: inf
ROOT
ATOM      1  C   UNL     1      -5.234   0.806  15.860  1.00  0.00     0.012 C 
ENDROOT
BRANCH   1   2
ATOM      2  C   UNL     1      -5.313   2.149  15.091  1.00  0.00     0.016 C 
ATOM      3  C   UNL     1      -6.070   1.971  13.769  1.00  0.00     0.013 C 
BRANCH   2   4
ATOM      4  C   UNL     1      -3.943   2.750  14.830  1.00  0.00    -0.045 A 
ATOM      5  C   UNL     1      -0.078   4.532  14.090  1.00  0.00     0.044 C 
ATOM      6  C   UNL     1      -1.426   3.929  14.359  1.00  0.00    -0.051 A 
ATOM      7  C   UNL     1      -2.490   4.155  13.475  1.00  0.00     0.004 A 
ATOM      8  C   UNL     1      -1.614   3.081  15.458  1.00  0.00     0.004 A 
ATOM      9  C   UNL     1      -3.738   3.573  13.709  1.00  0.00     0.004 A 
ATOM     10  C   UNL     1      -2.861   2.498  15.696  1.00  0.00     0.004 A 
ENDBRANCH   2   4
ENDBRANCH   1   2
BRANCH   1  11
ATOM     11  C   UNL     1      -6.567   0.033  15.902  1.00  0.00     0.028 C 
BRANCH  11  12
ATOM     12  C   UNL     1      -6.432  -1.417  15.501  1.00  0.00    -0.028 C 
ATOM     13  C   UNL     1      -7.044  -1.989  14.441  1.00  0.00    -0.080 C 
ATOM     14  C   UNL     1      -8.000  -1.226  13.554  1.00  0.00     0.039 C 
ATOM     15  C   UNL     1      -6.779  -3.446  14.165  1.00  0.00     0.039 C 
ENDBRANCH  11  12
ENDBRANCH   1  11
TORSDOF 4
ENDMDL
MODEL 3
REMARK VINA RESULT:    -4.252      1.623      6.764
REMARK INTER + INTRA:          -5.874
REMARK INTER:                  -5.207
REMARK INTRA:                  -0.667
REMARK UNBOUND:                -0.627
REMARK SMILES CC(C)=CCC[C@H](C)c1ccc(C)cc1
REMARK SMILES IDX 6 1 7 2 8 3 9 4 13 5 12 6 11 7 14 8 10 9 15 10 5 11 4 12
REMARK SMILES IDX 2 13 1 14 3 15
REMARK H PARENT
REMARK Flexibility Score: inf
ROOT
ATOM      1  C   UNL     1      -4.450   1.585  15.843  1.00  0.00     0.012 C 
ENDROOT
BRANCH   1   2
ATOM      2  C   UNL     1      -4.081   2.942  15.192  1.00  0.00     0.016 C 
ATOM      3  C   UNL     1      -4.721   3.069  13.804  1.00  0.00     0.013 C 
BRANCH   2   4
ATOM      4  C   UNL     1      -2.579   3.148  15.094  1.00  0.00    -0.045 A 
ATOM      5  C   UNL     1       1.702   3.656  14.812  1.00  0.00     0.044 C 
ATOM      6  C   UNL     1       0.216   3.462  14.899  1.00  0.00    -0.051 A 
ATOM      7  C   UNL     1      -0.343   2.761  15.975  1.00  0.00     0.004 A 
ATOM      8  C   UNL     1      -0.628   4.038  13.939  1.00  0.00     0.004 A 
ATOM      9  C   UNL     1      -1.729   2.603  16.071  1.00  0.00     0.004 A 
ATOM     10  C   UNL     1      -2.013   3.881  14.033  1.00  0.00     0.004 A 
ENDBRANCH   2   4
ENDBRANCH   1   2
BRANCH   1  11
ATOM     11  C   UNL     1      -5.941   1.216  15.710  1.00  0.00     0.028 C 
BRANCH  11  12
ATOM     12  C   UNL     1      -6.170  -0.230  15.340  1.00  0.00    -0.028 C 
ATOM     13  C   UNL     1      -6.723  -0.656  14.183  1.00  0.00    -0.080 C 
ATOM     14  C   UNL     1      -7.233   0.302  13.132  1.00  0.00     0.039 C 
ATOM     15  C   UNL     1      -6.855  -2.140  13.959  1.00  0.00     0.039 C 
ENDBRANCH  11  12
ENDBRANCH   1  11
TORSDOF 4
ENDMDL
MODEL 4
REMARK VINA RESULT:    -4.250      2.665      7.296
REMARK INTER + INTRA:          -5.871
REMARK INTER:                  -4.859
REMARK INTRA:                  -1.012
REMARK UNBOUND:                -0.627
REMARK SMILES CC(C)=CCC[C@H](C)c1ccc(C)cc1
REMARK SMILES IDX 6 1 7 2 8 3 9 4 13 5 12 6 11 7 14 8 10 9 15 10 5 11 4 12
REMARK SMILES IDX 2 13 1 14 3 15
REMARK H PARENT
REMARK Flexibility Score: inf
ROOT
ATOM      1  C   UNL     1      -6.860   0.274  13.764  1.00  0.00     0.012 C 
ENDROOT
BRANCH   1   2
ATOM      2  C   UNL     1      -6.407   0.931  15.093  1.00  0.00     0.016 C 
ATOM      3  C   UNL     1      -7.549   1.750  15.708  1.00  0.00     0.013 C 
BRANCH   2   4
ATOM      4  C   UNL     1      -5.175   1.803  14.919  1.00  0.00    -0.045 A 
ATOM      5  C   UNL     1      -1.628   4.216  14.420  1.00  0.00     0.044 C 
ATOM      6  C   UNL     1      -2.852   3.363  14.581  1.00  0.00    -0.051 A 
ATOM      7  C   UNL     1      -2.949   2.462  15.650  1.00  0.00     0.004 A 
ATOM      8  C   UNL     1      -3.935   3.510  13.704  1.00  0.00     0.004 A 
ATOM      9  C   UNL     1      -4.100   1.686  15.817  1.00  0.00     0.004 A 
ATOM     10  C   UNL     1      -5.086   2.735  13.868  1.00  0.00     0.004 A 
ENDBRANCH   2   4
ENDBRANCH   1   2
BRANCH   1  11
ATOM     11  C   UNL     1      -8.331   0.554  13.400  1.00  0.00     0.028 C 
BRANCH  11  12
ATOM     12  C   UNL     1      -8.520   1.005  11.971  1.00  0.00    -0.028 C 
ATOM     13  C   UNL     1      -8.561   2.292  11.563  1.00  0.00    -0.080 C 
ATOM     14  C   UNL     1      -8.477   3.449  12.532  1.00  0.00     0.039 C 
ATOM     15  C   UNL     1      -8.729   2.569  10.091  1.00  0.00     0.039 C 
ENDBRANCH  11  12
ENDBRANCH   1  11
TORSDOF 4
ENDMDL
MODEL 5
REMARK VINA RESULT:    -4.245      2.121      6.999
REMARK INTER + INTRA:          -5.865
REMARK INTER:                  -5.152
REMARK INTRA:                  -0.713
REMARK UNBOUND:                -0.627
REMARK SMILES CC(C)=CCC[C@H](C)c1ccc(C)cc1
REMARK SMILES IDX 6 1 7 2 8 3 9 4 13 5 12 6 11 7 14 8 10 9 15 10 5 11 4 12
REMARK SMILES IDX 2 13 1 14 3 15
REMARK H PARENT
REMARK Flexibility Score: inf
ROOT
ATOM      1  C   UNL     1      -6.552   2.337  13.491  1.00  0.00     0.012 C 
ENDROOT
BRANCH   1   2
ATOM      2  C   UNL     1      -5.778   2.125  14.817  1.00  0.00     0.016 C 
ATOM      3  C   UNL     1      -6.523   2.777  15.989  1.00  0.00     0.013 C 
BRANCH   2   4
ATOM      4  C   UNL     1      -4.355   2.651  14.748  1.00  0.00    -0.045 A 
ATOM      5  C   UNL     1      -0.280   4.072  14.552  1.00  0.00     0.044 C 
ATOM      6  C   UNL     1      -1.690   3.563  14.609  1.00  0.00    -0.051 A 
ATOM      7  C   UNL     1      -2.103   2.742  15.668  1.00  0.00     0.004 A 
ATOM      8  C   UNL     1      -2.623   3.956  13.640  1.00  0.00     0.004 A 
ATOM      9  C   UNL     1      -3.423   2.288  15.736  1.00  0.00     0.004 A 
ATOM     10  C   UNL     1      -3.943   3.504  13.706  1.00  0.00     0.004 A 
ENDBRANCH   2   4
ENDBRANCH   1   2
BRANCH   1  11
ATOM     11  C   UNL     1      -7.202   1.054  12.937  1.00  0.00     0.028 C 
BRANCH  11  12
ATOM     12  C   UNL     1      -6.721  -0.204  13.619  1.00  0.00    -0.028 C 
ATOM     13  C   UNL     1      -7.431  -1.349  13.725  1.00  0.00    -0.080 C 
ATOM     14  C   UNL     1      -8.844  -1.473  13.205  1.00  0.00     0.039 C 
ATOM     15  C   UNL     1      -6.790  -2.526  14.415  1.00  0.00     0.039 C 
ENDBRANCH  11  12
ENDBRANCH   1  11
TORSDOF 4
ENDMDL
MODEL 6
REMARK VINA RESULT:    -4.189      1.185      2.222
REMARK INTER + INTRA:          -5.795
REMARK INTER:                  -5.098
REMARK INTRA:                  -0.698
REMARK UNBOUND:                -0.627
REMARK SMILES CC(C)=CCC[C@H](C)c1ccc(C)cc1
REMARK SMILES IDX 6 1 7 2 8 3 9 4 13 5 12 6 11 7 14 8 10 9 15 10 5 11 4 12
REMARK SMILES IDX 2 13 1 14 3 15
REMARK H PARENT
REMARK Flexibility Score: inf
ROOT
ATOM      1  C   UNL     1       1.256   4.181  13.262  1.00  0.00     0.012 C 
ENDROOT
BRANCH   1   2
ATOM      2  C   UNL     1       0.754   3.918  14.704  1.00  0.00     0.016 C 
ATOM      3  C   UNL     1       1.547   2.777  15.354  1.00  0.00     0.013 C 
BRANCH   2   4
ATOM      4  C   UNL     1      -0.733   3.612  14.755  1.00  0.00    -0.045 A 
ATOM      5  C   UNL     1      -4.957   2.711  14.825  1.00  0.00     0.044 C 
ATOM      6  C   UNL     1      -3.487   3.008  14.789  1.00  0.00    -0.051 A 
ATOM      7  C   UNL     1      -2.960   3.850  13.800  1.00  0.00     0.004 A 
ATOM      8  C   UNL     1      -2.639   2.498  15.782  1.00  0.00     0.004 A 
ATOM      9  C   UNL     1      -1.594   4.148  13.781  1.00  0.00     0.004 A 
ATOM     10  C   UNL     1      -1.274   2.794  15.765  1.00  0.00     0.004 A 
ENDBRANCH   2   4
ENDBRANCH   1   2
BRANCH   1  11
ATOM     11  C   UNL     1       1.505   2.897  12.446  1.00  0.00     0.028 C 
BRANCH  11  12
ATOM     12  C   UNL     1       2.526   3.074  11.347  1.00  0.00    -0.028 C 
ATOM     13  C   UNL     1       3.802   2.633  11.395  1.00  0.00    -0.080 C 
ATOM     14  C   UNL     1       4.372   1.944  12.613  1.00  0.00     0.039 C 
ATOM     15  C   UNL     1       4.684   2.868  10.197  1.00  0.00     0.039 C 
ENDBRANCH  11  12
ENDBRANCH   1  11
TORSDOF 4
ENDMDL
MODEL 7
REMARK VINA RESULT:    -4.189      9.028     12.443
REMARK INTER + INTRA:          -5.795
REMARK INTER:                  -5.252
REMARK INTRA:                  -0.543
REMARK UNBOUND:                -0.627
REMARK SMILES CC(C)=CCC[C@H](C)c1ccc(C)cc1
REMARK SMILES IDX 6 1 7 2 8 3 9 4 13 5 12 6 11 7 14 8 10 9 15 10 5 11 4 12
REMARK SMILES IDX 2 13 1 14 3 15
REMARK H PARENT
REMARK Flexibility Score: inf
ROOT
ATOM      1  C   UNL     1     -11.644   2.214   7.264  1.00  0.00     0.012 C 
ENDROOT
BRANCH   1   2
ATOM      2  C   UNL     1     -11.010   1.960   5.873  1.00  0.00     0.016 C 
ATOM      3  C   UNL     1     -11.927   2.480   4.758  1.00  0.00     0.013 C 
BRANCH   2   4
ATOM      4  C   UNL     1     -10.689   0.494   5.641  1.00  0.00    -0.045 A 
ATOM      5  C   UNL     1      -9.716  -3.671   5.034  1.00  0.00     0.044 C 
ATOM      6  C   UNL     1     -10.048  -2.226   5.264  1.00  0.00    -0.051 A 
ATOM      7  C   UNL     1      -9.086  -1.234   5.031  1.00  0.00     0.004 A 
ATOM      8  C   UNL     1     -11.342  -1.852   5.650  1.00  0.00     0.004 A 
ATOM      9  C   UNL     1      -9.402   0.115   5.220  1.00  0.00     0.004 A 
ATOM     10  C   UNL     1     -11.661  -0.505   5.840  1.00  0.00     0.004 A 
ENDBRANCH   2   4
ENDBRANCH   1   2
BRANCH   1  11
ATOM     11  C   UNL     1     -10.816   3.153   8.163  1.00  0.00     0.028 C 
BRANCH  11  12
ATOM     12  C   UNL     1     -10.132   2.441   9.305  1.00  0.00    -0.028 C 
ATOM     13  C   UNL     1      -9.204   2.992  10.119  1.00  0.00    -0.080 C 
ATOM     14  C   UNL     1      -8.701   4.404   9.928  1.00  0.00     0.039 C 
ATOM     15  C   UNL     1      -8.639   2.149  11.232  1.00  0.00     0.039 C 
ENDBRANCH  11  12
ENDBRANCH   1  11
TORSDOF 4
ENDMDL
MODEL 8
REMARK VINA RESULT:    -4.185     10.788     13.675
REMARK INTER + INTRA:          -5.791
REMARK INTER:                  -5.065
REMARK INTRA:                  -0.726
REMARK UNBOUND:                -0.627
REMARK SMILES CC(C)=CCC[C@H](C)c1ccc(C)cc1
REMARK SMILES IDX 6 1 7 2 8 3 9 4 13 5 12 6 11 7 14 8 10 9 15 10 5 11 4 12
REMARK SMILES IDX 2 13 1 14 3 15
REMARK H PARENT
REMARK Flexibility Score: inf
ROOT
ATOM      1  C   UNL     1     -10.747   0.496   4.518  1.00  0.00     0.012 C 
ENDROOT
BRANCH   1   2
ATOM      2  C   UNL     1      -9.800  -0.426   5.327  1.00  0.00     0.016 C 
ATOM      3  C   UNL     1      -8.386  -0.405   4.732  1.00  0.00     0.013 C 
BRANCH   2   4
ATOM      4  C   UNL     1     -10.309  -1.855   5.408  1.00  0.00    -0.045 A 
ATOM      5  C   UNL     1     -11.702  -5.933   5.694  1.00  0.00     0.044 C 
ATOM      6  C   UNL     1     -11.213  -4.517   5.614  1.00  0.00    -0.051 A 
ATOM      7  C   UNL     1      -9.881  -4.247   5.273  1.00  0.00     0.004 A 
ATOM      8  C   UNL     1     -12.101  -3.452   5.816  1.00  0.00     0.004 A 
ATOM      9  C   UNL     1      -9.431  -2.928   5.173  1.00  0.00     0.004 A 
ATOM     10  C   UNL     1     -11.654  -2.132   5.716  1.00  0.00     0.004 A 
ENDBRANCH   2   4
ENDBRANCH   1   2
BRANCH   1  11
ATOM     11  C   UNL     1     -11.467   1.555   5.375  1.00  0.00     0.028 C 
BRANCH  11  12
ATOM     12  C   UNL     1     -10.887   1.700   6.762  1.00  0.00    -0.028 C 
ATOM     13  C   UNL     1     -10.980   2.808   7.529  1.00  0.00    -0.080 C 
ATOM     14  C   UNL     1     -11.646   4.074   7.041  1.00  0.00     0.039 C 
ATOM     15  C   UNL     1     -10.368   2.777   8.905  1.00  0.00     0.039 C 
ENDBRANCH  11  12
ENDBRANCH   1  11
TORSDOF 4
ENDMDL
MODEL 9
REMARK VINA RESULT:    -4.062      2.554      6.111
REMARK INTER + INTRA:          -5.639
REMARK INTER:                  -4.666
REMARK INTRA:                  -0.973
REMARK UNBOUND:                -0.627
REMARK SMILES CC(C)=CCC[C@H](C)c1ccc(C)cc1
REMARK SMILES IDX 6 1 7 2 8 3 9 4 13 5 12 6 11 7 14 8 10 9 15 10 5 11 4 12
REMARK SMILES IDX 2 13 1 14 3 15
REMARK H PARENT
REMARK Flexibility Score: inf
ROOT
ATOM      1  C   UNL     1      -6.661   4.109  14.323  1.00  0.00     0.012 C 
ENDROOT
BRANCH   1   2
ATOM      2  C   UNL     1      -5.714   3.127  13.588  1.00  0.00     0.016 C 
ATOM      3  C   UNL     1      -6.309   1.714  13.566  1.00  0.00     0.013 C 
BRANCH   2   4
ATOM      4  C   UNL     1      -4.322   3.096  14.198  1.00  0.00    -0.045 A 
ATOM      5  C   UNL     1      -0.370   3.087  15.941  1.00  0.00     0.044 C 
ATOM      6  C   UNL     1      -1.748   3.106  15.347  1.00  0.00    -0.051 A 
ATOM      7  C   UNL     1      -2.004   3.837  14.179  1.00  0.00     0.004 A 
ATOM      8  C   UNL     1      -2.773   2.340  15.918  1.00  0.00     0.004 A 
ATOM      9  C   UNL     1      -3.281   3.834  13.610  1.00  0.00     0.004 A 
ATOM     10  C   UNL     1      -4.051   2.336  15.352  1.00  0.00     0.004 A 
ENDBRANCH   2   4
ENDBRANCH   1   2
BRANCH   1  11
ATOM     11  C   UNL     1      -6.391   5.592  14.003  1.00  0.00     0.028 C 
BRANCH  11  12
ATOM     12  C   UNL     1      -6.616   5.942  12.551  1.00  0.00    -0.028 C 
ATOM     13  C   UNL     1      -5.707   6.536  11.746  1.00  0.00    -0.080 C 
ATOM     14  C   UNL     1      -4.350   6.973  12.248  1.00  0.00     0.039 C 
ATOM     15  C   UNL     1      -6.084   6.791  10.310  1.00  0.00     0.039 C 
ENDBRANCH  11  12
ENDBRANCH   1  11
TORSDOF 4
ENDMDL
