MODEL 1
REMARK VINA RESULT:    -5.165      0.000      0.000
REMARK INTER + INTRA:          -5.718
REMARK INTER:                  -5.467
REMARK INTRA:                  -0.251
REMARK UNBOUND:                -0.251
REMARK SMILES C=C(C)[C@H]1CC[C@]2(C)CCCC(=C)[C@@H]2C1
REMARK SMILES IDX 4 1 5 2 6 3 7 4 9 5 10 6 11 7 12 8 13 9 14 10 15 11 8 12
REMARK SMILES IDX 2 13 3 14 1 15
REMARK H PARENT
REMARK Flexibility Score: inf
ROOT
ATOM      1  C   UNL     1      29.788  27.458  12.038  1.00  0.00     0.015 C 
ATOM      2  C   UNL     1      28.363  27.155  11.531  1.00  0.00     0.008 C 
ATOM      3  C   UNL     1      27.780  25.951  12.278  1.00  0.00     0.008 C 
ATOM      4  C   UNL     1      28.594  24.630  12.038  1.00  0.00    -0.026 C 
ATOM      5  C   UNL     1      28.634  23.835  13.378  1.00  0.00     0.008 C 
ATOM      6  C   UNL     1      29.516  22.582  13.321  1.00  0.00     0.005 C 
ATOM      7  C   UNL     1      30.953  22.938  12.946  1.00  0.00     0.031 C 
ATOM      8  C   UNL     1      30.982  23.747  11.673  1.00  0.00    -0.074 C 
ATOM      9  C   UNL     1      31.927  23.507  10.748  1.00  0.00     0.008 C 
ATOM     10  C   UNL     1      30.049  24.938  11.523  1.00  0.00     0.021 C 
ATOM     11  C   UNL     1      30.658  26.181  12.208  1.00  0.00     0.016 C 
ATOM     12  C   UNL     1      27.855  23.797  10.960  1.00  0.00     0.012 C 
ENDROOT
BRANCH   1  13
ATOM     13  C   UNL     1      30.463  28.500  11.153  1.00  0.00    -0.077 C 
ATOM     14  C   UNL     1      31.405  28.096  10.049  1.00  0.00     0.039 C 
ATOM     15  C   UNL     1      30.211  29.807  11.335  1.00  0.00     0.008 C 
ENDBRANCH   1  13
TORSDOF 1
ENDMDL
MODEL 2
REMARK VINA RESULT:    -5.097      1.571      5.401
REMARK INTER + INTRA:          -5.646
REMARK INTER:                  -5.411
REMARK INTRA:                  -0.235
REMARK UNBOUND:                -0.251
REMARK SMILES C=C(C)[C@H]1CC[C@]2(C)CCCC(=C)[C@@H]2C1
REMARK SMILES IDX 4 1 5 2 6 3 7 4 9 5 10 6 11 7 12 8 13 9 14 10 15 11 8 12
REMARK SMILES IDX 2 13 3 14 1 15
REMARK H PARENT
REMARK Flexibility Score: inf
ROOT
ATOM      1  C   UNL     1      31.025  22.666  14.117  1.00  0.00     0.015 C 
ATOM      2  C   UNL     1      32.125  22.874  13.055  1.00  0.00     0.008 C 
ATOM      3  C   UNL     1      32.121  24.325  12.566  1.00  0.00     0.008 C 
ATOM      4  C   UNL     1      30.780  24.728  11.857  1.00  0.00    -0.026 C 
ATOM      5  C   UNL     1      30.440  26.196  12.259  1.00  0.00     0.008 C 
ATOM      6  C   UNL     1      29.078  26.674  11.742  1.00  0.00     0.005 C 
ATOM      7  C   UNL     1      27.951  25.776  12.250  1.00  0.00     0.031 C 
ATOM      8  C   UNL     1      28.239  24.332  11.928  1.00  0.00    -0.074 C 
ATOM      9  C   UNL     1      27.248  23.529  11.503  1.00  0.00     0.008 C 
ATOM     10  C   UNL     1      29.608  23.753  12.248  1.00  0.00     0.021 C 
ATOM     11  C   UNL     1      29.673  23.329  13.732  1.00  0.00     0.016 C 
ATOM     12  C   UNL     1      30.999  24.646  10.325  1.00  0.00     0.012 C 
ENDROOT
BRANCH   1  13
ATOM     13  C   UNL     1      30.866  21.185  14.444  1.00  0.00    -0.077 C 
ATOM     14  C   UNL     1      31.709  20.524  15.503  1.00  0.00     0.039 C 
ATOM     15  C   UNL     1      29.949  20.445  13.799  1.00  0.00     0.008 C 
ENDBRANCH   1  13
TORSDOF 1
ENDMDL
MODEL 3
REMARK VINA RESULT:    -4.086      1.340      3.027
REMARK INTER + INTRA:          -4.575
REMARK INTER:                  -4.347
REMARK INTRA:                  -0.228
REMARK UNBOUND:                -0.251
REMARK SMILES C=C(C)[C@H]1CC[C@]2(C)CCCC(=C)[C@@H]2C1
REMARK SMILES IDX 4 1 5 2 6 3 7 4 9 5 10 6 11 7 12 8 13 9 14 10 15 11 8 12
REMARK SMILES IDX 2 13 3 14 1 15
REMARK H PARENT
REMARK Flexibility Score: inf
ROOT
ATOM      1  C   UNL     1      29.925  27.224  11.196  1.00  0.00     0.015 C 
ATOM      2  C   UNL     1      31.278  27.401  11.915  1.00  0.00     0.008 C 
ATOM      3  C   UNL     1      32.125  26.133  11.770  1.00  0.00     0.008 C 
ATOM      4  C   UNL     1      31.463  24.875  12.438  1.00  0.00    -0.026 C 
ATOM      5  C   UNL     1      31.743  23.640  11.528  1.00  0.00     0.008 C 
ATOM      6  C   UNL     1      31.034  22.363  11.995  1.00  0.00     0.005 C 
ATOM      7  C   UNL     1      29.522  22.565  12.058  1.00  0.00     0.031 C 
ATOM      8  C   UNL     1      29.184  23.774  12.893  1.00  0.00    -0.074 C 
ATOM      9  C   UNL     1      28.142  23.733  13.742  1.00  0.00     0.008 C 
ATOM     10  C   UNL     1      29.917  25.083  12.644  1.00  0.00     0.021 C 
ATOM     11  C   UNL     1      29.267  25.841  11.467  1.00  0.00     0.016 C 
ATOM     12  C   UNL     1      32.122  24.661  13.824  1.00  0.00     0.012 C 
ENDROOT
BRANCH   1  13
ATOM     13  C   UNL     1      28.986  28.380  11.522  1.00  0.00    -0.077 C 
ATOM     14  C   UNL     1      29.520  29.751  11.848  1.00  0.00     0.039 C 
ATOM     15  C   UNL     1      27.656  28.196  11.506  1.00  0.00     0.008 C 
ENDBRANCH   1  13
TORSDOF 1
ENDMDL
MODEL 4
REMARK VINA RESULT:    -4.074      1.351      4.806
REMARK INTER + INTRA:          -4.563
REMARK INTER:                  -4.316
REMARK INTRA:                  -0.247
REMARK UNBOUND:                -0.251
REMARK SMILES C=C(C)[C@H]1CC[C@]2(C)CCCC(=C)[C@@H]2C1
REMARK SMILES IDX 4 1 5 2 6 3 7 4 9 5 10 6 11 7 12 8 13 9 14 10 15 11 8 12
REMARK SMILES IDX 2 13 3 14 1 15
REMARK H PARENT
REMARK Flexibility Score: inf
ROOT
ATOM      1  C   UNL     1      30.517  23.195  12.387  1.00  0.00     0.015 C 
ATOM      2  C   UNL     1      29.005  23.499  12.357  1.00  0.00     0.008 C 
ATOM      3  C   UNL     1      28.699  24.563  11.298  1.00  0.00     0.008 C 
ATOM      4  C   UNL     1      29.392  25.940  11.597  1.00  0.00    -0.026 C 
ATOM      5  C   UNL     1      29.869  26.547  10.242  1.00  0.00     0.008 C 
ATOM      6  C   UNL     1      30.685  27.835  10.402  1.00  0.00     0.005 C 
ATOM      7  C   UNL     1      31.920  27.599  11.269  1.00  0.00     0.031 C 
ATOM      8  C   UNL     1      31.531  26.972  12.584  1.00  0.00    -0.074 C 
ATOM      9  C   UNL     1      32.122  27.377  13.721  1.00  0.00     0.008 C 
ATOM     10  C   UNL     1      30.599  25.771  12.593  1.00  0.00     0.021 C 
ATOM     11  C   UNL     1      31.397  24.476  12.327  1.00  0.00     0.016 C 
ATOM     12  C   UNL     1      28.343  26.877  12.247  1.00  0.00     0.012 C 
ENDROOT
BRANCH   1  13
ATOM     13  C   UNL     1      30.865  22.314  13.581  1.00  0.00    -0.077 C 
ATOM     14  C   UNL     1      30.250  20.949  13.751  1.00  0.00     0.039 C 
ATOM     15  C   UNL     1      31.748  22.739  14.500  1.00  0.00     0.008 C 
ENDBRANCH   1  13
TORSDOF 1
ENDMDL
MODEL 5
REMARK VINA RESULT:    -3.827      1.318      5.145
REMARK INTER + INTRA:          -4.302
REMARK INTER:                  -4.056
REMARK INTRA:                  -0.246
REMARK UNBOUND:                -0.251
REMARK SMILES C=C(C)[C@H]1CC[C@]2(C)CCCC(=C)[C@@H]2C1
REMARK SMILES IDX 4 1 5 2 6 3 7 4 9 5 10 6 11 7 12 8 13 9 14 10 15 11 8 12
REMARK SMILES IDX 2 13 3 14 1 15
REMARK H PARENT
REMARK Flexibility Score: inf
ROOT
ATOM      1  C   UNL     1      30.411  24.399  12.978  1.00  0.00     0.015 C 
ATOM      2  C   UNL     1      31.292  24.211  11.726  1.00  0.00     0.008 C 
ATOM      3  C   UNL     1      32.124  25.472  11.470  1.00  0.00     0.008 C 
ATOM      4  C   UNL     1      31.242  26.736  11.169  1.00  0.00    -0.026 C 
ATOM      5  C   UNL     1      31.911  27.968  11.852  1.00  0.00     0.008 C 
ATOM      6  C   UNL     1      31.078  29.252  11.751  1.00  0.00     0.005 C 
ATOM      7  C   UNL     1      29.698  29.062  12.378  1.00  0.00     0.031 C 
ATOM      8  C   UNL     1      29.010  27.857  11.788  1.00  0.00    -0.074 C 
ATOM      9  C   UNL     1      27.699  27.907  11.500  1.00  0.00     0.008 C 
ATOM     10  C   UNL     1      29.767  26.542  11.683  1.00  0.00     0.021 C 
ATOM     11  C   UNL     1      29.713  25.788  13.029  1.00  0.00     0.016 C 
ATOM     12  C   UNL     1      31.206  26.947   9.635  1.00  0.00     0.012 C 
ENDROOT
BRANCH   1  13
ATOM     13  C   UNL     1      29.417  23.251  13.113  1.00  0.00    -0.077 C 
ATOM     14  C   UNL     1      29.882  21.843  13.382  1.00  0.00     0.039 C 
ATOM     15  C   UNL     1      28.098  23.484  13.014  1.00  0.00     0.008 C 
ENDBRANCH   1  13
TORSDOF 1
ENDMDL
MODEL 6
REMARK VINA RESULT:    -3.318      1.477      4.653
REMARK INTER + INTRA:          -3.763
REMARK INTER:                  -3.509
REMARK INTRA:                  -0.254
REMARK UNBOUND:                -0.251
REMARK SMILES C=C(C)[C@H]1CC[C@]2(C)CCCC(=C)[C@@H]2C1
REMARK SMILES IDX 4 1 5 2 6 3 7 4 9 5 10 6 11 7 12 8 13 9 14 10 15 11 8 12
REMARK SMILES IDX 2 13 3 14 1 15
REMARK H PARENT
REMARK Flexibility Score: inf
ROOT
ATOM      1  C   UNL     1      27.991  25.140  11.545  1.00  0.00     0.015 C 
ATOM      2  C   UNL     1      27.159  26.349  12.021  1.00  0.00     0.008 C 
ATOM      3  C   UNL     1      27.704  27.642  11.405  1.00  0.00     0.008 C 
ATOM      4  C   UNL     1      29.178  27.955  11.846  1.00  0.00    -0.026 C 
ATOM      5  C   UNL     1      29.935  28.549  10.619  1.00  0.00     0.008 C 
ATOM      6  C   UNL     1      31.430  28.776  10.873  1.00  0.00     0.005 C 
ATOM      7  C   UNL     1      32.124  27.473  11.267  1.00  0.00     0.031 C 
ATOM      8  C   UNL     1      31.414  26.824  12.428  1.00  0.00    -0.074 C 
ATOM      9  C   UNL     1      32.125  26.259  13.418  1.00  0.00     0.008 C 
ATOM     10  C   UNL     1      29.902  26.665  12.384  1.00  0.00     0.021 C 
ATOM     11  C   UNL     1      29.523  25.405  11.577  1.00  0.00     0.016 C 
ATOM     12  C   UNL     1      29.129  29.005  12.985  1.00  0.00     0.012 C 
ENDROOT
BRANCH   1  13
ATOM     13  C   UNL     1      27.608  23.885  12.322  1.00  0.00    -0.077 C 
ATOM     14  C   UNL     1      28.544  23.276  13.333  1.00  0.00     0.039 C 
ATOM     15  C   UNL     1      26.410  23.310  12.128  1.00  0.00     0.008 C 
ENDBRANCH   1  13
TORSDOF 1
ENDMDL
MODEL 7
REMARK VINA RESULT:    -3.106      1.328      4.995
REMARK INTER + INTRA:          -3.539
REMARK INTER:                  -3.303
REMARK INTRA:                  -0.236
REMARK UNBOUND:                -0.251
REMARK SMILES C=C(C)[C@H]1CC[C@]2(C)CCCC(=C)[C@@H]2C1
REMARK SMILES IDX 4 1 5 2 6 3 7 4 9 5 10 6 11 7 12 8 13 9 14 10 15 11 8 12
REMARK SMILES IDX 2 13 3 14 1 15
REMARK H PARENT
REMARK Flexibility Score: inf
ROOT
ATOM      1  C   UNL     1      29.067  24.468  12.708  1.00  0.00     0.015 C 
ATOM      2  C   UNL     1      30.069  23.843  11.715  1.00  0.00     0.008 C 
ATOM      3  C   UNL     1      31.380  24.637  11.715  1.00  0.00     0.008 C 
ATOM      4  C   UNL     1      31.196  26.121  11.239  1.00  0.00    -0.026 C 
ATOM      5  C   UNL     1      32.125  27.027  12.105  1.00  0.00     0.008 C 
ATOM      6  C   UNL     1      31.944  28.525  11.836  1.00  0.00     0.005 C 
ATOM      7  C   UNL     1      30.501  28.959  12.087  1.00  0.00     0.031 C 
ATOM      8  C   UNL     1      29.545  28.093  11.306  1.00  0.00    -0.074 C 
ATOM      9  C   UNL     1      28.482  28.646  10.697  1.00  0.00     0.008 C 
ATOM     10  C   UNL     1      29.695  26.580  11.357  1.00  0.00     0.021 C 
ATOM     11  C   UNL     1      29.011  26.019  12.622  1.00  0.00     0.016 C 
ATOM     12  C   UNL     1      31.624  26.209   9.752  1.00  0.00     0.012 C 
ENDROOT
BRANCH   1  13
ATOM     13  C   UNL     1      27.690  23.834  12.553  1.00  0.00    -0.077 C 
ATOM     14  C   UNL     1      26.899  23.380  13.752  1.00  0.00     0.039 C 
ATOM     15  C   UNL     1      27.147  23.686  11.333  1.00  0.00     0.008 C 
ENDBRANCH   1  13
TORSDOF 1
ENDMDL
