MODEL 1
REMARK VINA RESULT:    -4.459      0.000      0.000
REMARK INTER + INTRA:          -5.239
REMARK INTER:                  -5.241
REMARK INTRA:                   0.002
REMARK UNBOUND:                 0.002
REMARK SMILES COc1cc2ccc(=O)oc2c(OC)c1OC
REMARK SMILES IDX 3 1 15 2 12 3 11 4 5 5 4 6 6 7 7 8 8 9 9 10 10 11 2 12 1 13
REMARK SMILES IDX 16 14 17 15 13 16 14 17
REMARK H PARENT
REMARK Flexibility Score: inf
ROOT
ATOM      1  C   UNL     1     -34.127  11.936 -39.223  1.00  0.00     0.165 A 
ATOM      2  C   UNL     1     -33.402  10.713 -39.287  1.00  0.00     0.207 A 
ATOM      3  C   UNL     1     -32.776  10.211 -38.111  1.00  0.00     0.208 A 
ATOM      4  C   UNL     1     -32.880  10.923 -36.909  1.00  0.00     0.184 A 
ATOM      5  C   UNL     1     -33.598  12.131 -36.854  1.00  0.00     0.025 A 
ATOM      6  C   UNL     1     -34.214  12.630 -38.001  1.00  0.00     0.062 A 
ATOM      7  C   UNL     1     -33.677  12.811 -35.632  1.00  0.00     0.020 A 
ATOM      8  C   UNL     1     -33.047  12.278 -34.510  1.00  0.00     0.094 A 
ATOM      9  C   UNL     1     -32.350  11.073 -34.636  1.00  0.00     0.336 A 
ATOM     10  O   UNL     1     -31.773  10.573 -33.636  1.00  0.00    -0.246 OA
ATOM     11  O   UNL     1     -32.292  10.450 -35.809  1.00  0.00    -0.419 OA
ENDROOT
BRANCH   1  12
ATOM     12  O   UNL     1     -34.750  12.444 -40.374  1.00  0.00    -0.493 OA
ATOM     13  C   UNL     1     -35.874  11.862 -41.027  1.00  0.00     0.278 C 
ENDBRANCH   1  12
BRANCH   2  14
ATOM     14  O   UNL     1     -33.277   9.970 -40.477  1.00  0.00    -0.490 OA
ATOM     15  C   UNL     1     -34.082   8.876 -40.902  1.00  0.00     0.278 C 
ENDBRANCH   2  14
BRANCH   3  16
ATOM     16  O   UNL     1     -32.036   9.012 -38.064  1.00  0.00    -0.490 OA
ATOM     17  C   UNL     1     -30.621   8.875 -38.121  1.00  0.00     0.278 C 
ENDBRANCH   3  16
TORSDOF 3
ENDMDL
MODEL 2
REMARK VINA RESULT:    -4.044      2.065      3.040
REMARK INTER + INTRA:          -4.751
REMARK INTER:                  -4.516
REMARK INTRA:                  -0.235
REMARK UNBOUND:                 0.002
REMARK SMILES COc1cc2ccc(=O)oc2c(OC)c1OC
REMARK SMILES IDX 3 1 15 2 12 3 11 4 5 5 4 6 6 7 7 8 8 9 9 10 10 11 2 12 1 13
REMARK SMILES IDX 16 14 17 15 13 16 14 17
REMARK H PARENT
REMARK Flexibility Score: inf
ROOT
ATOM      1  C   UNL     1     -35.829  11.120 -41.130  1.00  0.00     0.165 A 
ATOM      2  C   UNL     1     -34.938  10.067 -41.484  1.00  0.00     0.207 A 
ATOM      3  C   UNL     1     -33.740   9.887 -40.737  1.00  0.00     0.208 A 
ATOM      4  C   UNL     1     -33.451  10.744 -39.667  1.00  0.00     0.184 A 
ATOM      5  C   UNL     1     -34.335  11.782 -39.323  1.00  0.00     0.025 A 
ATOM      6  C   UNL     1     -35.511  11.965 -40.049  1.00  0.00     0.062 A 
ATOM      7  C   UNL     1     -34.008  12.615 -38.247  1.00  0.00     0.020 A 
ATOM      8  C   UNL     1     -32.823  12.397 -37.548  1.00  0.00     0.094 A 
ATOM      9  C   UNL     1     -31.989  11.347 -37.943  1.00  0.00     0.336 A 
ATOM     10  O   UNL     1     -30.914  11.131 -37.327  1.00  0.00    -0.246 OA
ATOM     11  O   UNL     1     -32.327  10.572 -38.970  1.00  0.00    -0.419 OA
ENDROOT
BRANCH   1  12
ATOM     12  O   UNL     1     -37.015  11.311 -41.856  1.00  0.00    -0.493 OA
ATOM     13  C   UNL     1     -38.277  10.734 -41.537  1.00  0.00     0.278 C 
ENDBRANCH   1  12
BRANCH   2  14
ATOM     14  O   UNL     1     -35.196   9.187 -42.552  1.00  0.00    -0.490 OA
ATOM     15  C   UNL     1     -35.151   9.480 -43.944  1.00  0.00     0.278 C 
ENDBRANCH   2  14
BRANCH   3  16
ATOM     16  O   UNL     1     -32.792   8.878 -41.002  1.00  0.00    -0.490 OA
ATOM     17  C   UNL     1     -31.807   8.875 -42.030  1.00  0.00     0.278 C 
ENDBRANCH   3  16
TORSDOF 3
ENDMDL
MODEL 3
REMARK VINA RESULT:    -3.665      1.098      4.777
REMARK INTER + INTRA:          -4.306
REMARK INTER:                  -4.165
REMARK INTRA:                  -0.141
REMARK UNBOUND:                 0.002
REMARK SMILES COc1cc2ccc(=O)oc2c(OC)c1OC
REMARK SMILES IDX 3 1 15 2 12 3 11 4 5 5 4 6 6 7 7 8 8 9 9 10 10 11 2 12 1 13
REMARK SMILES IDX 16 14 17 15 13 16 14 17
REMARK H PARENT
REMARK Flexibility Score: inf
ROOT
ATOM      1  C   UNL     1     -33.388  12.232 -36.696  1.00  0.00     0.165 A 
ATOM      2  C   UNL     1     -32.625  11.033 -36.774  1.00  0.00     0.207 A 
ATOM      3  C   UNL     1     -32.720  10.220 -37.938  1.00  0.00     0.208 A 
ATOM      4  C   UNL     1     -33.560  10.607 -38.991  1.00  0.00     0.184 A 
ATOM      5  C   UNL     1     -34.312  11.792 -38.906  1.00  0.00     0.025 A 
ATOM      6  C   UNL     1     -34.224  12.594 -37.769  1.00  0.00     0.062 A 
ATOM      7  C   UNL     1     -35.139  12.141 -39.981  1.00  0.00     0.020 A 
ATOM      8  C   UNL     1     -35.197  11.311 -41.098  1.00  0.00     0.094 A 
ATOM      9  C   UNL     1     -34.424  10.147 -41.115  1.00  0.00     0.336 A 
ATOM     10  O   UNL     1     -34.460   9.383 -42.114  1.00  0.00    -0.246 OA
ATOM     11  O   UNL     1     -33.647   9.842 -40.080  1.00  0.00    -0.419 OA
ENDROOT
BRANCH   1  12
ATOM     12  O   UNL     1     -33.305  13.045 -35.554  1.00  0.00    -0.493 OA
ATOM     13  C   UNL     1     -33.963  12.796 -34.317  1.00  0.00     0.278 C 
ENDBRANCH   1  12
BRANCH   2  14
ATOM     14  O   UNL     1     -31.770  10.614 -35.736  1.00  0.00    -0.490 OA
ATOM     15  C   UNL     1     -32.123   9.886 -34.565  1.00  0.00     0.278 C 
ENDBRANCH   2  14
BRANCH   3  16
ATOM     16  O   UNL     1     -32.008   9.016 -38.118  1.00  0.00    -0.490 OA
ATOM     17  C   UNL     1     -30.648   8.875 -38.512  1.00  0.00     0.278 C 
ENDBRANCH   3  16
TORSDOF 3
ENDMDL
MODEL 4
REMARK VINA RESULT:    -3.641      1.873      5.329
REMARK INTER + INTRA:          -4.278
REMARK INTER:                  -4.349
REMARK INTRA:                   0.071
REMARK UNBOUND:                 0.002
REMARK SMILES COc1cc2ccc(=O)oc2c(OC)c1OC
REMARK SMILES IDX 3 1 15 2 12 3 11 4 5 5 4 6 6 7 7 8 8 9 9 10 10 11 2 12 1 13
REMARK SMILES IDX 16 14 17 15 13 16 14 17
REMARK H PARENT
REMARK Flexibility Score: inf
ROOT
ATOM      1  C   UNL     1     -33.726  11.806 -38.542  1.00  0.00     0.165 A 
ATOM      2  C   UNL     1     -32.868  10.740 -38.935  1.00  0.00     0.207 A 
ATOM      3  C   UNL     1     -33.210   9.953 -40.071  1.00  0.00     0.208 A 
ATOM      4  C   UNL     1     -34.382  10.235 -40.787  1.00  0.00     0.184 A 
ATOM      5  C   UNL     1     -35.224  11.290 -40.392  1.00  0.00     0.025 A 
ATOM      6  C   UNL     1     -34.896  12.066 -39.281  1.00  0.00     0.062 A 
ATOM      7  C   UNL     1     -36.384  11.537 -41.135  1.00  0.00     0.020 A 
ATOM      8  C   UNL     1     -36.674  10.738 -42.238  1.00  0.00     0.094 A 
ATOM      9  C   UNL     1     -35.794   9.706 -42.575  1.00  0.00     0.336 A 
ATOM     10  O   UNL     1     -36.035   8.972 -43.567  1.00  0.00    -0.246 OA
ATOM     11  O   UNL     1     -34.699   9.495 -41.850  1.00  0.00    -0.419 OA
ENDROOT
BRANCH   1  12
ATOM     12  O   UNL     1     -33.402  12.592 -37.425  1.00  0.00    -0.493 OA
ATOM     13  C   UNL     1     -33.391  12.139 -36.075  1.00  0.00     0.278 C 
ENDBRANCH   1  12
BRANCH   2  14
ATOM     14  O   UNL     1     -31.684  10.428 -38.241  1.00  0.00    -0.490 OA
ATOM     15  C   UNL     1     -31.402   9.248 -37.497  1.00  0.00     0.278 C 
ENDBRANCH   2  14
BRANCH   3  16
ATOM     16  O   UNL     1     -32.433   8.877 -40.546  1.00  0.00    -0.490 OA
ATOM     17  C   UNL     1     -31.571   8.876 -41.678  1.00  0.00     0.278 C 
ENDBRANCH   3  16
TORSDOF 3
ENDMDL
MODEL 5
REMARK VINA RESULT:    -3.126      1.497      3.204
REMARK INTER + INTRA:          -3.672
REMARK INTER:                  -3.850
REMARK INTRA:                   0.178
REMARK UNBOUND:                 0.002
REMARK SMILES COc1cc2ccc(=O)oc2c(OC)c1OC
REMARK SMILES IDX 3 1 15 2 12 3 11 4 5 5 4 6 6 7 7 8 8 9 9 10 10 11 2 12 1 13
REMARK SMILES IDX 16 14 17 15 13 16 14 17
REMARK H PARENT
REMARK Flexibility Score: inf
ROOT
ATOM      1  C   UNL     1     -33.029   9.496 -39.694  1.00  0.00     0.165 A 
ATOM      2  C   UNL     1     -33.664  10.758 -39.517  1.00  0.00     0.207 A 
ATOM      3  C   UNL     1     -33.643  11.373 -38.234  1.00  0.00     0.208 A 
ATOM      4  C   UNL     1     -33.002  10.734 -37.164  1.00  0.00     0.184 A 
ATOM      5  C   UNL     1     -32.378   9.487 -37.348  1.00  0.00     0.025 A 
ATOM      6  C   UNL     1     -32.393   8.877 -38.601  1.00  0.00     0.062 A 
ATOM      7  C   UNL     1     -31.748   8.883 -36.253  1.00  0.00     0.020 A 
ATOM      8  C   UNL     1     -31.756   9.527 -35.018  1.00  0.00     0.094 A 
ATOM      9  C   UNL     1     -32.395  10.765 -34.905  1.00  0.00     0.336 A 
ATOM     10  O   UNL     1     -32.415  11.365 -33.800  1.00  0.00    -0.246 OA
ATOM     11  O   UNL     1     -32.985  11.314 -35.964  1.00  0.00    -0.419 OA
ENDROOT
BRANCH   1  12
ATOM     12  O   UNL     1     -33.040   8.875 -40.954  1.00  0.00    -0.493 OA
ATOM     13  C   UNL     1     -31.999   8.957 -41.921  1.00  0.00     0.278 C 
ENDBRANCH   1  12
BRANCH   2  14
ATOM     14  O   UNL     1     -34.317  11.430 -40.568  1.00  0.00    -0.490 OA
ATOM     15  C   UNL     1     -35.593  11.133 -41.123  1.00  0.00     0.278 C 
ENDBRANCH   2  14
BRANCH   3  16
ATOM     16  O   UNL     1     -34.238  12.619 -37.949  1.00  0.00    -0.490 OA
ATOM     17  C   UNL     1     -34.339  13.740 -38.820  1.00  0.00     0.278 C 
ENDBRANCH   3  16
TORSDOF 3
ENDMDL
MODEL 6
REMARK VINA RESULT:    -2.014      1.599      5.911
REMARK INTER + INTRA:          -2.365
REMARK INTER:                  -2.689
REMARK INTRA:                   0.324
REMARK UNBOUND:                 0.002
REMARK SMILES COc1cc2ccc(=O)oc2c(OC)c1OC
REMARK SMILES IDX 3 1 15 2 12 3 11 4 5 5 4 6 6 7 7 8 8 9 9 10 10 11 2 12 1 13
REMARK SMILES IDX 16 14 17 15 13 16 14 17
REMARK H PARENT
REMARK Flexibility Score: inf
ROOT
ATOM      1  C   UNL     1     -32.272   9.632 -38.424  1.00  0.00     0.165 A 
ATOM      2  C   UNL     1     -32.942  10.839 -38.077  1.00  0.00     0.207 A 
ATOM      3  C   UNL     1     -33.922  11.370 -38.962  1.00  0.00     0.208 A 
ATOM      4  C   UNL     1     -34.216  10.702 -40.159  1.00  0.00     0.184 A 
ATOM      5  C   UNL     1     -33.549   9.510 -40.494  1.00  0.00     0.025 A 
ATOM      6  C   UNL     1     -32.587   8.983 -39.633  1.00  0.00     0.062 A 
ATOM      7  C   UNL     1     -33.872   8.876 -41.699  1.00  0.00     0.020 A 
ATOM      8  C   UNL     1     -34.839   9.436 -42.531  1.00  0.00     0.094 A 
ATOM      9  C   UNL     1     -35.463  10.623 -42.136  1.00  0.00     0.336 A 
ATOM     10  O   UNL     1     -36.339  11.147 -42.871  1.00  0.00    -0.246 OA
ATOM     11  O   UNL     1     -35.135  11.203 -40.985  1.00  0.00    -0.419 OA
ENDROOT
BRANCH   1  12
ATOM     12  O   UNL     1     -31.302   9.095 -37.562  1.00  0.00    -0.493 OA
ATOM     13  C   UNL     1     -31.440   8.959 -36.151  1.00  0.00     0.278 C 
ENDBRANCH   1  12
BRANCH   2  14
ATOM     14  O   UNL     1     -32.674  11.536 -36.884  1.00  0.00    -0.490 OA
ATOM     15  C   UNL     1     -33.598  11.883 -35.858  1.00  0.00     0.278 C 
ENDBRANCH   2  14
BRANCH   3  16
ATOM     16  O   UNL     1     -34.644  12.556 -38.716  1.00  0.00    -0.490 OA
ATOM     17  C   UNL     1     -34.263  13.881 -39.068  1.00  0.00     0.278 C 
ENDBRANCH   3  16
TORSDOF 3
ENDMDL
MODEL 7
REMARK VINA RESULT:    -1.896      1.549      5.574
REMARK INTER + INTRA:          -2.226
REMARK INTER:                  -3.960
REMARK INTRA:                   1.734
REMARK UNBOUND:                 0.002
REMARK SMILES COc1cc2ccc(=O)oc2c(OC)c1OC
REMARK SMILES IDX 3 1 15 2 12 3 11 4 5 5 4 6 6 7 7 8 8 9 9 10 10 11 2 12 1 13
REMARK SMILES IDX 16 14 17 15 13 16 14 17
REMARK H PARENT
REMARK Flexibility Score: inf
ROOT
ATOM      1  C   UNL     1     -32.199  11.033 -35.061  1.00  0.00     0.165 A 
ATOM      2  C   UNL     1     -33.103  11.967 -35.641  1.00  0.00     0.207 A 
ATOM      3  C   UNL     1     -33.418  11.864 -37.026  1.00  0.00     0.208 A 
ATOM      4  C   UNL     1     -32.838  10.849 -37.799  1.00  0.00     0.184 A 
ATOM      5  C   UNL     1     -31.946   9.931 -37.218  1.00  0.00     0.025 A 
ATOM      6  C   UNL     1     -31.631  10.024 -35.863  1.00  0.00     0.062 A 
ATOM      7  C   UNL     1     -31.389   8.932 -38.027  1.00  0.00     0.020 A 
ATOM      8  C   UNL     1     -31.730   8.875 -39.376  1.00  0.00     0.094 A 
ATOM      9  C   UNL     1     -32.623   9.820 -39.888  1.00  0.00     0.336 A 
ATOM     10  O   UNL     1     -32.946   9.787 -41.103  1.00  0.00    -0.246 OA
ATOM     11  O   UNL     1     -33.136  10.757 -39.095  1.00  0.00    -0.419 OA
ENDROOT
BRANCH   1  12
ATOM     12  O   UNL     1     -31.878  11.120 -33.697  1.00  0.00    -0.493 OA
ATOM     13  C   UNL     1     -31.401  12.288 -33.037  1.00  0.00     0.278 C 
ENDBRANCH   1  12
BRANCH   2  14
ATOM     14  O   UNL     1     -33.705  12.998 -34.896  1.00  0.00    -0.490 OA
ATOM     15  C   UNL     1     -34.351  12.888 -33.632  1.00  0.00     0.278 C 
ENDBRANCH   2  14
BRANCH   3  16
ATOM     16  O   UNL     1     -34.300  12.735 -37.699  1.00  0.00    -0.490 OA
ATOM     17  C   UNL     1     -34.367  12.971 -39.100  1.00  0.00     0.278 C 
ENDBRANCH   3  16
TORSDOF 3
ENDMDL
