MODEL 1
REMARK VINA RESULT:    -4.387      0.000      0.000
REMARK INTER + INTRA:          -5.096
REMARK INTER:                  -4.900
REMARK INTRA:                  -0.197
REMARK UNBOUND:                -0.197
REMARK SMILES O=C([O-])c1ccccc1C(=O)[O-]
REMARK SMILES IDX 4 1 9 2 5 3 8 4 6 5 7 6 2 7 1 8 3 9 10 10 11 11 12 12
REMARK H PARENT
REMARK Flexibility Score: inf
ROOT
ATOM      1  C   UNL     1      13.120  21.848 -25.850  1.00  0.00     0.006 A 
ATOM      2  C   UNL     1      12.853  20.610 -25.200  1.00  0.00     0.006 A 
ATOM      3  C   UNL     1      12.926  21.946 -27.240  1.00  0.00     0.010 A 
ATOM      4  C   UNL     1      12.463  19.502 -25.974  1.00  0.00     0.010 A 
ATOM      5  C   UNL     1      12.518  20.839 -27.985  1.00  0.00     0.001 A 
ATOM      6  C   UNL     1      12.299  19.617 -27.354  1.00  0.00     0.001 A 
ENDROOT
BRANCH   1   7
ATOM      7  C   UNL     1      13.664  23.030 -25.141  1.00  0.00     0.072 C 
ATOM      8  O   UNL     1      14.888  23.318 -25.217  1.00  0.00    -0.545 OA
ATOM      9  O   UNL     1      12.814  23.872 -24.436  1.00  0.00    -0.545 OA
ENDBRANCH   1   7
BRANCH   2  10
ATOM     10  C   UNL     1      12.894  20.454 -23.727  1.00  0.00     0.072 C 
ATOM     11  O   UNL     1      13.827  19.802 -23.186  1.00  0.00    -0.545 OA
ATOM     12  O   UNL     1      11.878  20.967 -22.931  1.00  0.00    -0.545 OA
ENDBRANCH   2  10
TORSDOF 2
ENDMDL
MODEL 2
REMARK VINA RESULT:    -4.329      0.109      3.025
REMARK INTER + INTRA:          -5.031
REMARK INTER:                  -4.842
REMARK INTRA:                  -0.189
REMARK UNBOUND:                -0.197
REMARK SMILES O=C([O-])c1ccccc1C(=O)[O-]
REMARK SMILES IDX 4 1 9 2 5 3 8 4 6 5 7 6 2 7 1 8 3 9 10 10 11 11 12 12
REMARK H PARENT
REMARK Flexibility Score: inf
ROOT
ATOM      1  C   UNL     1      12.875  20.599 -25.166  1.00  0.00     0.006 A 
ATOM      2  C   UNL     1      13.129  21.820 -25.854  1.00  0.00     0.006 A 
ATOM      3  C   UNL     1      12.485  19.467 -25.905  1.00  0.00     0.010 A 
ATOM      4  C   UNL     1      12.922  21.877 -27.244  1.00  0.00     0.010 A 
ATOM      5  C   UNL     1      12.307  19.541 -27.286  1.00  0.00     0.001 A 
ATOM      6  C   UNL     1      12.513  20.747 -27.953  1.00  0.00     0.001 A 
ENDROOT
BRANCH   1   7
ATOM      7  C   UNL     1      12.933  20.479 -23.691  1.00  0.00     0.072 C 
ATOM      8  O   UNL     1      13.904  19.906 -23.129  1.00  0.00    -0.545 OA
ATOM      9  O   UNL     1      11.944  21.058 -22.905  1.00  0.00    -0.545 OA
ENDBRANCH   1   7
BRANCH   2  10
ATOM     10  C   UNL     1      13.677  23.020 -25.179  1.00  0.00     0.072 C 
ATOM     11  O   UNL     1      12.900  23.847 -24.631  1.00  0.00    -0.545 OA
ATOM     12  O   UNL     1      15.040  23.283 -25.196  1.00  0.00    -0.545 OA
ENDBRANCH   2  10
TORSDOF 2
ENDMDL
MODEL 3
REMARK VINA RESULT:    -4.110      2.516      3.402
REMARK INTER + INTRA:          -4.788
REMARK INTER:                  -4.599
REMARK INTRA:                  -0.188
REMARK UNBOUND:                -0.197
REMARK SMILES O=C([O-])c1ccccc1C(=O)[O-]
REMARK SMILES IDX 4 1 9 2 5 3 8 4 6 5 7 6 2 7 1 8 3 9 10 10 11 11 12 12
REMARK H PARENT
REMARK Flexibility Score: inf
ROOT
ATOM      1  C   UNL     1      12.821  22.561 -22.604  1.00  0.00     0.006 A 
ATOM      2  C   UNL     1      12.992  21.263 -23.161  1.00  0.00     0.006 A 
ATOM      3  C   UNL     1      12.625  23.655 -23.466  1.00  0.00     0.010 A 
ATOM      4  C   UNL     1      13.022  21.117 -24.560  1.00  0.00     0.010 A 
ATOM      5  C   UNL     1      12.638  23.484 -24.851  1.00  0.00     0.001 A 
ATOM      6  C   UNL     1      12.848  22.220 -25.396  1.00  0.00     0.001 A 
ENDROOT
BRANCH   1   7
ATOM      7  C   UNL     1      12.911  22.832 -21.150  1.00  0.00     0.072 C 
ATOM      8  O   UNL     1      11.875  22.855 -20.434  1.00  0.00    -0.545 OA
ATOM      9  O   UNL     1      14.152  22.998 -20.547  1.00  0.00    -0.545 OA
ENDBRANCH   1   7
BRANCH   2  10
ATOM     10  C   UNL     1      13.064  20.038 -22.330  1.00  0.00     0.072 C 
ATOM     11  O   UNL     1      14.125  19.358 -22.295  1.00  0.00    -0.545 OA
ATOM     12  O   UNL     1      11.951  19.588 -21.631  1.00  0.00    -0.545 OA
ENDBRANCH   2  10
TORSDOF 2
ENDMDL
MODEL 4
REMARK VINA RESULT:    -4.067      4.398      6.663
REMARK INTER + INTRA:          -4.739
REMARK INTER:                  -4.539
REMARK INTRA:                  -0.200
REMARK UNBOUND:                -0.197
REMARK SMILES O=C([O-])c1ccccc1C(=O)[O-]
REMARK SMILES IDX 4 1 9 2 5 3 8 4 6 5 7 6 2 7 1 8 3 9 10 10 11 11 12 12
REMARK H PARENT
REMARK Flexibility Score: inf
ROOT
ATOM      1  C   UNL     1      13.957  20.042 -20.283  1.00  0.00     0.006 A 
ATOM      2  C   UNL     1      14.016  21.164 -19.409  1.00  0.00     0.006 A 
ATOM      3  C   UNL     1      14.731  18.905 -19.989  1.00  0.00     0.010 A 
ATOM      4  C   UNL     1      14.894  21.129 -18.310  1.00  0.00     0.010 A 
ATOM      5  C   UNL     1      15.578  18.884 -18.881  1.00  0.00     0.001 A 
ATOM      6  C   UNL     1      15.669  19.998 -18.051  1.00  0.00     0.001 A 
ENDROOT
BRANCH   1   7
ATOM      7  C   UNL     1      13.167  20.039 -21.537  1.00  0.00     0.072 C 
ATOM      8  O   UNL     1      11.961  19.678 -21.537  1.00  0.00    -0.545 OA
ATOM      9  O   UNL     1      13.735  20.499 -22.719  1.00  0.00    -0.545 OA
ENDBRANCH   1   7
BRANCH   2  10
ATOM     10  C   UNL     1      13.134  22.345 -19.562  1.00  0.00     0.072 C 
ATOM     11  O   UNL     1      12.093  22.453 -18.860  1.00  0.00    -0.545 OA
ATOM     12  O   UNL     1      13.407  23.314 -20.520  1.00  0.00    -0.545 OA
ENDBRANCH   2  10
TORSDOF 2
ENDMDL
MODEL 5
REMARK VINA RESULT:    -4.062      5.163      7.048
REMARK INTER + INTRA:          -4.733
REMARK INTER:                  -4.616
REMARK INTRA:                  -0.117
REMARK UNBOUND:                -0.197
REMARK SMILES O=C([O-])c1ccccc1C(=O)[O-]
REMARK SMILES IDX 4 1 9 2 5 3 8 4 6 5 7 6 2 7 1 8 3 9 10 10 11 11 12 12
REMARK H PARENT
REMARK Flexibility Score: inf
ROOT
ATOM      1  C   UNL     1      14.447  20.857 -18.911  1.00  0.00     0.006 A 
ATOM      2  C   UNL     1      14.548  19.641 -19.644  1.00  0.00     0.006 A 
ATOM      3  C   UNL     1      15.361  21.106 -17.871  1.00  0.00     0.010 A 
ATOM      4  C   UNL     1      15.519  18.694 -19.267  1.00  0.00     0.010 A 
ATOM      5  C   UNL     1      16.329  20.162 -17.529  1.00  0.00     0.001 A 
ATOM      6  C   UNL     1      16.400  18.954 -18.217  1.00  0.00     0.001 A 
ENDROOT
BRANCH   1   7
ATOM      7  C   UNL     1      13.373  21.851 -19.144  1.00  0.00     0.072 C 
ATOM      8  O   UNL     1      12.275  21.767 -18.534  1.00  0.00    -0.545 OA
ATOM      9  O   UNL     1      13.594  22.929 -19.993  1.00  0.00    -0.545 OA
ENDBRANCH   1   7
BRANCH   2  10
ATOM     10  C   UNL     1      13.721  19.356 -20.840  1.00  0.00     0.072 C 
ATOM     11  O   UNL     1      13.014  18.314 -20.887  1.00  0.00    -0.545 OA
ATOM     12  O   UNL     1      13.764  20.193 -21.947  1.00  0.00    -0.545 OA
ENDBRANCH   2  10
TORSDOF 2
ENDMDL
MODEL 6
REMARK VINA RESULT:    -3.913     22.103     23.311
REMARK INTER + INTRA:          -4.568
REMARK INTER:                  -4.391
REMARK INTRA:                  -0.176
REMARK UNBOUND:                -0.197
REMARK SMILES O=C([O-])c1ccccc1C(=O)[O-]
REMARK SMILES IDX 4 1 9 2 5 3 8 4 6 5 7 6 2 7 1 8 3 9 10 10 11 11 12 12
REMARK H PARENT
REMARK Flexibility Score: inf
ROOT
ATOM      1  C   UNL     1      29.356   5.936 -20.821  1.00  0.00     0.006 A 
ATOM      2  C   UNL     1      30.275   6.132 -19.753  1.00  0.00     0.006 A 
ATOM      3  C   UNL     1      29.850   5.619 -22.100  1.00  0.00     0.010 A 
ATOM      4  C   UNL     1      31.656   6.067 -20.017  1.00  0.00     0.010 A 
ATOM      5  C   UNL     1      31.223   5.538 -22.334  1.00  0.00     0.001 A 
ATOM      6  C   UNL     1      32.124   5.773 -21.299  1.00  0.00     0.001 A 
ENDROOT
BRANCH   1   7
ATOM      7  C   UNL     1      27.893   6.119 -20.669  1.00  0.00     0.072 C 
ATOM      8  O   UNL     1      27.122   5.125 -20.619  1.00  0.00    -0.545 OA
ATOM      9  O   UNL     1      27.363   7.394 -20.514  1.00  0.00    -0.545 OA
ENDBRANCH   1   7
BRANCH   2  10
ATOM     10  C   UNL     1      29.842   6.330 -18.349  1.00  0.00     0.072 C 
ATOM     11  O   UNL     1      29.374   5.364 -17.689  1.00  0.00    -0.545 OA
ATOM     12  O   UNL     1      29.884   7.590 -17.765  1.00  0.00    -0.545 OA
ENDBRANCH   2  10
TORSDOF 2
ENDMDL
MODEL 7
REMARK VINA RESULT:    -3.803      3.824      5.263
REMARK INTER + INTRA:          -4.444
REMARK INTER:                  -4.266
REMARK INTRA:                  -0.179
REMARK UNBOUND:                -0.197
REMARK SMILES O=C([O-])c1ccccc1C(=O)[O-]
REMARK SMILES IDX 4 1 9 2 5 3 8 4 6 5 7 6 2 7 1 8 3 9 10 10 11 11 12 12
REMARK H PARENT
REMARK Flexibility Score: inf
ROOT
ATOM      1  C   UNL     1      13.356  20.541 -21.693  1.00  0.00     0.006 A 
ATOM      2  C   UNL     1      12.952  21.622 -20.859  1.00  0.00     0.006 A 
ATOM      3  C   UNL     1      13.448  20.747 -23.082  1.00  0.00     0.010 A 
ATOM      4  C   UNL     1      12.597  22.847 -21.452  1.00  0.00     0.010 A 
ATOM      5  C   UNL     1      13.112  21.977 -23.646  1.00  0.00     0.001 A 
ATOM      6  C   UNL     1      12.675  23.021 -22.834  1.00  0.00     0.001 A 
ENDROOT
BRANCH   1   7
ATOM      7  C   UNL     1      13.617  19.178 -21.175  1.00  0.00     0.072 C 
ATOM      8  O   UNL     1      12.753  18.268 -21.291  1.00  0.00    -0.545 OA
ATOM      9  O   UNL     1      14.850  18.871 -20.613  1.00  0.00    -0.545 OA
ENDBRANCH   1   7
BRANCH   2  10
ATOM     10  C   UNL     1      12.961  21.538 -19.380  1.00  0.00     0.072 C 
ATOM     11  O   UNL     1      11.876  21.553 -18.739  1.00  0.00    -0.545 OA
ATOM     12  O   UNL     1      14.159  21.507 -18.678  1.00  0.00    -0.545 OA
ENDBRANCH   2  10
TORSDOF 2
ENDMDL
