MODEL 1
REMARK VINA RESULT:    -3.032      0.000      0.000
REMARK INTER + INTRA:          -4.340
REMARK INTER:                  -4.096
REMARK INTRA:                  -0.244
REMARK UNBOUND:                -0.244
REMARK SMILES CCCCCCCC(=O)[O-]
REMARK SMILES IDX 5 1 6 2 7 3 8 4 9 5 10 6 4 7 3 8 2 9 1 10
REMARK H PARENT
REMARK Flexibility Score: inf
ROOT
ATOM      1  C   UNL     1      29.587  36.248  43.213  1.00  0.00     0.000 C 
ENDROOT
BRANCH   1   2
ATOM      2  C   UNL     1      29.269  37.752  43.181  1.00  0.00     0.006 C 
BRANCH   2   3
ATOM      3  C   UNL     1      28.346  38.125  42.014  1.00  0.00     0.053 C 
BRANCH   3   4
ATOM      4  C   UNL     1      27.247  37.122  41.835  1.00  0.00     0.041 C 
ATOM      5  O   UNL     1      26.335  37.021  42.698  1.00  0.00    -0.550 OA
ATOM      6  O   UNL     1      27.209  36.326  40.699  1.00  0.00    -0.550 OA
ENDBRANCH   3   4
ENDBRANCH   2   3
ENDBRANCH   1   2
BRANCH   1   7
ATOM      7  C   UNL     1      30.025  35.758  44.605  1.00  0.00     0.000 C 
BRANCH   7   8
ATOM      8  C   UNL     1      29.430  36.544  45.787  1.00  0.00    -0.000 C 
BRANCH   8   9
ATOM      9  C   UNL     1      29.675  35.863  47.142  1.00  0.00    -0.003 C 
ATOM     10  C   UNL     1      30.048  34.394  46.960  1.00  0.00     0.004 C 
ENDBRANCH   8   9
ENDBRANCH   7   8
ENDBRANCH   1   7
TORSDOF 6
ENDMDL
MODEL 2
REMARK VINA RESULT:    -2.778     15.756     17.755
REMARK INTER + INTRA:          -3.996
REMARK INTER:                  -3.737
REMARK INTRA:                  -0.259
REMARK UNBOUND:                -0.244
REMARK SMILES CCCCCCCC(=O)[O-]
REMARK SMILES IDX 5 1 6 2 7 3 8 4 9 5 10 6 4 7 3 8 2 9 1 10
REMARK H PARENT
REMARK Flexibility Score: inf
ROOT
ATOM      1  C   UNL     1      11.209  37.483  39.067  1.00  0.00     0.000 C 
ENDROOT
BRANCH   1   2
ATOM      2  C   UNL     1      10.263  37.402  37.856  1.00  0.00     0.006 C 
BRANCH   2   3
ATOM      3  C   UNL     1      10.991  37.667  36.533  1.00  0.00     0.053 C 
BRANCH   3   4
ATOM      4  C   UNL     1      10.938  36.477  35.624  1.00  0.00     0.041 C 
ATOM      5  O   UNL     1      10.789  35.322  36.101  1.00  0.00    -0.550 OA
ATOM      6  O   UNL     1      11.015  36.648  34.248  1.00  0.00    -0.550 OA
ENDBRANCH   3   4
ENDBRANCH   2   3
ENDBRANCH   1   2
BRANCH   1   7
ATOM      7  C   UNL     1      12.565  38.125  38.726  1.00  0.00     0.000 C 
BRANCH   7   8
ATOM      8  C   UNL     1      13.661  37.933  39.790  1.00  0.00    -0.000 C 
BRANCH   8   9
ATOM      9  C   UNL     1      14.292  36.534  39.754  1.00  0.00    -0.003 C 
ATOM     10  C   UNL     1      15.735  36.568  40.248  1.00  0.00     0.004 C 
ENDBRANCH   8   9
ENDBRANCH   7   8
ENDBRANCH   1   7
TORSDOF 6
ENDMDL
MODEL 3
REMARK VINA RESULT:    -2.722      8.785     10.140
REMARK INTER + INTRA:          -3.921
REMARK INTER:                  -3.500
REMARK INTRA:                  -0.421
REMARK UNBOUND:                -0.244
REMARK SMILES CCCCCCCC(=O)[O-]
REMARK SMILES IDX 5 1 6 2 7 3 8 4 9 5 10 6 4 7 3 8 2 9 1 10
REMARK H PARENT
REMARK Flexibility Score: inf
ROOT
ATOM      1  C   UNL     1      22.583  28.773  48.869  1.00  0.00     0.000 C 
ENDROOT
BRANCH   1   2
ATOM      2  C   UNL     1      23.808  29.418  48.198  1.00  0.00     0.006 C 
BRANCH   2   3
ATOM      3  C   UNL     1      23.423  30.610  47.313  1.00  0.00     0.053 C 
BRANCH   3   4
ATOM      4  C   UNL     1      24.269  30.680  46.078  1.00  0.00     0.041 C 
ATOM      5  O   UNL     1      24.155  29.802  45.183  1.00  0.00    -0.550 OA
ATOM      6  O   UNL     1      25.156  31.733  45.900  1.00  0.00    -0.550 OA
ENDBRANCH   3   4
ENDBRANCH   2   3
ENDBRANCH   1   2
BRANCH   1   7
ATOM      7  C   UNL     1      22.597  28.913  50.402  1.00  0.00     0.000 C 
BRANCH   7   8
ATOM      8  C   UNL     1      21.410  29.695  50.994  1.00  0.00    -0.000 C 
BRANCH   8   9
ATOM      9  C   UNL     1      21.690  31.200  51.123  1.00  0.00    -0.003 C 
ATOM     10  C   UNL     1      20.913  31.996  50.079  1.00  0.00     0.004 C 
ENDBRANCH   8   9
ENDBRANCH   7   8
ENDBRANCH   1   7
TORSDOF 6
ENDMDL
MODEL 4
REMARK VINA RESULT:    -2.711     15.119     17.616
REMARK INTER + INTRA:          -3.907
REMARK INTER:                  -3.662
REMARK INTRA:                  -0.245
REMARK UNBOUND:                -0.244
REMARK SMILES CCCCCCCC(=O)[O-]
REMARK SMILES IDX 5 1 6 2 7 3 8 4 9 5 10 6 4 7 3 8 2 9 1 10
REMARK H PARENT
REMARK Flexibility Score: inf
ROOT
ATOM      1  C   UNL     1      12.369  37.262  38.575  1.00  0.00     0.000 C 
ENDROOT
BRANCH   1   2
ATOM      2  C   UNL     1      13.014  37.270  39.971  1.00  0.00     0.006 C 
BRANCH   2   3
ATOM      3  C   UNL     1      14.405  36.624  39.971  1.00  0.00     0.053 C 
BRANCH   3   4
ATOM      4  C   UNL     1      14.387  35.270  40.612  1.00  0.00     0.041 C 
ATOM      5  O   UNL     1      14.423  35.162  41.866  1.00  0.00    -0.550 OA
ATOM      6  O   UNL     1      14.294  34.129  39.826  1.00  0.00    -0.550 OA
ENDBRANCH   3   4
ENDBRANCH   2   3
ENDBRANCH   1   2
BRANCH   1   7
ATOM      7  C   UNL     1      10.847  37.482  38.616  1.00  0.00     0.000 C 
BRANCH   7   8
ATOM      8  C   UNL     1      10.044  36.665  37.589  1.00  0.00    -0.000 C 
BRANCH   8   9
ATOM      9  C   UNL     1      10.934  35.806  36.679  1.00  0.00    -0.003 C 
ATOM     10  C   UNL     1      10.855  36.276  35.229  1.00  0.00     0.004 C 
ENDBRANCH   8   9
ENDBRANCH   7   8
ENDBRANCH   1   7
TORSDOF 6
ENDMDL
MODEL 5
REMARK VINA RESULT:    -2.693      8.027      9.413
REMARK INTER + INTRA:          -3.882
REMARK INTER:                  -3.618
REMARK INTRA:                  -0.264
REMARK UNBOUND:                -0.244
REMARK SMILES CCCCCCCC(=O)[O-]
REMARK SMILES IDX 5 1 6 2 7 3 8 4 9 5 10 6 4 7 3 8 2 9 1 10
REMARK H PARENT
REMARK Flexibility Score: inf
ROOT
ATOM      1  C   UNL     1      23.839  30.301  46.428  1.00  0.00     0.000 C 
ENDROOT
BRANCH   1   2
ATOM      2  C   UNL     1      23.756  29.749  47.862  1.00  0.00     0.006 C 
BRANCH   2   3
ATOM      3  C   UNL     1      22.308  29.608  48.346  1.00  0.00     0.053 C 
BRANCH   3   4
ATOM      4  C   UNL     1      21.892  30.772  49.193  1.00  0.00     0.041 C 
ATOM      5  O   UNL     1      21.909  30.679  50.449  1.00  0.00    -0.550 OA
ATOM      6  O   UNL     1      21.522  31.970  48.598  1.00  0.00    -0.550 OA
ENDBRANCH   3   4
ENDBRANCH   2   3
ENDBRANCH   1   2
BRANCH   1   7
ATOM      7  C   UNL     1      24.607  31.632  46.342  1.00  0.00     0.000 C 
BRANCH   7   8
ATOM      8  C   UNL     1      25.557  31.757  45.138  1.00  0.00    -0.000 C 
BRANCH   8   9
ATOM      9  C   UNL     1      25.318  30.678  44.072  1.00  0.00    -0.003 C 
ATOM     10  C   UNL     1      26.484  30.606  43.091  1.00  0.00     0.004 C 
ENDBRANCH   8   9
ENDBRANCH   7   8
ENDBRANCH   1   7
TORSDOF 6
ENDMDL
MODEL 6
REMARK VINA RESULT:    -2.684      9.407     11.089
REMARK INTER + INTRA:          -3.869
REMARK INTER:                  -3.430
REMARK INTRA:                  -0.439
REMARK UNBOUND:                -0.244
REMARK SMILES CCCCCCCC(=O)[O-]
REMARK SMILES IDX 5 1 6 2 7 3 8 4 9 5 10 6 4 7 3 8 2 9 1 10
REMARK H PARENT
REMARK Flexibility Score: inf
ROOT
ATOM      1  C   UNL     1      22.670  28.755  50.350  1.00  0.00     0.000 C 
ENDROOT
BRANCH   1   2
ATOM      2  C   UNL     1      21.473  29.519  50.942  1.00  0.00     0.006 C 
BRANCH   2   3
ATOM      3  C   UNL     1      21.690  31.037  50.929  1.00  0.00     0.053 C 
BRANCH   3   4
ATOM      4  C   UNL     1      20.773  31.721  49.962  1.00  0.00     0.041 C 
ATOM      5  O   UNL     1      19.976  31.044  49.259  1.00  0.00    -0.550 OA
ATOM      6  O   UNL     1      20.772  33.106  49.862  1.00  0.00    -0.550 OA
ENDBRANCH   3   4
ENDBRANCH   2   3
ENDBRANCH   1   2
BRANCH   1   7
ATOM      7  C   UNL     1      22.648  28.706  48.813  1.00  0.00     0.000 C 
BRANCH   7   8
ATOM      8  C   UNL     1      23.760  29.515  48.120  1.00  0.00    -0.000 C 
BRANCH   8   9
ATOM      9  C   UNL     1      23.217  30.685  47.287  1.00  0.00    -0.003 C 
ATOM     10  C   UNL     1      24.323  31.328  46.454  1.00  0.00     0.004 C 
ENDBRANCH   8   9
ENDBRANCH   7   8
ENDBRANCH   1   7
TORSDOF 6
ENDMDL
MODEL 7
REMARK VINA RESULT:    -2.679      1.522      2.130
REMARK INTER + INTRA:          -3.863
REMARK INTER:                  -3.559
REMARK INTRA:                  -0.305
REMARK UNBOUND:                -0.244
REMARK SMILES CCCCCCCC(=O)[O-]
REMARK SMILES IDX 5 1 6 2 7 3 8 4 9 5 10 6 4 7 3 8 2 9 1 10
REMARK H PARENT
REMARK Flexibility Score: inf
ROOT
ATOM      1  C   UNL     1      28.992  37.182  42.158  1.00  0.00     0.000 C 
ENDROOT
BRANCH   1   2
ATOM      2  C   UNL     1      27.573  37.076  41.574  1.00  0.00     0.006 C 
BRANCH   2   3
ATOM      3  C   UNL     1      26.618  36.321  42.507  1.00  0.00     0.053 C 
BRANCH   3   4
ATOM      4  C   UNL     1      25.955  35.172  41.809  1.00  0.00     0.041 C 
ATOM      5  O   UNL     1      25.412  34.254  42.478  1.00  0.00    -0.550 OA
ATOM      6  O   UNL     1      25.906  35.134  40.422  1.00  0.00    -0.550 OA
ENDBRANCH   3   4
ENDBRANCH   2   3
ENDBRANCH   1   2
BRANCH   1   7
ATOM      7  C   UNL     1      28.999  37.495  43.664  1.00  0.00     0.000 C 
BRANCH   7   8
ATOM      8  C   UNL     1      29.999  36.671  44.495  1.00  0.00    -0.000 C 
BRANCH   8   9
ATOM      9  C   UNL     1      29.445  35.299  44.909  1.00  0.00    -0.003 C 
ATOM     10  C   UNL     1      29.504  35.115  46.422  1.00  0.00     0.004 C 
ENDBRANCH   8   9
ENDBRANCH   7   8
ENDBRANCH   1   7
TORSDOF 6
ENDMDL
MODEL 8
REMARK VINA RESULT:    -2.636      9.540     11.069
REMARK INTER + INTRA:          -3.805
REMARK INTER:                  -3.544
REMARK INTRA:                  -0.261
REMARK UNBOUND:                -0.244
REMARK SMILES CCCCCCCC(=O)[O-]
REMARK SMILES IDX 5 1 6 2 7 3 8 4 9 5 10 6 4 7 3 8 2 9 1 10
REMARK H PARENT
REMARK Flexibility Score: inf
ROOT
ATOM      1  C   UNL     1      22.150  30.565  48.114  1.00  0.00     0.000 C 
ENDROOT
BRANCH   1   2
ATOM      2  C   UNL     1      21.840  30.745  49.610  1.00  0.00     0.006 C 
BRANCH   2   3
ATOM      3  C   UNL     1      22.448  29.628  50.466  1.00  0.00     0.053 C 
BRANCH   3   4
ATOM      4  C   UNL     1      21.530  28.448  50.572  1.00  0.00     0.041 C 
ATOM      5  O   UNL     1      20.354  28.597  50.995  1.00  0.00    -0.550 OA
ATOM      6  O   UNL     1      21.962  27.191  50.169  1.00  0.00    -0.550 OA
ENDBRANCH   3   4
ENDBRANCH   2   3
ENDBRANCH   1   2
BRANCH   1   7
ATOM      7  C   UNL     1      23.516  29.904  47.861  1.00  0.00     0.000 C 
BRANCH   7   8
ATOM      8  C   UNL     1      24.143  30.213  46.489  1.00  0.00    -0.000 C 
BRANCH   8   9
ATOM      9  C   UNL     1      24.558  31.684  46.339  1.00  0.00    -0.003 C 
ATOM     10  C   UNL     1      25.617  31.849  45.253  1.00  0.00     0.004 C 
ENDBRANCH   8   9
ENDBRANCH   7   8
ENDBRANCH   1   7
TORSDOF 6
ENDMDL
