MODEL 1
REMARK VINA RESULT:    -6.913      0.000      0.000
REMARK INTER + INTRA:         -10.011
REMARK INTER:                  -9.136
REMARK INTRA:                  -0.874
REMARK UNBOUND:                -0.874
REMARK SMILES CC[C@H](C=C[C@@H](C)[C@H]1CC[C@H]2[C@@H]3CC=C4C[C@@H](O)CC[C@@]4(C)[C@@H]3CC[C@@]12C)C(C)C
REMARK SMILES IDX 6 1 7 2 5 3 4 4 3 5 2 6 1 7 28 8 29 9 30 10 8 11 9 12 26 13
REMARK SMILES IDX 10 14 11 15 25 16 27 17 12 18 24 19 23 20 13 21 21 22 14 23
REMARK SMILES IDX 15 24 20 25 22 26 16 27 19 28 17 29 18 30
REMARK H PARENT 18 31
REMARK Flexibility Score: inf
ROOT
ATOM      1  C   UNL     1      45.263   8.659 114.487  1.00  0.00     0.012 C 
ATOM      2  C   UNL     1      43.906   7.936 114.377  1.00  0.00     0.012 C 
ENDROOT
BRANCH   1   3
ATOM      3  C   UNL     1      46.204   8.150 113.419  1.00  0.00    -0.028 C 
ATOM      4  C   UNL     1      46.833   6.969 113.540  1.00  0.00    -0.027 C 
BRANCH   4   5
ATOM      5  C   UNL     1      47.848   6.488 112.519  1.00  0.00     0.014 C 
BRANCH   5   6
ATOM      6  C   UNL     1      47.875   7.544 111.385  1.00  0.00     0.004 C 
ATOM      7  C   UNL     1      48.844   7.221 110.250  1.00  0.00     0.004 C 
ENDBRANCH   5   6
BRANCH   5   8
ATOM      8  C   UNL     1      49.273   6.233 113.139  1.00  0.00    -0.011 C 
ATOM      9  C   UNL     1      49.646   4.739 113.070  1.00  0.00     0.008 C 
ATOM     10  C   UNL     1      49.418   6.688 114.604  1.00  0.00     0.008 C 
ENDBRANCH   5   8
ENDBRANCH   4   5
ENDBRANCH   1   3
BRANCH   1  11
ATOM     11  C   UNL     1      45.941   8.716 115.904  1.00  0.00     0.002 C 
ATOM     12  C   UNL     1      46.958   9.852 116.028  1.00  0.00     0.005 C 
ATOM     13  C   UNL     1      45.118   8.737 117.237  1.00  0.00    -0.026 C 
ATOM     14  C   UNL     1      47.206  10.047 117.520  1.00  0.00     0.005 C 
ATOM     15  C   UNL     1      46.223   9.129 118.270  1.00  0.00    -0.001 C 
ATOM     16  C   UNL     1      43.970   9.785 117.222  1.00  0.00     0.007 C 
ATOM     17  C   UNL     1      44.542   7.329 117.530  1.00  0.00     0.012 C 
ATOM     18  C   UNL     1      45.760   9.762 119.617  1.00  0.00     0.000 C 
ATOM     19  C   UNL     1      43.490  10.221 118.613  1.00  0.00     0.005 C 
ATOM     20  C   UNL     1      44.653  10.828 119.437  1.00  0.00     0.003 C 
ATOM     21  C   UNL     1      45.334   8.698 120.640  1.00  0.00     0.031 C 
ATOM     22  C   UNL     1      44.254  11.502 120.822  1.00  0.00    -0.008 C 
ATOM     23  C   UNL     1      44.903   9.317 121.931  1.00  0.00    -0.027 C 
ATOM     24  C   UNL     1      44.336  10.537 122.017  1.00  0.00    -0.065 C 
ATOM     25  C   UNL     1      45.261  12.661 121.117  1.00  0.00     0.014 C 
ATOM     26  C   UNL     1      42.824  12.106 120.742  1.00  0.00     0.016 C 
ATOM     27  C   UNL     1      44.093  11.117 123.395  1.00  0.00     0.063 C 
ATOM     28  C   UNL     1      45.108  13.300 122.516  1.00  0.00     0.033 C 
ATOM     29  C   UNL     1      45.081  12.267 123.665  1.00  0.00     0.118 C 
BRANCH  29  30
ATOM     30  O   UNL     1      46.371  11.775 123.942  1.00  0.00    -0.393 OA
ATOM     31  H   UNL     1      46.280  10.860 124.311  1.00  0.00     0.210 HD
ENDBRANCH  29  30
ENDBRANCH   1  11
TORSDOF 6
ENDMDL
MODEL 2
REMARK VINA RESULT:    -6.696      6.629      9.622
REMARK INTER + INTRA:          -9.724
REMARK INTER:                  -8.672
REMARK INTRA:                  -1.051
REMARK UNBOUND:                -0.874
REMARK SMILES CC[C@H](C=C[C@@H](C)[C@H]1CC[C@H]2[C@@H]3CC=C4C[C@@H](O)CC[C@@]4(C)[C@@H]3CC[C@@]12C)C(C)C
REMARK SMILES IDX 6 1 7 2 5 3 4 4 3 5 2 6 1 7 28 8 29 9 30 10 8 11 9 12 26 13
REMARK SMILES IDX 10 14 11 15 25 16 27 17 12 18 24 19 23 20 13 21 21 22 14 23
REMARK SMILES IDX 15 24 20 25 22 26 16 27 19 28 17 29 18 30
REMARK H PARENT 18 31
REMARK Flexibility Score: inf
ROOT
ATOM      1  C   UNL     1      43.575   9.264 114.025  1.00  0.00     0.012 C 
ATOM      2  C   UNL     1      43.259   7.756 113.980  1.00  0.00     0.012 C 
ENDROOT
BRANCH   1   3
ATOM      3  C   UNL     1      44.546   9.553 115.147  1.00  0.00    -0.028 C 
ATOM      4  C   UNL     1      44.723   8.692 116.163  1.00  0.00    -0.027 C 
BRANCH   4   5
ATOM      5  C   UNL     1      45.626   9.010 117.340  1.00  0.00     0.014 C 
BRANCH   5   6
ATOM      6  C   UNL     1      46.811   9.838 116.783  1.00  0.00     0.004 C 
ATOM      7  C   UNL     1      47.958   8.997 116.227  1.00  0.00     0.004 C 
ENDBRANCH   5   6
BRANCH   5   8
ATOM      8  C   UNL     1      44.876   9.745 118.513  1.00  0.00    -0.011 C 
ATOM      9  C   UNL     1      45.514   9.409 119.875  1.00  0.00     0.008 C 
ATOM     10  C   UNL     1      43.372   9.423 118.604  1.00  0.00     0.008 C 
ENDBRANCH   5   8
ENDBRANCH   4   5
ENDBRANCH   1   3
BRANCH   1  11
ATOM     11  C   UNL     1      42.357  10.259 114.015  1.00  0.00     0.002 C 
ATOM     12  C   UNL     1      42.647  11.556 114.774  1.00  0.00     0.005 C 
ATOM     13  C   UNL     1      41.628  10.693 112.699  1.00  0.00    -0.026 C 
ATOM     14  C   UNL     1      41.586  12.558 114.334  1.00  0.00     0.005 C 
ATOM     15  C   UNL     1      40.770  11.895 113.210  1.00  0.00    -0.001 C 
ATOM     16  C   UNL     1      42.611  11.142 111.583  1.00  0.00     0.007 C 
ATOM     17  C   UNL     1      40.733   9.539 112.180  1.00  0.00     0.012 C 
ATOM     18  C   UNL     1      40.291  12.940 112.156  1.00  0.00     0.000 C 
ATOM     19  C   UNL     1      41.986  12.047 110.511  1.00  0.00     0.005 C 
ATOM     20  C   UNL     1      41.396  13.332 111.145  1.00  0.00     0.003 C 
ATOM     21  C   UNL     1      39.019  12.483 111.425  1.00  0.00     0.031 C 
ATOM     22  C   UNL     1      40.895  14.448 110.129  1.00  0.00    -0.008 C 
ATOM     23  C   UNL     1      38.564  13.497 110.425  1.00  0.00    -0.027 C 
ATOM     24  C   UNL     1      39.404  14.324 109.771  1.00  0.00    -0.065 C 
ATOM     25  C   UNL     1      41.075  15.847 110.803  1.00  0.00     0.014 C 
ATOM     26  C   UNL     1      41.743  14.420 108.827  1.00  0.00     0.016 C 
ATOM     27  C   UNL     1      38.805  15.413 108.907  1.00  0.00     0.063 C 
ATOM     28  C   UNL     1      40.469  17.025 110.004  1.00  0.00     0.033 C 
ATOM     29  C   UNL     1      39.004  16.786 109.574  1.00  0.00     0.118 C 
BRANCH  29  30
ATOM     30  O   UNL     1      38.119  16.960 110.656  1.00  0.00    -0.393 OA
ATOM     31  H   UNL     1      38.468  16.444 111.427  1.00  0.00     0.210 HD
ENDBRANCH  29  30
ENDBRANCH   1  11
TORSDOF 6
ENDMDL
MODEL 3
REMARK VINA RESULT:    -6.543      8.578     11.680
REMARK INTER + INTRA:          -9.521
REMARK INTER:                  -8.596
REMARK INTRA:                  -0.925
REMARK UNBOUND:                -0.874
REMARK SMILES CC[C@H](C=C[C@@H](C)[C@H]1CC[C@H]2[C@@H]3CC=C4C[C@@H](O)CC[C@@]4(C)[C@@H]3CC[C@@]12C)C(C)C
REMARK SMILES IDX 6 1 7 2 5 3 4 4 3 5 2 6 1 7 28 8 29 9 30 10 8 11 9 12 26 13
REMARK SMILES IDX 10 14 11 15 25 16 27 17 12 18 24 19 23 20 13 21 21 22 14 23
REMARK SMILES IDX 15 24 20 25 22 26 16 27 19 28 17 29 18 30
REMARK H PARENT 18 31
REMARK Flexibility Score: inf
ROOT
ATOM      1  C   UNL     1      41.870  12.009 113.816  1.00  0.00     0.012 C 
ATOM      2  C   UNL     1      41.909  12.870 115.094  1.00  0.00     0.012 C 
ENDROOT
BRANCH   1   3
ATOM      3  C   UNL     1      42.549  10.683 114.069  1.00  0.00    -0.028 C 
ATOM      4  C   UNL     1      43.338  10.489 115.140  1.00  0.00    -0.027 C 
BRANCH   4   5
ATOM      5  C   UNL     1      44.097   9.192 115.358  1.00  0.00     0.014 C 
BRANCH   5   6
ATOM      6  C   UNL     1      43.472   8.514 116.602  1.00  0.00     0.004 C 
ATOM      7  C   UNL     1      43.606   9.320 117.891  1.00  0.00     0.004 C 
ENDBRANCH   5   6
BRANCH   5   8
ATOM      8  C   UNL     1      44.092   8.255 114.093  1.00  0.00    -0.011 C 
ATOM      9  C   UNL     1      43.303   6.960 114.369  1.00  0.00     0.008 C 
ATOM     10  C   UNL     1      45.494   7.857 113.594  1.00  0.00     0.008 C 
ENDBRANCH   5   8
ENDBRANCH   4   5
ENDBRANCH   1   3
BRANCH   1  11
ATOM     11  C   UNL     1      42.347  12.680 112.476  1.00  0.00     0.002 C 
ATOM     12  C   UNL     1      42.612  11.661 111.366  1.00  0.00     0.005 C 
ATOM     13  C   UNL     1      41.570  13.856 111.794  1.00  0.00    -0.026 C 
ATOM     14  C   UNL     1      42.647  12.446 110.060  1.00  0.00     0.005 C 
ATOM     15  C   UNL     1      42.255  13.898 110.390  1.00  0.00    -0.001 C 
ATOM     16  C   UNL     1      40.046  13.580 111.666  1.00  0.00     0.007 C 
ATOM     17  C   UNL     1      41.802  15.173 112.577  1.00  0.00     0.012 C 
ATOM     18  C   UNL     1      41.463  14.558 109.220  1.00  0.00     0.000 C 
ATOM     19  C   UNL     1      39.341  14.404 110.579  1.00  0.00     0.005 C 
ATOM     20  C   UNL     1      39.972  14.146 109.188  1.00  0.00     0.003 C 
ATOM     21  C   UNL     1      41.607  16.088 109.215  1.00  0.00     0.031 C 
ATOM     22  C   UNL     1      39.211  14.782 107.944  1.00  0.00    -0.008 C 
ATOM     23  C   UNL     1      40.852  16.709 108.084  1.00  0.00    -0.027 C 
ATOM     24  C   UNL     1      39.727  16.180 107.562  1.00  0.00    -0.065 C 
ATOM     25  C   UNL     1      39.447  13.866 106.699  1.00  0.00     0.014 C 
ATOM     26  C   UNL     1      37.683  14.851 108.217  1.00  0.00     0.016 C 
ATOM     27  C   UNL     1      39.149  16.816 106.316  1.00  0.00     0.063 C 
ATOM     28  C   UNL     1      38.913  14.446 105.368  1.00  0.00     0.033 C 
ATOM     29  C   UNL     1      39.374  15.897 105.102  1.00  0.00     0.118 C 
BRANCH  29  30
ATOM     30  O   UNL     1      40.715  15.937 104.674  1.00  0.00    -0.393 OA
ATOM     31  H   UNL     1      41.048  16.864 104.787  1.00  0.00     0.210 HD
ENDBRANCH  29  30
ENDBRANCH   1  11
TORSDOF 6
ENDMDL
MODEL 4
REMARK VINA RESULT:    -6.536      8.132     10.801
REMARK INTER + INTRA:          -9.512
REMARK INTER:                  -8.617
REMARK INTRA:                  -0.895
REMARK UNBOUND:                -0.874
REMARK SMILES CC[C@H](C=C[C@@H](C)[C@H]1CC[C@H]2[C@@H]3CC=C4C[C@@H](O)CC[C@@]4(C)[C@@H]3CC[C@@]12C)C(C)C
REMARK SMILES IDX 6 1 7 2 5 3 4 4 3 5 2 6 1 7 28 8 29 9 30 10 8 11 9 12 26 13
REMARK SMILES IDX 10 14 11 15 25 16 27 17 12 18 24 19 23 20 13 21 21 22 14 23
REMARK SMILES IDX 15 24 20 25 22 26 16 27 19 28 17 29 18 30
REMARK H PARENT 18 31
REMARK Flexibility Score: inf
ROOT
ATOM      1  C   UNL     1      42.296  11.378 114.366  1.00  0.00     0.012 C 
ATOM      2  C   UNL     1      42.524  12.168 115.669  1.00  0.00     0.012 C 
ENDROOT
BRANCH   1   3
ATOM      3  C   UNL     1      43.110  10.104 114.388  1.00  0.00    -0.028 C 
ATOM      4  C   UNL     1      43.993   9.850 115.368  1.00  0.00    -0.027 C 
BRANCH   4   5
ATOM      5  C   UNL     1      44.881   8.619 115.354  1.00  0.00     0.014 C 
BRANCH   5   6
ATOM      6  C   UNL     1      44.438   7.737 116.549  1.00  0.00     0.004 C 
ATOM      7  C   UNL     1      43.657   8.485 117.626  1.00  0.00     0.004 C 
ENDBRANCH   5   6
BRANCH   5   8
ATOM      8  C   UNL     1      44.839   7.844 113.984  1.00  0.00    -0.011 C 
ATOM      9  C   UNL     1      44.152   6.474 114.145  1.00  0.00     0.008 C 
ATOM     10  C   UNL     1      46.222   7.607 113.348  1.00  0.00     0.008 C 
ENDBRANCH   5   8
ENDBRANCH   4   5
ENDBRANCH   1   3
BRANCH   1  11
ATOM     11  C   UNL     1      42.445  12.160 113.009  1.00  0.00     0.002 C 
ATOM     12  C   UNL     1      42.284  11.256 111.785  1.00  0.00     0.005 C 
ATOM     13  C   UNL     1      41.631  13.459 112.687  1.00  0.00    -0.026 C 
ATOM     14  C   UNL     1      42.032  12.180 110.599  1.00  0.00     0.005 C 
ATOM     15  C   UNL     1      41.897  13.610 111.154  1.00  0.00    -0.001 C 
ATOM     16  C   UNL     1      40.113  13.310 112.980  1.00  0.00     0.007 C 
ATOM     17  C   UNL     1      42.205  14.659 113.482  1.00  0.00     0.012 C 
ATOM     18  C   UNL     1      40.880  14.454 110.326  1.00  0.00     0.000 C 
ATOM     19  C   UNL     1      39.219  14.300 112.220  1.00  0.00     0.005 C 
ATOM     20  C   UNL     1      39.406  14.156 110.689  1.00  0.00     0.003 C 
ATOM     21  C   UNL     1      41.172  15.960 110.414  1.00  0.00     0.031 C 
ATOM     22  C   UNL     1      38.397  14.982 109.778  1.00  0.00    -0.008 C 
ATOM     23  C   UNL     1      40.198  16.757 109.607  1.00  0.00    -0.027 C 
ATOM     24  C   UNL     1      38.924  16.373 109.388  1.00  0.00    -0.065 C 
ATOM     25  C   UNL     1      38.181  14.198 108.442  1.00  0.00     0.014 C 
ATOM     26  C   UNL     1      37.021  15.129 110.485  1.00  0.00     0.016 C 
ATOM     27  C   UNL     1      38.089  17.186 108.422  1.00  0.00     0.063 C 
ATOM     28  C   UNL     1      37.358  14.962 107.379  1.00  0.00     0.033 C 
ATOM     29  C   UNL     1      37.871  16.396 107.119  1.00  0.00     0.118 C 
BRANCH  29  30
ATOM     30  O   UNL     1      39.035  16.388 106.328  1.00  0.00    -0.393 OA
ATOM     31  H   UNL     1      38.993  17.161 105.708  1.00  0.00     0.210 HD
ENDBRANCH  29  30
ENDBRANCH   1  11
TORSDOF 6
ENDMDL
MODEL 5
REMARK VINA RESULT:    -6.496      8.347     12.180
REMARK INTER + INTRA:          -9.458
REMARK INTER:                  -8.376
REMARK INTRA:                  -1.083
REMARK UNBOUND:                -0.874
REMARK SMILES CC[C@H](C=C[C@@H](C)[C@H]1CC[C@H]2[C@@H]3CC=C4C[C@@H](O)CC[C@@]4(C)[C@@H]3CC[C@@]12C)C(C)C
REMARK SMILES IDX 6 1 7 2 5 3 4 4 3 5 2 6 1 7 28 8 29 9 30 10 8 11 9 12 26 13
REMARK SMILES IDX 10 14 11 15 25 16 27 17 12 18 24 19 23 20 13 21 21 22 14 23
REMARK SMILES IDX 15 24 20 25 22 26 16 27 19 28 17 29 18 30
REMARK H PARENT 18 31
REMARK Flexibility Score: inf
ROOT
ATOM      1  C   UNL     1      41.576  11.712 113.290  1.00  0.00     0.012 C 
ATOM      2  C   UNL     1      41.876  12.601 114.512  1.00  0.00     0.012 C 
ENDROOT
BRANCH   1   3
ATOM      3  C   UNL     1      42.623  10.627 113.174  1.00  0.00    -0.028 C 
ATOM      4  C   UNL     1      43.198  10.086 114.261  1.00  0.00    -0.027 C 
BRANCH   4   5
ATOM      5  C   UNL     1      44.314   9.062 114.156  1.00  0.00     0.014 C 
BRANCH   5   6
ATOM      6  C   UNL     1      45.209   9.248 115.407  1.00  0.00     0.004 C 
ATOM      7  C   UNL     1      44.539  10.005 116.552  1.00  0.00     0.004 C 
ENDBRANCH   5   6
BRANCH   5   8
ATOM      8  C   UNL     1      43.784   7.587 114.008  1.00  0.00    -0.011 C 
ATOM      9  C   UNL     1      42.791   7.240 115.135  1.00  0.00     0.008 C 
ATOM     10  C   UNL     1      44.890   6.513 114.006  1.00  0.00     0.008 C 
ENDBRANCH   5   8
ENDBRANCH   4   5
ENDBRANCH   1   3
BRANCH   1  11
ATOM     11  C   UNL     1      41.306  12.432 111.918  1.00  0.00     0.002 C 
ATOM     12  C   UNL     1      42.399  12.160 110.882  1.00  0.00     0.005 C 
ATOM     13  C   UNL     1      39.949  12.304 111.146  1.00  0.00    -0.026 C 
ATOM     14  C   UNL     1      41.814  12.549 109.529  1.00  0.00     0.005 C 
ATOM     15  C   UNL     1      40.334  12.905 109.756  1.00  0.00    -0.001 C 
ATOM     16  C   UNL     1      39.470  10.833 111.007  1.00  0.00     0.007 C 
ATOM     17  C   UNL     1      38.856  13.150 111.846  1.00  0.00     0.012 C 
ATOM     18  C   UNL     1      39.454  12.509 108.531  1.00  0.00     0.000 C 
ATOM     19  C   UNL     1      38.483  10.592 109.856  1.00  0.00     0.005 C 
ATOM     20  C   UNL     1      39.103  11.002 108.497  1.00  0.00     0.003 C 
ATOM     21  C   UNL     1      38.184  13.368 108.429  1.00  0.00     0.031 C 
ATOM     22  C   UNL     1      38.265  10.622 107.200  1.00  0.00    -0.008 C 
ATOM     23  C   UNL     1      37.354  12.987 107.246  1.00  0.00    -0.027 C 
ATOM     24  C   UNL     1      37.314  11.738 106.738  1.00  0.00    -0.065 C 
ATOM     25  C   UNL     1      39.262  10.372 106.022  1.00  0.00     0.014 C 
ATOM     26  C   UNL     1      37.455   9.317 107.438  1.00  0.00     0.016 C 
ATOM     27  C   UNL     1      36.562  11.518 105.442  1.00  0.00     0.063 C 
ATOM     28  C   UNL     1      38.587  10.162 104.646  1.00  0.00     0.033 C 
ATOM     29  C   UNL     1      37.555  11.258 104.295  1.00  0.00     0.118 C 
BRANCH  29  30
ATOM     30  O   UNL     1      38.190  12.448 103.891  1.00  0.00    -0.393 OA
ATOM     31  H   UNL     1      37.825  12.709 103.007  1.00  0.00     0.210 HD
ENDBRANCH  29  30
ENDBRANCH   1  11
TORSDOF 6
ENDMDL
MODEL 6
REMARK VINA RESULT:    -6.241      9.165     13.489
REMARK INTER + INTRA:          -9.121
REMARK INTER:                  -8.067
REMARK INTRA:                  -1.054
REMARK UNBOUND:                -0.874
REMARK SMILES CC[C@H](C=C[C@@H](C)[C@H]1CC[C@H]2[C@@H]3CC=C4C[C@@H](O)CC[C@@]4(C)[C@@H]3CC[C@@]12C)C(C)C
REMARK SMILES IDX 6 1 7 2 5 3 4 4 3 5 2 6 1 7 28 8 29 9 30 10 8 11 9 12 26 13
REMARK SMILES IDX 10 14 11 15 25 16 27 17 12 18 24 19 23 20 13 21 21 22 14 23
REMARK SMILES IDX 15 24 20 25 22 26 16 27 19 28 17 29 18 30
REMARK H PARENT 18 31
REMARK Flexibility Score: inf
ROOT
ATOM      1  C   UNL     1      38.111  14.316 111.637  1.00  0.00     0.012 C 
ATOM      2  C   UNL     1      37.833  15.650 110.917  1.00  0.00     0.012 C 
ENDROOT
BRANCH   1   3
ATOM      3  C   UNL     1      38.800  14.578 112.957  1.00  0.00    -0.028 C 
ATOM      4  C   UNL     1      39.842  15.420 113.052  1.00  0.00    -0.027 C 
BRANCH   4   5
ATOM      5  C   UNL     1      40.599  15.623 114.351  1.00  0.00     0.014 C 
BRANCH   5   6
ATOM      6  C   UNL     1      41.872  14.744 114.268  1.00  0.00     0.004 C 
ATOM      7  C   UNL     1      42.325  14.428 112.845  1.00  0.00     0.004 C 
ENDBRANCH   5   6
BRANCH   5   8
ATOM      8  C   UNL     1      40.928  17.135 114.644  1.00  0.00    -0.011 C 
ATOM      9  C   UNL     1      41.125  17.375 116.154  1.00  0.00     0.008 C 
ATOM     10  C   UNL     1      39.859  18.125 114.144  1.00  0.00     0.008 C 
ENDBRANCH   5   8
ENDBRANCH   4   5
ENDBRANCH   1   3
BRANCH   1  11
ATOM     11  C   UNL     1      38.814  13.179 110.810  1.00  0.00     0.002 C 
ATOM     12  C   UNL     1      39.560  12.179 111.695  1.00  0.00     0.005 C 
ATOM     13  C   UNL     1      38.059  12.317 109.742  1.00  0.00    -0.026 C 
ATOM     14  C   UNL     1      39.817  10.948 110.832  1.00  0.00     0.005 C 
ATOM     15  C   UNL     1      39.091  11.170 109.493  1.00  0.00    -0.001 C 
ATOM     16  C   UNL     1      36.710  11.752 110.264  1.00  0.00     0.007 C 
ATOM     17  C   UNL     1      37.819  13.151 108.458  1.00  0.00     0.012 C 
ATOM     18  C   UNL     1      38.553   9.831 108.903  1.00  0.00     0.000 C 
ATOM     19  C   UNL     1      36.200  10.520 109.504  1.00  0.00     0.005 C 
ATOM     20  C   UNL     1      37.232   9.366 109.561  1.00  0.00     0.003 C 
ATOM     21  C   UNL     1      38.412   9.888 107.374  1.00  0.00     0.031 C 
ATOM     22  C   UNL     1      36.749   7.964 108.985  1.00  0.00    -0.008 C 
ATOM     23  C   UNL     1      37.905   8.596 106.819  1.00  0.00    -0.027 C 
ATOM     24  C   UNL     1      37.088   7.765 107.498  1.00  0.00    -0.065 C 
ATOM     25  C   UNL     1      37.487   6.828 109.764  1.00  0.00     0.014 C 
ATOM     26  C   UNL     1      35.220   7.786 109.195  1.00  0.00     0.016 C 
ATOM     27  C   UNL     1      36.777   6.414 106.890  1.00  0.00     0.063 C 
ATOM     28  C   UNL     1      37.252   5.408 109.199  1.00  0.00     0.033 C 
ATOM     29  C   UNL     1      37.497   5.304 107.677  1.00  0.00     0.118 C 
BRANCH  29  30
ATOM     30  O   UNL     1      38.874   5.281 107.381  1.00  0.00    -0.393 OA
ATOM     31  H   UNL     1      39.151   6.198 107.125  1.00  0.00     0.210 HD
ENDBRANCH  29  30
ENDBRANCH   1  11
TORSDOF 6
ENDMDL
MODEL 7
REMARK VINA RESULT:    -6.216      9.397     12.397
REMARK INTER + INTRA:          -9.089
REMARK INTER:                  -8.136
REMARK INTRA:                  -0.953
REMARK UNBOUND:                -0.874
REMARK SMILES CC[C@H](C=C[C@@H](C)[C@H]1CC[C@H]2[C@@H]3CC=C4C[C@@H](O)CC[C@@]4(C)[C@@H]3CC[C@@]12C)C(C)C
REMARK SMILES IDX 6 1 7 2 5 3 4 4 3 5 2 6 1 7 28 8 29 9 30 10 8 11 9 12 26 13
REMARK SMILES IDX 10 14 11 15 25 16 27 17 12 18 24 19 23 20 13 21 21 22 14 23
REMARK SMILES IDX 15 24 20 25 22 26 16 27 19 28 17 29 18 30
REMARK H PARENT 18 31
REMARK Flexibility Score: inf
ROOT
ATOM      1  C   UNL     1      41.456  13.961 113.788  1.00  0.00     0.012 C 
ATOM      2  C   UNL     1      41.881  14.278 115.235  1.00  0.00     0.012 C 
ENDROOT
BRANCH   1   3
ATOM      3  C   UNL     1      41.759  12.515 113.469  1.00  0.00    -0.028 C 
ATOM      4  C   UNL     1      42.219  11.669 114.406  1.00  0.00    -0.027 C 
BRANCH   4   5
ATOM      5  C   UNL     1      42.613  10.240 114.078  1.00  0.00     0.014 C 
BRANCH   5   6
ATOM      6  C   UNL     1      42.484  10.083 112.542  1.00  0.00     0.004 C 
ATOM      7  C   UNL     1      41.168   9.462 112.083  1.00  0.00     0.004 C 
ENDBRANCH   5   6
BRANCH   5   8
ATOM      8  C   UNL     1      44.046   9.859 114.606  1.00  0.00    -0.011 C 
ATOM      9  C   UNL     1      44.560   8.573 113.928  1.00  0.00     0.008 C 
ATOM     10  C   UNL     1      44.127   9.653 116.131  1.00  0.00     0.008 C 
ENDBRANCH   5   8
ENDBRANCH   4   5
ENDBRANCH   1   3
BRANCH   1  11
ATOM     11  C   UNL     1      41.945  14.939 112.658  1.00  0.00     0.002 C 
ATOM     12  C   UNL     1      43.177  14.416 111.916  1.00  0.00     0.005 C 
ATOM     13  C   UNL     1      40.990  15.500 111.551  1.00  0.00    -0.026 C 
ATOM     14  C   UNL     1      43.275  15.221 110.625  1.00  0.00     0.005 C 
ATOM     15  C   UNL     1      42.018  16.107 110.543  1.00  0.00    -0.001 C 
ATOM     16  C   UNL     1      40.132  14.394 110.877  1.00  0.00     0.007 C 
ATOM     17  C   UNL     1      40.068  16.593 112.146  1.00  0.00     0.012 C 
ATOM     18  C   UNL     1      41.552  16.306 109.068  1.00  0.00     0.000 C 
ATOM     19  C   UNL     1      39.596  14.765 109.486  1.00  0.00     0.005 C 
ATOM     20  C   UNL     1      40.757  15.099 108.515  1.00  0.00     0.003 C 
ATOM     21  C   UNL     1      40.763  17.612 108.882  1.00  0.00     0.031 C 
ATOM     22  C   UNL     1      40.357  15.306 106.989  1.00  0.00    -0.008 C 
ATOM     23  C   UNL     1      40.331  17.796 107.463  1.00  0.00    -0.027 C 
ATOM     24  C   UNL     1      40.060  16.772 106.630  1.00  0.00    -0.065 C 
ATOM     25  C   UNL     1      41.563  14.865 106.098  1.00  0.00     0.014 C 
ATOM     26  C   UNL     1      39.131  14.425 106.623  1.00  0.00     0.016 C 
ATOM     27  C   UNL     1      39.789  17.088 105.174  1.00  0.00     0.063 C 
ATOM     28  C   UNL     1      41.390  15.172 104.592  1.00  0.00     0.033 C 
ATOM     29  C   UNL     1      40.977  16.634 104.306  1.00  0.00     0.118 C 
BRANCH  29  30
ATOM     30  O   UNL     1      42.071  17.510 104.441  1.00  0.00    -0.393 OA
ATOM     31  H   UNL     1      42.894  17.019 104.190  1.00  0.00     0.210 HD
ENDBRANCH  29  30
ENDBRANCH   1  11
TORSDOF 6
ENDMDL
MODEL 8
REMARK VINA RESULT:    -6.172      8.833     11.621
REMARK INTER + INTRA:          -9.031
REMARK INTER:                  -7.516
REMARK INTRA:                  -1.516
REMARK UNBOUND:                -0.874
REMARK SMILES CC[C@H](C=C[C@@H](C)[C@H]1CC[C@H]2[C@@H]3CC=C4C[C@@H](O)CC[C@@]4(C)[C@@H]3CC[C@@]12C)C(C)C
REMARK SMILES IDX 6 1 7 2 5 3 4 4 3 5 2 6 1 7 28 8 29 9 30 10 8 11 9 12 26 13
REMARK SMILES IDX 10 14 11 15 25 16 27 17 12 18 24 19 23 20 13 21 21 22 14 23
REMARK SMILES IDX 15 24 20 25 22 26 16 27 19 28 17 29 18 30
REMARK H PARENT 18 31
REMARK Flexibility Score: inf
ROOT
ATOM      1  C   UNL     1      36.644  10.722 106.582  1.00  0.00     0.012 C 
ATOM      2  C   UNL     1      35.558  10.991 105.522  1.00  0.00     0.012 C 
ENDROOT
BRANCH   1   3
ATOM      3  C   UNL     1      36.594   9.274 107.014  1.00  0.00    -0.028 C 
ATOM      4  C   UNL     1      37.699   8.511 107.046  1.00  0.00    -0.027 C 
BRANCH   4   5
ATOM      5  C   UNL     1      37.648   7.033 107.391  1.00  0.00     0.014 C 
BRANCH   5   6
ATOM      6  C   UNL     1      38.760   6.343 106.561  1.00  0.00     0.004 C 
ATOM      7  C   UNL     1      38.713   4.818 106.594  1.00  0.00     0.004 C 
ENDBRANCH   5   6
BRANCH   5   8
ATOM      8  C   UNL     1      37.786   6.755 108.934  1.00  0.00    -0.011 C 
ATOM      9  C   UNL     1      36.402   6.586 109.591  1.00  0.00     0.008 C 
ATOM     10  C   UNL     1      38.548   7.846 109.710  1.00  0.00     0.008 C 
ENDBRANCH   5   8
ENDBRANCH   4   5
ENDBRANCH   1   3
BRANCH   1  11
ATOM     11  C   UNL     1      36.725  11.709 107.804  1.00  0.00     0.002 C 
ATOM     12  C   UNL     1      36.241  11.074 109.110  1.00  0.00     0.005 C 
ATOM     13  C   UNL     1      38.028  12.496 108.173  1.00  0.00    -0.026 C 
ATOM     14  C   UNL     1      36.759  11.961 110.237  1.00  0.00     0.005 C 
ATOM     15  C   UNL     1      37.668  13.027 109.598  1.00  0.00    -0.001 C 
ATOM     16  C   UNL     1      39.290  11.590 108.216  1.00  0.00     0.007 C 
ATOM     17  C   UNL     1      38.249  13.659 107.174  1.00  0.00     0.012 C 
ATOM     18  C   UNL     1      38.846  13.416 110.542  1.00  0.00     0.000 C 
ATOM     19  C   UNL     1      40.447  12.152 109.055  1.00  0.00     0.005 C 
ATOM     20  C   UNL     1      40.005  12.391 110.521  1.00  0.00     0.003 C 
ATOM     21  C   UNL     1      39.366  14.835 110.264  1.00  0.00     0.031 C 
ATOM     22  C   UNL     1      41.157  12.783 111.545  1.00  0.00    -0.008 C 
ATOM     23  C   UNL     1      40.488  15.201 111.181  1.00  0.00    -0.027 C 
ATOM     24  C   UNL     1      41.352  14.301 111.693  1.00  0.00    -0.065 C 
ATOM     25  C   UNL     1      40.765  12.246 112.960  1.00  0.00     0.014 C 
ATOM     26  C   UNL     1      42.503  12.127 111.129  1.00  0.00     0.016 C 
ATOM     27  C   UNL     1      42.342  14.776 112.736  1.00  0.00     0.063 C 
ATOM     28  C   UNL     1      41.706  12.700 114.100  1.00  0.00     0.033 C 
ATOM     29  C   UNL     1      41.953  14.226 114.121  1.00  0.00     0.118 C 
BRANCH  29  30
ATOM     30  O   UNL     1      40.847  14.916 114.650  1.00  0.00    -0.393 OA
ATOM     31  H   UNL     1      40.803  14.730 115.623  1.00  0.00     0.210 HD
ENDBRANCH  29  30
ENDBRANCH   1  11
TORSDOF 6
ENDMDL
MODEL 9
REMARK VINA RESULT:    -6.120      9.311     13.429
REMARK INTER + INTRA:          -8.962
REMARK INTER:                  -7.675
REMARK INTRA:                  -1.287
REMARK UNBOUND:                -0.874
REMARK SMILES CC[C@H](C=C[C@@H](C)[C@H]1CC[C@H]2[C@@H]3CC=C4C[C@@H](O)CC[C@@]4(C)[C@@H]3CC[C@@]12C)C(C)C
REMARK SMILES IDX 6 1 7 2 5 3 4 4 3 5 2 6 1 7 28 8 29 9 30 10 8 11 9 12 26 13
REMARK SMILES IDX 10 14 11 15 25 16 27 17 12 18 24 19 23 20 13 21 21 22 14 23
REMARK SMILES IDX 15 24 20 25 22 26 16 27 19 28 17 29 18 30
REMARK H PARENT 18 31
REMARK Flexibility Score: inf
ROOT
ATOM      1  C   UNL     1      40.055  15.976 110.178  1.00  0.00     0.012 C 
ATOM      2  C   UNL     1      40.317  17.367 109.568  1.00  0.00     0.012 C 
ENDROOT
BRANCH   1   3
ATOM      3  C   UNL     1      40.704  15.881 111.540  1.00  0.00    -0.028 C 
ATOM      4  C   UNL     1      39.977  15.687 112.653  1.00  0.00    -0.027 C 
BRANCH   4   5
ATOM      5  C   UNL     1      40.606  15.680 114.035  1.00  0.00     0.014 C 
BRANCH   5   6
ATOM      6  C   UNL     1      41.911  14.853 113.927  1.00  0.00     0.004 C 
ATOM      7  C   UNL     1      41.719  13.350 114.112  1.00  0.00     0.004 C 
ENDBRANCH   5   6
BRANCH   5   8
ATOM      8  C   UNL     1      40.853  17.126 114.607  1.00  0.00    -0.011 C 
ATOM      9  C   UNL     1      41.190  17.075 116.110  1.00  0.00     0.008 C 
ATOM     10  C   UNL     1      39.667  18.092 114.421  1.00  0.00     0.008 C 
ENDBRANCH   5   8
ENDBRANCH   4   5
ENDBRANCH   1   3
BRANCH   1  11
ATOM     11  C   UNL     1      40.362  14.722 109.280  1.00  0.00     0.002 C 
ATOM     12  C   UNL     1      41.368  13.765 109.924  1.00  0.00     0.005 C 
ATOM     13  C   UNL     1      39.236  13.812 108.681  1.00  0.00    -0.026 C 
ATOM     14  C   UNL     1      41.246  12.444 109.173  1.00  0.00     0.005 C 
ATOM     15  C   UNL     1      40.068  12.583 108.192  1.00  0.00    -0.001 C 
ATOM     16  C   UNL     1      38.177  13.388 109.735  1.00  0.00     0.007 C 
ATOM     17  C   UNL     1      38.542  14.533 107.498  1.00  0.00     0.012 C 
ATOM     18  C   UNL     1      39.315  11.231 108.005  1.00  0.00     0.000 C 
ATOM     19  C   UNL     1      37.387  12.123 109.369  1.00  0.00     0.005 C 
ATOM     20  C   UNL     1      38.336  10.916 109.161  1.00  0.00     0.003 C 
ATOM     21  C   UNL     1      38.600  11.149 106.647  1.00  0.00     0.031 C 
ATOM     22  C   UNL     1      37.637   9.499 108.973  1.00  0.00    -0.008 C 
ATOM     23  C   UNL     1      37.891   9.845 106.474  1.00  0.00    -0.027 C 
ATOM     24  C   UNL     1      37.376   9.138 107.501  1.00  0.00    -0.065 C 
ATOM     25  C   UNL     1      38.591   8.398 109.539  1.00  0.00     0.014 C 
ATOM     26  C   UNL     1      36.301   9.441 109.764  1.00  0.00     0.016 C 
ATOM     27  C   UNL     1      36.826   7.757 107.212  1.00  0.00     0.063 C 
ATOM     28  C   UNL     1      38.125   6.948 109.269  1.00  0.00     0.033 C 
ATOM     29  C   UNL     1      37.767   6.684 107.789  1.00  0.00     0.118 C 
BRANCH  29  30
ATOM     30  O   UNL     1      38.924   6.544 106.999  1.00  0.00    -0.393 OA
ATOM     31  H   UNL     1      39.632   7.121 107.383  1.00  0.00     0.210 HD
ENDBRANCH  29  30
ENDBRANCH   1  11
TORSDOF 6
ENDMDL
