MODEL 1
REMARK VINA RESULT:    -4.076      0.000      0.000
REMARK INTER + INTRA:          -4.332
REMARK INTER:                  -4.314
REMARK INTRA:                  -0.018
REMARK UNBOUND:                -0.018
REMARK SMILES O=C([O-])c1cccnc1
REMARK SMILES IDX 4 1 5 2 9 3 6 4 8 5 7 6 2 7 1 8 3 9
REMARK H PARENT
REMARK Flexibility Score: inf
ROOT
ATOM      1  C   UNL     1       6.650   6.985  13.140  1.00  0.00     0.016 A 
ATOM      2  C   UNL     1       6.654   5.580  13.140  1.00  0.00     0.013 A 
ATOM      3  C   UNL     1       5.474   7.648  12.747  1.00  0.00     0.120 A 
ATOM      4  C   UNL     1       5.511   4.875  12.757  1.00  0.00     0.021 A 
ATOM      5  N   UNL     1       4.375   6.937  12.378  1.00  0.00    -0.264 NA
ATOM      6  C   UNL     1       4.369   5.580  12.375  1.00  0.00     0.111 A 
ENDROOT
BRANCH   1   7
ATOM      7  C   UNL     1       7.853   7.741  13.544  1.00  0.00     0.073 C 
ATOM      8  O   UNL     1       8.935   7.607  12.914  1.00  0.00    -0.545 OA
ATOM      9  O   UNL     1       7.807   8.611  14.628  1.00  0.00    -0.545 OA
ENDBRANCH   1   7
TORSDOF 1
ENDMDL
MODEL 2
REMARK VINA RESULT:    -3.809      2.552      3.198
REMARK INTER + INTRA:          -4.049
REMARK INTER:                  -4.028
REMARK INTRA:                  -0.021
REMARK UNBOUND:                -0.018
REMARK SMILES O=C([O-])c1cccnc1
REMARK SMILES IDX 4 1 5 2 9 3 6 4 8 5 7 6 2 7 1 8 3 9
REMARK H PARENT
REMARK Flexibility Score: inf
ROOT
ATOM      1  C   UNL     1       5.784   7.115  12.321  1.00  0.00     0.016 A 
ATOM      2  C   UNL     1       7.143   7.392  12.096  1.00  0.00     0.013 A 
ATOM      3  C   UNL     1       5.428   5.825  12.750  1.00  0.00     0.120 A 
ATOM      4  C   UNL     1       8.104   6.398  12.298  1.00  0.00     0.021 A 
ATOM      5  N   UNL     1       6.384   4.876  12.939  1.00  0.00    -0.264 NA
ATOM      6  C   UNL     1       7.700   5.133  12.724  1.00  0.00     0.111 A 
ENDROOT
BRANCH   1   7
ATOM      7  C   UNL     1       4.759   8.159  12.112  1.00  0.00     0.073 C 
ATOM      8  O   UNL     1       4.865   8.980  11.163  1.00  0.00    -0.545 OA
ATOM      9  O   UNL     1       3.662   8.249  12.962  1.00  0.00    -0.545 OA
ENDBRANCH   1   7
TORSDOF 1
ENDMDL
MODEL 3
REMARK VINA RESULT:    -3.648      0.916      1.600
REMARK INTER + INTRA:          -3.879
REMARK INTER:                  -3.861
REMARK INTRA:                  -0.018
REMARK UNBOUND:                -0.018
REMARK SMILES O=C([O-])c1cccnc1
REMARK SMILES IDX 4 1 5 2 9 3 6 4 8 5 7 6 2 7 1 8 3 9
REMARK H PARENT
REMARK Flexibility Score: inf
ROOT
ATOM      1  C   UNL     1       6.646   6.962  13.162  1.00  0.00     0.016 A 
ATOM      2  C   UNL     1       5.476   7.634  12.773  1.00  0.00     0.013 A 
ATOM      3  C   UNL     1       6.645   5.556  13.146  1.00  0.00     0.120 A 
ATOM      4  C   UNL     1       4.349   6.910  12.380  1.00  0.00     0.021 A 
ATOM      5  N   UNL     1       5.533   4.875  12.760  1.00  0.00    -0.264 NA
ATOM      6  C   UNL     1       4.397   5.516  12.381  1.00  0.00     0.111 A 
ENDROOT
BRANCH   1   7
ATOM      7  C   UNL     1       7.846   7.718  13.578  1.00  0.00     0.073 C 
ATOM      8  O   UNL     1       8.945   7.553  12.985  1.00  0.00    -0.545 OA
ATOM      9  O   UNL     1       7.779   8.622  14.632  1.00  0.00    -0.545 OA
ENDBRANCH   1   7
TORSDOF 1
ENDMDL
MODEL 4
REMARK VINA RESULT:    -3.201      2.810      3.903
REMARK INTER + INTRA:          -3.407
REMARK INTER:                  -3.388
REMARK INTRA:                  -0.019
REMARK UNBOUND:                -0.018
REMARK SMILES O=C([O-])c1cccnc1
REMARK SMILES IDX 4 1 5 2 9 3 6 4 8 5 7 6 2 7 1 8 3 9
REMARK H PARENT
REMARK Flexibility Score: inf
ROOT
ATOM      1  C   UNL     1       6.258   6.826  12.992  1.00  0.00     0.016 A 
ATOM      2  C   UNL     1       6.491   7.619  14.127  1.00  0.00     0.013 A 
ATOM      3  C   UNL     1       7.324   6.604  12.103  1.00  0.00     0.120 A 
ATOM      4  C   UNL     1       7.756   8.167  14.353  1.00  0.00     0.021 A 
ATOM      5  N   UNL     1       8.546   7.150  12.345  1.00  0.00    -0.264 NA
ATOM      6  C   UNL     1       8.781   7.918  13.440  1.00  0.00     0.111 A 
ENDROOT
BRANCH   1   7
ATOM      7  C   UNL     1       4.924   6.240  12.744  1.00  0.00     0.073 C 
ATOM      8  O   UNL     1       3.897   6.968  12.734  1.00  0.00    -0.545 OA
ATOM      9  O   UNL     1       4.786   4.875  12.519  1.00  0.00    -0.545 OA
ENDBRANCH   1   7
TORSDOF 1
ENDMDL
