MODEL 1
REMARK VINA RESULT:    -5.050      0.000      0.000
REMARK INTER + INTRA:         -17.096
REMARK INTER:                 -12.725
REMARK INTRA:                  -4.371
REMARK UNBOUND:                -4.371
REMARK SMILES CCCCCCCCCCCCCCCCCCCCCCCCCCCC(=O)[O-]
REMARK SMILES IDX 15 1 16 2 17 3 18 4 19 5 20 6 21 7 22 8 23 9 24 10 25 11
REMARK SMILES IDX 26 12 27 13 28 14 29 15 30 16 14 17 13 18 12 19 11 20 10 21
REMARK SMILES IDX 9 22 8 23 7 24 6 25 5 26 4 27 3 28 2 29 1 30
REMARK H PARENT
REMARK Flexibility Score: inf
ROOT
ATOM      1  C   UNL     1      19.893  26.694  33.313  1.00  0.00     0.000 C 
ENDROOT
BRANCH   1   2
ATOM      2  C   UNL     1      20.708  25.822  34.287  1.00  0.00     0.000 C 
BRANCH   2   3
ATOM      3  C   UNL     1      21.293  26.598  35.486  1.00  0.00     0.000 C 
BRANCH   3   4
ATOM      4  C   UNL     1      21.129  28.122  35.344  1.00  0.00     0.000 C 
BRANCH   4   5
ATOM      5  C   UNL     1      20.582  28.769  36.626  1.00  0.00     0.000 C 
BRANCH   5   6
ATOM      6  C   UNL     1      19.497  29.821  36.332  1.00  0.00     0.000 C 
BRANCH   6   7
ATOM      7  C   UNL     1      19.002  29.762  34.878  1.00  0.00     0.000 C 
BRANCH   7   8
ATOM      8  C   UNL     1      17.667  29.014  34.743  1.00  0.00     0.000 C 
BRANCH   8   9
ATOM      9  C   UNL     1      16.479  29.981  34.869  1.00  0.00     0.000 C 
BRANCH   9  10
ATOM     10  C   UNL     1      16.623  31.214  33.963  1.00  0.00     0.000 C 
BRANCH  10  11
ATOM     11  C   UNL     1      16.479  32.537  34.733  1.00  0.00     0.000 C 
BRANCH  11  12
ATOM     12  C   UNL     1      16.034  32.324  36.189  1.00  0.00     0.006 C 
BRANCH  12  13
ATOM     13  C   UNL     1      15.721  33.643  36.908  1.00  0.00     0.053 C 
BRANCH  13  14
ATOM     14  C   UNL     1      16.957  34.472  37.044  1.00  0.00     0.041 C 
ATOM     15  O   UNL     1      16.980  35.653  36.609  1.00  0.00    -0.550 OA
ATOM     16  O   UNL     1      18.100  33.928  37.618  1.00  0.00    -0.550 OA
ENDBRANCH  13  14
ENDBRANCH  12  13
ENDBRANCH  11  12
ENDBRANCH  10  11
ENDBRANCH   9  10
ENDBRANCH   8   9
ENDBRANCH   7   8
ENDBRANCH   6   7
ENDBRANCH   5   6
ENDBRANCH   4   5
ENDBRANCH   3   4
ENDBRANCH   2   3
ENDBRANCH   1   2
BRANCH   1  17
ATOM     17  C   UNL     1      20.506  26.863  31.909  1.00  0.00     0.000 C 
BRANCH  17  18
ATOM     18  C   UNL     1      19.942  28.035  31.083  1.00  0.00     0.000 C 
BRANCH  18  19
ATOM     19  C   UNL     1      18.407  28.055  31.041  1.00  0.00     0.000 C 
BRANCH  19  20
ATOM     20  C   UNL     1      17.876  29.496  31.048  1.00  0.00     0.000 C 
BRANCH  20  21
ATOM     21  C   UNL     1      18.983  30.548  30.843  1.00  0.00     0.000 C 
BRANCH  21  22
ATOM     22  C   UNL     1      18.638  31.688  29.866  1.00  0.00    -0.000 C 
BRANCH  22  23
ATOM     23  C   UNL     1      18.395  31.195  28.429  1.00  0.00    -0.000 C 
BRANCH  23  24
ATOM     24  C   UNL     1      19.660  30.610  27.780  1.00  0.00    -0.000 C 
BRANCH  24  25
ATOM     25  C   UNL     1      19.487  29.149  27.340  1.00  0.00    -0.000 C 
BRANCH  25  26
ATOM     26  C   UNL     1      18.015  28.721  27.441  1.00  0.00    -0.000 C 
BRANCH  26  27
ATOM     27  C   UNL     1      17.825  27.201  27.304  1.00  0.00    -0.000 C 
BRANCH  27  28
ATOM     28  C   UNL     1      19.087  26.413  27.694  1.00  0.00    -0.000 C 
BRANCH  28  29
ATOM     29  C   UNL     1      18.779  25.233  28.629  1.00  0.00    -0.003 C 
ATOM     30  C   UNL     1      18.913  23.877  27.937  1.00  0.00     0.004 C 
ENDBRANCH  28  29
ENDBRANCH  27  28
ENDBRANCH  26  27
ENDBRANCH  25  26
ENDBRANCH  24  25
ENDBRANCH  23  24
ENDBRANCH  22  23
ENDBRANCH  21  22
ENDBRANCH  20  21
ENDBRANCH  19  20
ENDBRANCH  18  19
ENDBRANCH  17  18
ENDBRANCH   1  17
TORSDOF 26
ENDMDL
MODEL 2
REMARK VINA RESULT:    -5.020      1.564      3.151
REMARK INTER + INTRA:         -17.021
REMARK INTER:                 -12.674
REMARK INTRA:                  -4.347
REMARK UNBOUND:                -4.371
REMARK SMILES CCCCCCCCCCCCCCCCCCCCCCCCCCCC(=O)[O-]
REMARK SMILES IDX 15 1 16 2 17 3 18 4 19 5 20 6 21 7 22 8 23 9 24 10 25 11
REMARK SMILES IDX 26 12 27 13 28 14 29 15 30 16 14 17 13 18 12 19 11 20 10 21
REMARK SMILES IDX 9 22 8 23 7 24 6 25 5 26 4 27 3 28 2 29 1 30
REMARK H PARENT
REMARK Flexibility Score: inf
ROOT
ATOM      1  C   UNL     1      18.679  28.448  31.388  1.00  0.00     0.000 C 
ENDROOT
BRANCH   1   2
ATOM      2  C   UNL     1      20.208  28.462  31.195  1.00  0.00     0.000 C 
BRANCH   2   3
ATOM      3  C   UNL     1      20.873  27.078  31.351  1.00  0.00     0.000 C 
BRANCH   3   4
ATOM      4  C   UNL     1      20.178  26.201  32.407  1.00  0.00     0.000 C 
BRANCH   4   5
ATOM      5  C   UNL     1      20.759  26.414  33.814  1.00  0.00     0.000 C 
BRANCH   5   6
ATOM      6  C   UNL     1      19.767  27.122  34.754  1.00  0.00     0.000 C 
BRANCH   6   7
ATOM      7  C   UNL     1      20.139  28.593  34.998  1.00  0.00     0.000 C 
BRANCH   7   8
ATOM      8  C   UNL     1      18.928  29.441  35.417  1.00  0.00     0.000 C 
BRANCH   8   9
ATOM      9  C   UNL     1      17.618  28.827  34.896  1.00  0.00     0.000 C 
BRANCH   9  10
ATOM     10  C   UNL     1      16.525  29.881  34.663  1.00  0.00     0.000 C 
BRANCH  10  11
ATOM     11  C   UNL     1      16.955  31.289  35.107  1.00  0.00     0.000 C 
BRANCH  11  12
ATOM     12  C   UNL     1      16.577  32.371  34.082  1.00  0.00     0.006 C 
BRANCH  12  13
ATOM     13  C   UNL     1      16.178  33.696  34.745  1.00  0.00     0.053 C 
BRANCH  13  14
ATOM     14  C   UNL     1      15.638  34.649  33.727  1.00  0.00     0.041 C 
ATOM     15  O   UNL     1      14.702  35.434  34.028  1.00  0.00    -0.550 OA
ATOM     16  O   UNL     1      16.144  34.644  32.432  1.00  0.00    -0.550 OA
ENDBRANCH  13  14
ENDBRANCH  12  13
ENDBRANCH  11  12
ENDBRANCH  10  11
ENDBRANCH   9  10
ENDBRANCH   8   9
ENDBRANCH   7   8
ENDBRANCH   6   7
ENDBRANCH   5   6
ENDBRANCH   4   5
ENDBRANCH   3   4
ENDBRANCH   2   3
ENDBRANCH   1   2
BRANCH   1  17
ATOM     17  C   UNL     1      17.991  29.824  31.294  1.00  0.00     0.000 C 
BRANCH  17  18
ATOM     18  C   UNL     1      18.936  31.037  31.380  1.00  0.00     0.000 C 
BRANCH  18  19
ATOM     19  C   UNL     1      18.431  32.250  30.583  1.00  0.00     0.000 C 
BRANCH  19  20
ATOM     20  C   UNL     1      18.450  31.963  29.075  1.00  0.00     0.000 C 
BRANCH  20  21
ATOM     21  C   UNL     1      19.728  31.237  28.615  1.00  0.00     0.000 C 
BRANCH  21  22
ATOM     22  C   UNL     1      19.508  30.070  27.633  1.00  0.00    -0.000 C 
BRANCH  22  23
ATOM     23  C   UNL     1      18.170  29.342  27.855  1.00  0.00    -0.000 C 
BRANCH  23  24
ATOM     24  C   UNL     1      18.129  27.958  27.188  1.00  0.00    -0.000 C 
BRANCH  24  25
ATOM     25  C   UNL     1      19.153  26.976  27.780  1.00  0.00    -0.000 C 
BRANCH  25  26
ATOM     26  C   UNL     1      18.479  25.647  28.152  1.00  0.00    -0.000 C 
BRANCH  26  27
ATOM     27  C   UNL     1      19.463  24.625  28.747  1.00  0.00    -0.000 C 
BRANCH  27  28
ATOM     28  C   UNL     1      19.025  23.172  28.496  1.00  0.00    -0.000 C 
BRANCH  28  29
ATOM     29  C   UNL     1      19.490  22.218  29.607  1.00  0.00    -0.003 C 
ATOM     30  C   UNL     1      18.452  21.145  29.939  1.00  0.00     0.004 C 
ENDBRANCH  28  29
ENDBRANCH  27  28
ENDBRANCH  26  27
ENDBRANCH  25  26
ENDBRANCH  24  25
ENDBRANCH  23  24
ENDBRANCH  22  23
ENDBRANCH  21  22
ENDBRANCH  20  21
ENDBRANCH  19  20
ENDBRANCH  18  19
ENDBRANCH  17  18
ENDBRANCH   1  17
TORSDOF 26
ENDMDL
MODEL 3
REMARK VINA RESULT:    -5.011      1.259      2.147
REMARK INTER + INTRA:         -17.000
REMARK INTER:                 -12.967
REMARK INTRA:                  -4.033
REMARK UNBOUND:                -4.371
REMARK SMILES CCCCCCCCCCCCCCCCCCCCCCCCCCCC(=O)[O-]
REMARK SMILES IDX 15 1 16 2 17 3 18 4 19 5 20 6 21 7 22 8 23 9 24 10 25 11
REMARK SMILES IDX 26 12 27 13 28 14 29 15 30 16 14 17 13 18 12 19 11 20 10 21
REMARK SMILES IDX 9 22 8 23 7 24 6 25 5 26 4 27 3 28 2 29 1 30
REMARK H PARENT
REMARK Flexibility Score: inf
ROOT
ATOM      1  C   UNL     1      20.281  26.458  33.953  1.00  0.00     0.000 C 
ENDROOT
BRANCH   1   2
ATOM      2  C   UNL     1      20.717  27.841  34.476  1.00  0.00     0.000 C 
BRANCH   2   3
ATOM      3  C   UNL     1      19.944  28.312  35.726  1.00  0.00     0.000 C 
BRANCH   3   4
ATOM      4  C   UNL     1      18.948  29.444  35.418  1.00  0.00     0.000 C 
BRANCH   4   5
ATOM      5  C   UNL     1      17.622  28.913  34.851  1.00  0.00     0.000 C 
BRANCH   5   6
ATOM      6  C   UNL     1      16.508  29.975  34.879  1.00  0.00     0.000 C 
BRANCH   6   7
ATOM      7  C   UNL     1      17.055  31.402  34.716  1.00  0.00     0.000 C 
BRANCH   7   8
ATOM      8  C   UNL     1      16.645  32.037  33.379  1.00  0.00     0.000 C 
BRANCH   8   9
ATOM      9  C   UNL     1      16.724  33.571  33.449  1.00  0.00     0.000 C 
BRANCH   9  10
ATOM     10  C   UNL     1      15.357  34.220  33.713  1.00  0.00     0.000 C 
BRANCH  10  11
ATOM     11  C   UNL     1      15.420  35.320  34.786  1.00  0.00     0.000 C 
BRANCH  11  12
ATOM     12  C   UNL     1      16.151  34.861  36.058  1.00  0.00     0.006 C 
BRANCH  12  13
ATOM     13  C   UNL     1      15.185  34.516  37.200  1.00  0.00     0.053 C 
BRANCH  13  14
ATOM     14  C   UNL     1      15.593  33.240  37.863  1.00  0.00     0.041 C 
ATOM     15  O   UNL     1      15.132  32.141  37.459  1.00  0.00    -0.550 OA
ATOM     16  O   UNL     1      16.455  33.266  38.953  1.00  0.00    -0.550 OA
ENDBRANCH  13  14
ENDBRANCH  12  13
ENDBRANCH  11  12
ENDBRANCH  10  11
ENDBRANCH   9  10
ENDBRANCH   8   9
ENDBRANCH   7   8
ENDBRANCH   6   7
ENDBRANCH   5   6
ENDBRANCH   4   5
ENDBRANCH   3   4
ENDBRANCH   2   3
ENDBRANCH   1   2
BRANCH   1  17
ATOM     17  C   UNL     1      20.089  26.362  32.427  1.00  0.00     0.000 C 
BRANCH  17  18
ATOM     18  C   UNL     1      20.007  27.712  31.689  1.00  0.00     0.000 C 
BRANCH  18  19
ATOM     19  C   UNL     1      18.622  27.982  31.083  1.00  0.00     0.000 C 
BRANCH  19  20
ATOM     20  C   UNL     1      18.134  29.395  31.435  1.00  0.00     0.000 C 
BRANCH  20  21
ATOM     21  C   UNL     1      19.285  30.400  31.628  1.00  0.00     0.000 C 
BRANCH  21  22
ATOM     22  C   UNL     1      19.628  31.257  30.394  1.00  0.00    -0.000 C 
BRANCH  22  23
ATOM     23  C   UNL     1      18.398  31.586  29.531  1.00  0.00    -0.000 C 
BRANCH  23  24
ATOM     24  C   UNL     1      18.540  31.094  28.081  1.00  0.00    -0.000 C 
BRANCH  24  25
ATOM     25  C   UNL     1      19.777  30.208  27.868  1.00  0.00    -0.000 C 
BRANCH  25  26
ATOM     26  C   UNL     1      19.438  29.009  26.968  1.00  0.00    -0.000 C 
BRANCH  26  27
ATOM     27  C   UNL     1      18.331  28.117  27.554  1.00  0.00    -0.000 C 
BRANCH  27  28
ATOM     28  C   UNL     1      18.467  26.648  27.118  1.00  0.00    -0.000 C 
BRANCH  28  29
ATOM     29  C   UNL     1      19.151  25.779  28.184  1.00  0.00    -0.003 C 
ATOM     30  C   UNL     1      18.818  24.293  28.042  1.00  0.00     0.004 C 
ENDBRANCH  28  29
ENDBRANCH  27  28
ENDBRANCH  26  27
ENDBRANCH  25  26
ENDBRANCH  24  25
ENDBRANCH  23  24
ENDBRANCH  22  23
ENDBRANCH  21  22
ENDBRANCH  20  21
ENDBRANCH  19  20
ENDBRANCH  18  19
ENDBRANCH  17  18
ENDBRANCH   1  17
TORSDOF 26
ENDMDL
MODEL 4
REMARK VINA RESULT:    -4.941      4.488      9.358
REMARK INTER + INTRA:         -16.823
REMARK INTER:                 -13.311
REMARK INTRA:                  -3.512
REMARK UNBOUND:                -4.371
REMARK SMILES CCCCCCCCCCCCCCCCCCCCCCCCCCCC(=O)[O-]
REMARK SMILES IDX 15 1 16 2 17 3 18 4 19 5 20 6 21 7 22 8 23 9 24 10 25 11
REMARK SMILES IDX 26 12 27 13 28 14 29 15 30 16 14 17 13 18 12 19 11 20 10 21
REMARK SMILES IDX 9 22 8 23 7 24 6 25 5 26 4 27 3 28 2 29 1 30
REMARK H PARENT
REMARK Flexibility Score: inf
ROOT
ATOM      1  C   UNL     1      20.939  26.801  31.824  1.00  0.00     0.000 C 
ENDROOT
BRANCH   1   2
ATOM      2  C   UNL     1      19.534  27.083  31.257  1.00  0.00     0.000 C 
BRANCH   2   3
ATOM      3  C   UNL     1      19.016  28.508  31.544  1.00  0.00     0.000 C 
BRANCH   3   4
ATOM      4  C   UNL     1      18.008  28.998  30.488  1.00  0.00     0.000 C 
BRANCH   4   5
ATOM      5  C   UNL     1      18.390  30.371  29.913  1.00  0.00     0.000 C 
BRANCH   5   6
ATOM      6  C   UNL     1      18.508  30.348  28.378  1.00  0.00     0.000 C 
BRANCH   6   7
ATOM      7  C   UNL     1      18.171  28.971  27.784  1.00  0.00     0.000 C 
BRANCH   7   8
ATOM      8  C   UNL     1      19.309  28.415  26.914  1.00  0.00     0.000 C 
BRANCH   8   9
ATOM      9  C   UNL     1      19.908  27.144  27.537  1.00  0.00     0.000 C 
BRANCH   9  10
ATOM     10  C   UNL     1      18.897  25.989  27.607  1.00  0.00     0.000 C 
BRANCH  10  11
ATOM     11  C   UNL     1      19.407  24.805  28.445  1.00  0.00     0.000 C 
BRANCH  11  12
ATOM     12  C   UNL     1      18.917  23.450  27.910  1.00  0.00     0.006 C 
BRANCH  12  13
ATOM     13  C   UNL     1      18.887  22.364  28.993  1.00  0.00     0.053 C 
BRANCH  13  14
ATOM     14  C   UNL     1      19.075  21.011  28.385  1.00  0.00     0.041 C 
ATOM     15  O   UNL     1      18.910  19.975  29.080  1.00  0.00    -0.550 OA
ATOM     16  O   UNL     1      19.469  20.894  27.057  1.00  0.00    -0.550 OA
ENDBRANCH  13  14
ENDBRANCH  12  13
ENDBRANCH  11  12
ENDBRANCH  10  11
ENDBRANCH   9  10
ENDBRANCH   8   9
ENDBRANCH   7   8
ENDBRANCH   6   7
ENDBRANCH   5   6
ENDBRANCH   4   5
ENDBRANCH   3   4
ENDBRANCH   2   3
ENDBRANCH   1   2
BRANCH   1  17
ATOM     17  C   UNL     1      21.056  25.530  32.689  1.00  0.00     0.000 C 
BRANCH  17  18
ATOM     18  C   UNL     1      21.125  25.775  34.209  1.00  0.00     0.000 C 
BRANCH  18  19
ATOM     19  C   UNL     1      19.913  26.551  34.747  1.00  0.00     0.000 C 
BRANCH  19  20
ATOM     20  C   UNL     1      20.355  27.839  35.456  1.00  0.00     0.000 C 
BRANCH  20  21
ATOM     21  C   UNL     1      19.454  29.046  35.132  1.00  0.00     0.000 C 
BRANCH  21  22
ATOM     22  C   UNL     1      17.975  28.711  34.858  1.00  0.00    -0.000 C 
BRANCH  22  23
ATOM     23  C   UNL     1      17.049  29.932  34.989  1.00  0.00    -0.000 C 
BRANCH  23  24
ATOM     24  C   UNL     1      16.440  30.363  33.644  1.00  0.00    -0.000 C 
BRANCH  24  25
ATOM     25  C   UNL     1      17.096  31.626  33.066  1.00  0.00    -0.000 C 
BRANCH  25  26
ATOM     26  C   UNL     1      17.405  32.637  34.180  1.00  0.00    -0.000 C 
BRANCH  26  27
ATOM     27  C   UNL     1      16.219  33.567  34.487  1.00  0.00    -0.000 C 
BRANCH  27  28
ATOM     28  C   UNL     1      16.050  33.827  35.994  1.00  0.00    -0.000 C 
BRANCH  28  29
ATOM     29  C   UNL     1      15.515  32.600  36.747  1.00  0.00    -0.003 C 
ATOM     30  C   UNL     1      16.157  32.421  38.123  1.00  0.00     0.004 C 
ENDBRANCH  28  29
ENDBRANCH  27  28
ENDBRANCH  26  27
ENDBRANCH  25  26
ENDBRANCH  24  25
ENDBRANCH  23  24
ENDBRANCH  22  23
ENDBRANCH  21  22
ENDBRANCH  20  21
ENDBRANCH  19  20
ENDBRANCH  18  19
ENDBRANCH  17  18
ENDBRANCH   1  17
TORSDOF 26
ENDMDL
MODEL 5
REMARK VINA RESULT:    -4.914      4.146      9.174
REMARK INTER + INTRA:         -16.754
REMARK INTER:                 -13.016
REMARK INTRA:                  -3.738
REMARK UNBOUND:                -4.371
REMARK SMILES CCCCCCCCCCCCCCCCCCCCCCCCCCCC(=O)[O-]
REMARK SMILES IDX 15 1 16 2 17 3 18 4 19 5 20 6 21 7 22 8 23 9 24 10 25 11
REMARK SMILES IDX 26 12 27 13 28 14 29 15 30 16 14 17 13 18 12 19 11 20 10 21
REMARK SMILES IDX 9 22 8 23 7 24 6 25 5 26 4 27 3 28 2 29 1 30
REMARK H PARENT
REMARK Flexibility Score: inf
ROOT
ATOM      1  C   UNL     1      19.844  26.988  32.206  1.00  0.00     0.000 C 
ENDROOT
BRANCH   1   2
ATOM      2  C   UNL     1      19.217  28.286  31.660  1.00  0.00     0.000 C 
BRANCH   2   3
ATOM      3  C   UNL     1      19.996  29.565  32.034  1.00  0.00     0.000 C 
BRANCH   3   4
ATOM      4  C   UNL     1      19.470  30.815  31.306  1.00  0.00     0.000 C 
BRANCH   4   5
ATOM      5  C   UNL     1      18.371  30.475  30.286  1.00  0.00     0.000 C 
BRANCH   5   6
ATOM      6  C   UNL     1      18.363  31.445  29.092  1.00  0.00     0.000 C 
BRANCH   6   7
ATOM      7  C   UNL     1      18.928  30.807  27.813  1.00  0.00     0.000 C 
BRANCH   7   8
ATOM      8  C   UNL     1      19.157  29.295  27.965  1.00  0.00     0.000 C 
BRANCH   8   9
ATOM      9  C   UNL     1      17.878  28.508  27.637  1.00  0.00     0.000 C 
BRANCH   9  10
ATOM     10  C   UNL     1      17.795  27.175  28.397  1.00  0.00     0.000 C 
BRANCH  10  11
ATOM     11  C   UNL     1      19.015  26.272  28.144  1.00  0.00     0.000 C 
BRANCH  11  12
ATOM     12  C   UNL     1      18.622  24.804  27.913  1.00  0.00     0.006 C 
BRANCH  12  13
ATOM     13  C   UNL     1      19.385  23.839  28.831  1.00  0.00     0.053 C 
BRANCH  13  14
ATOM     14  C   UNL     1      19.056  22.421  28.489  1.00  0.00     0.041 C 
ATOM     15  O   UNL     1      18.445  21.696  29.316  1.00  0.00    -0.550 OA
ATOM     16  O   UNL     1      19.456  21.888  27.269  1.00  0.00    -0.550 OA
ENDBRANCH  13  14
ENDBRANCH  12  13
ENDBRANCH  11  12
ENDBRANCH  10  11
ENDBRANCH   9  10
ENDBRANCH   8   9
ENDBRANCH   7   8
ENDBRANCH   6   7
ENDBRANCH   5   6
ENDBRANCH   4   5
ENDBRANCH   3   4
ENDBRANCH   2   3
ENDBRANCH   1   2
BRANCH   1  17
ATOM     17  C   UNL     1      20.486  27.103  33.602  1.00  0.00     0.000 C 
BRANCH  17  18
ATOM     18  C   UNL     1      19.497  27.320  34.764  1.00  0.00     0.000 C 
BRANCH  18  19
ATOM     19  C   UNL     1      19.826  28.559  35.610  1.00  0.00     0.000 C 
BRANCH  19  20
ATOM     20  C   UNL     1      18.712  29.609  35.504  1.00  0.00     0.000 C 
BRANCH  20  21
ATOM     21  C   UNL     1      17.416  29.054  34.881  1.00  0.00     0.000 C 
BRANCH  21  22
ATOM     22  C   UNL     1      16.455  30.111  34.304  1.00  0.00    -0.000 C 
BRANCH  22  23
ATOM     23  C   UNL     1      17.160  31.427  33.936  1.00  0.00    -0.000 C 
BRANCH  23  24
ATOM     24  C   UNL     1      16.263  32.659  34.141  1.00  0.00    -0.000 C 
BRANCH  24  25
ATOM     25  C   UNL     1      16.790  33.611  35.226  1.00  0.00    -0.000 C 
BRANCH  25  26
ATOM     26  C   UNL     1      15.809  33.687  36.406  1.00  0.00    -0.000 C 
BRANCH  26  27
ATOM     27  C   UNL     1      15.642  32.342  37.132  1.00  0.00    -0.000 C 
BRANCH  27  28
ATOM     28  C   UNL     1      16.338  32.324  38.504  1.00  0.00    -0.000 C 
BRANCH  28  29
ATOM     29  C   UNL     1      17.836  31.997  38.400  1.00  0.00    -0.003 C 
ATOM     30  C   UNL     1      18.728  33.197  38.717  1.00  0.00     0.004 C 
ENDBRANCH  28  29
ENDBRANCH  27  28
ENDBRANCH  26  27
ENDBRANCH  25  26
ENDBRANCH  24  25
ENDBRANCH  23  24
ENDBRANCH  22  23
ENDBRANCH  21  22
ENDBRANCH  20  21
ENDBRANCH  19  20
ENDBRANCH  18  19
ENDBRANCH  17  18
ENDBRANCH   1  17
TORSDOF 26
ENDMDL
MODEL 6
REMARK VINA RESULT:    -4.821      1.561      2.619
REMARK INTER + INTRA:         -16.521
REMARK INTER:                 -11.660
REMARK INTRA:                  -4.861
REMARK UNBOUND:                -4.371
REMARK SMILES CCCCCCCCCCCCCCCCCCCCCCCCCCCC(=O)[O-]
REMARK SMILES IDX 15 1 16 2 17 3 18 4 19 5 20 6 21 7 22 8 23 9 24 10 25 11
REMARK SMILES IDX 26 12 27 13 28 14 29 15 30 16 14 17 13 18 12 19 11 20 10 21
REMARK SMILES IDX 9 22 8 23 7 24 6 25 5 26 4 27 3 28 2 29 1 30
REMARK H PARENT
REMARK Flexibility Score: inf
ROOT
ATOM      1  C   UNL     1      19.924  26.773  33.353  1.00  0.00     0.000 C 
ENDROOT
BRANCH   1   2
ATOM      2  C   UNL     1      19.805  28.127  34.081  1.00  0.00     0.000 C 
BRANCH   2   3
ATOM      3  C   UNL     1      18.508  28.286  34.902  1.00  0.00     0.000 C 
BRANCH   3   4
ATOM      4  C   UNL     1      18.022  29.745  34.968  1.00  0.00     0.000 C 
BRANCH   4   5
ATOM      5  C   UNL     1      19.015  30.719  34.314  1.00  0.00     0.000 C 
BRANCH   5   6
ATOM      6  C   UNL     1      18.321  31.976  33.761  1.00  0.00     0.000 C 
BRANCH   6   7
ATOM      7  C   UNL     1      16.789  31.875  33.821  1.00  0.00     0.000 C 
BRANCH   7   8
ATOM      8  C   UNL     1      16.110  33.253  33.820  1.00  0.00     0.000 C 
BRANCH   8   9
ATOM      9  C   UNL     1      15.918  33.774  35.254  1.00  0.00     0.000 C 
BRANCH   9  10
ATOM     10  C   UNL     1      15.813  32.639  36.284  1.00  0.00     0.000 C 
BRANCH  10  11
ATOM     11  C   UNL     1      16.607  32.929  37.569  1.00  0.00     0.000 C 
BRANCH  11  12
ATOM     12  C   UNL     1      18.074  32.480  37.468  1.00  0.00     0.006 C 
BRANCH  12  13
ATOM     13  C   UNL     1      18.496  31.581  38.637  1.00  0.00     0.053 C 
BRANCH  13  14
ATOM     14  C   UNL     1      19.448  32.303  39.536  1.00  0.00     0.041 C 
ATOM     15  O   UNL     1      20.242  31.657  40.268  1.00  0.00    -0.550 OA
ATOM     16  O   UNL     1      19.434  33.692  39.593  1.00  0.00    -0.550 OA
ENDBRANCH  13  14
ENDBRANCH  12  13
ENDBRANCH  11  12
ENDBRANCH  10  11
ENDBRANCH   9  10
ENDBRANCH   8   9
ENDBRANCH   7   8
ENDBRANCH   6   7
ENDBRANCH   5   6
ENDBRANCH   4   5
ENDBRANCH   3   4
ENDBRANCH   2   3
ENDBRANCH   1   2
BRANCH   1  17
ATOM     17  C   UNL     1      20.413  26.851  31.894  1.00  0.00     0.000 C 
BRANCH  17  18
ATOM     18  C   UNL     1      19.908  28.068  31.096  1.00  0.00     0.000 C 
BRANCH  18  19
ATOM     19  C   UNL     1      18.379  28.097  30.950  1.00  0.00     0.000 C 
BRANCH  19  20
ATOM     20  C   UNL     1      17.847  29.536  31.021  1.00  0.00     0.000 C 
BRANCH  20  21
ATOM     21  C   UNL     1      18.880  30.584  30.566  1.00  0.00     0.000 C 
BRANCH  21  22
ATOM     22  C   UNL     1      18.371  31.607  29.532  1.00  0.00    -0.000 C 
BRANCH  22  23
ATOM     23  C   UNL     1      18.623  31.168  28.079  1.00  0.00    -0.000 C 
BRANCH  23  24
ATOM     24  C   UNL     1      19.811  30.201  27.948  1.00  0.00    -0.000 C 
BRANCH  24  25
ATOM     25  C   UNL     1      19.433  28.876  27.268  1.00  0.00    -0.000 C 
BRANCH  25  26
ATOM     26  C   UNL     1      17.909  28.683  27.261  1.00  0.00    -0.000 C 
BRANCH  26  27
ATOM     27  C   UNL     1      17.486  27.262  27.670  1.00  0.00    -0.000 C 
BRANCH  27  28
ATOM     28  C   UNL     1      18.503  26.196  27.229  1.00  0.00    -0.000 C 
BRANCH  28  29
ATOM     29  C   UNL     1      18.777  25.156  28.326  1.00  0.00    -0.003 C 
ATOM     30  C   UNL     1      20.263  25.031  28.666  1.00  0.00     0.004 C 
ENDBRANCH  28  29
ENDBRANCH  27  28
ENDBRANCH  26  27
ENDBRANCH  25  26
ENDBRANCH  24  25
ENDBRANCH  23  24
ENDBRANCH  22  23
ENDBRANCH  21  22
ENDBRANCH  20  21
ENDBRANCH  19  20
ENDBRANCH  18  19
ENDBRANCH  17  18
ENDBRANCH   1  17
TORSDOF 26
ENDMDL
MODEL 7
REMARK VINA RESULT:    -4.816      1.519      3.284
REMARK INTER + INTRA:         -16.507
REMARK INTER:                 -13.463
REMARK INTRA:                  -3.044
REMARK UNBOUND:                -4.371
REMARK SMILES CCCCCCCCCCCCCCCCCCCCCCCCCCCC(=O)[O-]
REMARK SMILES IDX 15 1 16 2 17 3 18 4 19 5 20 6 21 7 22 8 23 9 24 10 25 11
REMARK SMILES IDX 26 12 27 13 28 14 29 15 30 16 14 17 13 18 12 19 11 20 10 21
REMARK SMILES IDX 9 22 8 23 7 24 6 25 5 26 4 27 3 28 2 29 1 30
REMARK H PARENT
REMARK Flexibility Score: inf
ROOT
ATOM      1  C   UNL     1      19.866  27.678  34.921  1.00  0.00     0.000 C 
ENDROOT
BRANCH   1   2
ATOM      2  C   UNL     1      18.395  28.111  34.759  1.00  0.00     0.000 C 
BRANCH   2   3
ATOM      3  C   UNL     1      18.130  29.584  35.135  1.00  0.00     0.000 C 
BRANCH   3   4
ATOM      4  C   UNL     1      16.685  30.022  34.836  1.00  0.00     0.000 C 
BRANCH   4   5
ATOM      5  C   UNL     1      16.541  30.638  33.435  1.00  0.00     0.000 C 
BRANCH   5   6
ATOM      6  C   UNL     1      17.812  31.386  32.994  1.00  0.00     0.000 C 
BRANCH   6   7
ATOM      7  C   UNL     1      17.523  32.838  32.577  1.00  0.00     0.000 C 
BRANCH   7   8
ATOM      8  C   UNL     1      17.187  33.736  33.777  1.00  0.00     0.000 C 
BRANCH   8   9
ATOM      9  C   UNL     1      15.703  34.138  33.766  1.00  0.00     0.000 C 
BRANCH   9  10
ATOM     10  C   UNL     1      15.333  35.057  34.941  1.00  0.00     0.000 C 
BRANCH  10  11
ATOM     11  C   UNL     1      16.051  34.670  36.245  1.00  0.00     0.000 C 
BRANCH  11  12
ATOM     12  C   UNL     1      15.174  33.805  37.165  1.00  0.00     0.006 C 
BRANCH  12  13
ATOM     13  C   UNL     1      15.766  32.409  37.400  1.00  0.00     0.053 C 
BRANCH  13  14
ATOM     14  C   UNL     1      16.753  32.441  38.523  1.00  0.00     0.041 C 
ATOM     15  O   UNL     1      17.784  31.721  38.480  1.00  0.00    -0.550 OA
ATOM     16  O   UNL     1      16.515  33.238  39.636  1.00  0.00    -0.550 OA
ENDBRANCH  13  14
ENDBRANCH  12  13
ENDBRANCH  11  12
ENDBRANCH  10  11
ENDBRANCH   9  10
ENDBRANCH   8   9
ENDBRANCH   7   8
ENDBRANCH   6   7
ENDBRANCH   5   6
ENDBRANCH   4   5
ENDBRANCH   3   4
ENDBRANCH   2   3
ENDBRANCH   1   2
BRANCH   1  17
ATOM     17  C   UNL     1      20.249  26.368  34.205  1.00  0.00     0.000 C 
BRANCH  17  18
ATOM     18  C   UNL     1      20.903  26.544  32.821  1.00  0.00     0.000 C 
BRANCH  18  19
ATOM     19  C   UNL     1      19.877  26.699  31.688  1.00  0.00     0.000 C 
BRANCH  19  20
ATOM     20  C   UNL     1      19.669  28.178  31.333  1.00  0.00     0.000 C 
BRANCH  20  21
ATOM     21  C   UNL     1      18.283  28.463  30.722  1.00  0.00     0.000 C 
BRANCH  21  22
ATOM     22  C   UNL     1      18.239  29.605  29.689  1.00  0.00    -0.000 C 
BRANCH  22  23
ATOM     23  C   UNL     1      18.679  29.161  28.283  1.00  0.00    -0.000 C 
BRANCH  23  24
ATOM     24  C   UNL     1      17.724  28.130  27.660  1.00  0.00    -0.000 C 
BRANCH  24  25
ATOM     25  C   UNL     1      18.459  26.947  27.010  1.00  0.00    -0.000 C 
BRANCH  25  26
ATOM     26  C   UNL     1      18.974  25.973  28.081  1.00  0.00    -0.000 C 
BRANCH  26  27
ATOM     27  C   UNL     1      18.682  24.502  27.738  1.00  0.00    -0.000 C 
BRANCH  27  28
ATOM     28  C   UNL     1      19.344  23.526  28.725  1.00  0.00    -0.000 C 
BRANCH  28  29
ATOM     29  C   UNL     1      18.836  22.085  28.557  1.00  0.00    -0.003 C 
ATOM     30  C   UNL     1      18.636  21.367  29.893  1.00  0.00     0.004 C 
ENDBRANCH  28  29
ENDBRANCH  27  28
ENDBRANCH  26  27
ENDBRANCH  25  26
ENDBRANCH  24  25
ENDBRANCH  23  24
ENDBRANCH  22  23
ENDBRANCH  21  22
ENDBRANCH  20  21
ENDBRANCH  19  20
ENDBRANCH  18  19
ENDBRANCH  17  18
ENDBRANCH   1  17
TORSDOF 26
ENDMDL
MODEL 8
REMARK VINA RESULT:    -4.810      3.804      8.814
REMARK INTER + INTRA:         -16.492
REMARK INTER:                 -12.756
REMARK INTRA:                  -3.737
REMARK UNBOUND:                -4.371
REMARK SMILES CCCCCCCCCCCCCCCCCCCCCCCCCCCC(=O)[O-]
REMARK SMILES IDX 15 1 16 2 17 3 18 4 19 5 20 6 21 7 22 8 23 9 24 10 25 11
REMARK SMILES IDX 26 12 27 13 28 14 29 15 30 16 14 17 13 18 12 19 11 20 10 21
REMARK SMILES IDX 9 22 8 23 7 24 6 25 5 26 4 27 3 28 2 29 1 30
REMARK H PARENT
REMARK Flexibility Score: inf
ROOT
ATOM      1  C   UNL     1      19.985  26.933  32.253  1.00  0.00     0.000 C 
ENDROOT
BRANCH   1   2
ATOM      2  C   UNL     1      18.963  28.065  32.025  1.00  0.00     0.000 C 
BRANCH   2   3
ATOM      3  C   UNL     1      19.394  29.095  30.961  1.00  0.00     0.000 C 
BRANCH   3   4
ATOM      4  C   UNL     1      18.235  29.518  30.040  1.00  0.00     0.000 C 
BRANCH   4   5
ATOM      5  C   UNL     1      18.411  30.948  29.503  1.00  0.00     0.000 C 
BRANCH   5   6
ATOM      6  C   UNL     1      18.692  30.972  27.990  1.00  0.00     0.000 C 
BRANCH   6   7
ATOM      7  C   UNL     1      20.034  30.314  27.632  1.00  0.00     0.000 C 
BRANCH   7   8
ATOM      8  C   UNL     1      20.193  30.094  26.119  1.00  0.00     0.000 C 
BRANCH   8   9
ATOM      9  C   UNL     1      19.746  28.679  25.718  1.00  0.00     0.000 C 
BRANCH   9  10
ATOM     10  C   UNL     1      19.697  27.715  26.914  1.00  0.00     0.000 C 
BRANCH  10  11
ATOM     11  C   UNL     1      18.312  27.075  27.103  1.00  0.00     0.000 C 
BRANCH  11  12
ATOM     12  C   UNL     1      18.209  26.270  28.408  1.00  0.00     0.006 C 
BRANCH  12  13
ATOM     13  C   UNL     1      19.569  25.735  28.879  1.00  0.00     0.053 C 
BRANCH  13  14
ATOM     14  C   UNL     1      19.690  24.276  28.579  1.00  0.00     0.041 C 
ATOM     15  O   UNL     1      20.685  23.625  28.992  1.00  0.00    -0.550 OA
ATOM     16  O   UNL     1      18.721  23.640  27.812  1.00  0.00    -0.550 OA
ENDBRANCH  13  14
ENDBRANCH  12  13
ENDBRANCH  11  12
ENDBRANCH  10  11
ENDBRANCH   9  10
ENDBRANCH   8   9
ENDBRANCH   7   8
ENDBRANCH   6   7
ENDBRANCH   5   6
ENDBRANCH   4   5
ENDBRANCH   3   4
ENDBRANCH   2   3
ENDBRANCH   1   2
BRANCH   1  17
ATOM     17  C   UNL     1      20.383  26.692  33.722  1.00  0.00     0.000 C 
BRANCH  17  18
ATOM     18  C   UNL     1      19.471  27.361  34.768  1.00  0.00     0.000 C 
BRANCH  18  19
ATOM     19  C   UNL     1      20.255  28.080  35.876  1.00  0.00     0.000 C 
BRANCH  19  20
ATOM     20  C   UNL     1      19.581  29.406  36.255  1.00  0.00     0.000 C 
BRANCH  20  21
ATOM     21  C   UNL     1      18.781  30.029  35.095  1.00  0.00     0.000 C 
BRANCH  21  22
ATOM     22  C   UNL     1      17.295  29.628  35.028  1.00  0.00    -0.000 C 
BRANCH  22  23
ATOM     23  C   UNL     1      16.442  30.615  34.213  1.00  0.00    -0.000 C 
BRANCH  23  24
ATOM     24  C   UNL     1      17.235  31.295  33.085  1.00  0.00    -0.000 C 
BRANCH  24  25
ATOM     25  C   UNL     1      17.198  32.828  33.165  1.00  0.00    -0.000 C 
BRANCH  25  26
ATOM     26  C   UNL     1      15.847  33.312  33.714  1.00  0.00    -0.000 C 
BRANCH  26  27
ATOM     27  C   UNL     1      15.989  34.475  34.710  1.00  0.00    -0.000 C 
BRANCH  27  28
ATOM     28  C   UNL     1      16.533  34.017  36.074  1.00  0.00    -0.000 C 
BRANCH  28  29
ATOM     29  C   UNL     1      15.574  33.060  36.799  1.00  0.00    -0.003 C 
ATOM     30  C   UNL     1      16.268  32.233  37.882  1.00  0.00     0.004 C 
ENDBRANCH  28  29
ENDBRANCH  27  28
ENDBRANCH  26  27
ENDBRANCH  25  26
ENDBRANCH  24  25
ENDBRANCH  23  24
ENDBRANCH  22  23
ENDBRANCH  21  22
ENDBRANCH  20  21
ENDBRANCH  19  20
ENDBRANCH  18  19
ENDBRANCH  17  18
ENDBRANCH   1  17
TORSDOF 26
ENDMDL
MODEL 9
REMARK VINA RESULT:    -4.735      3.850      9.292
REMARK INTER + INTRA:         -16.303
REMARK INTER:                 -12.955
REMARK INTRA:                  -3.348
REMARK UNBOUND:                -4.371
REMARK SMILES CCCCCCCCCCCCCCCCCCCCCCCCCCCC(=O)[O-]
REMARK SMILES IDX 15 1 16 2 17 3 18 4 19 5 20 6 21 7 22 8 23 9 24 10 25 11
REMARK SMILES IDX 26 12 27 13 28 14 29 15 30 16 14 17 13 18 12 19 11 20 10 21
REMARK SMILES IDX 9 22 8 23 7 24 6 25 5 26 4 27 3 28 2 29 1 30
REMARK H PARENT
REMARK Flexibility Score: inf
ROOT
ATOM      1  C   UNL     1      18.069  30.114  31.373  1.00  0.00     0.000 C 
ENDROOT
BRANCH   1   2
ATOM      2  C   UNL     1      18.404  31.143  30.275  1.00  0.00     0.000 C 
BRANCH   2   3
ATOM      3  C   UNL     1      18.413  30.557  28.847  1.00  0.00     0.000 C 
BRANCH   3   4
ATOM      4  C   UNL     1      18.916  31.561  27.795  1.00  0.00     0.000 C 
BRANCH   4   5
ATOM      5  C   UNL     1      20.393  31.334  27.434  1.00  0.00     0.000 C 
BRANCH   5   6
ATOM      6  C   UNL     1      20.591  31.057  25.934  1.00  0.00     0.000 C 
BRANCH   6   7
ATOM      7  C   UNL     1      21.072  29.622  25.661  1.00  0.00     0.000 C 
BRANCH   7   8
ATOM      8  C   UNL     1      19.911  28.665  25.350  1.00  0.00     0.000 C 
BRANCH   8   9
ATOM      9  C   UNL     1      19.693  27.671  26.503  1.00  0.00     0.000 C 
BRANCH   9  10
ATOM     10  C   UNL     1      18.205  27.434  26.803  1.00  0.00     0.000 C 
BRANCH  10  11
ATOM     11  C   UNL     1      17.984  26.559  28.048  1.00  0.00     0.000 C 
BRANCH  11  12
ATOM     12  C   UNL     1      19.129  25.559  28.276  1.00  0.00     0.006 C 
BRANCH  12  13
ATOM     13  C   UNL     1      18.760  24.133  27.846  1.00  0.00     0.053 C 
BRANCH  13  14
ATOM     14  C   UNL     1      19.211  23.144  28.873  1.00  0.00     0.041 C 
ATOM     15  O   UNL     1      18.730  21.981  28.886  1.00  0.00    -0.550 OA
ATOM     16  O   UNL     1      20.137  23.517  29.840  1.00  0.00    -0.550 OA
ENDBRANCH  13  14
ENDBRANCH  12  13
ENDBRANCH  11  12
ENDBRANCH  10  11
ENDBRANCH   9  10
ENDBRANCH   8   9
ENDBRANCH   7   8
ENDBRANCH   6   7
ENDBRANCH   5   6
ENDBRANCH   4   5
ENDBRANCH   3   4
ENDBRANCH   2   3
ENDBRANCH   1   2
BRANCH   1  17
ATOM     17  C   UNL     1      17.982  28.650  30.899  1.00  0.00     0.000 C 
BRANCH  17  18
ATOM     18  C   UNL     1      19.093  27.723  31.427  1.00  0.00     0.000 C 
BRANCH  18  19
ATOM     19  C   UNL     1      19.815  28.291  32.659  1.00  0.00     0.000 C 
BRANCH  19  20
ATOM     20  C   UNL     1      19.789  27.289  33.821  1.00  0.00     0.000 C 
BRANCH  20  21
ATOM     21  C   UNL     1      19.422  27.938  35.170  1.00  0.00     0.000 C 
BRANCH  21  22
ATOM     22  C   UNL     1      18.678  29.284  35.073  1.00  0.00    -0.000 C 
BRANCH  22  23
ATOM     23  C   UNL     1      17.186  29.123  34.734  1.00  0.00    -0.000 C 
BRANCH  23  24
ATOM     24  C   UNL     1      16.375  30.402  35.000  1.00  0.00    -0.000 C 
BRANCH  24  25
ATOM     25  C   UNL     1      17.133  31.425  35.859  1.00  0.00    -0.000 C 
BRANCH  25  26
ATOM     26  C   UNL     1      16.190  32.541  36.334  1.00  0.00    -0.000 C 
BRANCH  26  27
ATOM     27  C   UNL     1      16.426  33.873  35.603  1.00  0.00    -0.000 C 
BRANCH  27  28
ATOM     28  C   UNL     1      15.658  33.958  34.273  1.00  0.00    -0.000 C 
BRANCH  28  29
ATOM     29  C   UNL     1      16.548  34.422  33.109  1.00  0.00    -0.003 C 
ATOM     30  C   UNL     1      17.786  33.544  32.922  1.00  0.00     0.004 C 
ENDBRANCH  28  29
ENDBRANCH  27  28
ENDBRANCH  26  27
ENDBRANCH  25  26
ENDBRANCH  24  25
ENDBRANCH  23  24
ENDBRANCH  22  23
ENDBRANCH  21  22
ENDBRANCH  20  21
ENDBRANCH  19  20
ENDBRANCH  18  19
ENDBRANCH  17  18
ENDBRANCH   1  17
TORSDOF 26
ENDMDL
