MODEL 1
REMARK VINA RESULT:    -3.849      0.000      0.000
REMARK INTER + INTRA:          -6.713
REMARK INTER:                  -5.874
REMARK INTRA:                  -0.839
REMARK UNBOUND:                -0.839
REMARK SMILES O=C([O-])CCCCCCCCC(=O)[O-]
REMARK SMILES IDX 7 1 6 2 5 3 4 4 2 5 1 6 3 7 8 8 9 9 10 10 11 11 12 12 13 13
REMARK SMILES IDX 14 14
REMARK H PARENT
REMARK Flexibility Score: inf
ROOT
ATOM      1  C   UNL     1      30.018   7.851  29.921  1.00  0.00     0.000 C 
ENDROOT
BRANCH   1   2
ATOM      2  C   UNL     1      30.402   7.868  28.433  1.00  0.00     0.000 C 
BRANCH   2   3
ATOM      3  C   UNL     1      30.651   9.302  27.947  1.00  0.00     0.006 C 
BRANCH   3   4
ATOM      4  C   UNL     1      30.101  10.325  28.945  1.00  0.00     0.053 C 
BRANCH   4   5
ATOM      5  C   UNL     1      29.016  11.139  28.316  1.00  0.00     0.041 C 
ATOM      6  O   UNL     1      28.782  11.041  27.083  1.00  0.00    -0.550 OA
ATOM      7  O   UNL     1      28.294  12.045  29.084  1.00  0.00    -0.550 OA
ENDBRANCH   4   5
ENDBRANCH   3   4
ENDBRANCH   2   3
ENDBRANCH   1   2
BRANCH   1   8
ATOM      8  C   UNL     1      30.593   6.637  30.669  1.00  0.00     0.000 C 
BRANCH   8   9
ATOM      9  C   UNL     1      31.407   7.040  31.911  1.00  0.00     0.000 C 
BRANCH   9  10
ATOM     10  C   UNL     1      32.168   8.361  31.714  1.00  0.00     0.006 C 
BRANCH  10  11
ATOM     11  C   UNL     1      33.665   8.149  31.446  1.00  0.00     0.053 C 
BRANCH  11  12
ATOM     12  C   UNL     1      34.093   8.925  30.241  1.00  0.00     0.041 C 
ATOM     13  O   UNL     1      33.772   8.533  29.087  1.00  0.00    -0.550 OA
ATOM     14  O   UNL     1      34.888  10.055  30.387  1.00  0.00    -0.550 OA
ENDBRANCH  11  12
ENDBRANCH  10  11
ENDBRANCH   9  10
ENDBRANCH   8   9
ENDBRANCH   1   8
TORSDOF 9
ENDMDL
MODEL 2
REMARK VINA RESULT:    -3.847      2.654      4.877
REMARK INTER + INTRA:          -6.709
REMARK INTER:                  -5.715
REMARK INTRA:                  -0.994
REMARK UNBOUND:                -0.839
REMARK SMILES O=C([O-])CCCCCCCCC(=O)[O-]
REMARK SMILES IDX 7 1 6 2 5 3 4 4 2 5 1 6 3 7 8 8 9 9 10 10 11 11 12 12 13 13
REMARK SMILES IDX 14 14
REMARK H PARENT
REMARK Flexibility Score: inf
ROOT
ATOM      1  C   UNL     1      29.766   9.602  27.732  1.00  0.00     0.000 C 
ENDROOT
BRANCH   1   2
ATOM      2  C   UNL     1      31.271   9.355  27.916  1.00  0.00     0.000 C 
BRANCH   2   3
ATOM      3  C   UNL     1      31.522   8.196  28.889  1.00  0.00     0.006 C 
BRANCH   3   4
ATOM      4  C   UNL     1      30.211   7.702  29.507  1.00  0.00     0.053 C 
BRANCH   4   5
ATOM      5  C   UNL     1      30.471   6.578  30.458  1.00  0.00     0.041 C 
ATOM      6  O   UNL     1      31.172   6.766  31.487  1.00  0.00    -0.550 OA
ATOM      7  O   UNL     1      29.978   5.308  30.184  1.00  0.00    -0.550 OA
ENDBRANCH   4   5
ENDBRANCH   3   4
ENDBRANCH   2   3
ENDBRANCH   1   2
BRANCH   1   8
ATOM      8  C   UNL     1      29.417  11.096  27.630  1.00  0.00     0.000 C 
BRANCH   8   9
ATOM      9  C   UNL     1      28.387  11.534  28.686  1.00  0.00     0.000 C 
BRANCH   9  10
ATOM     10  C   UNL     1      29.033  12.278  29.866  1.00  0.00     0.006 C 
BRANCH  10  11
ATOM     11  C   UNL     1      28.985  11.472  31.172  1.00  0.00     0.053 C 
BRANCH  11  12
ATOM     12  C   UNL     1      30.329  10.886  31.471  1.00  0.00     0.041 C 
ATOM     13  O   UNL     1      31.336  11.235  30.800  1.00  0.00    -0.550 OA
ATOM     14  O   UNL     1      30.462   9.918  32.458  1.00  0.00    -0.550 OA
ENDBRANCH  11  12
ENDBRANCH  10  11
ENDBRANCH   9  10
ENDBRANCH   8   9
ENDBRANCH   1   8
TORSDOF 9
ENDMDL
MODEL 3
REMARK VINA RESULT:    -3.813      2.052      2.721
REMARK INTER + INTRA:          -6.659
REMARK INTER:                  -5.684
REMARK INTRA:                  -0.974
REMARK UNBOUND:                -0.839
REMARK SMILES O=C([O-])CCCCCCCCC(=O)[O-]
REMARK SMILES IDX 7 1 6 2 5 3 4 4 2 5 1 6 3 7 8 8 9 9 10 10 11 11 12 12 13 13
REMARK SMILES IDX 14 14
REMARK H PARENT
REMARK Flexibility Score: inf
ROOT
ATOM      1  C   UNL     1      32.418   8.811  28.161  1.00  0.00     0.000 C 
ENDROOT
BRANCH   1   2
ATOM      2  C   UNL     1      31.072   8.137  28.466  1.00  0.00     0.000 C 
BRANCH   2   3
ATOM      3  C   UNL     1      30.144   9.086  29.236  1.00  0.00     0.006 C 
BRANCH   3   4
ATOM      4  C   UNL     1      30.260  10.518  28.707  1.00  0.00     0.053 C 
BRANCH   4   5
ATOM      5  C   UNL     1      28.963  10.964  28.111  1.00  0.00     0.041 C 
ATOM      6  O   UNL     1      28.850  11.099  26.864  1.00  0.00    -0.550 OA
ATOM      7  O   UNL     1      27.890  11.276  28.937  1.00  0.00    -0.550 OA
ENDBRANCH   4   5
ENDBRANCH   3   4
ENDBRANCH   2   3
ENDBRANCH   1   2
BRANCH   1   8
ATOM      8  C   UNL     1      33.487   8.514  29.224  1.00  0.00     0.000 C 
BRANCH   8   9
ATOM      9  C   UNL     1      33.596   9.627  30.280  1.00  0.00     0.000 C 
BRANCH   9  10
ATOM     10  C   UNL     1      33.023   9.206  31.643  1.00  0.00     0.006 C 
BRANCH  10  11
ATOM     11  C   UNL     1      32.970   7.683  31.818  1.00  0.00     0.053 C 
BRANCH  11  12
ATOM     12  C   UNL     1      31.588   7.250  32.196  1.00  0.00     0.041 C 
ATOM     13  O   UNL     1      30.963   6.428  31.475  1.00  0.00    -0.550 OA
ATOM     14  O   UNL     1      30.971   7.791  33.316  1.00  0.00    -0.550 OA
ENDBRANCH  11  12
ENDBRANCH  10  11
ENDBRANCH   9  10
ENDBRANCH   8   9
ENDBRANCH   1   8
TORSDOF 9
ENDMDL
MODEL 4
REMARK VINA RESULT:    -3.801      1.795      3.121
REMARK INTER + INTRA:          -6.640
REMARK INTER:                  -5.669
REMARK INTRA:                  -0.972
REMARK UNBOUND:                -0.839
REMARK SMILES O=C([O-])CCCCCCCCC(=O)[O-]
REMARK SMILES IDX 7 1 6 2 5 3 4 4 2 5 1 6 3 7 8 8 9 9 10 10 11 11 12 12 13 13
REMARK SMILES IDX 14 14
REMARK H PARENT
REMARK Flexibility Score: inf
ROOT
ATOM      1  C   UNL     1      31.957  10.945  30.757  1.00  0.00     0.000 C 
ENDROOT
BRANCH   1   2
ATOM      2  C   UNL     1      31.104  12.109  31.285  1.00  0.00     0.000 C 
BRANCH   2   3
ATOM      3  C   UNL     1      30.016  12.494  30.275  1.00  0.00     0.006 C 
BRANCH   3   4
ATOM      4  C   UNL     1      30.252  11.811  28.925  1.00  0.00     0.053 C 
BRANCH   4   5
ATOM      5  C   UNL     1      28.956  11.348  28.339  1.00  0.00     0.041 C 
ATOM      6  O   UNL     1      27.959  11.147  29.082  1.00  0.00    -0.550 OA
ATOM      7  O   UNL     1      28.862  11.092  26.976  1.00  0.00    -0.550 OA
ENDBRANCH   4   5
ENDBRANCH   3   4
ENDBRANCH   2   3
ENDBRANCH   1   2
BRANCH   1   8
ATOM      8  C   UNL     1      31.830   9.677  31.616  1.00  0.00     0.000 C 
BRANCH   8   9
ATOM      9  C   UNL     1      30.663   8.778  31.171  1.00  0.00     0.000 C 
BRANCH   9  10
ATOM     10  C   UNL     1      31.128   7.590  30.313  1.00  0.00     0.006 C 
BRANCH  10  11
ATOM     11  C   UNL     1      30.793   7.766  28.826  1.00  0.00     0.053 C 
BRANCH  11  12
ATOM     12  C   UNL     1      31.933   8.422  28.111  1.00  0.00     0.041 C 
ATOM     13  O   UNL     1      33.115   8.244  28.506  1.00  0.00    -0.550 OA
ATOM     14  O   UNL     1      31.686   9.268  27.038  1.00  0.00    -0.550 OA
ENDBRANCH  11  12
ENDBRANCH  10  11
ENDBRANCH   9  10
ENDBRANCH   8   9
ENDBRANCH   1   8
TORSDOF 9
ENDMDL
MODEL 5
REMARK VINA RESULT:    -3.769      0.774      4.972
REMARK INTER + INTRA:          -6.590
REMARK INTER:                  -5.636
REMARK INTRA:                  -0.955
REMARK UNBOUND:                -0.839
REMARK SMILES O=C([O-])CCCCCCCCC(=O)[O-]
REMARK SMILES IDX 7 1 6 2 5 3 4 4 2 5 1 6 3 7 8 8 9 9 10 10 11 11 12 12 13 13
REMARK SMILES IDX 14 14
REMARK H PARENT
REMARK Flexibility Score: inf
ROOT
ATOM      1  C   UNL     1      30.855   6.641  30.842  1.00  0.00     0.000 C 
ENDROOT
BRANCH   1   2
ATOM      2  C   UNL     1      30.973   7.350  32.201  1.00  0.00     0.000 C 
BRANCH   2   3
ATOM      3  C   UNL     1      32.061   8.430  32.164  1.00  0.00     0.006 C 
BRANCH   3   4
ATOM      4  C   UNL     1      33.220   8.014  31.254  1.00  0.00     0.053 C 
BRANCH   4   5
ATOM      5  C   UNL     1      33.650   9.159  30.394  1.00  0.00     0.041 C 
ATOM      6  O   UNL     1      34.679   9.062  29.675  1.00  0.00    -0.550 OA
ATOM      7  O   UNL     1      32.940  10.353  30.423  1.00  0.00    -0.550 OA
ENDBRANCH   4   5
ENDBRANCH   3   4
ENDBRANCH   2   3
ENDBRANCH   1   2
BRANCH   1   8
ATOM      8  C   UNL     1      29.918   7.374  29.869  1.00  0.00     0.000 C 
BRANCH   8   9
ATOM      9  C   UNL     1      30.614   7.754  28.551  1.00  0.00     0.000 C 
BRANCH   9  10
ATOM     10  C   UNL     1      30.433   9.238  28.195  1.00  0.00     0.006 C 
BRANCH  10  11
ATOM     11  C   UNL     1      29.631  10.008  29.253  1.00  0.00     0.053 C 
BRANCH  11  12
ATOM     12  C   UNL     1      28.636  10.912  28.595  1.00  0.00     0.041 C 
ATOM     13  O   UNL     1      27.733  11.465  29.278  1.00  0.00    -0.550 OA
ATOM     14  O   UNL     1      28.675  11.107  27.220  1.00  0.00    -0.550 OA
ENDBRANCH  11  12
ENDBRANCH  10  11
ENDBRANCH   9  10
ENDBRANCH   8   9
ENDBRANCH   1   8
TORSDOF 9
ENDMDL
MODEL 6
REMARK VINA RESULT:    -3.737      2.429      3.218
REMARK INTER + INTRA:          -6.542
REMARK INTER:                  -5.727
REMARK INTRA:                  -0.815
REMARK UNBOUND:                -0.839
REMARK SMILES O=C([O-])CCCCCCCCC(=O)[O-]
REMARK SMILES IDX 7 1 6 2 5 3 4 4 2 5 1 6 3 7 8 8 9 9 10 10 11 11 12 12 13 13
REMARK SMILES IDX 14 14
REMARK H PARENT
REMARK Flexibility Score: inf
ROOT
ATOM      1  C   UNL     1      31.400   9.273  27.699  1.00  0.00     0.000 C 
ENDROOT
BRANCH   1   2
ATOM      2  C   UNL     1      29.942   9.757  27.712  1.00  0.00     0.000 C 
BRANCH   2   3
ATOM      3  C   UNL     1      29.768  10.948  28.664  1.00  0.00     0.006 C 
BRANCH   3   4
ATOM      4  C   UNL     1      28.681  10.667  29.705  1.00  0.00     0.053 C 
BRANCH   4   5
ATOM      5  C   UNL     1      28.551  11.818  30.651  1.00  0.00     0.041 C 
ATOM      6  O   UNL     1      29.580  12.386  31.105  1.00  0.00    -0.550 OA
ATOM      7  O   UNL     1      27.294  12.235  31.069  1.00  0.00    -0.550 OA
ENDBRANCH   4   5
ENDBRANCH   3   4
ENDBRANCH   2   3
ENDBRANCH   1   2
BRANCH   1   8
ATOM      8  C   UNL     1      31.646   8.100  28.662  1.00  0.00     0.000 C 
BRANCH   8   9
ATOM      9  C   UNL     1      30.351   7.357  29.030  1.00  0.00     0.000 C 
BRANCH   9  10
ATOM     10  C   UNL     1      30.382   6.790  30.459  1.00  0.00     0.006 C 
BRANCH  10  11
ATOM     11  C   UNL     1      31.561   7.325  31.283  1.00  0.00     0.053 C 
BRANCH  11  12
ATOM     12  C   UNL     1      31.066   8.184  32.403  1.00  0.00     0.041 C 
ATOM     13  O   UNL     1      30.879   9.417  32.221  1.00  0.00    -0.550 OA
ATOM     14  O   UNL     1      30.857   7.635  33.662  1.00  0.00    -0.550 OA
ENDBRANCH  11  12
ENDBRANCH  10  11
ENDBRANCH   9  10
ENDBRANCH   8   9
ENDBRANCH   1   8
TORSDOF 9
ENDMDL
MODEL 7
REMARK VINA RESULT:    -3.716      1.756      2.223
REMARK INTER + INTRA:          -6.510
REMARK INTER:                  -5.467
REMARK INTRA:                  -1.043
REMARK UNBOUND:                -0.839
REMARK SMILES O=C([O-])CCCCCCCCC(=O)[O-]
REMARK SMILES IDX 7 1 6 2 5 3 4 4 2 5 1 6 3 7 8 8 9 9 10 10 11 11 12 12 13 13
REMARK SMILES IDX 14 14
REMARK H PARENT
REMARK Flexibility Score: inf
ROOT
ATOM      1  C   UNL     1      30.302   7.369  28.813  1.00  0.00     0.000 C 
ENDROOT
BRANCH   1   2
ATOM      2  C   UNL     1      31.635   8.082  28.537  1.00  0.00     0.000 C 
BRANCH   2   3
ATOM      3  C   UNL     1      31.399   9.455  27.894  1.00  0.00     0.006 C 
BRANCH   3   4
ATOM      4  C   UNL     1      29.905   9.721  27.695  1.00  0.00     0.053 C 
BRANCH   4   5
ATOM      5  C   UNL     1      29.497  10.973  28.403  1.00  0.00     0.041 C 
ATOM      6  O   UNL     1      28.281  11.204  28.635  1.00  0.00    -0.550 OA
ATOM      7  O   UNL     1      30.457  11.910  28.766  1.00  0.00    -0.550 OA
ENDBRANCH   4   5
ENDBRANCH   3   4
ENDBRANCH   2   3
ENDBRANCH   1   2
BRANCH   1   8
ATOM      8  C   UNL     1      30.138   6.963  30.286  1.00  0.00     0.000 C 
BRANCH   8   9
ATOM      9  C   UNL     1      31.373   7.312  31.135  1.00  0.00     0.000 C 
BRANCH   9  10
ATOM     10  C   UNL     1      31.050   8.302  32.266  1.00  0.00     0.006 C 
BRANCH  10  11
ATOM     11  C   UNL     1      30.656   9.690  31.744  1.00  0.00     0.053 C 
BRANCH  11  12
ATOM     12  C   UNL     1      31.814  10.632  31.847  1.00  0.00     0.041 C 
ATOM     13  O   UNL     1      31.880  11.453  32.801  1.00  0.00    -0.550 OA
ATOM     14  O   UNL     1      32.796  10.639  30.864  1.00  0.00    -0.550 OA
ENDBRANCH  11  12
ENDBRANCH  10  11
ENDBRANCH   9  10
ENDBRANCH   8   9
ENDBRANCH   1   8
TORSDOF 9
ENDMDL
MODEL 8
REMARK VINA RESULT:    -3.708      2.125      3.071
REMARK INTER + INTRA:          -6.498
REMARK INTER:                  -5.659
REMARK INTRA:                  -0.839
REMARK UNBOUND:                -0.839
REMARK SMILES O=C([O-])CCCCCCCCC(=O)[O-]
REMARK SMILES IDX 7 1 6 2 5 3 4 4 2 5 1 6 3 7 8 8 9 9 10 10 11 11 12 12 13 13
REMARK SMILES IDX 14 14
REMARK H PARENT
REMARK Flexibility Score: inf
ROOT
ATOM      1  C   UNL     1      29.836   9.720  27.749  1.00  0.00     0.000 C 
ENDROOT
BRANCH   1   2
ATOM      2  C   UNL     1      29.523  11.183  28.097  1.00  0.00     0.000 C 
BRANCH   2   3
ATOM      3  C   UNL     1      30.517  11.726  29.132  1.00  0.00     0.006 C 
BRANCH   3   4
ATOM      4  C   UNL     1      29.816  12.635  30.145  1.00  0.00     0.053 C 
BRANCH   4   5
ATOM      5  C   UNL     1      28.935  11.833  31.048  1.00  0.00     0.041 C 
ATOM      6  O   UNL     1      29.405  10.857  31.690  1.00  0.00    -0.550 OA
ATOM      7  O   UNL     1      27.581  12.132  31.143  1.00  0.00    -0.550 OA
ENDBRANCH   4   5
ENDBRANCH   3   4
ENDBRANCH   2   3
ENDBRANCH   1   2
BRANCH   1   8
ATOM      8  C   UNL     1      30.667   9.015  28.834  1.00  0.00     0.000 C 
BRANCH   8   9
ATOM      9  C   UNL     1      31.888   8.279  28.257  1.00  0.00     0.000 C 
BRANCH   9  10
ATOM     10  C   UNL     1      33.200   8.681  28.950  1.00  0.00     0.006 C 
BRANCH  10  11
ATOM     11  C   UNL     1      32.992   9.116  30.407  1.00  0.00     0.053 C 
BRANCH  11  12
ATOM     12  C   UNL     1      33.248   7.970  31.334  1.00  0.00     0.041 C 
ATOM     13  O   UNL     1      34.428   7.661  31.650  1.00  0.00    -0.550 OA
ATOM     14  O   UNL     1      32.187   7.211  31.811  1.00  0.00    -0.550 OA
ENDBRANCH  11  12
ENDBRANCH  10  11
ENDBRANCH   9  10
ENDBRANCH   8   9
ENDBRANCH   1   8
TORSDOF 9
ENDMDL
MODEL 9
REMARK VINA RESULT:    -3.691      1.827      4.739
REMARK INTER + INTRA:          -6.471
REMARK INTER:                  -5.382
REMARK INTRA:                  -1.089
REMARK UNBOUND:                -0.839
REMARK SMILES O=C([O-])CCCCCCCCC(=O)[O-]
REMARK SMILES IDX 7 1 6 2 5 3 4 4 2 5 1 6 3 7 8 8 9 9 10 10 11 11 12 12 13 13
REMARK SMILES IDX 14 14
REMARK H PARENT
REMARK Flexibility Score: inf
ROOT
ATOM      1  C   UNL     1      30.403   7.465  29.228  1.00  0.00     0.000 C 
ENDROOT
BRANCH   1   2
ATOM      2  C   UNL     1      30.626   7.133  30.712  1.00  0.00     0.000 C 
BRANCH   2   3
ATOM      3  C   UNL     1      31.464   8.220  31.397  1.00  0.00     0.006 C 
BRANCH   3   4
ATOM      4  C   UNL     1      30.615   9.456  31.707  1.00  0.00     0.053 C 
BRANCH   4   5
ATOM      5  C   UNL     1      31.463  10.688  31.703  1.00  0.00     0.041 C 
ATOM      6  O   UNL     1      31.261  11.601  32.547  1.00  0.00    -0.550 OA
ATOM      7  O   UNL     1      32.446  10.851  30.734  1.00  0.00    -0.550 OA
ENDBRANCH   4   5
ENDBRANCH   3   4
ENDBRANCH   2   3
ENDBRANCH   1   2
BRANCH   1   8
ATOM      8  C   UNL     1      31.632   8.118  28.574  1.00  0.00     0.000 C 
BRANCH   8   9
ATOM      9  C   UNL     1      31.263   9.336  27.710  1.00  0.00     0.000 C 
BRANCH   9  10
ATOM     10  C   UNL     1      29.876   9.903  28.051  1.00  0.00     0.006 C 
BRANCH  10  11
ATOM     11  C   UNL     1      29.908  11.407  28.355  1.00  0.00     0.053 C 
BRANCH  11  12
ATOM     12  C   UNL     1      28.787  11.776  29.275  1.00  0.00     0.041 C 
ATOM     13  O   UNL     1      27.665  11.215  29.164  1.00  0.00    -0.550 OA
ATOM     14  O   UNL     1      28.967  12.774  30.225  1.00  0.00    -0.550 OA
ENDBRANCH  11  12
ENDBRANCH  10  11
ENDBRANCH   9  10
ENDBRANCH   8   9
ENDBRANCH   1   8
TORSDOF 9
ENDMDL
