MODEL 1
REMARK VINA RESULT:    -5.028      0.000      0.000
REMARK INTER + INTRA:          -9.091
REMARK INTER:                  -7.967
REMARK INTRA:                  -1.124
REMARK UNBOUND:                -1.124
REMARK SMILES CCCCCCCCCCCC(=O)[O-]
REMARK SMILES IDX 7 1 8 2 9 3 10 4 11 5 12 6 13 7 14 8 6 9 5 10 4 11 3 12 2 13
REMARK SMILES IDX 1 14
REMARK H PARENT
REMARK Flexibility Score: inf
ROOT
ATOM      1  C   UNL     1     -12.653 -18.506  30.800  1.00  0.00     0.000 C 
ENDROOT
BRANCH   1   2
ATOM      2  C   UNL     1     -11.591 -18.509  31.914  1.00  0.00     0.000 C 
BRANCH   2   3
ATOM      3  C   UNL     1     -10.157 -18.490  31.362  1.00  0.00     0.000 C 
BRANCH   3   4
ATOM      4  C   UNL     1      -9.261 -17.465  32.079  1.00  0.00     0.006 C 
BRANCH   4   5
ATOM      5  C   UNL     1      -8.955 -16.248  31.197  1.00  0.00     0.053 C 
BRANCH   5   6
ATOM      6  C   UNL     1      -9.453 -14.976  31.811  1.00  0.00     0.041 C 
ATOM      7  O   UNL     1     -10.649 -14.881  32.191  1.00  0.00    -0.550 OA
ATOM      8  O   UNL     1      -8.587 -13.904  31.990  1.00  0.00    -0.550 OA
ENDBRANCH   5   6
ENDBRANCH   4   5
ENDBRANCH   3   4
ENDBRANCH   2   3
ENDBRANCH   1   2
BRANCH   1   9
ATOM      9  C   UNL     1     -13.308 -17.127  30.615  1.00  0.00     0.000 C 
BRANCH   9  10
ATOM     10  C   UNL     1     -12.518 -16.225  29.650  1.00  0.00    -0.000 C 
BRANCH  10  11
ATOM     11  C   UNL     1     -11.960 -16.996  28.442  1.00  0.00    -0.000 C 
BRANCH  11  12
ATOM     12  C   UNL     1     -10.665 -16.375  27.893  1.00  0.00    -0.000 C 
BRANCH  12  13
ATOM     13  C   UNL     1     -10.901 -15.557  26.614  1.00  0.00    -0.003 C 
ATOM     14  C   UNL     1      -9.627 -14.893  26.091  1.00  0.00     0.004 C 
ENDBRANCH  12  13
ENDBRANCH  11  12
ENDBRANCH  10  11
ENDBRANCH   9  10
ENDBRANCH   1   9
TORSDOF 10
ENDMDL
MODEL 2
REMARK VINA RESULT:    -5.005      2.641      4.855
REMARK INTER + INTRA:          -9.054
REMARK INTER:                  -8.053
REMARK INTRA:                  -1.000
REMARK UNBOUND:                -1.124
REMARK SMILES CCCCCCCCCCCC(=O)[O-]
REMARK SMILES IDX 7 1 8 2 9 3 10 4 11 5 12 6 13 7 14 8 6 9 5 10 4 11 3 12 2 13
REMARK SMILES IDX 1 14
REMARK H PARENT
REMARK Flexibility Score: inf
ROOT
ATOM      1  C   UNL     1     -11.520 -18.354  28.899  1.00  0.00     0.000 C 
ENDROOT
BRANCH   1   2
ATOM      2  C   UNL     1     -11.629 -16.823  28.789  1.00  0.00     0.000 C 
BRANCH   2   3
ATOM      3  C   UNL     1     -12.250 -16.369  27.458  1.00  0.00     0.000 C 
BRANCH   3   4
ATOM      4  C   UNL     1     -11.252 -15.608  26.570  1.00  0.00     0.006 C 
BRANCH   4   5
ATOM      5  C   UNL     1      -9.834 -15.613  27.156  1.00  0.00     0.053 C 
BRANCH   5   6
ATOM      6  C   UNL     1      -8.870 -14.863  26.290  1.00  0.00     0.041 C 
ATOM      7  O   UNL     1      -9.263 -13.882  25.606  1.00  0.00    -0.550 OA
ATOM      8  O   UNL     1      -7.530 -15.229  26.260  1.00  0.00    -0.550 OA
ENDBRANCH   5   6
ENDBRANCH   4   5
ENDBRANCH   3   4
ENDBRANCH   2   3
ENDBRANCH   1   2
BRANCH   1   9
ATOM      9  C   UNL     1     -10.498 -18.796  29.960  1.00  0.00     0.000 C 
BRANCH   9  10
ATOM     10  C   UNL     1     -11.056 -18.696  31.392  1.00  0.00    -0.000 C 
BRANCH  10  11
ATOM     11  C   UNL     1     -10.182 -17.823  32.308  1.00  0.00    -0.000 C 
BRANCH  11  12
ATOM     12  C   UNL     1      -9.033 -17.137  31.549  1.00  0.00    -0.000 C 
BRANCH  12  13
ATOM     13  C   UNL     1      -9.172 -15.607  31.530  1.00  0.00    -0.003 C 
ATOM     14  C   UNL     1     -10.562 -15.132  31.956  1.00  0.00     0.004 C 
ENDBRANCH  12  13
ENDBRANCH  11  12
ENDBRANCH  10  11
ENDBRANCH   9  10
ENDBRANCH   1   9
TORSDOF 10
ENDMDL
MODEL 3
REMARK VINA RESULT:    -4.989      1.443      2.228
REMARK INTER + INTRA:          -9.030
REMARK INTER:                  -7.949
REMARK INTRA:                  -1.081
REMARK UNBOUND:                -1.124
REMARK SMILES CCCCCCCCCCCC(=O)[O-]
REMARK SMILES IDX 7 1 8 2 9 3 10 4 11 5 12 6 13 7 14 8 6 9 5 10 4 11 3 12 2 13
REMARK SMILES IDX 1 14
REMARK H PARENT
REMARK Flexibility Score: inf
ROOT
ATOM      1  C   UNL     1     -10.998 -18.711  31.406  1.00  0.00     0.000 C 
ENDROOT
BRANCH   1   2
ATOM      2  C   UNL     1     -10.323 -17.649  32.293  1.00  0.00     0.000 C 
BRANCH   2   3
ATOM      3  C   UNL     1     -10.984 -16.268  32.166  1.00  0.00     0.000 C 
BRANCH   3   4
ATOM      4  C   UNL     1      -9.963 -15.146  31.910  1.00  0.00     0.006 C 
BRANCH   4   5
ATOM      5  C   UNL     1      -8.702 -15.661  31.204  1.00  0.00     0.053 C 
BRANCH   5   6
ATOM      6  C   UNL     1      -7.636 -14.612  31.133  1.00  0.00     0.041 C 
ATOM      7  O   UNL     1      -7.733 -13.561  31.820  1.00  0.00    -0.550 OA
ATOM      8  O   UNL     1      -6.518 -14.808  30.331  1.00  0.00    -0.550 OA
ENDBRANCH   5   6
ENDBRANCH   4   5
ENDBRANCH   3   4
ENDBRANCH   2   3
ENDBRANCH   1   2
BRANCH   1   9
ATOM      9  C   UNL     1     -10.479 -18.685  29.959  1.00  0.00     0.000 C 
BRANCH   9  10
ATOM     10  C   UNL     1     -11.618 -18.606  28.926  1.00  0.00    -0.000 C 
BRANCH  10  11
ATOM     11  C   UNL     1     -12.726 -17.624  29.340  1.00  0.00    -0.000 C 
BRANCH  11  12
ATOM     12  C   UNL     1     -12.537 -16.227  28.727  1.00  0.00    -0.000 C 
BRANCH  12  13
ATOM     13  C   UNL     1     -12.194 -16.284  27.230  1.00  0.00    -0.003 C 
ATOM     14  C   UNL     1     -10.846 -15.639  26.906  1.00  0.00     0.004 C 
ENDBRANCH  12  13
ENDBRANCH  11  12
ENDBRANCH  10  11
ENDBRANCH   9  10
ENDBRANCH   1   9
TORSDOF 10
ENDMDL
MODEL 4
REMARK VINA RESULT:    -4.976      2.129      3.316
REMARK INTER + INTRA:          -9.008
REMARK INTER:                  -7.747
REMARK INTRA:                  -1.261
REMARK UNBOUND:                -1.124
REMARK SMILES CCCCCCCCCCCC(=O)[O-]
REMARK SMILES IDX 7 1 8 2 9 3 10 4 11 5 12 6 13 7 14 8 6 9 5 10 4 11 3 12 2 13
REMARK SMILES IDX 1 14
REMARK H PARENT
REMARK Flexibility Score: inf
ROOT
ATOM      1  C   UNL     1      -9.988 -17.560  32.251  1.00  0.00     0.000 C 
ENDROOT
BRANCH   1   2
ATOM      2  C   UNL     1     -10.883 -16.310  32.171  1.00  0.00     0.000 C 
BRANCH   2   3
ATOM      3  C   UNL     1     -10.085 -15.032  31.868  1.00  0.00     0.000 C 
BRANCH   3   4
ATOM      4  C   UNL     1      -8.737 -15.324  31.186  1.00  0.00     0.006 C 
BRANCH   4   5
ATOM      5  C   UNL     1      -7.687 -14.251  31.500  1.00  0.00     0.053 C 
BRANCH   5   6
ATOM      6  C   UNL     1      -6.883 -13.889  30.289  1.00  0.00     0.041 C 
ATOM      7  O   UNL     1      -7.032 -14.527  29.214  1.00  0.00    -0.550 OA
ATOM      8  O   UNL     1      -5.989 -12.826  30.339  1.00  0.00    -0.550 OA
ENDBRANCH   5   6
ENDBRANCH   4   5
ENDBRANCH   3   4
ENDBRANCH   2   3
ENDBRANCH   1   2
BRANCH   1   9
ATOM      9  C   UNL     1     -10.601 -18.769  31.524  1.00  0.00     0.000 C 
BRANCH   9  10
ATOM     10  C   UNL     1     -10.148 -18.864  30.055  1.00  0.00    -0.000 C 
BRANCH  10  11
ATOM     11  C   UNL     1     -11.288 -18.572  29.065  1.00  0.00    -0.000 C 
BRANCH  11  12
ATOM     12  C   UNL     1     -11.319 -17.101  28.617  1.00  0.00    -0.000 C 
BRANCH  12  13
ATOM     13  C   UNL     1     -12.700 -16.457  28.811  1.00  0.00    -0.003 C 
ATOM     14  C   UNL     1     -13.545 -17.172  29.865  1.00  0.00     0.004 C 
ENDBRANCH  12  13
ENDBRANCH  11  12
ENDBRANCH  10  11
ENDBRANCH   9  10
ENDBRANCH   1   9
TORSDOF 10
ENDMDL
MODEL 5
REMARK VINA RESULT:    -4.964      1.891      3.200
REMARK INTER + INTRA:          -8.990
REMARK INTER:                  -8.310
REMARK INTRA:                  -0.680
REMARK UNBOUND:                -1.124
REMARK SMILES CCCCCCCCCCCC(=O)[O-]
REMARK SMILES IDX 7 1 8 2 9 3 10 4 11 5 12 6 13 7 14 8 6 9 5 10 4 11 3 12 2 13
REMARK SMILES IDX 1 14
REMARK H PARENT
REMARK Flexibility Score: inf
ROOT
ATOM      1  C   UNL     1     -12.515 -16.298  28.974  1.00  0.00     0.000 C 
ENDROOT
BRANCH   1   2
ATOM      2  C   UNL     1     -13.255 -17.469  29.644  1.00  0.00     0.000 C 
BRANCH   2   3
ATOM      3  C   UNL     1     -13.263 -17.363  31.177  1.00  0.00     0.000 C 
BRANCH   3   4
ATOM      4  C   UNL     1     -11.980 -16.721  31.732  1.00  0.00     0.006 C 
BRANCH   4   5
ATOM      5  C   UNL     1     -11.062 -17.751  32.403  1.00  0.00     0.053 C 
BRANCH   5   6
ATOM      6  C   UNL     1      -9.824 -18.001  31.598  1.00  0.00     0.041 C 
ATOM      7  O   UNL     1      -9.898 -18.589  30.488  1.00  0.00    -0.550 OA
ATOM      8  O   UNL     1      -8.591 -17.559  32.062  1.00  0.00    -0.550 OA
ENDBRANCH   5   6
ENDBRANCH   4   5
ENDBRANCH   3   4
ENDBRANCH   2   3
ENDBRANCH   1   2
BRANCH   1   9
ATOM      9  C   UNL     1     -11.864 -16.699  27.639  1.00  0.00     0.000 C 
BRANCH   9  10
ATOM     10  C   UNL     1     -10.496 -16.028  27.426  1.00  0.00    -0.000 C 
BRANCH  10  11
ATOM     11  C   UNL     1     -10.467 -15.123  26.183  1.00  0.00    -0.000 C 
BRANCH  11  12
ATOM     12  C   UNL     1      -9.047 -14.652  25.828  1.00  0.00    -0.000 C 
BRANCH  12  13
ATOM     13  C   UNL     1      -8.039 -14.919  26.958  1.00  0.00    -0.003 C 
ATOM     14  C   UNL     1      -6.604 -14.567  26.567  1.00  0.00     0.004 C 
ENDBRANCH  12  13
ENDBRANCH  11  12
ENDBRANCH  10  11
ENDBRANCH   9  10
ENDBRANCH   1   9
TORSDOF 10
ENDMDL
MODEL 6
REMARK VINA RESULT:    -4.946      2.509      4.528
REMARK INTER + INTRA:          -8.961
REMARK INTER:                  -7.911
REMARK INTRA:                  -1.051
REMARK UNBOUND:                -1.124
REMARK SMILES CCCCCCCCCCCC(=O)[O-]
REMARK SMILES IDX 7 1 8 2 9 3 10 4 11 5 12 6 13 7 14 8 6 9 5 10 4 11 3 12 2 13
REMARK SMILES IDX 1 14
REMARK H PARENT
REMARK Flexibility Score: inf
ROOT
ATOM      1  C   UNL     1     -12.095 -18.400  31.035  1.00  0.00     0.000 C 
ENDROOT
BRANCH   1   2
ATOM      2  C   UNL     1     -13.148 -17.309  30.769  1.00  0.00     0.000 C 
BRANCH   2   3
ATOM      3  C   UNL     1     -13.150 -16.834  29.307  1.00  0.00     0.000 C 
BRANCH   3   4
ATOM      4  C   UNL     1     -11.977 -17.411  28.497  1.00  0.00     0.006 C 
BRANCH   4   5
ATOM      5  C   UNL     1     -10.898 -16.358  28.213  1.00  0.00     0.053 C 
BRANCH   5   6
ATOM      6  C   UNL     1     -11.076 -15.727  26.866  1.00  0.00     0.041 C 
ATOM      7  O   UNL     1     -10.084 -15.253  26.252  1.00  0.00    -0.550 OA
ATOM      8  O   UNL     1     -12.333 -15.690  26.275  1.00  0.00    -0.550 OA
ENDBRANCH   5   6
ENDBRANCH   4   5
ENDBRANCH   3   4
ENDBRANCH   2   3
ENDBRANCH   1   2
BRANCH   1   9
ATOM      9  C   UNL     1     -11.009 -17.941  32.022  1.00  0.00     0.000 C 
BRANCH   9  10
ATOM     10  C   UNL     1     -11.220 -16.493  32.498  1.00  0.00    -0.000 C 
BRANCH  10  11
ATOM     11  C   UNL     1     -10.277 -15.497  31.804  1.00  0.00    -0.000 C 
BRANCH  11  12
ATOM     12  C   UNL     1      -8.942 -16.139  31.389  1.00  0.00    -0.000 C 
BRANCH  12  13
ATOM     13  C   UNL     1      -7.810 -15.108  31.254  1.00  0.00    -0.003 C 
ATOM     14  C   UNL     1      -8.091 -13.816  32.021  1.00  0.00     0.004 C 
ENDBRANCH  12  13
ENDBRANCH  11  12
ENDBRANCH  10  11
ENDBRANCH   9  10
ENDBRANCH   1   9
TORSDOF 10
ENDMDL
MODEL 7
REMARK VINA RESULT:    -4.881      1.817      2.622
REMARK INTER + INTRA:          -8.859
REMARK INTER:                  -7.971
REMARK INTRA:                  -0.888
REMARK UNBOUND:                -1.124
REMARK SMILES CCCCCCCCCCCC(=O)[O-]
REMARK SMILES IDX 7 1 8 2 9 3 10 4 11 5 12 6 13 7 14 8 6 9 5 10 4 11 3 12 2 13
REMARK SMILES IDX 1 14
REMARK H PARENT
REMARK Flexibility Score: inf
ROOT
ATOM      1  C   UNL     1     -10.945 -17.834  32.352  1.00  0.00     0.000 C 
ENDROOT
BRANCH   1   2
ATOM      2  C   UNL     1      -9.727 -17.885  31.412  1.00  0.00     0.000 C 
BRANCH   2   3
ATOM      3  C   UNL     1      -8.551 -17.038  31.923  1.00  0.00     0.000 C 
BRANCH   3   4
ATOM      4  C   UNL     1      -8.477 -15.660  31.245  1.00  0.00     0.006 C 
BRANCH   4   5
ATOM      5  C   UNL     1      -7.031 -15.182  31.062  1.00  0.00     0.053 C 
BRANCH   5   6
ATOM      6  C   UNL     1      -6.905 -14.207  29.932  1.00  0.00     0.041 C 
ATOM      7  O   UNL     1      -6.500 -13.035  30.148  1.00  0.00    -0.550 OA
ATOM      8  O   UNL     1      -7.208 -14.602  28.635  1.00  0.00    -0.550 OA
ENDBRANCH   5   6
ENDBRANCH   4   5
ENDBRANCH   3   4
ENDBRANCH   2   3
ENDBRANCH   1   2
BRANCH   1   9
ATOM      9  C   UNL     1     -12.022 -16.850  31.865  1.00  0.00     0.000 C 
BRANCH   9  10
ATOM     10  C   UNL     1     -13.149 -17.549  31.085  1.00  0.00    -0.000 C 
BRANCH  10  11
ATOM     11  C   UNL     1     -13.158 -17.176  29.593  1.00  0.00    -0.000 C 
BRANCH  11  12
ATOM     12  C   UNL     1     -12.210 -16.008  29.272  1.00  0.00    -0.000 C 
BRANCH  12  13
ATOM     13  C   UNL     1     -11.115 -16.398  28.267  1.00  0.00    -0.003 C 
ATOM     14  C   UNL     1     -11.395 -15.883  26.855  1.00  0.00     0.004 C 
ENDBRANCH  12  13
ENDBRANCH  11  12
ENDBRANCH  10  11
ENDBRANCH   9  10
ENDBRANCH   1   9
TORSDOF 10
ENDMDL
MODEL 8
REMARK VINA RESULT:    -4.817      2.243      3.547
REMARK INTER + INTRA:          -8.757
REMARK INTER:                  -7.767
REMARK INTRA:                  -0.989
REMARK UNBOUND:                -1.124
REMARK SMILES CCCCCCCCCCCC(=O)[O-]
REMARK SMILES IDX 7 1 8 2 9 3 10 4 11 5 12 6 13 7 14 8 6 9 5 10 4 11 3 12 2 13
REMARK SMILES IDX 1 14
REMARK H PARENT
REMARK Flexibility Score: inf
ROOT
ATOM      1  C   UNL     1     -10.197 -17.192  32.139  1.00  0.00     0.000 C 
ENDROOT
BRANCH   1   2
ATOM      2  C   UNL     1      -9.190 -16.382  31.303  1.00  0.00     0.000 C 
BRANCH   2   3
ATOM      3  C   UNL     1      -7.755 -16.485  31.844  1.00  0.00     0.000 C 
BRANCH   3   4
ATOM      4  C   UNL     1      -7.152 -15.112  32.184  1.00  0.00     0.006 C 
BRANCH   4   5
ATOM      5  C   UNL     1      -7.451 -14.065  31.103  1.00  0.00     0.053 C 
BRANCH   5   6
ATOM      6  C   UNL     1      -6.662 -14.313  29.854  1.00  0.00     0.041 C 
ATOM      7  O   UNL     1      -7.252 -14.506  28.759  1.00  0.00    -0.550 OA
ATOM      8  O   UNL     1      -5.273 -14.301  29.895  1.00  0.00    -0.550 OA
ENDBRANCH   5   6
ENDBRANCH   4   5
ENDBRANCH   3   4
ENDBRANCH   2   3
ENDBRANCH   1   2
BRANCH   1   9
ATOM      9  C   UNL     1     -10.391 -18.621  31.604  1.00  0.00     0.000 C 
BRANCH   9  10
ATOM     10  C   UNL     1     -10.134 -18.723  30.090  1.00  0.00    -0.000 C 
BRANCH  10  11
ATOM     11  C   UNL     1     -11.431 -18.669  29.265  1.00  0.00    -0.000 C 
BRANCH  11  12
ATOM     12  C   UNL     1     -11.609 -17.329  28.532  1.00  0.00    -0.000 C 
BRANCH  12  13
ATOM     13  C   UNL     1     -12.875 -16.580  28.975  1.00  0.00    -0.003 C 
ATOM     14  C   UNL     1     -13.527 -17.196  30.213  1.00  0.00     0.004 C 
ENDBRANCH  12  13
ENDBRANCH  11  12
ENDBRANCH  10  11
ENDBRANCH   9  10
ENDBRANCH   1   9
TORSDOF 10
ENDMDL
MODEL 9
REMARK VINA RESULT:    -4.766      2.151      3.245
REMARK INTER + INTRA:          -8.676
REMARK INTER:                  -7.907
REMARK INTRA:                  -0.769
REMARK UNBOUND:                -1.124
REMARK SMILES CCCCCCCCCCCC(=O)[O-]
REMARK SMILES IDX 7 1 8 2 9 3 10 4 11 5 12 6 13 7 14 8 6 9 5 10 4 11 3 12 2 13
REMARK SMILES IDX 1 14
REMARK H PARENT
REMARK Flexibility Score: inf
ROOT
ATOM      1  C   UNL     1     -12.730 -16.035  29.093  1.00  0.00     0.000 C 
ENDROOT
BRANCH   1   2
ATOM      2  C   UNL     1     -13.065 -17.375  29.773  1.00  0.00     0.000 C 
BRANCH   2   3
ATOM      3  C   UNL     1     -12.030 -18.469  29.467  1.00  0.00     0.000 C 
BRANCH   3   4
ATOM      4  C   UNL     1     -10.612 -18.085  29.923  1.00  0.00     0.006 C 
BRANCH   4   5
ATOM      5  C   UNL     1     -10.124 -18.957  31.087  1.00  0.00     0.053 C 
BRANCH   5   6
ATOM      6  C   UNL     1     -10.933 -18.735  32.328  1.00  0.00     0.041 C 
ATOM      7  O   UNL     1     -11.105 -17.569  32.771  1.00  0.00    -0.550 OA
ATOM      8  O   UNL     1     -11.522 -19.812  32.977  1.00  0.00    -0.550 OA
ENDBRANCH   5   6
ENDBRANCH   4   5
ENDBRANCH   3   4
ENDBRANCH   2   3
ENDBRANCH   1   2
BRANCH   1   9
ATOM      9  C   UNL     1     -13.136 -16.010  27.611  1.00  0.00     0.000 C 
BRANCH   9  10
ATOM     10  C   UNL     1     -11.973 -16.386  26.675  1.00  0.00    -0.000 C 
BRANCH  10  11
ATOM     11  C   UNL     1     -10.963 -15.240  26.496  1.00  0.00    -0.000 C 
BRANCH  11  12
ATOM     12  C   UNL     1      -9.580 -15.577  27.078  1.00  0.00    -0.000 C 
BRANCH  12  13
ATOM     13  C   UNL     1      -8.440 -14.856  26.341  1.00  0.00    -0.003 C 
ATOM     14  C   UNL     1      -8.924 -13.649  25.537  1.00  0.00     0.004 C 
ENDBRANCH  12  13
ENDBRANCH  11  12
ENDBRANCH  10  11
ENDBRANCH   9  10
ENDBRANCH   1   9
TORSDOF 10
ENDMDL
