MODEL 1
REMARK VINA RESULT:    -5.506      0.000      0.000
REMARK INTER + INTRA:         -10.483
REMARK INTER:                  -8.403
REMARK INTRA:                  -2.080
REMARK UNBOUND:                -2.080
REMARK SMILES CC(=O)CCC=C(C)CCC=C(C)CCC=C(C)C
REMARK SMILES IDX 10 1 11 2 12 3 13 4 14 5 15 6 16 7 18 8 17 9 19 10 9 11 7 12
REMARK SMILES IDX 6 13 8 14 5 15 4 16 2 17 3 18 1 19
REMARK H PARENT
REMARK Flexibility Score: inf
ROOT
ATOM      1  C   UNL     1      17.003 -35.476  23.654  1.00  0.00     0.032 C 
ENDROOT
BRANCH   1   2
ATOM      2  C   UNL     1      17.518 -35.806  22.277  1.00  0.00    -0.028 C 
ATOM      3  C   UNL     1      16.841 -35.564  21.130  1.00  0.00    -0.077 C 
ATOM      4  C   UNL     1      15.447 -34.978  21.134  1.00  0.00     0.039 C 
BRANCH   3   5
ATOM      5  C   UNL     1      17.489 -35.908  19.807  1.00  0.00     0.034 C 
BRANCH   5   6
ATOM      6  C   UNL     1      17.976 -34.643  19.092  1.00  0.00     0.032 C 
BRANCH   6   7
ATOM      7  C   UNL     1      19.276 -34.162  19.683  1.00  0.00    -0.028 C 
ATOM      8  C   UNL     1      20.763 -32.724  21.010  1.00  0.00     0.039 C 
ATOM      9  C   UNL     1      19.404 -33.058  20.453  1.00  0.00    -0.080 C 
ATOM     10  C   UNL     1      18.233 -32.152  20.752  1.00  0.00     0.039 C 
ENDBRANCH   6   7
ENDBRANCH   5   6
ENDBRANCH   3   5
ENDBRANCH   1   2
BRANCH   1  11
ATOM     11  C   UNL     1      17.614 -34.166  24.164  1.00  0.00     0.034 C 
BRANCH  11  12
ATOM     12  C   UNL     1      16.563 -33.082  24.258  1.00  0.00    -0.077 C 
ATOM     13  C   UNL     1      15.263 -33.440  24.376  1.00  0.00    -0.028 C 
ATOM     14  C   UNL     1      16.994 -31.635  24.231  1.00  0.00     0.039 C 
BRANCH  13  15
ATOM     15  C   UNL     1      14.112 -32.467  24.441  1.00  0.00     0.035 C 
BRANCH  15  16
ATOM     16  C   UNL     1      13.713 -32.003  23.037  1.00  0.00     0.079 C 
BRANCH  16  17
ATOM     17  C   UNL     1      12.915 -30.730  23.103  1.00  0.00     0.130 C 
ATOM     18  O   UNL     1      11.972 -30.565  22.343  1.00  0.00    -0.300 OA
ATOM     19  C   UNL     1      13.253 -29.672  24.110  1.00  0.00     0.087 C 
ENDBRANCH  16  17
ENDBRANCH  15  16
ENDBRANCH  13  15
ENDBRANCH  11  12
ENDBRANCH   1  11
TORSDOF 9
ENDMDL
MODEL 2
REMARK VINA RESULT:    -5.414      1.954      5.641
REMARK INTER + INTRA:         -10.342
REMARK INTER:                  -7.942
REMARK INTRA:                  -2.400
REMARK UNBOUND:                -2.080
REMARK SMILES CC(=O)CCC=C(C)CCC=C(C)CCC=C(C)C
REMARK SMILES IDX 10 1 11 2 12 3 13 4 14 5 15 6 16 7 18 8 17 9 19 10 9 11 7 12
REMARK SMILES IDX 6 13 8 14 5 15 4 16 2 17 3 18 1 19
REMARK H PARENT
REMARK Flexibility Score: inf
ROOT
ATOM      1  C   UNL     1      16.205 -30.189  21.585  1.00  0.00     0.032 C 
ENDROOT
BRANCH   1   2
ATOM      2  C   UNL     1      15.252 -30.691  22.639  1.00  0.00    -0.028 C 
ATOM      3  C   UNL     1      14.241 -31.559  22.405  1.00  0.00    -0.077 C 
ATOM      4  C   UNL     1      13.935 -32.073  21.016  1.00  0.00     0.039 C 
BRANCH   3   5
ATOM      5  C   UNL     1      13.379 -32.015  23.563  1.00  0.00     0.034 C 
BRANCH   5   6
ATOM      6  C   UNL     1      14.222 -32.738  24.619  1.00  0.00     0.032 C 
BRANCH   6   7
ATOM      7  C   UNL     1      14.965 -33.899  24.007  1.00  0.00    -0.028 C 
ATOM      8  C   UNL     1      16.907 -35.286  23.423  1.00  0.00     0.039 C 
ATOM      9  C   UNL     1      16.307 -34.050  24.041  1.00  0.00    -0.080 C 
ATOM     10  C   UNL     1      17.214 -33.013  24.664  1.00  0.00     0.039 C 
ENDBRANCH   6   7
ENDBRANCH   5   6
ENDBRANCH   3   5
ENDBRANCH   1   2
BRANCH   1  11
ATOM     11  C   UNL     1      17.658 -30.341  22.048  1.00  0.00     0.034 C 
BRANCH  11  12
ATOM     12  C   UNL     1      18.339 -31.479  21.319  1.00  0.00    -0.077 C 
ATOM     13  C   UNL     1      17.586 -32.503  20.855  1.00  0.00    -0.028 C 
ATOM     14  C   UNL     1      19.836 -31.435  21.120  1.00  0.00     0.039 C 
BRANCH  13  15
ATOM     15  C   UNL     1      18.136 -33.716  20.147  1.00  0.00     0.035 C 
BRANCH  15  16
ATOM     16  C   UNL     1      17.097 -34.302  19.187  1.00  0.00     0.079 C 
BRANCH  16  17
ATOM     17  C   UNL     1      16.397 -35.477  19.812  1.00  0.00     0.130 C 
ATOM     18  O   UNL     1      15.319 -35.318  20.365  1.00  0.00    -0.300 OA
ATOM     19  C   UNL     1      17.001 -36.848  19.742  1.00  0.00     0.087 C 
ENDBRANCH  16  17
ENDBRANCH  15  16
ENDBRANCH  13  15
ENDBRANCH  11  12
ENDBRANCH   1  11
TORSDOF 9
ENDMDL
MODEL 3
REMARK VINA RESULT:    -5.377      1.655      3.494
REMARK INTER + INTRA:         -10.286
REMARK INTER:                  -7.619
REMARK INTRA:                  -2.667
REMARK UNBOUND:                -2.080
REMARK SMILES CC(=O)CCC=C(C)CCC=C(C)CCC=C(C)C
REMARK SMILES IDX 10 1 11 2 12 3 13 4 14 5 15 6 16 7 18 8 17 9 19 10 9 11 7 12
REMARK SMILES IDX 6 13 8 14 5 15 4 16 2 17 3 18 1 19
REMARK H PARENT
REMARK Flexibility Score: inf
ROOT
ATOM      1  C   UNL     1      16.510 -34.639  19.370  1.00  0.00     0.032 C 
ENDROOT
BRANCH   1   2
ATOM      2  C   UNL     1      17.978 -34.610  19.709  1.00  0.00    -0.028 C 
ATOM      3  C   UNL     1      18.618 -33.544  20.244  1.00  0.00    -0.077 C 
ATOM      4  C   UNL     1      17.908 -32.235  20.504  1.00  0.00     0.039 C 
BRANCH   3   5
ATOM      5  C   UNL     1      20.090 -33.660  20.574  1.00  0.00     0.034 C 
BRANCH   5   6
ATOM      6  C   UNL     1      20.334 -34.775  21.596  1.00  0.00     0.032 C 
BRANCH   6   7
ATOM      7  C   UNL     1      19.744 -34.412  22.935  1.00  0.00    -0.028 C 
ATOM      8  C   UNL     1      18.401 -34.711  24.972  1.00  0.00     0.039 C 
ATOM      9  C   UNL     1      18.875 -35.186  23.623  1.00  0.00    -0.080 C 
ATOM     10  C   UNL     1      18.359 -36.495  23.070  1.00  0.00     0.039 C 
ENDBRANCH   6   7
ENDBRANCH   5   6
ENDBRANCH   3   5
ENDBRANCH   1   2
BRANCH   1  11
ATOM     11  C   UNL     1      15.706 -35.301  20.494  1.00  0.00     0.034 C 
BRANCH  11  12
ATOM     12  C   UNL     1      15.133 -34.261  21.431  1.00  0.00    -0.077 C 
ATOM     13  C   UNL     1      15.458 -34.313  22.744  1.00  0.00    -0.028 C 
ATOM     14  C   UNL     1      14.226 -33.189  20.876  1.00  0.00     0.039 C 
BRANCH  13  15
ATOM     15  C   UNL     1      14.931 -33.366  23.793  1.00  0.00     0.035 C 
BRANCH  15  16
ATOM     16  C   UNL     1      15.821 -32.123  23.899  1.00  0.00     0.079 C 
BRANCH  16  17
ATOM     17  C   UNL     1      15.004 -30.869  23.748  1.00  0.00     0.130 C 
ATOM     18  O   UNL     1      15.561 -29.808  23.510  1.00  0.00    -0.300 OA
ATOM     19  C   UNL     1      13.511 -30.915  23.864  1.00  0.00     0.087 C 
ENDBRANCH  16  17
ENDBRANCH  15  16
ENDBRANCH  13  15
ENDBRANCH  11  12
ENDBRANCH   1  11
TORSDOF 9
ENDMDL
MODEL 4
REMARK VINA RESULT:    -5.318      1.606      2.701
REMARK INTER + INTRA:         -10.196
REMARK INTER:                  -8.088
REMARK INTRA:                  -2.107
REMARK UNBOUND:                -2.080
REMARK SMILES CC(=O)CCC=C(C)CCC=C(C)CCC=C(C)C
REMARK SMILES IDX 10 1 11 2 12 3 13 4 14 5 15 6 16 7 18 8 17 9 19 10 9 11 7 12
REMARK SMILES IDX 6 13 8 14 5 15 4 16 2 17 3 18 1 19
REMARK H PARENT
REMARK Flexibility Score: inf
ROOT
ATOM      1  C   UNL     1      15.357 -35.201  20.367  1.00  0.00     0.032 C 
ENDROOT
BRANCH   1   2
ATOM      2  C   UNL     1      16.825 -35.157  20.028  1.00  0.00    -0.028 C 
ATOM      3  C   UNL     1      17.820 -35.423  20.906  1.00  0.00    -0.077 C 
ATOM      4  C   UNL     1      17.540 -35.743  22.357  1.00  0.00     0.039 C 
BRANCH   3   5
ATOM      5  C   UNL     1      19.255 -35.382  20.426  1.00  0.00     0.034 C 
BRANCH   5   6
ATOM      6  C   UNL     1      19.536 -34.087  19.656  1.00  0.00     0.032 C 
BRANCH   6   7
ATOM      7  C   UNL     1      20.103 -33.033  20.573  1.00  0.00    -0.028 C 
ATOM      8  C   UNL     1      20.087 -31.043  22.015  1.00  0.00     0.039 C 
ATOM      9  C   UNL     1      19.395 -31.997  21.076  1.00  0.00    -0.080 C 
ATOM     10  C   UNL     1      17.947 -31.765  20.711  1.00  0.00     0.039 C 
ENDBRANCH   6   7
ENDBRANCH   5   6
ENDBRANCH   3   5
ENDBRANCH   1   2
BRANCH   1  11
ATOM     11  C   UNL     1      14.657 -33.912  19.920  1.00  0.00     0.034 C 
BRANCH  11  12
ATOM     12  C   UNL     1      14.256 -33.075  21.115  1.00  0.00    -0.077 C 
ATOM     13  C   UNL     1      14.843 -33.318  22.311  1.00  0.00    -0.028 C 
ATOM     14  C   UNL     1      13.224 -31.987  20.939  1.00  0.00     0.039 C 
BRANCH  13  15
ATOM     15  C   UNL     1      14.512 -32.589  23.589  1.00  0.00     0.035 C 
BRANCH  15  16
ATOM     16  C   UNL     1      15.525 -31.471  23.854  1.00  0.00     0.079 C 
BRANCH  16  17
ATOM     17  C   UNL     1      14.951 -30.132  23.481  1.00  0.00     0.130 C 
ATOM     18  O   UNL     1      15.561 -29.404  22.712  1.00  0.00    -0.300 OA
ATOM     19  C   UNL     1      13.626 -29.693  24.027  1.00  0.00     0.087 C 
ENDBRANCH  16  17
ENDBRANCH  15  16
ENDBRANCH  13  15
ENDBRANCH  11  12
ENDBRANCH   1  11
TORSDOF 9
ENDMDL
MODEL 5
REMARK VINA RESULT:    -5.303      2.369      5.210
REMARK INTER + INTRA:         -10.172
REMARK INTER:                  -7.322
REMARK INTRA:                  -2.850
REMARK UNBOUND:                -2.080
REMARK SMILES CC(=O)CCC=C(C)CCC=C(C)CCC=C(C)C
REMARK SMILES IDX 10 1 11 2 12 3 13 4 14 5 15 6 16 7 18 8 17 9 19 10 9 11 7 12
REMARK SMILES IDX 6 13 8 14 5 15 4 16 2 17 3 18 1 19
REMARK H PARENT
REMARK Flexibility Score: inf
ROOT
ATOM      1  C   UNL     1      16.284 -35.608  20.490  1.00  0.00     0.032 C 
ENDROOT
BRANCH   1   2
ATOM      2  C   UNL     1      15.755 -34.989  21.759  1.00  0.00    -0.028 C 
ATOM      3  C   UNL     1      16.404 -35.008  22.946  1.00  0.00    -0.077 C 
ATOM      4  C   UNL     1      17.726 -35.719  23.123  1.00  0.00     0.039 C 
BRANCH   3   5
ATOM      5  C   UNL     1      15.779 -34.313  24.136  1.00  0.00     0.034 C 
BRANCH   5   6
ATOM      6  C   UNL     1      14.627 -33.404  23.695  1.00  0.00     0.032 C 
BRANCH   6   7
ATOM      7  C   UNL     1      15.061 -31.959  23.684  1.00  0.00    -0.028 C 
ATOM      8  C   UNL     1      15.374 -29.698  22.772  1.00  0.00     0.039 C 
ATOM      9  C   UNL     1      14.934 -31.132  22.622  1.00  0.00    -0.080 C 
ATOM     10  C   UNL     1      14.384 -31.608  21.298  1.00  0.00     0.039 C 
ENDBRANCH   6   7
ENDBRANCH   5   6
ENDBRANCH   3   5
ENDBRANCH   1   2
BRANCH   1  11
ATOM     11  C   UNL     1      16.684 -34.525  19.483  1.00  0.00     0.034 C 
BRANCH  11  12
ATOM     12  C   UNL     1      17.937 -33.806  19.934  1.00  0.00    -0.077 C 
ATOM     13  C   UNL     1      17.821 -32.582  20.499  1.00  0.00    -0.028 C 
ATOM     14  C   UNL     1      19.277 -34.478  19.752  1.00  0.00     0.039 C 
BRANCH  13  15
ATOM     15  C   UNL     1      18.985 -31.740  20.958  1.00  0.00     0.035 C 
BRANCH  15  16
ATOM     16  C   UNL     1      18.708 -31.135  22.337  1.00  0.00     0.079 C 
BRANCH  16  17
ATOM     17  C   UNL     1      19.105 -32.091  23.428  1.00  0.00     0.130 C 
ATOM     18  O   UNL     1      19.914 -32.976  23.194  1.00  0.00    -0.300 OA
ATOM     19  C   UNL     1      18.532 -31.953  24.806  1.00  0.00     0.087 C 
ENDBRANCH  16  17
ENDBRANCH  15  16
ENDBRANCH  13  15
ENDBRANCH  11  12
ENDBRANCH   1  11
TORSDOF 9
ENDMDL
MODEL 6
REMARK VINA RESULT:    -5.248      1.328      3.431
REMARK INTER + INTRA:         -10.088
REMARK INTER:                  -8.261
REMARK INTRA:                  -1.828
REMARK UNBOUND:                -2.080
REMARK SMILES CC(=O)CCC=C(C)CCC=C(C)CCC=C(C)C
REMARK SMILES IDX 10 1 11 2 12 3 13 4 14 5 15 6 16 7 18 8 17 9 19 10 9 11 7 12
REMARK SMILES IDX 6 13 8 14 5 15 4 16 2 17 3 18 1 19
REMARK H PARENT
REMARK Flexibility Score: inf
ROOT
ATOM      1  C   UNL     1      18.582 -31.183  21.517  1.00  0.00     0.032 C 
ENDROOT
BRANCH   1   2
ATOM      2  C   UNL     1      17.778 -32.194  20.741  1.00  0.00    -0.028 C 
ATOM      3  C   UNL     1      18.290 -33.321  20.195  1.00  0.00    -0.077 C 
ATOM      4  C   UNL     1      19.765 -33.646  20.270  1.00  0.00     0.039 C 
BRANCH   3   5
ATOM      5  C   UNL     1      17.364 -34.275  19.472  1.00  0.00     0.034 C 
BRANCH   5   6
ATOM      6  C   UNL     1      16.376 -34.922  20.448  1.00  0.00     0.032 C 
BRANCH   6   7
ATOM      7  C   UNL     1      17.107 -35.561  21.602  1.00  0.00    -0.028 C 
ATOM      8  C   UNL     1      17.612 -36.081  23.950  1.00  0.00     0.039 C 
ATOM      9  C   UNL     1      16.823 -35.337  22.904  1.00  0.00    -0.080 C 
ATOM     10  C   UNL     1      15.757 -34.356  23.333  1.00  0.00     0.039 C 
ENDBRANCH   6   7
ENDBRANCH   5   6
ENDBRANCH   3   5
ENDBRANCH   1   2
BRANCH   1  11
ATOM     11  C   UNL     1      17.721 -29.970  21.885  1.00  0.00     0.034 C 
BRANCH  11  12
ATOM     12  C   UNL     1      16.724 -30.324  22.965  1.00  0.00    -0.077 C 
ATOM     13  C   UNL     1      15.436 -29.934  22.821  1.00  0.00    -0.028 C 
ATOM     14  C   UNL     1      17.189 -31.111  24.168  1.00  0.00     0.039 C 
BRANCH  13  15
ATOM     15  C   UNL     1      14.348 -30.186  23.835  1.00  0.00     0.035 C 
BRANCH  15  16
ATOM     16  C   UNL     1      13.638 -31.513  23.553  1.00  0.00     0.079 C 
BRANCH  16  17
ATOM     17  C   UNL     1      12.950 -31.477  22.216  1.00  0.00     0.130 C 
ATOM     18  O   UNL     1      11.903 -30.860  22.090  1.00  0.00    -0.300 OA
ATOM     19  C   UNL     1      13.551 -32.171  21.032  1.00  0.00     0.087 C 
ENDBRANCH  16  17
ENDBRANCH  15  16
ENDBRANCH  13  15
ENDBRANCH  11  12
ENDBRANCH   1  11
TORSDOF 9
ENDMDL
MODEL 7
REMARK VINA RESULT:    -5.246      4.667      7.517
REMARK INTER + INTRA:         -10.085
REMARK INTER:                  -9.029
REMARK INTRA:                  -1.056
REMARK UNBOUND:                -2.080
REMARK SMILES CC(=O)CCC=C(C)CCC=C(C)CCC=C(C)C
REMARK SMILES IDX 10 1 11 2 12 3 13 4 14 5 15 6 16 7 18 8 17 9 19 10 9 11 7 12
REMARK SMILES IDX 6 13 8 14 5 15 4 16 2 17 3 18 1 19
REMARK H PARENT
REMARK Flexibility Score: inf
ROOT
ATOM      1  C   UNL     1      18.548 -30.999  21.920  1.00  0.00     0.032 C 
ENDROOT
BRANCH   1   2
ATOM      2  C   UNL     1      18.655 -29.557  21.494  1.00  0.00    -0.028 C 
ATOM      3  C   UNL     1      19.781 -28.987  21.006  1.00  0.00    -0.077 C 
ATOM      4  C   UNL     1      21.081 -29.751  20.895  1.00  0.00     0.039 C 
BRANCH   3   5
ATOM      5  C   UNL     1      19.744 -27.536  20.577  1.00  0.00     0.034 C 
BRANCH   5   6
ATOM      6  C   UNL     1      20.697 -26.690  21.429  1.00  0.00     0.032 C 
BRANCH   6   7
ATOM      7  C   UNL     1      21.492 -25.746  20.564  1.00  0.00    -0.028 C 
ATOM      8  C   UNL     1      23.439 -24.924  19.309  1.00  0.00     0.039 C 
ATOM      9  C   UNL     1      22.784 -25.934  20.216  1.00  0.00    -0.080 C 
ATOM     10  C   UNL     1      23.586 -27.110  20.721  1.00  0.00     0.039 C 
ENDBRANCH   6   7
ENDBRANCH   5   6
ENDBRANCH   3   5
ENDBRANCH   1   2
BRANCH   1  11
ATOM     11  C   UNL     1      17.578 -31.763  21.011  1.00  0.00     0.034 C 
BRANCH  11  12
ATOM     12  C   UNL     1      18.219 -33.028  20.484  1.00  0.00    -0.077 C 
ATOM     13  C   UNL     1      17.443 -33.943  19.858  1.00  0.00    -0.028 C 
ATOM     14  C   UNL     1      19.706 -33.230  20.660  1.00  0.00     0.039 C 
BRANCH  13  15
ATOM     15  C   UNL     1      17.941 -35.261  19.319  1.00  0.00     0.035 C 
BRANCH  15  16
ATOM     16  C   UNL     1      16.986 -36.398  19.696  1.00  0.00     0.079 C 
BRANCH  16  17
ATOM     17  C   UNL     1      17.729 -37.700  19.817  1.00  0.00     0.130 C 
ATOM     18  O   UNL     1      17.999 -38.143  20.923  1.00  0.00    -0.300 OA
ATOM     19  C   UNL     1      18.122 -38.468  18.591  1.00  0.00     0.087 C 
ENDBRANCH  16  17
ENDBRANCH  15  16
ENDBRANCH  13  15
ENDBRANCH  11  12
ENDBRANCH   1  11
TORSDOF 9
ENDMDL
MODEL 8
REMARK VINA RESULT:    -5.195      2.671      5.656
REMARK INTER + INTRA:         -10.007
REMARK INTER:                  -8.422
REMARK INTRA:                  -1.585
REMARK UNBOUND:                -2.080
REMARK SMILES CC(=O)CCC=C(C)CCC=C(C)CCC=C(C)C
REMARK SMILES IDX 10 1 11 2 12 3 13 4 14 5 15 6 16 7 18 8 17 9 19 10 9 11 7 12
REMARK SMILES IDX 6 13 8 14 5 15 4 16 2 17 3 18 1 19
REMARK H PARENT
REMARK Flexibility Score: inf
ROOT
ATOM      1  C   UNL     1      18.394 -36.355  21.633  1.00  0.00     0.032 C 
ENDROOT
BRANCH   1   2
ATOM      2  C   UNL     1      17.876 -36.485  23.042  1.00  0.00    -0.028 C 
ATOM      3  C   UNL     1      17.671 -35.442  23.880  1.00  0.00    -0.077 C 
ATOM      4  C   UNL     1      18.008 -34.022  23.485  1.00  0.00     0.039 C 
BRANCH   3   5
ATOM      5  C   UNL     1      17.108 -35.707  25.259  1.00  0.00     0.034 C 
BRANCH   5   6
ATOM      6  C   UNL     1      17.762 -36.941  25.889  1.00  0.00     0.032 C 
BRANCH   6   7
ATOM      7  C   UNL     1      16.724 -37.836  26.516  1.00  0.00    -0.028 C 
ATOM      8  C   UNL     1      15.624 -39.121  28.299  1.00  0.00     0.039 C 
ATOM      9  C   UNL     1      16.757 -38.263  27.798  1.00  0.00    -0.080 C 
ATOM     10  C   UNL     1      17.898 -37.918  28.727  1.00  0.00     0.039 C 
ENDBRANCH   6   7
ENDBRANCH   5   6
ENDBRANCH   3   5
ENDBRANCH   1   2
BRANCH   1  11
ATOM     11  C   UNL     1      17.268 -36.575  20.617  1.00  0.00     0.034 C 
BRANCH  11  12
ATOM     12  C   UNL     1      16.564 -35.274  20.303  1.00  0.00    -0.077 C 
ATOM     13  C   UNL     1      15.435 -34.960  20.982  1.00  0.00    -0.028 C 
ATOM     14  C   UNL     1      17.144 -34.357  19.253  1.00  0.00     0.039 C 
BRANCH  13  15
ATOM     15  C   UNL     1      14.613 -33.718  20.745  1.00  0.00     0.035 C 
BRANCH  15  16
ATOM     16  C   UNL     1      15.097 -32.569  21.634  1.00  0.00     0.079 C 
BRANCH  16  17
ATOM     17  C   UNL     1      14.178 -32.381  22.810  1.00  0.00     0.130 C 
ATOM     18  O   UNL     1      13.188 -31.674  22.698  1.00  0.00    -0.300 OA
ATOM     19  C   UNL     1      14.456 -33.072  24.111  1.00  0.00     0.087 C 
ENDBRANCH  16  17
ENDBRANCH  15  16
ENDBRANCH  13  15
ENDBRANCH  11  12
ENDBRANCH   1  11
TORSDOF 9
ENDMDL
MODEL 9
REMARK VINA RESULT:    -5.161      2.472      6.342
REMARK INTER + INTRA:          -9.957
REMARK INTER:                  -7.654
REMARK INTRA:                  -2.302
REMARK UNBOUND:                -2.080
REMARK SMILES CC(=O)CCC=C(C)CCC=C(C)CCC=C(C)C
REMARK SMILES IDX 10 1 11 2 12 3 13 4 14 5 15 6 16 7 18 8 17 9 19 10 9 11 7 12
REMARK SMILES IDX 6 13 8 14 5 15 4 16 2 17 3 18 1 19
REMARK H PARENT
REMARK Flexibility Score: inf
ROOT
ATOM      1  C   UNL     1      17.624 -31.056  21.254  1.00  0.00     0.032 C 
ENDROOT
BRANCH   1   2
ATOM      2  C   UNL     1      17.055 -31.627  22.527  1.00  0.00    -0.028 C 
ATOM      3  C   UNL     1      16.097 -32.581  22.575  1.00  0.00    -0.077 C 
ATOM      4  C   UNL     1      15.456 -33.133  21.322  1.00  0.00     0.039 C 
BRANCH   3   5
ATOM      5  C   UNL     1      15.640 -33.099  23.922  1.00  0.00     0.034 C 
BRANCH   5   6
ATOM      6  C   UNL     1      14.141 -32.851  24.121  1.00  0.00     0.032 C 
BRANCH   6   7
ATOM      7  C   UNL     1      13.880 -31.409  24.477  1.00  0.00    -0.028 C 
ATOM      8  C   UNL     1      12.936 -29.154  24.230  1.00  0.00     0.039 C 
ATOM      9  C   UNL     1      13.147 -30.558  23.726  1.00  0.00    -0.080 C 
ATOM     10  C   UNL     1      12.554 -30.970  22.398  1.00  0.00     0.039 C 
ENDBRANCH   6   7
ENDBRANCH   5   6
ENDBRANCH   3   5
ENDBRANCH   1   2
BRANCH   1  11
ATOM     11  C   UNL     1      19.139 -31.280  21.186  1.00  0.00     0.034 C 
BRANCH  11  12
ATOM     12  C   UNL     1      19.459 -32.749  21.021  1.00  0.00    -0.077 C 
ATOM     13  C   UNL     1      18.914 -33.425  19.983  1.00  0.00    -0.028 C 
ATOM     14  C   UNL     1      20.385 -33.417  22.009  1.00  0.00     0.039 C 
BRANCH  13  15
ATOM     15  C   UNL     1      19.116 -34.896  19.720  1.00  0.00     0.035 C 
BRANCH  15  16
ATOM     16  C   UNL     1      17.792 -35.657  19.844  1.00  0.00     0.079 C 
BRANCH  16  17
ATOM     17  C   UNL     1      17.804 -36.556  21.050  1.00  0.00     0.130 C 
ATOM     18  O   UNL     1      17.962 -37.759  20.908  1.00  0.00    -0.300 OA
ATOM     19  C   UNL     1      17.647 -35.983  22.426  1.00  0.00     0.087 C 
ENDBRANCH  16  17
ENDBRANCH  15  16
ENDBRANCH  13  15
ENDBRANCH  11  12
ENDBRANCH   1  11
TORSDOF 9
ENDMDL
