MODEL 1
REMARK VINA RESULT:    -2.478      0.000      0.000
REMARK INTER + INTRA:          -2.805
REMARK INTER:                  -2.767
REMARK INTRA:                  -0.037
REMARK UNBOUND:                -0.037
REMARK SMILES CCCC(=O)[O-]
REMARK SMILES IDX 3 1 4 2 5 3 6 4 2 5 1 6
REMARK H PARENT
REMARK Flexibility Score: inf
ROOT
ATOM      1  C   UNL     1      34.365  20.029  16.115  1.00  0.00     0.052 C 
ENDROOT
BRANCH   1   2
ATOM      2  C   UNL     1      33.762  18.863  15.394  1.00  0.00     0.041 C 
ATOM      3  O   UNL     1      33.709  18.851  14.137  1.00  0.00    -0.550 OA
ATOM      4  O   UNL     1      33.286  17.773  16.113  1.00  0.00    -0.550 OA
ENDBRANCH   1   2
BRANCH   1   5
ATOM      5  C   UNL     1      35.889  20.072  15.948  1.00  0.00     0.003 C 
ATOM      6  C   UNL     1      36.348  21.254  15.093  1.00  0.00     0.004 C 
ENDBRANCH   1   5
TORSDOF 2
ENDMDL
MODEL 2
REMARK VINA RESULT:    -2.371     13.946     14.903
REMARK INTER + INTRA:          -2.686
REMARK INTER:                  -2.676
REMARK INTRA:                  -0.010
REMARK UNBOUND:                -0.037
REMARK SMILES CCCC(=O)[O-]
REMARK SMILES IDX 3 1 4 2 5 3 6 4 2 5 1 6
REMARK H PARENT
REMARK Flexibility Score: inf
ROOT
ATOM      1  C   UNL     1      49.743  21.982  16.097  1.00  0.00     0.052 C 
ENDROOT
BRANCH   1   2
ATOM      2  C   UNL     1      48.258  21.961  16.295  1.00  0.00     0.041 C 
ATOM      3  O   UNL     1      47.671  22.952  16.803  1.00  0.00    -0.550 OA
ATOM      4  O   UNL     1      47.518  20.858  15.887  1.00  0.00    -0.550 OA
ENDBRANCH   1   2
BRANCH   1   5
ATOM      5  C   UNL     1      50.161  21.187  14.854  1.00  0.00     0.003 C 
ATOM      6  C   UNL     1      51.660  20.887  14.832  1.00  0.00     0.004 C 
ENDBRANCH   1   5
TORSDOF 2
ENDMDL
MODEL 3
REMARK VINA RESULT:    -2.365     12.819     13.734
REMARK INTER + INTRA:          -2.678
REMARK INTER:                  -2.669
REMARK INTRA:                  -0.009
REMARK UNBOUND:                -0.037
REMARK SMILES CCCC(=O)[O-]
REMARK SMILES IDX 3 1 4 2 5 3 6 4 2 5 1 6
REMARK H PARENT
REMARK Flexibility Score: inf
ROOT
ATOM      1  C   UNL     1      48.107  20.776  15.507  1.00  0.00     0.052 C 
ENDROOT
BRANCH   1   2
ATOM      2  C   UNL     1      47.041  21.380  16.368  1.00  0.00     0.041 C 
ATOM      3  O   UNL     1      47.352  22.075  17.370  1.00  0.00    -0.550 OA
ATOM      4  O   UNL     1      45.701  21.202  16.044  1.00  0.00    -0.550 OA
ENDBRANCH   1   2
BRANCH   1   5
ATOM      5  C   UNL     1      49.422  21.559  15.598  1.00  0.00     0.003 C 
ATOM      6  C   UNL     1      50.482  21.031  14.631  1.00  0.00     0.004 C 
ENDBRANCH   1   5
TORSDOF 2
ENDMDL
MODEL 4
REMARK VINA RESULT:    -2.336      2.258      3.383
REMARK INTER + INTRA:          -2.647
REMARK INTER:                  -2.618
REMARK INTRA:                  -0.029
REMARK UNBOUND:                -0.037
REMARK SMILES CCCC(=O)[O-]
REMARK SMILES IDX 3 1 4 2 5 3 6 4 2 5 1 6
REMARK H PARENT
REMARK Flexibility Score: inf
ROOT
ATOM      1  C   UNL     1      35.686  20.158  15.990  1.00  0.00     0.052 C 
ENDROOT
BRANCH   1   2
ATOM      2  C   UNL     1      36.146  20.865  14.752  1.00  0.00     0.041 C 
ATOM      3  O   UNL     1      35.470  20.797  13.693  1.00  0.00    -0.550 OA
ATOM      4  O   UNL     1      37.309  21.626  14.778  1.00  0.00    -0.550 OA
ENDBRANCH   1   2
BRANCH   1   5
ATOM      5  C   UNL     1      34.339  19.455  15.774  1.00  0.00     0.003 C 
ATOM      6  C   UNL     1      33.279  19.908  16.778  1.00  0.00     0.004 C 
ENDBRANCH   1   5
TORSDOF 2
ENDMDL
MODEL 5
REMARK VINA RESULT:    -2.324     15.183     16.120
REMARK INTER + INTRA:          -2.633
REMARK INTER:                  -2.624
REMARK INTRA:                  -0.009
REMARK UNBOUND:                -0.037
REMARK SMILES CCCC(=O)[O-]
REMARK SMILES IDX 3 1 4 2 5 3 6 4 2 5 1 6
REMARK H PARENT
REMARK Flexibility Score: inf
ROOT
ATOM      1  C   UNL     1      50.344  21.157  14.675  1.00  0.00     0.052 C 
ENDROOT
BRANCH   1   2
ATOM      2  C   UNL     1      49.471  21.672  15.777  1.00  0.00     0.041 C 
ATOM      3  O   UNL     1      48.254  21.354  15.825  1.00  0.00    -0.550 OA
ATOM      4  O   UNL     1      50.010  22.480  16.771  1.00  0.00    -0.550 OA
ENDBRANCH   1   2
BRANCH   1   5
ATOM      5  C   UNL     1      51.717  20.717  15.197  1.00  0.00     0.003 C 
ATOM      6  C   UNL     1      52.804  21.756  14.925  1.00  0.00     0.004 C 
ENDBRANCH   1   5
TORSDOF 2
ENDMDL
MODEL 6
REMARK VINA RESULT:    -2.281     16.705     17.681
REMARK INTER + INTRA:          -2.585
REMARK INTER:                  -2.547
REMARK INTRA:                  -0.038
REMARK UNBOUND:                -0.037
REMARK SMILES CCCC(=O)[O-]
REMARK SMILES IDX 3 1 4 2 5 3 6 4 2 5 1 6
REMARK H PARENT
REMARK Flexibility Score: inf
ROOT
ATOM      1  C   UNL     1      52.575  22.154  15.756  1.00  0.00     0.052 C 
ENDROOT
BRANCH   1   2
ATOM      2  C   UNL     1      52.047  22.331  17.146  1.00  0.00     0.041 C 
ATOM      3  O   UNL     1      52.630  21.789  18.121  1.00  0.00    -0.550 OA
ATOM      4  O   UNL     1      50.925  23.120  17.368  1.00  0.00    -0.550 OA
ENDBRANCH   1   2
BRANCH   1   5
ATOM      5  C   UNL     1      52.041  20.873  15.104  1.00  0.00     0.003 C 
ATOM      6  C   UNL     1      50.617  21.042  14.573  1.00  0.00     0.004 C 
ENDBRANCH   1   5
TORSDOF 2
ENDMDL
MODEL 7
REMARK VINA RESULT:    -2.269      1.200      1.587
REMARK INTER + INTRA:          -2.572
REMARK INTER:                  -2.567
REMARK INTRA:                  -0.005
REMARK UNBOUND:                -0.037
REMARK SMILES CCCC(=O)[O-]
REMARK SMILES IDX 3 1 4 2 5 3 6 4 2 5 1 6
REMARK H PARENT
REMARK Flexibility Score: inf
ROOT
ATOM      1  C   UNL     1      35.952  20.124  15.762  1.00  0.00     0.052 C 
ENDROOT
BRANCH   1   2
ATOM      2  C   UNL     1      34.532  19.650  15.793  1.00  0.00     0.041 C 
ATOM      3  O   UNL     1      34.084  18.923  14.869  1.00  0.00    -0.550 OA
ATOM      4  O   UNL     1      33.711  19.987  16.862  1.00  0.00    -0.550 OA
ENDBRANCH   1   2
BRANCH   1   5
ATOM      5  C   UNL     1      36.142  21.283  14.776  1.00  0.00     0.003 C 
ATOM      6  C   UNL     1      37.493  21.977  14.947  1.00  0.00     0.004 C 
ENDBRANCH   1   5
TORSDOF 2
ENDMDL
MODEL 8
REMARK VINA RESULT:    -2.191      3.220      3.962
REMARK INTER + INTRA:          -2.485
REMARK INTER:                  -2.453
REMARK INTRA:                  -0.032
REMARK UNBOUND:                -0.037
REMARK SMILES CCCC(=O)[O-]
REMARK SMILES IDX 3 1 4 2 5 3 6 4 2 5 1 6
REMARK H PARENT
REMARK Flexibility Score: inf
ROOT
ATOM      1  C   UNL     1      35.928  20.535  14.536  1.00  0.00     0.052 C 
ENDROOT
BRANCH   1   2
ATOM      2  C   UNL     1      36.627  21.859  14.487  1.00  0.00     0.041 C 
ATOM      3  O   UNL     1      35.963  22.923  14.386  1.00  0.00    -0.550 OA
ATOM      4  O   UNL     1      38.011  21.918  14.585  1.00  0.00    -0.550 OA
ENDBRANCH   1   2
BRANCH   1   5
ATOM      5  C   UNL     1      35.705  20.064  15.979  1.00  0.00     0.003 C 
ATOM      6  C   UNL     1      34.237  20.142  16.396  1.00  0.00     0.004 C 
ENDBRANCH   1   5
TORSDOF 2
ENDMDL
MODEL 9
REMARK VINA RESULT:    -2.188      1.229      2.064
REMARK INTER + INTRA:          -2.481
REMARK INTER:                  -2.414
REMARK INTRA:                  -0.067
REMARK UNBOUND:                -0.037
REMARK SMILES CCCC(=O)[O-]
REMARK SMILES IDX 3 1 4 2 5 3 6 4 2 5 1 6
REMARK H PARENT
REMARK Flexibility Score: inf
ROOT
ATOM      1  C   UNL     1      33.653  20.497  14.928  1.00  0.00     0.052 C 
ENDROOT
BRANCH   1   2
ATOM      2  C   UNL     1      33.669  19.392  13.917  1.00  0.00     0.041 C 
ATOM      3  O   UNL     1      33.202  18.259  14.206  1.00  0.00    -0.550 OA
ATOM      4  O   UNL     1      34.173  19.623  12.643  1.00  0.00    -0.550 OA
ENDBRANCH   1   2
BRANCH   1   5
ATOM      5  C   UNL     1      34.481  20.143  16.169  1.00  0.00     0.003 C 
ATOM      6  C   UNL     1      35.982  20.112  15.877  1.00  0.00     0.004 C 
ENDBRANCH   1   5
TORSDOF 2
ENDMDL
