MODEL 1
REMARK VINA RESULT:    -7.945      0.000      0.000
REMARK INTER + INTRA:         -10.139
REMARK INTER:                  -9.803
REMARK INTRA:                  -0.337
REMARK UNBOUND:                -0.337
REMARK SMILES O=c1c(O)c(-c2cc(O)c(O)c(O)c2)oc2cc(O)cc(O)c12
REMARK SMILES IDX 5 1 3 2 2 3 1 4 23 5 21 6 20 7 18 8 17 9 16 10 15 11 6 12
REMARK SMILES IDX 7 13 8 14 14 15 10 16 12 17 9 18 11 20 13 22 4 24 22 26
REMARK SMILES IDX 19 28
REMARK H PARENT 9 19 11 21 13 23 4 25 22 27 19 29
REMARK Flexibility Score: inf
ROOT
ATOM      1  C   UNL     1      -2.179  -2.532   5.475  1.00  0.00     0.180 A 
ATOM      2  C   UNL     1      -1.115  -2.857   6.335  1.00  0.00     0.208 A 
ATOM      3  C   UNL     1      -1.056  -4.146   6.889  1.00  0.00     0.238 A 
ATOM      4  O   UNL     1      -0.133  -4.413   7.701  1.00  0.00    -0.285 OA
ATOM      5  C   UNL     1      -2.051  -5.099   6.562  1.00  0.00     0.111 A 
ATOM      6  C   UNL     1      -2.068  -6.446   7.033  1.00  0.00     0.134 A 
ATOM      7  C   UNL     1      -3.170  -7.262   6.751  1.00  0.00     0.093 A 
ATOM      8  C   UNL     1      -4.226  -6.800   5.961  1.00  0.00     0.123 A 
ATOM      9  C   UNL     1      -4.190  -5.506   5.447  1.00  0.00     0.094 A 
ATOM     10  C   UNL     1      -3.121  -4.656   5.741  1.00  0.00     0.146 A 
ATOM     11  O   UNL     1      -3.131  -3.427   5.240  1.00  0.00    -0.452 OA
ENDROOT
BRANCH   1  12
ATOM     12  C   UNL     1      -2.296  -1.203   4.834  1.00  0.00     0.029 A 
ATOM     13  C   UNL     1      -1.522  -0.862   3.711  1.00  0.00     0.062 A 
ATOM     14  C   UNL     1      -1.663   0.393   3.103  1.00  0.00     0.162 A 
ATOM     15  C   UNL     1      -3.238  -0.282   5.317  1.00  0.00     0.062 A 
ATOM     16  C   UNL     1      -2.593   1.317   3.609  1.00  0.00     0.200 A 
ATOM     17  C   UNL     1      -3.383   0.972   4.718  1.00  0.00     0.162 A 
BRANCH  14  18
ATOM     18  O   UNL     1      -0.884   0.723   1.993  1.00  0.00    -0.504 OA
ATOM     19  H   UNL     1      -1.091   1.532   1.420  1.00  0.00     0.293 HD
ENDBRANCH  14  18
BRANCH  16  20
ATOM     20  O   UNL     1      -2.743   2.573   3.019  1.00  0.00    -0.502 OA
ATOM     21  H   UNL     1      -2.889   2.687   2.023  1.00  0.00     0.293 HD
ENDBRANCH  16  20
BRANCH  17  22
ATOM     22  O   UNL     1      -4.321   1.865   5.239  1.00  0.00    -0.504 OA
ATOM     23  H   UNL     1      -5.037   2.291   4.663  1.00  0.00     0.293 HD
ENDBRANCH  17  22
ENDBRANCH   1  12
BRANCH   2  24
ATOM     24  O   UNL     1      -0.156  -1.895   6.660  1.00  0.00    -0.502 OA
ATOM     25  H   UNL     1      -0.326  -1.166   7.343  1.00  0.00     0.293 HD
ENDBRANCH   2  24
BRANCH   6  26
ATOM     26  O   UNL     1      -1.024  -7.035   7.752  1.00  0.00    -0.507 OA
ATOM     27  H   UNL     1      -0.928  -7.003   8.756  1.00  0.00     0.293 HD
ENDBRANCH   6  26
BRANCH   8  28
ATOM     28  O   UNL     1      -5.312  -7.624   5.673  1.00  0.00    -0.508 OA
ATOM     29  H   UNL     1      -5.942  -7.420   4.906  1.00  0.00     0.293 HD
ENDBRANCH   8  28
TORSDOF 7
ENDMDL
MODEL 2
REMARK VINA RESULT:    -7.858      2.267      3.007
REMARK INTER + INTRA:         -10.033
REMARK INTER:                  -9.679
REMARK INTRA:                  -0.353
REMARK UNBOUND:                -0.337
REMARK SMILES O=c1c(O)c(-c2cc(O)c(O)c(O)c2)oc2cc(O)cc(O)c12
REMARK SMILES IDX 5 1 3 2 2 3 1 4 23 5 21 6 20 7 18 8 17 9 16 10 15 11 6 12
REMARK SMILES IDX 7 13 8 14 14 15 10 16 12 17 9 18 11 20 13 22 4 24 22 26
REMARK SMILES IDX 19 28
REMARK H PARENT 9 19 11 21 13 23 4 25 22 27 19 29
REMARK Flexibility Score: inf
ROOT
ATOM      1  C   UNL     1      -2.697  -0.960   4.658  1.00  0.00     0.180 A 
ATOM      2  C   UNL     1      -2.255  -1.844   3.659  1.00  0.00     0.208 A 
ATOM      3  C   UNL     1      -2.463  -3.222   3.827  1.00  0.00     0.238 A 
ATOM      4  O   UNL     1      -2.016  -4.012   2.956  1.00  0.00    -0.285 OA
ATOM      5  C   UNL     1      -3.125  -3.697   4.985  1.00  0.00     0.111 A 
ATOM      6  C   UNL     1      -3.425  -5.070   5.240  1.00  0.00     0.134 A 
ATOM      7  C   UNL     1      -3.967  -5.439   6.478  1.00  0.00     0.093 A 
ATOM      8  C   UNL     1      -4.279  -4.478   7.443  1.00  0.00     0.123 A 
ATOM      9  C   UNL     1      -4.045  -3.131   7.179  1.00  0.00     0.094 A 
ATOM     10  C   UNL     1      -3.472  -2.735   5.969  1.00  0.00     0.146 A 
ATOM     11  O   UNL     1      -3.256  -1.441   5.762  1.00  0.00    -0.452 OA
ENDROOT
BRANCH   1  12
ATOM     12  C   UNL     1      -2.535   0.507   4.540  1.00  0.00     0.029 A 
ATOM     13  C   UNL     1      -1.411   1.165   5.069  1.00  0.00     0.062 A 
ATOM     14  C   UNL     1      -1.264   2.551   4.927  1.00  0.00     0.162 A 
ATOM     15  C   UNL     1      -3.492   1.254   3.836  1.00  0.00     0.062 A 
ATOM     16  C   UNL     1      -2.240   3.293   4.240  1.00  0.00     0.200 A 
ATOM     17  C   UNL     1      -3.355   2.637   3.692  1.00  0.00     0.162 A 
BRANCH  14  18
ATOM     18  O   UNL     1      -0.147   3.193   5.463  1.00  0.00    -0.504 OA
ATOM     19  H   UNL     1       0.427   3.814   4.905  1.00  0.00     0.293 HD
ENDBRANCH  14  18
BRANCH  16  20
ATOM     20  O   UNL     1      -2.111   4.675   4.094  1.00  0.00    -0.502 OA
ATOM     21  H   UNL     1      -2.910   5.297   4.118  1.00  0.00     0.293 HD
ENDBRANCH  16  20
BRANCH  17  22
ATOM     22  O   UNL     1      -4.336   3.345   2.997  1.00  0.00    -0.504 OA
ATOM     23  H   UNL     1      -4.154   3.781   2.101  1.00  0.00     0.293 HD
ENDBRANCH  17  22
ENDBRANCH   1  12
BRANCH   2  24
ATOM     24  O   UNL     1      -1.584  -1.355   2.535  1.00  0.00    -0.502 OA
ATOM     25  H   UNL     1      -1.992  -0.665   1.915  1.00  0.00     0.293 HD
ENDBRANCH   2  24
BRANCH   6  26
ATOM     26  O   UNL     1      -3.238  -6.096   4.310  1.00  0.00    -0.507 OA
ATOM     27  H   UNL     1      -3.065  -7.061   4.547  1.00  0.00     0.293 HD
ENDBRANCH   6  26
BRANCH   8  28
ATOM     28  O   UNL     1      -4.832  -4.853   8.666  1.00  0.00    -0.508 OA
ATOM     29  H   UNL     1      -4.313  -5.411   9.333  1.00  0.00     0.293 HD
ENDBRANCH   8  28
TORSDOF 7
ENDMDL
MODEL 3
REMARK VINA RESULT:    -7.627      2.092      7.266
REMARK INTER + INTRA:          -9.747
REMARK INTER:                  -9.640
REMARK INTRA:                  -0.107
REMARK UNBOUND:                -0.337
REMARK SMILES O=c1c(O)c(-c2cc(O)c(O)c(O)c2)oc2cc(O)cc(O)c12
REMARK SMILES IDX 5 1 3 2 2 3 1 4 23 5 21 6 20 7 18 8 17 9 16 10 15 11 6 12
REMARK SMILES IDX 7 13 8 14 14 15 10 16 12 17 9 18 11 20 13 22 4 24 22 26
REMARK SMILES IDX 19 28
REMARK H PARENT 9 19 11 21 13 23 4 25 22 27 19 29
REMARK Flexibility Score: inf
ROOT
ATOM      1  C   UNL     1      -2.421  -0.858   4.221  1.00  0.00     0.180 A 
ATOM      2  C   UNL     1      -1.689  -0.046   3.337  1.00  0.00     0.208 A 
ATOM      3  C   UNL     1      -1.837   1.348   3.411  1.00  0.00     0.238 A 
ATOM      4  O   UNL     1      -1.221   2.066   2.581  1.00  0.00    -0.285 OA
ATOM      5  C   UNL     1      -2.702   1.914   4.378  1.00  0.00     0.111 A 
ATOM      6  C   UNL     1      -2.898   3.316   4.568  1.00  0.00     0.134 A 
ATOM      7  C   UNL     1      -3.876   3.760   5.467  1.00  0.00     0.093 A 
ATOM      8  C   UNL     1      -4.619   2.854   6.228  1.00  0.00     0.123 A 
ATOM      9  C   UNL     1      -4.393   1.487   6.093  1.00  0.00     0.094 A 
ATOM     10  C   UNL     1      -3.450   1.012   5.179  1.00  0.00     0.146 A 
ATOM     11  O   UNL     1      -3.273  -0.300   5.073  1.00  0.00    -0.452 OA
ENDROOT
BRANCH   1  12
ATOM     12  C   UNL     1      -2.299  -2.333   4.221  1.00  0.00     0.029 A 
ATOM     13  C   UNL     1      -1.927  -3.037   5.380  1.00  0.00     0.062 A 
ATOM     14  C   UNL     1      -1.839  -4.436   5.366  1.00  0.00     0.162 A 
ATOM     15  C   UNL     1      -2.617  -3.053   3.059  1.00  0.00     0.062 A 
ATOM     16  C   UNL     1      -2.137  -5.146   4.191  1.00  0.00     0.200 A 
ATOM     17  C   UNL     1      -2.530  -4.448   3.037  1.00  0.00     0.162 A 
BRANCH  14  18
ATOM     18  O   UNL     1      -1.462  -5.122   6.521  1.00  0.00    -0.504 OA
ATOM     19  H   UNL     1      -0.602  -5.656   6.564  1.00  0.00     0.293 HD
ENDBRANCH  14  18
BRANCH  16  20
ATOM     20  O   UNL     1      -2.050  -6.538   4.159  1.00  0.00    -0.502 OA
ATOM     21  H   UNL     1      -2.670  -7.130   4.700  1.00  0.00     0.293 HD
ENDBRANCH  16  20
BRANCH  17  22
ATOM     22  O   UNL     1      -2.841  -5.125   1.857  1.00  0.00    -0.504 OA
ATOM     23  H   UNL     1      -3.697  -4.950   1.344  1.00  0.00     0.293 HD
ENDBRANCH  17  22
ENDBRANCH   1  12
BRANCH   2  24
ATOM     24  O   UNL     1      -0.857  -0.627   2.377  1.00  0.00    -0.502 OA
ATOM     25  H   UNL     1       0.151  -0.654   2.474  1.00  0.00     0.293 HD
ENDBRANCH   2  24
BRANCH   6  26
ATOM     26  O   UNL     1      -2.146   4.303   3.926  1.00  0.00    -0.507 OA
ATOM     27  H   UNL     1      -1.743   4.210   3.006  1.00  0.00     0.293 HD
ENDBRANCH   6  26
BRANCH   8  28
ATOM     28  O   UNL     1      -5.579   3.306   7.132  1.00  0.00    -0.508 OA
ATOM     29  H   UNL     1      -5.910   2.721   7.890  1.00  0.00     0.293 HD
ENDBRANCH   8  28
TORSDOF 7
ENDMDL
MODEL 4
REMARK VINA RESULT:    -7.582      2.099      7.284
REMARK INTER + INTRA:          -9.691
REMARK INTER:                  -9.489
REMARK INTRA:                  -0.203
REMARK UNBOUND:                -0.337
REMARK SMILES O=c1c(O)c(-c2cc(O)c(O)c(O)c2)oc2cc(O)cc(O)c12
REMARK SMILES IDX 5 1 3 2 2 3 1 4 23 5 21 6 20 7 18 8 17 9 16 10 15 11 6 12
REMARK SMILES IDX 7 13 8 14 14 15 10 16 12 17 9 18 11 20 13 22 4 24 22 26
REMARK SMILES IDX 19 28
REMARK H PARENT 9 19 11 21 13 23 4 25 22 27 19 29
REMARK Flexibility Score: inf
ROOT
ATOM      1  C   UNL     1      -2.393  -0.554   4.392  1.00  0.00     0.180 A 
ATOM      2  C   UNL     1      -1.665   0.232   3.483  1.00  0.00     0.208 A 
ATOM      3  C   UNL     1      -1.870   1.621   3.466  1.00  0.00     0.238 A 
ATOM      4  O   UNL     1      -1.256   2.312   2.613  1.00  0.00    -0.285 OA
ATOM      5  C   UNL     1      -2.789   2.208   4.369  1.00  0.00     0.111 A 
ATOM      6  C   UNL     1      -3.046   3.609   4.467  1.00  0.00     0.134 A 
ATOM      7  C   UNL     1      -4.070   4.065   5.306  1.00  0.00     0.093 A 
ATOM      8  C   UNL     1      -4.802   3.177   6.099  1.00  0.00     0.123 A 
ATOM      9  C   UNL     1      -4.518   1.815   6.055  1.00  0.00     0.094 A 
ATOM     10  C   UNL     1      -3.527   1.325   5.201  1.00  0.00     0.146 A 
ATOM     11  O   UNL     1      -3.295   0.018   5.181  1.00  0.00    -0.452 OA
ENDROOT
BRANCH   1  12
ATOM     12  C   UNL     1      -2.213  -2.021   4.486  1.00  0.00     0.029 A 
ATOM     13  C   UNL     1      -2.567  -2.871   3.423  1.00  0.00     0.062 A 
ATOM     14  C   UNL     1      -2.367  -4.255   3.521  1.00  0.00     0.162 A 
ATOM     15  C   UNL     1      -1.625  -2.573   5.633  1.00  0.00     0.062 A 
ATOM     16  C   UNL     1      -1.798  -4.800   4.685  1.00  0.00     0.200 A 
ATOM     17  C   UNL     1      -1.424  -3.953   5.740  1.00  0.00     0.162 A 
BRANCH  14  18
ATOM     18  O   UNL     1      -2.728  -5.089   2.462  1.00  0.00    -0.504 OA
ATOM     19  H   UNL     1      -3.697  -5.220   2.197  1.00  0.00     0.293 HD
ENDBRANCH  14  18
BRANCH  16  20
ATOM     20  O   UNL     1      -1.597  -6.177   4.800  1.00  0.00    -0.502 OA
ATOM     21  H   UNL     1      -1.465  -6.629   5.697  1.00  0.00     0.293 HD
ENDBRANCH  16  20
BRANCH  17  22
ATOM     22  O   UNL     1      -0.849  -4.463   6.905  1.00  0.00    -0.504 OA
ATOM     23  H   UNL     1      -1.378  -5.014   7.570  1.00  0.00     0.293 HD
ENDBRANCH  17  22
ENDBRANCH   1  12
BRANCH   2  24
ATOM     24  O   UNL     1      -0.779  -0.370   2.586  1.00  0.00    -0.502 OA
ATOM     25  H   UNL     1      -0.012   0.134   2.157  1.00  0.00     0.293 HD
ENDBRANCH   2  24
BRANCH   6  26
ATOM     26  O   UNL     1      -2.312   4.586   3.789  1.00  0.00    -0.507 OA
ATOM     27  H   UNL     1      -2.699   5.443   3.423  1.00  0.00     0.293 HD
ENDBRANCH   6  26
BRANCH   8  28
ATOM     28  O   UNL     1      -5.809   3.642   6.943  1.00  0.00    -0.508 OA
ATOM     29  H   UNL     1      -5.974   3.224   7.851  1.00  0.00     0.293 HD
ENDBRANCH   8  28
TORSDOF 7
ENDMDL
MODEL 5
REMARK VINA RESULT:    -7.522      5.872     10.216
REMARK INTER + INTRA:          -9.617
REMARK INTER:                  -9.290
REMARK INTRA:                  -0.328
REMARK UNBOUND:                -0.337
REMARK SMILES O=c1c(O)c(-c2cc(O)c(O)c(O)c2)oc2cc(O)cc(O)c12
REMARK SMILES IDX 5 1 3 2 2 3 1 4 23 5 21 6 20 7 18 8 17 9 16 10 15 11 6 12
REMARK SMILES IDX 7 13 8 14 14 15 10 16 12 17 9 18 11 20 13 22 4 24 22 26
REMARK SMILES IDX 19 28
REMARK H PARENT 9 19 11 21 13 23 4 25 22 27 19 29
REMARK Flexibility Score: inf
ROOT
ATOM      1  C   UNL     1      -0.773   5.021   5.220  1.00  0.00     0.180 A 
ATOM      2  C   UNL     1      -1.145   6.340   4.909  1.00  0.00     0.208 A 
ATOM      3  C   UNL     1      -0.428   7.403   5.479  1.00  0.00     0.238 A 
ATOM      4  O   UNL     1      -0.801   8.581   5.240  1.00  0.00    -0.285 OA
ATOM      5  C   UNL     1       0.663   7.135   6.341  1.00  0.00     0.111 A 
ATOM      6  C   UNL     1       1.485   8.135   6.943  1.00  0.00     0.134 A 
ATOM      7  C   UNL     1       2.454   7.758   7.881  1.00  0.00     0.093 A 
ATOM      8  C   UNL     1       2.674   6.413   8.189  1.00  0.00     0.123 A 
ATOM      9  C   UNL     1       1.918   5.427   7.562  1.00  0.00     0.094 A 
ATOM     10  C   UNL     1       0.919   5.773   6.649  1.00  0.00     0.146 A 
ATOM     11  O   UNL     1       0.212   4.802   6.082  1.00  0.00    -0.452 OA
ENDROOT
BRANCH   1  12
ATOM     12  C   UNL     1      -1.465   3.849   4.638  1.00  0.00     0.029 A 
ATOM     13  C   UNL     1      -0.908   3.126   3.569  1.00  0.00     0.062 A 
ATOM     14  C   UNL     1      -1.567   2.005   3.047  1.00  0.00     0.162 A 
ATOM     15  C   UNL     1      -2.674   3.411   5.200  1.00  0.00     0.062 A 
ATOM     16  C   UNL     1      -2.789   1.588   3.601  1.00  0.00     0.200 A 
ATOM     17  C   UNL     1      -3.339   2.294   4.684  1.00  0.00     0.162 A 
BRANCH  14  18
ATOM     18  O   UNL     1      -1.007   1.300   1.980  1.00  0.00    -0.504 OA
ATOM     19  H   UNL     1      -1.297   0.355   1.758  1.00  0.00     0.293 HD
ENDBRANCH  14  18
BRANCH  16  20
ATOM     20  O   UNL     1      -3.461   0.476   3.090  1.00  0.00    -0.502 OA
ATOM     21  H   UNL     1      -3.795  -0.273   3.684  1.00  0.00     0.293 HD
ENDBRANCH  16  20
BRANCH  17  22
ATOM     22  O   UNL     1      -4.546   1.900   5.261  1.00  0.00    -0.504 OA
ATOM     23  H   UNL     1      -4.589   1.453   6.169  1.00  0.00     0.293 HD
ENDBRANCH  17  22
ENDBRANCH   1  12
BRANCH   2  24
ATOM     24  O   UNL     1      -2.239   6.582   4.073  1.00  0.00    -0.502 OA
ATOM     25  H   UNL     1      -2.875   5.849   3.783  1.00  0.00     0.293 HD
ENDBRANCH   2  24
BRANCH   6  26
ATOM     26  O   UNL     1       1.409   9.496   6.636  1.00  0.00    -0.507 OA
ATOM     27  H   UNL     1       0.553   9.998   6.460  1.00  0.00     0.293 HD
ENDBRANCH   6  26
BRANCH   8  28
ATOM     28  O   UNL     1       3.652   6.046   9.113  1.00  0.00    -0.508 OA
ATOM     29  H   UNL     1       3.632   5.145   9.575  1.00  0.00     0.293 HD
ENDBRANCH   8  28
TORSDOF 7
ENDMDL
MODEL 6
REMARK VINA RESULT:    -7.502      2.300      3.430
REMARK INTER + INTRA:          -9.593
REMARK INTER:                  -9.606
REMARK INTRA:                   0.014
REMARK UNBOUND:                -0.337
REMARK SMILES O=c1c(O)c(-c2cc(O)c(O)c(O)c2)oc2cc(O)cc(O)c12
REMARK SMILES IDX 5 1 3 2 2 3 1 4 23 5 21 6 20 7 18 8 17 9 16 10 15 11 6 12
REMARK SMILES IDX 7 13 8 14 14 15 10 16 12 17 9 18 11 20 13 22 4 24 22 26
REMARK SMILES IDX 19 28
REMARK H PARENT 9 19 11 21 13 23 4 25 22 27 19 29
REMARK Flexibility Score: inf
ROOT
ATOM      1  C   UNL     1      -2.638  -0.611   5.069  1.00  0.00     0.180 A 
ATOM      2  C   UNL     1      -3.613  -0.697   6.078  1.00  0.00     0.208 A 
ATOM      3  C   UNL     1      -4.125  -1.957   6.424  1.00  0.00     0.238 A 
ATOM      4  O   UNL     1      -5.038  -2.023   7.288  1.00  0.00    -0.285 OA
ATOM      5  C   UNL     1      -3.644  -3.117   5.770  1.00  0.00     0.111 A 
ATOM      6  C   UNL     1      -4.062  -4.449   6.070  1.00  0.00     0.134 A 
ATOM      7  C   UNL     1      -3.616  -5.509   5.271  1.00  0.00     0.093 A 
ATOM      8  C   UNL     1      -2.715  -5.293   4.225  1.00  0.00     0.123 A 
ATOM      9  C   UNL     1      -2.255  -4.005   3.963  1.00  0.00     0.094 A 
ATOM     10  C   UNL     1      -2.709  -2.922   4.719  1.00  0.00     0.146 A 
ATOM     11  O   UNL     1      -2.254  -1.709   4.430  1.00  0.00    -0.452 OA
ENDROOT
BRANCH   1  12
ATOM     12  C   UNL     1      -2.033   0.679   4.666  1.00  0.00     0.029 A 
ATOM     13  C   UNL     1      -1.602   1.615   5.623  1.00  0.00     0.062 A 
ATOM     14  C   UNL     1      -1.010   2.821   5.223  1.00  0.00     0.162 A 
ATOM     15  C   UNL     1      -1.830   0.952   3.305  1.00  0.00     0.062 A 
ATOM     16  C   UNL     1      -0.833   3.096   3.856  1.00  0.00     0.200 A 
ATOM     17  C   UNL     1      -1.243   2.154   2.898  1.00  0.00     0.162 A 
BRANCH  14  18
ATOM     18  O   UNL     1      -0.593   3.746   6.181  1.00  0.00    -0.504 OA
ATOM     19  H   UNL     1      -0.115   3.456   7.025  1.00  0.00     0.293 HD
ENDBRANCH  14  18
BRANCH  16  20
ATOM     20  O   UNL     1      -0.250   4.294   3.440  1.00  0.00    -0.502 OA
ATOM     21  H   UNL     1      -0.699   4.911   2.774  1.00  0.00     0.293 HD
ENDBRANCH  16  20
BRANCH  17  22
ATOM     22  O   UNL     1      -1.072   2.394   1.534  1.00  0.00    -0.504 OA
ATOM     23  H   UNL     1      -1.338   3.271   1.103  1.00  0.00     0.293 HD
ENDBRANCH  17  22
ENDBRANCH   1  12
BRANCH   2  24
ATOM     24  O   UNL     1      -4.090   0.462   6.695  1.00  0.00    -0.502 OA
ATOM     25  H   UNL     1      -3.478   1.217   6.980  1.00  0.00     0.293 HD
ENDBRANCH   2  24
BRANCH   6  26
ATOM     26  O   UNL     1      -4.886  -4.784   7.148  1.00  0.00    -0.507 OA
ATOM     27  H   UNL     1      -5.442  -4.126   7.672  1.00  0.00     0.293 HD
ENDBRANCH   6  26
BRANCH   8  28
ATOM     28  O   UNL     1      -2.264  -6.356   3.444  1.00  0.00    -0.508 OA
ATOM     29  H   UNL     1      -2.154  -6.266   2.441  1.00  0.00     0.293 HD
ENDBRANCH   8  28
TORSDOF 7
ENDMDL
MODEL 7
REMARK VINA RESULT:    -7.482     10.789     12.212
REMARK INTER + INTRA:          -9.568
REMARK INTER:                  -9.226
REMARK INTRA:                  -0.342
REMARK UNBOUND:                -0.337
REMARK SMILES O=c1c(O)c(-c2cc(O)c(O)c(O)c2)oc2cc(O)cc(O)c12
REMARK SMILES IDX 5 1 3 2 2 3 1 4 23 5 21 6 20 7 18 8 17 9 16 10 15 11 6 12
REMARK SMILES IDX 7 13 8 14 14 15 10 16 12 17 9 18 11 20 13 22 4 24 22 26
REMARK SMILES IDX 19 28
REMARK H PARENT 9 19 11 21 13 23 4 25 22 27 19 29
REMARK Flexibility Score: inf
ROOT
ATOM      1  C   UNL     1      -7.396  -3.455  -5.558  1.00  0.00     0.180 A 
ATOM      2  C   UNL     1      -7.250  -4.738  -6.111  1.00  0.00     0.208 A 
ATOM      3  C   UNL     1      -7.689  -5.851  -5.377  1.00  0.00     0.238 A 
ATOM      4  O   UNL     1      -7.505  -7.001  -5.854  1.00  0.00    -0.285 OA
ATOM      5  C   UNL     1      -8.283  -5.666  -4.105  1.00  0.00     0.111 A 
ATOM      6  C   UNL     1      -8.800  -6.719  -3.291  1.00  0.00     0.134 A 
ATOM      7  C   UNL     1      -9.247  -6.433  -1.995  1.00  0.00     0.093 A 
ATOM      8  C   UNL     1      -9.256  -5.123  -1.509  1.00  0.00     0.123 A 
ATOM      9  C   UNL     1      -8.810  -4.081  -2.317  1.00  0.00     0.094 A 
ATOM     10  C   UNL     1      -8.324  -4.339  -3.601  1.00  0.00     0.146 A 
ATOM     11  O   UNL     1      -7.897  -3.319  -4.336  1.00  0.00    -0.452 OA
ENDROOT
BRANCH   1  12
ATOM     12  C   UNL     1      -6.981  -2.232  -6.282  1.00  0.00     0.029 A 
ATOM     13  C   UNL     1      -5.721  -1.646  -6.066  1.00  0.00     0.062 A 
ATOM     14  C   UNL     1      -5.336  -0.502  -6.779  1.00  0.00     0.162 A 
ATOM     15  C   UNL     1      -7.834  -1.677  -7.247  1.00  0.00     0.062 A 
ATOM     16  C   UNL     1      -6.208   0.060  -7.726  1.00  0.00     0.200 A 
ATOM     17  C   UNL     1      -7.459  -0.534  -7.961  1.00  0.00     0.162 A 
BRANCH  14  18
ATOM     18  O   UNL     1      -4.086   0.074  -6.550  1.00  0.00    -0.504 OA
ATOM     19  H   UNL     1      -3.230  -0.455  -6.658  1.00  0.00     0.293 HD
ENDBRANCH  14  18
BRANCH  16  20
ATOM     20  O   UNL     1      -5.842   1.202  -8.441  1.00  0.00    -0.502 OA
ATOM     21  H   UNL     1      -5.516   2.044  -7.983  1.00  0.00     0.293 HD
ENDBRANCH  16  20
BRANCH  17  22
ATOM     22  O   UNL     1      -8.343  -0.005  -8.902  1.00  0.00    -0.504 OA
ATOM     23  H   UNL     1      -9.109   0.603  -8.639  1.00  0.00     0.293 HD
ENDBRANCH  17  22
ENDBRANCH   1  12
BRANCH   2  24
ATOM     24  O   UNL     1      -6.642  -4.900  -7.359  1.00  0.00    -0.502 OA
ATOM     25  H   UNL     1      -7.134  -4.738  -8.230  1.00  0.00     0.293 HD
ENDBRANCH   2  24
BRANCH   6  26
ATOM     26  O   UNL     1      -8.920  -8.045  -3.714  1.00  0.00    -0.507 OA
ATOM     27  H   UNL     1      -8.157  -8.612  -4.050  1.00  0.00     0.293 HD
ENDBRANCH   6  26
BRANCH   8  28
ATOM     28  O   UNL     1      -9.717  -4.845  -0.223  1.00  0.00    -0.508 OA
ATOM     29  H   UNL     1      -9.681  -3.909   0.162  1.00  0.00     0.293 HD
ENDBRANCH   8  28
TORSDOF 7
ENDMDL
