MODEL 1
REMARK VINA RESULT:    -5.548      0.000      0.000
REMARK INTER + INTRA:          -6.479
REMARK INTER:                  -6.035
REMARK INTRA:                  -0.445
REMARK UNBOUND:                -0.445
REMARK SMILES C=C(C)[C@@H]1CC[C@]2(C)CC[C@@]3(C)[C@H](CC[C@@H]4[C@@]5(C)CC[C@H](O)C(C)(C)[C@H]5CC[C@]43C)[C@H]12
REMARK SMILES IDX 4 1 5 2 6 3 7 4 31 5 13 6 14 7 15 8 16 9 17 10 19 11 20 12
REMARK SMILES IDX 21 13 23 14 26 15 27 16 28 17 29 18 11 19 10 20 9 21 12 22
REMARK SMILES IDX 30 23 24 24 25 25 18 26 8 27 2 28 3 29 1 30 22 31
REMARK H PARENT 22 32
REMARK Flexibility Score: inf
ROOT
ATOM      1  C   UNL     1      68.828 -57.133 196.271  1.00  0.00     0.018 C 
ATOM      2  C   UNL     1      69.581 -58.384 195.790  1.00  0.00     0.009 C 
ATOM      3  C   UNL     1      70.170 -58.042 194.407  1.00  0.00     0.008 C 
ATOM      4  C   UNL     1      69.706 -56.611 194.061  1.00  0.00    -0.029 C 
ATOM      5  C   UNL     1      69.440 -55.970 195.450  1.00  0.00     0.006 C 
ATOM      6  C   UNL     1      70.681 -55.244 196.103  1.00  0.00    -0.000 C 
ATOM      7  C   UNL     1      71.736 -56.186 196.766  1.00  0.00     0.005 C 
ATOM      8  C   UNL     1      72.884 -55.433 197.449  1.00  0.00     0.005 C 
ATOM      9  C   UNL     1      73.612 -54.516 196.441  1.00  0.00     0.002 C 
ATOM     10  C   UNL     1      75.083 -54.036 196.878  1.00  0.00    -0.026 C 
ATOM     11  C   UNL     1      76.051 -55.267 196.851  1.00  0.00     0.010 C 
ATOM     12  C   UNL     1      76.373 -55.836 195.454  1.00  0.00     0.033 C 
ATOM     13  C   UNL     1      76.283 -54.812 194.310  1.00  0.00     0.120 C 
ATOM     14  C   UNL     1      76.650 -53.366 194.756  1.00  0.00    -0.006 C 
ATOM     15  C   UNL     1      75.684 -52.888 195.941  1.00  0.00     0.003 C 
ATOM     16  C   UNL     1      74.586 -51.875 195.549  1.00  0.00     0.005 C 
ATOM     17  C   UNL     1      73.369 -52.526 194.890  1.00  0.00     0.008 C 
ATOM     18  C   UNL     1      72.588 -53.455 195.861  1.00  0.00    -0.024 C 
ATOM     19  C   UNL     1      71.368 -54.227 195.112  1.00  0.00    -0.024 C 
ATOM     20  C   UNL     1      71.828 -55.056 193.858  1.00  0.00     0.008 C 
ATOM     21  C   UNL     1      70.705 -55.829 193.153  1.00  0.00     0.007 C 
ATOM     22  C   UNL     1      70.308 -53.181 194.626  1.00  0.00     0.012 C 
ATOM     23  C   UNL     1      71.987 -52.539 196.991  1.00  0.00     0.012 C 
ATOM     24  C   UNL     1      78.143 -53.321 195.227  1.00  0.00     0.014 C 
ATOM     25  C   UNL     1      76.596 -52.450 193.503  1.00  0.00     0.014 C 
ATOM     26  C   UNL     1      75.105 -53.545 198.353  1.00  0.00     0.012 C 
ATOM     27  C   UNL     1      68.380 -56.717 193.254  1.00  0.00     0.011 C 
ENDROOT
BRANCH   1  28
ATOM     28  C   UNL     1      68.693 -56.925 197.780  1.00  0.00    -0.077 C 
ATOM     29  C   UNL     1      69.303 -57.900 198.763  1.00  0.00     0.039 C 
ATOM     30  C   UNL     1      67.866 -55.971 198.245  1.00  0.00     0.008 C 
ENDBRANCH   1  28
BRANCH  13  31
ATOM     31  O   UNL     1      77.108 -55.249 193.250  1.00  0.00    -0.393 OA
ATOM     32  H   UNL     1      77.912 -55.685 193.650  1.00  0.00     0.210 HD
ENDBRANCH  13  31
TORSDOF 2
ENDMDL
MODEL 2
REMARK VINA RESULT:    -5.346      3.419      8.203
REMARK INTER + INTRA:          -6.259
REMARK INTER:                  -5.815
REMARK INTRA:                  -0.444
REMARK UNBOUND:                -0.445
REMARK SMILES C=C(C)[C@@H]1CC[C@]2(C)CC[C@@]3(C)[C@H](CC[C@@H]4[C@@]5(C)CC[C@H](O)C(C)(C)[C@H]5CC[C@]43C)[C@H]12
REMARK SMILES IDX 4 1 5 2 6 3 7 4 31 5 13 6 14 7 15 8 16 9 17 10 19 11 20 12
REMARK SMILES IDX 21 13 23 14 26 15 27 16 28 17 29 18 11 19 10 20 9 21 12 22
REMARK SMILES IDX 30 23 24 24 25 25 18 26 8 27 2 28 3 29 1 30 22 31
REMARK H PARENT 22 32
REMARK Flexibility Score: inf
ROOT
ATOM      1  C   UNL     1      74.444 -55.341 200.090  1.00  0.00     0.018 C 
ATOM      2  C   UNL     1      75.084 -56.476 199.275  1.00  0.00     0.009 C 
ATOM      3  C   UNL     1      74.520 -57.797 199.834  1.00  0.00     0.008 C 
ATOM      4  C   UNL     1      73.597 -57.428 201.015  1.00  0.00    -0.029 C 
ATOM      5  C   UNL     1      73.164 -55.971 200.697  1.00  0.00     0.006 C 
ATOM      6  C   UNL     1      71.852 -55.835 199.829  1.00  0.00    -0.000 C 
ATOM      7  C   UNL     1      72.030 -56.092 198.299  1.00  0.00     0.005 C 
ATOM      8  C   UNL     1      70.746 -55.878 197.490  1.00  0.00     0.005 C 
ATOM      9  C   UNL     1      69.612 -56.790 198.010  1.00  0.00     0.002 C 
ATOM     10  C   UNL     1      68.386 -57.018 196.998  1.00  0.00    -0.026 C 
ATOM     11  C   UNL     1      68.874 -57.882 195.786  1.00  0.00     0.010 C 
ATOM     12  C   UNL     1      69.216 -59.351 196.106  1.00  0.00     0.033 C 
ATOM     13  C   UNL     1      68.452 -59.939 197.304  1.00  0.00     0.120 C 
ATOM     14  C   UNL     1      67.030 -59.328 197.479  1.00  0.00    -0.006 C 
ATOM     15  C   UNL     1      67.128 -57.741 197.671  1.00  0.00     0.003 C 
ATOM     16  C   UNL     1      66.905 -57.220 199.108  1.00  0.00     0.005 C 
ATOM     17  C   UNL     1      68.143 -57.350 199.998  1.00  0.00     0.008 C 
ATOM     18  C   UNL     1      69.316 -56.445 199.528  1.00  0.00    -0.024 C 
ATOM     19  C   UNL     1      70.659 -56.684 200.415  1.00  0.00    -0.024 C 
ATOM     20  C   UNL     1      71.135 -58.181 200.438  1.00  0.00     0.008 C 
ATOM     21  C   UNL     1      72.424 -58.432 201.234  1.00  0.00     0.007 C 
ATOM     22  C   UNL     1      70.390 -56.248 201.896  1.00  0.00     0.012 C 
ATOM     23  C   UNL     1      68.849 -54.953 199.711  1.00  0.00     0.012 C 
ATOM     24  C   UNL     1      66.152 -59.667 196.229  1.00  0.00     0.014 C 
ATOM     25  C   UNL     1      66.339 -60.055 198.666  1.00  0.00     0.014 C 
ATOM     26  C   UNL     1      67.915 -55.677 196.366  1.00  0.00     0.012 C 
ATOM     27  C   UNL     1      74.446 -57.464 202.319  1.00  0.00     0.011 C 
ENDROOT
BRANCH   1  28
ATOM     28  C   UNL     1      74.295 -53.979 199.411  1.00  0.00    -0.077 C 
ATOM     29  C   UNL     1      74.743 -53.763 197.982  1.00  0.00     0.039 C 
ATOM     30  C   UNL     1      73.938 -52.909 200.145  1.00  0.00     0.008 C 
ENDBRANCH   1  28
BRANCH  13  31
ATOM     31  O   UNL     1      68.394 -61.343 197.155  1.00  0.00    -0.393 OA
ATOM     32  H   UNL     1      68.278 -61.541 196.184  1.00  0.00     0.210 HD
ENDBRANCH  13  31
TORSDOF 2
ENDMDL
MODEL 3
REMARK VINA RESULT:    -5.252      3.312      5.675
REMARK INTER + INTRA:          -6.157
REMARK INTER:                  -5.913
REMARK INTRA:                  -0.245
REMARK UNBOUND:                -0.445
REMARK SMILES C=C(C)[C@@H]1CC[C@]2(C)CC[C@@]3(C)[C@H](CC[C@@H]4[C@@]5(C)CC[C@H](O)C(C)(C)[C@H]5CC[C@]43C)[C@H]12
REMARK SMILES IDX 4 1 5 2 6 3 7 4 31 5 13 6 14 7 15 8 16 9 17 10 19 11 20 12
REMARK SMILES IDX 21 13 23 14 26 15 27 16 28 17 29 18 11 19 10 20 9 21 12 22
REMARK SMILES IDX 30 23 24 24 25 25 18 26 8 27 2 28 3 29 1 30 22 31
REMARK H PARENT 22 32
REMARK Flexibility Score: inf
ROOT
ATOM      1  C   UNL     1      68.803 -60.031 200.965  1.00  0.00     0.018 C 
ATOM      2  C   UNL     1      68.357 -59.975 199.495  1.00  0.00     0.009 C 
ATOM      3  C   UNL     1      67.861 -58.539 199.236  1.00  0.00     0.008 C 
ATOM      4  C   UNL     1      67.963 -57.778 200.575  1.00  0.00    -0.029 C 
ATOM      5  C   UNL     1      69.065 -58.552 201.349  1.00  0.00     0.006 C 
ATOM      6  C   UNL     1      70.538 -58.032 201.117  1.00  0.00    -0.000 C 
ATOM      7  C   UNL     1      71.202 -58.474 199.775  1.00  0.00     0.005 C 
ATOM      8  C   UNL     1      72.654 -58.005 199.628  1.00  0.00     0.005 C 
ATOM      9  C   UNL     1      72.747 -56.467 199.736  1.00  0.00     0.002 C 
ATOM     10  C   UNL     1      74.092 -55.810 199.150  1.00  0.00    -0.026 C 
ATOM     11  C   UNL     1      74.097 -55.959 197.591  1.00  0.00     0.010 C 
ATOM     12  C   UNL     1      73.052 -55.116 196.833  1.00  0.00     0.033 C 
ATOM     13  C   UNL     1      72.629 -53.824 197.553  1.00  0.00     0.120 C 
ATOM     14  C   UNL     1      73.768 -53.209 198.419  1.00  0.00    -0.006 C 
ATOM     15  C   UNL     1      74.261 -54.263 199.519  1.00  0.00     0.003 C 
ATOM     16  C   UNL     1      73.793 -53.995 200.967  1.00  0.00     0.005 C 
ATOM     17  C   UNL     1      72.362 -54.462 201.238  1.00  0.00     0.008 C 
ATOM     18  C   UNL     1      72.209 -56.006 201.153  1.00  0.00    -0.024 C 
ATOM     19  C   UNL     1      70.660 -56.473 201.328  1.00  0.00    -0.024 C 
ATOM     20  C   UNL     1      69.683 -55.798 200.298  1.00  0.00     0.008 C 
ATOM     21  C   UNL     1      68.220 -56.249 200.411  1.00  0.00     0.007 C 
ATOM     22  C   UNL     1      70.163 -56.104 202.767  1.00  0.00     0.012 C 
ATOM     23  C   UNL     1      73.056 -56.618 202.330  1.00  0.00     0.012 C 
ATOM     24  C   UNL     1      74.965 -52.791 197.500  1.00  0.00     0.014 C 
ATOM     25  C   UNL     1      73.243 -51.878 199.026  1.00  0.00     0.014 C 
ATOM     26  C   UNL     1      75.354 -56.582 199.628  1.00  0.00     0.012 C 
ATOM     27  C   UNL     1      66.597 -57.911 201.309  1.00  0.00     0.011 C 
ENDROOT
BRANCH   1  28
ATOM     28  C   UNL     1      69.879 -61.049 201.340  1.00  0.00    -0.077 C 
ATOM     29  C   UNL     1      70.745 -60.858 202.567  1.00  0.00     0.039 C 
ATOM     30  C   UNL     1      70.194 -62.029 200.474  1.00  0.00     0.008 C 
ENDBRANCH   1  28
BRANCH  13  31
ATOM     31  O   UNL     1      72.163 -52.904 196.587  1.00  0.00    -0.393 OA
ATOM     32  H   UNL     1      71.178 -53.032 196.496  1.00  0.00     0.210 HD
ENDBRANCH  13  31
TORSDOF 2
ENDMDL
MODEL 4
REMARK VINA RESULT:    -5.217      4.438      8.614
REMARK INTER + INTRA:          -6.119
REMARK INTER:                  -5.790
REMARK INTRA:                  -0.328
REMARK UNBOUND:                -0.445
REMARK SMILES C=C(C)[C@@H]1CC[C@]2(C)CC[C@@]3(C)[C@H](CC[C@@H]4[C@@]5(C)CC[C@H](O)C(C)(C)[C@H]5CC[C@]43C)[C@H]12
REMARK SMILES IDX 4 1 5 2 6 3 7 4 31 5 13 6 14 7 15 8 16 9 17 10 19 11 20 12
REMARK SMILES IDX 21 13 23 14 26 15 27 16 28 17 29 18 11 19 10 20 9 21 12 22
REMARK SMILES IDX 30 23 24 24 25 25 18 26 8 27 2 28 3 29 1 30 22 31
REMARK H PARENT 22 32
REMARK Flexibility Score: inf
ROOT
ATOM      1  C   UNL     1      73.396 -55.256 202.040  1.00  0.00     0.018 C 
ATOM      2  C   UNL     1      73.740 -54.597 200.696  1.00  0.00     0.009 C 
ATOM      3  C   UNL     1      73.987 -55.740 199.692  1.00  0.00     0.008 C 
ATOM      4  C   UNL     1      73.844 -57.064 200.472  1.00  0.00    -0.029 C 
ATOM      5  C   UNL     1      72.925 -56.685 201.665  1.00  0.00     0.006 C 
ATOM      6  C   UNL     1      71.377 -56.852 201.401  1.00  0.00    -0.000 C 
ATOM      7  C   UNL     1      70.714 -55.716 200.559  1.00  0.00     0.005 C 
ATOM      8  C   UNL     1      69.200 -55.885 200.390  1.00  0.00     0.005 C 
ATOM      9  C   UNL     1      68.871 -57.241 199.726  1.00  0.00     0.002 C 
ATOM     10  C   UNL     1      67.408 -57.356 199.073  1.00  0.00    -0.026 C 
ATOM     11  C   UNL     1      67.334 -56.429 197.813  1.00  0.00     0.010 C 
ATOM     12  C   UNL     1      68.187 -56.870 196.605  1.00  0.00     0.033 C 
ATOM     13  C   UNL     1      68.440 -58.385 196.521  1.00  0.00     0.120 C 
ATOM     14  C   UNL     1      67.271 -59.232 197.106  1.00  0.00    -0.006 C 
ATOM     15  C   UNL     1      67.017 -58.845 198.639  1.00  0.00     0.003 C 
ATOM     16  C   UNL     1      67.520 -59.866 199.684  1.00  0.00     0.005 C 
ATOM     17  C   UNL     1      69.021 -59.760 199.961  1.00  0.00     0.008 C 
ATOM     18  C   UNL     1      69.411 -58.418 200.639  1.00  0.00    -0.024 C 
ATOM     19  C   UNL     1      71.022 -58.275 200.818  1.00  0.00    -0.024 C 
ATOM     20  C   UNL     1      71.818 -58.426 199.472  1.00  0.00     0.008 C 
ATOM     21  C   UNL     1      73.338 -58.255 199.601  1.00  0.00     0.007 C 
ATOM     22  C   UNL     1      71.538 -59.380 201.801  1.00  0.00     0.012 C 
ATOM     23  C   UNL     1      68.743 -58.410 202.064  1.00  0.00     0.012 C 
ATOM     24  C   UNL     1      65.972 -58.988 196.267  1.00  0.00     0.014 C 
ATOM     25  C   UNL     1      67.613 -60.732 196.892  1.00  0.00     0.014 C 
ATOM     26  C   UNL     1      66.313 -56.809 200.033  1.00  0.00     0.012 C 
ATOM     27  C   UNL     1      75.254 -57.474 200.988  1.00  0.00     0.011 C 
ENDROOT
BRANCH   1  28
ATOM     28  C   UNL     1      72.518 -54.467 203.012  1.00  0.00    -0.077 C 
ATOM     29  C   UNL     1      72.329 -52.973 202.860  1.00  0.00     0.039 C 
ATOM     30  C   UNL     1      72.057 -55.066 204.125  1.00  0.00     0.008 C 
ENDBRANCH   1  28
BRANCH  13  31
ATOM     31  O   UNL     1      68.698 -58.723 195.174  1.00  0.00    -0.393 OA
ATOM     32  H   UNL     1      68.106 -59.489 194.934  1.00  0.00     0.210 HD
ENDBRANCH  13  31
TORSDOF 2
ENDMDL
MODEL 5
REMARK VINA RESULT:    -5.147      3.059      5.531
REMARK INTER + INTRA:          -6.043
REMARK INTER:                  -5.698
REMARK INTRA:                  -0.345
REMARK UNBOUND:                -0.445
REMARK SMILES C=C(C)[C@@H]1CC[C@]2(C)CC[C@@]3(C)[C@H](CC[C@@H]4[C@@]5(C)CC[C@H](O)C(C)(C)[C@H]5CC[C@]43C)[C@H]12
REMARK SMILES IDX 4 1 5 2 6 3 7 4 31 5 13 6 14 7 15 8 16 9 17 10 19 11 20 12
REMARK SMILES IDX 21 13 23 14 26 15 27 16 28 17 29 18 11 19 10 20 9 21 12 22
REMARK SMILES IDX 30 23 24 24 25 25 18 26 8 27 2 28 3 29 1 30 22 31
REMARK H PARENT 22 32
REMARK Flexibility Score: inf
ROOT
ATOM      1  C   UNL     1      72.070 -57.862 202.206  1.00  0.00     0.018 C 
ATOM      2  C   UNL     1      72.171 -59.172 201.409  1.00  0.00     0.009 C 
ATOM      3  C   UNL     1      70.879 -59.286 200.576  1.00  0.00     0.008 C 
ATOM      4  C   UNL     1      70.000 -58.070 200.939  1.00  0.00    -0.029 C 
ATOM      5  C   UNL     1      71.027 -57.015 201.433  1.00  0.00     0.006 C 
ATOM      6  C   UNL     1      71.607 -56.067 200.311  1.00  0.00    -0.000 C 
ATOM      7  C   UNL     1      72.719 -56.695 199.411  1.00  0.00     0.005 C 
ATOM      8  C   UNL     1      73.300 -55.715 198.385  1.00  0.00     0.005 C 
ATOM      9  C   UNL     1      72.188 -55.156 197.470  1.00  0.00     0.002 C 
ATOM     10  C   UNL     1      72.689 -54.504 196.090  1.00  0.00    -0.026 C 
ATOM     11  C   UNL     1      73.243 -55.636 195.159  1.00  0.00     0.010 C 
ATOM     12  C   UNL     1      72.194 -56.623 194.608  1.00  0.00     0.033 C 
ATOM     13  C   UNL     1      70.777 -56.041 194.472  1.00  0.00     0.120 C 
ATOM     14  C   UNL     1      70.773 -54.516 194.157  1.00  0.00    -0.006 C 
ATOM     15  C   UNL     1      71.543 -53.709 195.306  1.00  0.00     0.003 C 
ATOM     16  C   UNL     1      70.651 -52.926 196.295  1.00  0.00     0.005 C 
ATOM     17  C   UNL     1      70.045 -53.805 197.391  1.00  0.00     0.008 C 
ATOM     18  C   UNL     1      71.119 -54.388 198.352  1.00  0.00    -0.024 C 
ATOM     19  C   UNL     1      70.469 -55.411 199.437  1.00  0.00    -0.024 C 
ATOM     20  C   UNL     1      69.663 -56.590 198.781  1.00  0.00     0.008 C 
ATOM     21  C   UNL     1      69.072 -57.596 199.779  1.00  0.00     0.007 C 
ATOM     22  C   UNL     1      69.486 -54.626 200.371  1.00  0.00     0.012 C 
ATOM     23  C   UNL     1      71.756 -53.173 199.123  1.00  0.00     0.012 C 
ATOM     24  C   UNL     1      71.454 -54.260 192.771  1.00  0.00     0.014 C 
ATOM     25  C   UNL     1      69.297 -54.069 193.968  1.00  0.00     0.014 C 
ATOM     26  C   UNL     1      73.896 -53.550 196.318  1.00  0.00     0.012 C 
ATOM     27  C   UNL     1      69.057 -58.488 202.104  1.00  0.00     0.011 C 
ENDROOT
BRANCH   1  28
ATOM     28  C   UNL     1      73.374 -57.171 202.601  1.00  0.00    -0.077 C 
ATOM     29  C   UNL     1      74.695 -57.579 201.985  1.00  0.00     0.039 C 
ATOM     30  C   UNL     1      73.383 -56.320 203.643  1.00  0.00     0.008 C 
ENDBRANCH   1  28
BRANCH  13  31
ATOM     31  O   UNL     1      70.084 -56.773 193.482  1.00  0.00    -0.393 OA
ATOM     32  H   UNL     1      69.753 -57.615 193.902  1.00  0.00     0.210 HD
ENDBRANCH  13  31
TORSDOF 2
ENDMDL
MODEL 6
REMARK VINA RESULT:    -5.124      3.616      6.049
REMARK INTER + INTRA:          -6.018
REMARK INTER:                  -5.572
REMARK INTRA:                  -0.445
REMARK UNBOUND:                -0.445
REMARK SMILES C=C(C)[C@@H]1CC[C@]2(C)CC[C@@]3(C)[C@H](CC[C@@H]4[C@@]5(C)CC[C@H](O)C(C)(C)[C@H]5CC[C@]43C)[C@H]12
REMARK SMILES IDX 4 1 5 2 6 3 7 4 31 5 13 6 14 7 15 8 16 9 17 10 19 11 20 12
REMARK SMILES IDX 21 13 23 14 26 15 27 16 28 17 29 18 11 19 10 20 9 21 12 22
REMARK SMILES IDX 30 23 24 24 25 25 18 26 8 27 2 28 3 29 1 30 22 31
REMARK H PARENT 22 32
REMARK Flexibility Score: inf
ROOT
ATOM      1  C   UNL     1      69.257 -55.340 193.917  1.00  0.00     0.018 C 
ATOM      2  C   UNL     1      70.683 -54.818 193.681  1.00  0.00     0.009 C 
ATOM      3  C   UNL     1      70.912 -53.679 194.694  1.00  0.00     0.008 C 
ATOM      4  C   UNL     1      69.594 -53.502 195.478  1.00  0.00    -0.029 C 
ATOM      5  C   UNL     1      68.911 -54.891 195.360  1.00  0.00     0.006 C 
ATOM      6  C   UNL     1      69.275 -55.917 196.505  1.00  0.00    -0.000 C 
ATOM      7  C   UNL     1      70.666 -56.613 196.365  1.00  0.00     0.005 C 
ATOM      8  C   UNL     1      70.943 -57.650 197.459  1.00  0.00     0.005 C 
ATOM      9  C   UNL     1      70.858 -57.005 198.861  1.00  0.00     0.002 C 
ATOM     10  C   UNL     1      71.564 -57.827 200.047  1.00  0.00    -0.026 C 
ATOM     11  C   UNL     1      73.117 -57.791 199.841  1.00  0.00     0.010 C 
ATOM     12  C   UNL     1      73.789 -56.418 200.048  1.00  0.00     0.033 C 
ATOM     13  C   UNL     1      73.047 -55.483 201.018  1.00  0.00     0.120 C 
ATOM     14  C   UNL     1      72.289 -56.249 202.142  1.00  0.00    -0.006 C 
ATOM     15  C   UNL     1      71.226 -57.263 201.504  1.00  0.00     0.003 C 
ATOM     16  C   UNL     1      69.746 -56.829 201.590  1.00  0.00     0.005 C 
ATOM     17  C   UNL     1      69.347 -55.818 200.514  1.00  0.00     0.008 C 
ATOM     18  C   UNL     1      69.403 -56.416 199.080  1.00  0.00    -0.024 C 
ATOM     19  C   UNL     1      69.091 -55.294 197.943  1.00  0.00    -0.024 C 
ATOM     20  C   UNL     1      70.038 -54.043 198.021  1.00  0.00     0.008 C 
ATOM     21  C   UNL     1      69.794 -52.985 196.936  1.00  0.00     0.007 C 
ATOM     22  C   UNL     1      67.617 -54.786 198.103  1.00  0.00     0.012 C 
ATOM     23  C   UNL     1      68.299 -57.533 199.003  1.00  0.00     0.012 C 
ATOM     24  C   UNL     1      73.313 -57.031 203.032  1.00  0.00     0.014 C 
ATOM     25  C   UNL     1      71.652 -55.197 203.092  1.00  0.00     0.014 C 
ATOM     26  C   UNL     1      71.191 -59.335 199.992  1.00  0.00     0.012 C 
ATOM     27  C   UNL     1      68.742 -52.421 194.749  1.00  0.00     0.011 C 
ENDROOT
BRANCH   1  28
ATOM     28  C   UNL     1      68.967 -56.796 193.552  1.00  0.00    -0.077 C 
ATOM     29  C   UNL     1      70.046 -57.691 192.982  1.00  0.00     0.039 C 
ATOM     30  C   UNL     1      67.697 -57.240 193.560  1.00  0.00     0.008 C 
ENDBRANCH   1  28
BRANCH  13  31
ATOM     31  O   UNL     1      73.977 -54.566 201.556  1.00  0.00    -0.393 OA
ATOM     32  H   UNL     1      73.513 -53.690 201.667  1.00  0.00     0.210 HD
ENDBRANCH  13  31
TORSDOF 2
ENDMDL
MODEL 7
REMARK VINA RESULT:    -5.015      3.281      6.510
REMARK INTER + INTRA:          -5.899
REMARK INTER:                  -5.457
REMARK INTRA:                  -0.443
REMARK UNBOUND:                -0.445
REMARK SMILES C=C(C)[C@@H]1CC[C@]2(C)CC[C@@]3(C)[C@H](CC[C@@H]4[C@@]5(C)CC[C@H](O)C(C)(C)[C@H]5CC[C@]43C)[C@H]12
REMARK SMILES IDX 4 1 5 2 6 3 7 4 31 5 13 6 14 7 15 8 16 9 17 10 19 11 20 12
REMARK SMILES IDX 21 13 23 14 26 15 27 16 28 17 29 18 11 19 10 20 9 21 12 22
REMARK SMILES IDX 30 23 24 24 25 25 18 26 8 27 2 28 3 29 1 30 22 31
REMARK H PARENT 22 32
REMARK Flexibility Score: inf
ROOT
ATOM      1  C   UNL     1      72.622 -56.667 202.834  1.00  0.00     0.018 C 
ATOM      2  C   UNL     1      73.923 -57.092 202.136  1.00  0.00     0.009 C 
ATOM      3  C   UNL     1      73.558 -58.245 201.181  1.00  0.00     0.008 C 
ATOM      4  C   UNL     1      72.052 -58.530 201.372  1.00  0.00    -0.029 C 
ATOM      5  C   UNL     1      71.493 -57.182 201.904  1.00  0.00     0.006 C 
ATOM      6  C   UNL     1      71.004 -56.173 200.792  1.00  0.00    -0.000 C 
ATOM      7  C   UNL     1      72.136 -55.387 200.056  1.00  0.00     0.005 C 
ATOM      8  C   UNL     1      71.609 -54.369 199.038  1.00  0.00     0.005 C 
ATOM      9  C   UNL     1      70.725 -55.062 197.977  1.00  0.00     0.002 C 
ATOM     10  C   UNL     1      70.494 -54.235 196.619  1.00  0.00    -0.026 C 
ATOM     11  C   UNL     1      71.842 -54.167 195.825  1.00  0.00     0.010 C 
ATOM     12  C   UNL     1      72.337 -55.501 195.229  1.00  0.00     0.033 C 
ATOM     13  C   UNL     1      71.222 -56.511 194.908  1.00  0.00     0.120 C 
ATOM     14  C   UNL     1      69.883 -55.830 194.500  1.00  0.00    -0.006 C 
ATOM     15  C   UNL     1      69.370 -54.865 195.671  1.00  0.00     0.003 C 
ATOM     16  C   UNL     1      68.185 -55.393 196.509  1.00  0.00     0.005 C 
ATOM     17  C   UNL     1      68.603 -56.393 197.588  1.00  0.00     0.008 C 
ATOM     18  C   UNL     1      69.488 -55.748 198.691  1.00  0.00    -0.024 C 
ATOM     19  C   UNL     1      70.018 -56.850 199.764  1.00  0.00    -0.024 C 
ATOM     20  C   UNL     1      70.800 -58.042 199.102  1.00  0.00     0.008 C 
ATOM     21  C   UNL     1      71.349 -59.078 200.093  1.00  0.00     0.007 C 
ATOM     22  C   UNL     1      68.798 -57.454 200.538  1.00  0.00     0.012 C 
ATOM     23  C   UNL     1      68.590 -54.699 199.447  1.00  0.00     0.012 C 
ATOM     24  C   UNL     1      70.086 -55.013 193.180  1.00  0.00     0.014 C 
ATOM     25  C   UNL     1      68.870 -56.948 194.129  1.00  0.00     0.014 C 
ATOM     26  C   UNL     1      70.131 -52.752 196.913  1.00  0.00     0.012 C 
ATOM     27  C   UNL     1      71.906 -59.638 202.455  1.00  0.00     0.011 C 
ENDROOT
BRANCH   1  28
ATOM     28  C   UNL     1      72.518 -55.222 203.321  1.00  0.00    -0.077 C 
ATOM     29  C   UNL     1      73.643 -54.236 203.092  1.00  0.00     0.039 C 
ATOM     30  C   UNL     1      71.500 -54.865 204.125  1.00  0.00     0.008 C 
ENDBRANCH   1  28
BRANCH  13  31
ATOM     31  O   UNL     1      71.685 -57.384 193.899  1.00  0.00    -0.393 OA
ATOM     32  H   UNL     1      71.873 -58.268 194.323  1.00  0.00     0.210 HD
ENDBRANCH  13  31
TORSDOF 2
ENDMDL
MODEL 8
REMARK VINA RESULT:    -4.989      2.494      6.892
REMARK INTER + INTRA:          -5.871
REMARK INTER:                  -5.429
REMARK INTRA:                  -0.442
REMARK UNBOUND:                -0.445
REMARK SMILES C=C(C)[C@@H]1CC[C@]2(C)CC[C@@]3(C)[C@H](CC[C@@H]4[C@@]5(C)CC[C@H](O)C(C)(C)[C@H]5CC[C@]43C)[C@H]12
REMARK SMILES IDX 4 1 5 2 6 3 7 4 31 5 13 6 14 7 15 8 16 9 17 10 19 11 20 12
REMARK SMILES IDX 21 13 23 14 26 15 27 16 28 17 29 18 11 19 10 20 9 21 12 22
REMARK SMILES IDX 30 23 24 24 25 25 18 26 8 27 2 28 3 29 1 30 22 31
REMARK H PARENT 22 32
REMARK Flexibility Score: inf
ROOT
ATOM      1  C   UNL     1      75.796 -54.141 198.316  1.00  0.00     0.018 C 
ATOM      2  C   UNL     1      75.753 -55.616 198.746  1.00  0.00     0.009 C 
ATOM      3  C   UNL     1      74.409 -55.827 199.472  1.00  0.00     0.008 C 
ATOM      4  C   UNL     1      73.700 -54.457 199.515  1.00  0.00    -0.029 C 
ATOM      5  C   UNL     1      74.312 -53.693 198.309  1.00  0.00     0.006 C 
ATOM      6  C   UNL     1      73.545 -53.875 196.941  1.00  0.00    -0.000 C 
ATOM      7  C   UNL     1      73.813 -55.221 196.195  1.00  0.00     0.005 C 
ATOM      8  C   UNL     1      73.103 -55.320 194.840  1.00  0.00     0.005 C 
ATOM      9  C   UNL     1      71.577 -55.149 195.007  1.00  0.00     0.002 C 
ATOM     10  C   UNL     1      70.682 -55.681 193.783  1.00  0.00    -0.026 C 
ATOM     11  C   UNL     1      70.761 -57.245 193.733  1.00  0.00     0.010 C 
ATOM     12  C   UNL     1      70.071 -57.989 194.895  1.00  0.00     0.033 C 
ATOM     13  C   UNL     1      68.900 -57.226 195.536  1.00  0.00     0.120 C 
ATOM     14  C   UNL     1      68.141 -56.314 194.527  1.00  0.00    -0.006 C 
ATOM     15  C   UNL     1      69.145 -55.247 193.879  1.00  0.00     0.003 C 
ATOM     16  C   UNL     1      69.021 -53.800 194.403  1.00  0.00     0.005 C 
ATOM     17  C   UNL     1      69.730 -53.576 195.740  1.00  0.00     0.008 C 
ATOM     18  C   UNL     1      71.273 -53.725 195.632  1.00  0.00    -0.024 C 
ATOM     19  C   UNL     1      71.998 -53.600 197.084  1.00  0.00    -0.024 C 
ATOM     20  C   UNL     1      71.451 -54.620 198.146  1.00  0.00     0.008 C 
ATOM     21  C   UNL     1      72.143 -54.555 199.514  1.00  0.00     0.007 C 
ATOM     22  C   UNL     1      71.778 -52.157 197.653  1.00  0.00     0.012 C 
ATOM     23  C   UNL     1      71.785 -52.557 194.710  1.00  0.00     0.012 C 
ATOM     24  C   UNL     1      67.492 -57.192 193.405  1.00  0.00     0.014 C 
ATOM     25  C   UNL     1      66.944 -55.665 195.274  1.00  0.00     0.014 C 
ATOM     26  C   UNL     1      71.252 -55.210 192.416  1.00  0.00     0.012 C 
ATOM     27  C   UNL     1      74.089 -53.756 200.849  1.00  0.00     0.011 C 
ENDROOT
BRANCH   1  28
ATOM     28  C   UNL     1      76.636 -53.785 197.090  1.00  0.00    -0.077 C 
ATOM     29  C   UNL     1      77.368 -54.853 196.305  1.00  0.00     0.039 C 
ATOM     30  C   UNL     1      76.885 -52.493 196.810  1.00  0.00     0.008 C 
ENDBRANCH   1  28
BRANCH  13  31
ATOM     31  O   UNL     1      68.030 -58.163 196.137  1.00  0.00    -0.393 OA
ATOM     32  H   UNL     1      68.033 -58.986 195.574  1.00  0.00     0.210 HD
ENDBRANCH  13  31
TORSDOF 2
ENDMDL
MODEL 9
REMARK VINA RESULT:    -4.945      2.264      7.181
REMARK INTER + INTRA:          -5.823
REMARK INTER:                  -5.474
REMARK INTRA:                  -0.349
REMARK UNBOUND:                -0.445
REMARK SMILES C=C(C)[C@@H]1CC[C@]2(C)CC[C@@]3(C)[C@H](CC[C@@H]4[C@@]5(C)CC[C@H](O)C(C)(C)[C@H]5CC[C@]43C)[C@H]12
REMARK SMILES IDX 4 1 5 2 6 3 7 4 31 5 13 6 14 7 15 8 16 9 17 10 19 11 20 12
REMARK SMILES IDX 21 13 23 14 26 15 27 16 28 17 29 18 11 19 10 20 9 21 12 22
REMARK SMILES IDX 30 23 24 24 25 25 18 26 8 27 2 28 3 29 1 30 22 31
REMARK H PARENT 22 32
REMARK Flexibility Score: inf
ROOT
ATOM      1  C   UNL     1      76.336 -54.009 196.109  1.00  0.00     0.018 C 
ATOM      2  C   UNL     1      76.351 -54.925 197.343  1.00  0.00     0.009 C 
ATOM      3  C   UNL     1      75.296 -54.370 198.321  1.00  0.00     0.008 C 
ATOM      4  C   UNL     1      74.712 -53.094 197.676  1.00  0.00    -0.029 C 
ATOM      5  C   UNL     1      74.952 -53.312 196.158  1.00  0.00     0.006 C 
ATOM      6  C   UNL     1      73.784 -54.049 195.392  1.00  0.00    -0.000 C 
ATOM      7  C   UNL     1      73.730 -55.598 195.582  1.00  0.00     0.005 C 
ATOM      8  C   UNL     1      72.625 -56.276 194.764  1.00  0.00     0.005 C 
ATOM      9  C   UNL     1      71.240 -55.691 195.122  1.00  0.00     0.002 C 
ATOM     10  C   UNL     1      69.978 -56.594 194.709  1.00  0.00    -0.026 C 
ATOM     11  C   UNL     1      69.952 -57.880 195.603  1.00  0.00     0.010 C 
ATOM     12  C   UNL     1      69.626 -57.653 197.093  1.00  0.00     0.033 C 
ATOM     13  C   UNL     1      68.759 -56.414 197.377  1.00  0.00     0.120 C 
ATOM     14  C   UNL     1      67.772 -56.084 196.218  1.00  0.00    -0.006 C 
ATOM     15  C   UNL     1      68.576 -55.838 194.855  1.00  0.00     0.003 C 
ATOM     16  C   UNL     1      68.702 -54.367 194.403  1.00  0.00     0.005 C 
ATOM     17  C   UNL     1      69.807 -53.601 195.132  1.00  0.00     0.008 C 
ATOM     18  C   UNL     1      71.227 -54.139 194.801  1.00  0.00    -0.024 C 
ATOM     19  C   UNL     1      72.378 -53.391 195.673  1.00  0.00    -0.024 C 
ATOM     20  C   UNL     1      72.140 -53.472 197.225  1.00  0.00     0.008 C 
ATOM     21  C   UNL     1      73.231 -52.810 198.077  1.00  0.00     0.007 C 
ATOM     22  C   UNL     1      72.428 -51.875 195.280  1.00  0.00     0.012 C 
ATOM     23  C   UNL     1      71.484 -53.853 193.275  1.00  0.00     0.012 C 
ATOM     24  C   UNL     1      66.755 -57.261 196.039  1.00  0.00     0.014 C 
ATOM     25  C   UNL     1      66.908 -54.870 196.657  1.00  0.00     0.014 C 
ATOM     26  C   UNL     1      70.113 -57.125 193.253  1.00  0.00     0.012 C 
ATOM     27  C   UNL     1      75.539 -51.877 198.183  1.00  0.00     0.011 C 
ENDROOT
BRANCH   1  28
ATOM     28  C   UNL     1      76.765 -54.615 194.773  1.00  0.00    -0.077 C 
ATOM     29  C   UNL     1      76.560 -53.868 193.472  1.00  0.00     0.039 C 
ATOM     30  C   UNL     1      77.156 -55.901 194.724  1.00  0.00     0.008 C 
ENDBRANCH   1  28
BRANCH  13  31
ATOM     31  O   UNL     1      68.074 -56.615 198.596  1.00  0.00    -0.393 OA
ATOM     32  H   UNL     1      68.321 -57.519 198.939  1.00  0.00     0.210 HD
ENDBRANCH  13  31
TORSDOF 2
ENDMDL
