MODEL 1
REMARK VINA RESULT:    -6.709      0.000      0.000
REMARK INTER + INTRA:         -11.290
REMARK INTER:                  -9.454
REMARK INTRA:                  -1.836
REMARK UNBOUND:                -1.836
REMARK SMILES OCC1=C[C@@H](O)[C@H]2C=CO[C@@H](O[C@@H]3O[C@H](CO)[C@@H](O)[C@H](O)[C@@H]3O)[C@@H]12
REMARK SMILES IDX 12 1 11 2 8 3 9 4 7 5 10 6 24 7 5 8 3 9 4 10 6 11 2 13 1 14
REMARK SMILES IDX 13 16 22 17 14 18 20 19 15 20 18 21 23 22 21 24 16 26 17 27
REMARK SMILES IDX 19 29
REMARK H PARENT 6 12 1 15 23 23 21 25 17 28 19 30
REMARK Flexibility Score: inf
ROOT
ATOM      1  O   UNL     1       2.662  -2.987  22.257  1.00  0.00    -0.310 OA
ENDROOT
BRANCH   1   2
ATOM      2  C   UNL     1       3.318  -3.935  23.087  1.00  0.00     0.316 C 
ATOM      3  C   UNL     1       3.896  -6.418  24.308  1.00  0.00     0.018 C 
ATOM      4  C   UNL     1       3.974  -6.289  22.982  1.00  0.00     0.186 C 
ATOM      5  C   UNL     1       3.167  -5.409  25.186  1.00  0.00     0.061 C 
ATOM      6  O   UNL     1       3.501  -5.139  22.353  1.00  0.00    -0.472 OA
ATOM      7  C   UNL     1       2.535  -4.234  24.388  1.00  0.00     0.096 C 
ATOM      8  C   UNL     1       1.954  -6.060  25.890  1.00  0.00     0.145 C 
ATOM      9  C   UNL     1       1.109  -4.678  24.205  1.00  0.00    -0.036 C 
ATOM     10  C   UNL     1       0.807  -5.684  25.024  1.00  0.00     0.007 C 
BRANCH   8  11
ATOM     11  O   UNL     1       2.046  -7.457  25.995  1.00  0.00    -0.388 OA
ATOM     12  H   UNL     1       2.666  -7.639  26.748  1.00  0.00     0.211 HD
ENDBRANCH   8  11
BRANCH   9  13
ATOM     13  C   UNL     1       0.102  -3.968  23.334  1.00  0.00     0.187 C 
BRANCH  13  14
ATOM     14  O   UNL     1       0.029  -4.529  22.049  1.00  0.00    -0.392 OA
ATOM     15  H   UNL     1      -0.802  -4.179  21.634  1.00  0.00     0.211 HD
ENDBRANCH  13  14
ENDBRANCH   9  13
ENDBRANCH   1   2
BRANCH   1  16
ATOM     16  C   UNL     1       3.403  -2.681  21.082  1.00  0.00     0.286 C 
ATOM     17  C   UNL     1       2.584  -2.919  19.789  1.00  0.00     0.202 C 
ATOM     18  O   UNL     1       3.910  -1.351  21.153  1.00  0.00    -0.341 OA
ATOM     19  C   UNL     1       1.454  -1.892  19.647  1.00  0.00     0.179 C 
ATOM     20  C   UNL     1       2.931  -0.322  21.014  1.00  0.00     0.178 C 
ATOM     21  C   UNL     1       2.037  -0.478  19.757  1.00  0.00     0.177 C 
BRANCH  17  22
ATOM     22  O   UNL     1       2.067  -4.224  19.759  1.00  0.00    -0.385 OA
ATOM     23  H   UNL     1       1.125  -4.168  20.070  1.00  0.00     0.211 HD
ENDBRANCH  17  22
BRANCH  19  24
ATOM     24  O   UNL     1       0.468  -2.086  20.630  1.00  0.00    -0.387 OA
ATOM     25  H   UNL     1       0.216  -1.188  20.970  1.00  0.00     0.211 HD
ENDBRANCH  19  24
BRANCH  20  26
ATOM     26  C   UNL     1       2.153  -0.059  22.321  1.00  0.00     0.191 C 
BRANCH  26  27
ATOM     27  O   UNL     1       0.912   0.536  22.046  1.00  0.00    -0.394 OA
ATOM     28  H   UNL     1       1.013   1.042  21.199  1.00  0.00     0.210 HD
ENDBRANCH  26  27
ENDBRANCH  20  26
BRANCH  21  29
ATOM     29  O   UNL     1       2.812  -0.198  18.617  1.00  0.00    -0.387 OA
ATOM     30  H   UNL     1       3.670   0.188  18.935  1.00  0.00     0.211 HD
ENDBRANCH  21  29
ENDBRANCH   1  16
TORSDOF 10
ENDMDL
MODEL 2
REMARK VINA RESULT:    -6.405     12.966     15.285
REMARK INTER + INTRA:         -10.862
REMARK INTER:                  -9.076
REMARK INTRA:                  -1.786
REMARK UNBOUND:                -1.836
REMARK SMILES OCC1=C[C@@H](O)[C@H]2C=CO[C@@H](O[C@@H]3O[C@H](CO)[C@@H](O)[C@H](O)[C@@H]3O)[C@@H]12
REMARK SMILES IDX 12 1 11 2 8 3 9 4 7 5 10 6 24 7 5 8 3 9 4 10 6 11 2 13 1 14
REMARK SMILES IDX 13 16 22 17 14 18 20 19 15 20 18 21 23 22 21 24 16 26 17 27
REMARK SMILES IDX 19 29
REMARK H PARENT 6 12 1 15 23 23 21 25 17 28 19 30
REMARK Flexibility Score: inf
ROOT
ATOM      1  O   UNL     1      15.530  -5.738  25.850  1.00  0.00    -0.310 OA
ENDROOT
BRANCH   1   2
ATOM      2  C   UNL     1      14.773  -6.003  24.677  1.00  0.00     0.316 C 
ATOM      3  C   UNL     1      13.882  -7.360  22.362  1.00  0.00     0.018 C 
ATOM      4  C   UNL     1      13.773  -7.936  23.561  1.00  0.00     0.186 C 
ATOM      5  C   UNL     1      14.785  -6.159  22.112  1.00  0.00     0.061 C 
ATOM      6  O   UNL     1      14.387  -7.370  24.678  1.00  0.00    -0.472 OA
ATOM      7  C   UNL     1      15.553  -5.685  23.378  1.00  0.00     0.096 C 
ATOM      8  C   UNL     1      15.915  -6.512  21.117  1.00  0.00     0.145 C 
ATOM      9  C   UNL     1      16.890  -6.361  23.236  1.00  0.00    -0.036 C 
ATOM     10  C   UNL     1      17.071  -6.818  21.999  1.00  0.00     0.007 C 
BRANCH   8  11
ATOM     11  O   UNL     1      15.622  -7.614  20.299  1.00  0.00    -0.388 OA
ATOM     12  H   UNL     1      14.819  -8.045  20.690  1.00  0.00     0.211 HD
ENDBRANCH   8  11
BRANCH   9  13
ATOM     13  C   UNL     1      17.956  -6.369  24.303  1.00  0.00     0.187 C 
BRANCH  13  14
ATOM     14  O   UNL     1      17.898  -7.526  25.096  1.00  0.00    -0.392 OA
ATOM     15  H   UNL     1      18.770  -7.988  24.989  1.00  0.00     0.211 HD
ENDBRANCH  13  14
ENDBRANCH   9  13
ENDBRANCH   1   2
BRANCH   1  16
ATOM     16  C   UNL     1      14.779  -5.933  27.042  1.00  0.00     0.286 C 
ATOM     17  C   UNL     1      15.438  -6.964  27.993  1.00  0.00     0.202 C 
ATOM     18  O   UNL     1      14.550  -4.684  27.687  1.00  0.00    -0.341 OA
ATOM     19  C   UNL     1      16.734  -6.413  28.600  1.00  0.00     0.179 C 
ATOM     20  C   UNL     1      15.699  -4.099  28.300  1.00  0.00     0.178 C 
ATOM     21  C   UNL     1      16.449  -5.057  29.259  1.00  0.00     0.177 C 
BRANCH  17  22
ATOM     22  O   UNL     1      15.685  -8.173  27.324  1.00  0.00    -0.385 OA
ATOM     23  H   UNL     1      15.382  -8.050  26.385  1.00  0.00     0.211 HD
ENDBRANCH  17  22
BRANCH  19  24
ATOM     24  O   UNL     1      17.732  -6.273  27.620  1.00  0.00    -0.387 OA
ATOM     25  H   UNL     1      17.376  -6.674  26.784  1.00  0.00     0.211 HD
ENDBRANCH  19  24
BRANCH  20  26
ATOM     26  C   UNL     1      16.606  -3.370  27.286  1.00  0.00     0.191 C 
BRANCH  26  27
ATOM     27  O   UNL     1      17.910  -3.245  27.793  1.00  0.00    -0.394 OA
ATOM     28  H   UNL     1      17.884  -2.543  28.494  1.00  0.00     0.210 HD
ENDBRANCH  26  27
ENDBRANCH  20  26
BRANCH  21  29
ATOM     29  O   UNL     1      15.663  -5.249  30.409  1.00  0.00    -0.387 OA
ATOM     30  H   UNL     1      15.368  -4.351  30.714  1.00  0.00     0.211 HD
ENDBRANCH  21  29
ENDBRANCH   1  16
TORSDOF 10
ENDMDL
MODEL 3
REMARK VINA RESULT:    -6.356      2.242      6.461
REMARK INTER + INTRA:         -10.794
REMARK INTER:                  -9.262
REMARK INTRA:                  -1.532
REMARK UNBOUND:                -1.836
REMARK SMILES OCC1=C[C@@H](O)[C@H]2C=CO[C@@H](O[C@@H]3O[C@H](CO)[C@@H](O)[C@H](O)[C@@H]3O)[C@@H]12
REMARK SMILES IDX 12 1 11 2 8 3 9 4 7 5 10 6 24 7 5 8 3 9 4 10 6 11 2 13 1 14
REMARK SMILES IDX 13 16 22 17 14 18 20 19 15 20 18 21 23 22 21 24 16 26 17 27
REMARK SMILES IDX 19 29
REMARK H PARENT 6 12 1 15 23 23 21 25 17 28 19 30
REMARK Flexibility Score: inf
ROOT
ATOM      1  O   UNL     1       2.688  -4.711  24.253  1.00  0.00    -0.310 OA
ENDROOT
BRANCH   1   2
ATOM      2  C   UNL     1       1.845  -3.966  23.385  1.00  0.00     0.316 C 
ATOM      3  C   UNL     1       0.216  -3.382  21.149  1.00  0.00     0.018 C 
ATOM      4  C   UNL     1      -0.124  -4.361  21.990  1.00  0.00     0.186 C 
ATOM      5  C   UNL     1       1.618  -2.787  21.113  1.00  0.00     0.061 C 
ATOM      6  O   UNL     1       0.764  -4.792  22.974  1.00  0.00    -0.472 OA
ATOM      7  C   UNL     1       2.593  -3.431  22.140  1.00  0.00     0.096 C 
ATOM      8  C   UNL     1       2.301  -3.056  19.753  1.00  0.00     0.145 C 
ATOM      9  C   UNL     1       3.316  -4.462  21.319  1.00  0.00    -0.036 C 
ATOM     10  C   UNL     1       3.140  -4.254  20.016  1.00  0.00     0.007 C 
BRANCH   8  11
ATOM     11  O   UNL     1       1.397  -3.316  18.710  1.00  0.00    -0.388 OA
ATOM     12  H   UNL     1       1.445  -2.536  18.099  1.00  0.00     0.211 HD
ENDBRANCH   8  11
BRANCH   9  13
ATOM     13  C   UNL     1       4.258  -5.495  21.888  1.00  0.00     0.187 C 
BRANCH  13  14
ATOM     14  O   UNL     1       3.598  -6.693  22.203  1.00  0.00    -0.392 OA
ATOM     15  H   UNL     1       4.056  -7.412  21.693  1.00  0.00     0.211 HD
ENDBRANCH  13  14
ENDBRANCH   9  13
ENDBRANCH   1   2
BRANCH   1  16
ATOM     16  C   UNL     1       2.419  -4.460  25.627  1.00  0.00     0.286 C 
ATOM     17  C   UNL     1       1.719  -5.655  26.320  1.00  0.00     0.202 C 
ATOM     18  O   UNL     1       3.616  -4.081  26.300  1.00  0.00    -0.341 OA
ATOM     19  C   UNL     1       2.670  -6.850  26.465  1.00  0.00     0.179 C 
ATOM     20  C   UNL     1       4.559  -5.134  26.498  1.00  0.00     0.178 C 
ATOM     21  C   UNL     1       3.954  -6.394  27.168  1.00  0.00     0.177 C 
BRANCH  17  22
ATOM     22  O   UNL     1       0.563  -6.031  25.619  1.00  0.00    -0.385 OA
ATOM     23  H   UNL     1       0.149  -5.195  25.276  1.00  0.00     0.211 HD
ENDBRANCH  17  22
BRANCH  19  24
ATOM     24  O   UNL     1       2.976  -7.407  25.212  1.00  0.00    -0.387 OA
ATOM     25  H   UNL     1       2.638  -6.776  24.523  1.00  0.00     0.211 HD
ENDBRANCH  19  24
BRANCH  20  26
ATOM     26  C   UNL     1       5.400  -5.424  25.236  1.00  0.00     0.191 C 
BRANCH  26  27
ATOM     27  O   UNL     1       5.894  -6.738  25.263  1.00  0.00    -0.394 OA
ATOM     28  H   UNL     1       5.557  -7.193  24.448  1.00  0.00     0.210 HD
ENDBRANCH  26  27
ENDBRANCH  20  26
BRANCH  21  29
ATOM     29  O   UNL     1       3.675  -6.097  28.514  1.00  0.00    -0.387 OA
ATOM     30  H   UNL     1       4.539  -6.117  29.003  1.00  0.00     0.211 HD
ENDBRANCH  21  29
ENDBRANCH   1  16
TORSDOF 10
ENDMDL
MODEL 4
REMARK VINA RESULT:    -6.313     13.133     15.196
REMARK INTER + INTRA:         -10.733
REMARK INTER:                  -8.949
REMARK INTRA:                  -1.783
REMARK UNBOUND:                -1.836
REMARK SMILES OCC1=C[C@@H](O)[C@H]2C=CO[C@@H](O[C@@H]3O[C@H](CO)[C@@H](O)[C@H](O)[C@@H]3O)[C@@H]12
REMARK SMILES IDX 12 1 11 2 8 3 9 4 7 5 10 6 24 7 5 8 3 9 4 10 6 11 2 13 1 14
REMARK SMILES IDX 13 16 22 17 14 18 20 19 15 20 18 21 23 22 21 24 16 26 17 27
REMARK SMILES IDX 19 29
REMARK H PARENT 6 12 1 15 23 23 21 25 17 28 19 30
REMARK Flexibility Score: inf
ROOT
ATOM      1  O   UNL     1      15.700  -5.390  26.193  1.00  0.00    -0.310 OA
ENDROOT
BRANCH   1   2
ATOM      2  C   UNL     1      15.609  -4.347  27.154  1.00  0.00     0.316 C 
ATOM      3  C   UNL     1      16.377  -2.629  29.264  1.00  0.00     0.018 C 
ATOM      4  C   UNL     1      17.070  -2.642  28.124  1.00  0.00     0.186 C 
ATOM      5  C   UNL     1      15.407  -3.740  29.642  1.00  0.00     0.061 C 
ATOM      6  O   UNL     1      16.830  -3.619  27.159  1.00  0.00    -0.472 OA
ATOM      7  C   UNL     1      15.311  -4.871  28.579  1.00  0.00     0.096 C 
ATOM      8  C   UNL     1      15.879  -4.481  30.914  1.00  0.00     0.145 C 
ATOM      9  C   UNL     1      16.263  -5.911  29.106  1.00  0.00    -0.036 C 
ATOM     10  C   UNL     1      16.574  -5.680  30.379  1.00  0.00     0.007 C 
BRANCH   8  11
ATOM     11  O   UNL     1      16.755  -3.728  31.713  1.00  0.00    -0.388 OA
ATOM     12  H   UNL     1      16.771  -2.816  31.325  1.00  0.00     0.211 HD
ENDBRANCH   8  11
BRANCH   9  13
ATOM     13  C   UNL     1      16.676  -7.148  28.346  1.00  0.00     0.187 C 
BRANCH  13  14
ATOM     14  O   UNL     1      17.880  -6.960  27.649  1.00  0.00    -0.392 OA
ATOM     15  H   UNL     1      18.227  -7.865  27.436  1.00  0.00     0.211 HD
ENDBRANCH  13  14
ENDBRANCH   9  13
ENDBRANCH   1   2
BRANCH   1  16
ATOM     16  C   UNL     1      15.864  -4.902  24.868  1.00  0.00     0.286 C 
ATOM     17  C   UNL     1      17.112  -5.498  24.169  1.00  0.00     0.202 C 
ATOM     18  O   UNL     1      14.676  -5.121  24.113  1.00  0.00    -0.341 OA
ATOM     19  C   UNL     1      16.921  -6.989  23.866  1.00  0.00     0.179 C 
ATOM     20  C   UNL     1      14.422  -6.482  23.766  1.00  0.00     0.178 C 
ATOM     21  C   UNL     1      15.620  -7.184  23.078  1.00  0.00     0.177 C 
BRANCH  17  22
ATOM     22  O   UNL     1      18.262  -5.300  24.948  1.00  0.00    -0.385 OA
ATOM     23  H   UNL     1      17.994  -5.427  25.897  1.00  0.00     0.211 HD
ENDBRANCH  17  22
BRANCH  19  24
ATOM     24  O   UNL     1      16.888  -7.746  25.049  1.00  0.00    -0.387 OA
ATOM     25  H   UNL     1      17.596  -8.437  24.972  1.00  0.00     0.211 HD
ENDBRANCH  19  24
BRANCH  20  26
ATOM     26  C   UNL     1      13.793  -7.283  24.925  1.00  0.00     0.191 C 
BRANCH  26  27
ATOM     27  O   UNL     1      13.916  -8.663  24.696  1.00  0.00    -0.394 OA
ATOM     28  H   UNL     1      13.027  -8.991  24.403  1.00  0.00     0.210 HD
ENDBRANCH  26  27
ENDBRANCH  20  26
BRANCH  21  29
ATOM     29  O   UNL     1      15.769  -6.654  21.784  1.00  0.00    -0.387 OA
ATOM     30  H   UNL     1      16.598  -6.106  21.786  1.00  0.00     0.211 HD
ENDBRANCH  21  29
ENDBRANCH   1  16
TORSDOF 10
ENDMDL
MODEL 5
REMARK VINA RESULT:    -6.307     13.257     15.112
REMARK INTER + INTRA:         -10.724
REMARK INTER:                  -8.996
REMARK INTRA:                  -1.727
REMARK UNBOUND:                -1.836
REMARK SMILES OCC1=C[C@@H](O)[C@H]2C=CO[C@@H](O[C@@H]3O[C@H](CO)[C@@H](O)[C@H](O)[C@@H]3O)[C@@H]12
REMARK SMILES IDX 12 1 11 2 8 3 9 4 7 5 10 6 24 7 5 8 3 9 4 10 6 11 2 13 1 14
REMARK SMILES IDX 13 16 22 17 14 18 20 19 15 20 18 21 23 22 21 24 16 26 17 27
REMARK SMILES IDX 19 29
REMARK H PARENT 6 12 1 15 23 23 21 25 17 28 19 30
REMARK Flexibility Score: inf
ROOT
ATOM      1  O   UNL     1       9.860   7.534  27.655  1.00  0.00    -0.310 OA
ENDROOT
BRANCH   1   2
ATOM      2  C   UNL     1       8.701   6.907  28.186  1.00  0.00     0.316 C 
ATOM      3  C   UNL     1       6.113   6.653  29.296  1.00  0.00     0.018 C 
ATOM      4  C   UNL     1       6.275   7.201  28.091  1.00  0.00     0.186 C 
ATOM      5  C   UNL     1       7.267   6.476  30.275  1.00  0.00     0.061 C 
ATOM      6  O   UNL     1       7.549   7.516  27.620  1.00  0.00    -0.472 OA
ATOM      7  C   UNL     1       8.629   6.994  29.730  1.00  0.00     0.096 C 
ATOM      8  C   UNL     1       7.046   7.319  31.552  1.00  0.00     0.145 C 
ATOM      9  C   UNL     1       8.720   8.378  30.312  1.00  0.00    -0.036 C 
ATOM     10  C   UNL     1       7.843   8.547  31.299  1.00  0.00     0.007 C 
BRANCH   8  11
ATOM     11  O   UNL     1       5.702   7.651  31.783  1.00  0.00    -0.388 OA
ATOM     12  H   UNL     1       5.202   6.794  31.798  1.00  0.00     0.211 HD
ENDBRANCH   8  11
BRANCH   9  13
ATOM     13  C   UNL     1       9.781   9.387  29.944  1.00  0.00     0.187 C 
BRANCH  13  14
ATOM     14  O   UNL     1       9.433  10.124  28.801  1.00  0.00    -0.392 OA
ATOM     15  H   UNL     1       8.447  10.052  28.707  1.00  0.00     0.211 HD
ENDBRANCH  13  14
ENDBRANCH   9  13
ENDBRANCH   1   2
BRANCH   1  16
ATOM     16  C   UNL     1       9.981   7.362  26.249  1.00  0.00     0.286 C 
ATOM     17  C   UNL     1      10.391   8.670  25.527  1.00  0.00     0.202 C 
ATOM     18  O   UNL     1      10.875   6.291  25.960  1.00  0.00    -0.341 OA
ATOM     19  C   UNL     1      11.838   9.057  25.857  1.00  0.00     0.179 C 
ATOM     20  C   UNL     1      12.251   6.565  26.219  1.00  0.00     0.178 C 
ATOM     21  C   UNL     1      12.762   7.870  25.558  1.00  0.00     0.177 C 
BRANCH  17  22
ATOM     22  O   UNL     1       9.517   9.717  25.855  1.00  0.00    -0.385 OA
ATOM     23  H   UNL     1       9.755  10.486  25.272  1.00  0.00     0.211 HD
ENDBRANCH  17  22
BRANCH  19  24
ATOM     24  O   UNL     1      11.964   9.441  27.203  1.00  0.00    -0.387 OA
ATOM     25  H   UNL     1      11.958  10.434  27.224  1.00  0.00     0.211 HD
ENDBRANCH  19  24
BRANCH  20  26
ATOM     26  C   UNL     1      12.615   6.420  27.712  1.00  0.00     0.191 C 
BRANCH  26  27
ATOM     27  O   UNL     1      13.769   7.161  28.013  1.00  0.00    -0.394 OA
ATOM     28  H   UNL     1      13.531   7.789  28.743  1.00  0.00     0.210 HD
ENDBRANCH  26  27
ENDBRANCH  20  26
BRANCH  21  29
ATOM     29  O   UNL     1      12.838   7.671  24.168  1.00  0.00    -0.387 OA
ATOM     30  H   UNL     1      13.218   6.764  24.024  1.00  0.00     0.211 HD
ENDBRANCH  21  29
ENDBRANCH   1  16
TORSDOF 10
ENDMDL
MODEL 6
REMARK VINA RESULT:    -6.244      1.499      6.347
REMARK INTER + INTRA:         -10.635
REMARK INTER:                  -8.829
REMARK INTRA:                  -1.806
REMARK UNBOUND:                -1.836
REMARK SMILES OCC1=C[C@@H](O)[C@H]2C=CO[C@@H](O[C@@H]3O[C@H](CO)[C@@H](O)[C@H](O)[C@@H]3O)[C@@H]12
REMARK SMILES IDX 12 1 11 2 8 3 9 4 7 5 10 6 24 7 5 8 3 9 4 10 6 11 2 13 1 14
REMARK SMILES IDX 13 16 22 17 14 18 20 19 15 20 18 21 23 22 21 24 16 26 17 27
REMARK SMILES IDX 19 29
REMARK H PARENT 6 12 1 15 23 23 21 25 17 28 19 30
REMARK Flexibility Score: inf
ROOT
ATOM      1  O   UNL     1       2.645  -2.478  22.074  1.00  0.00    -0.310 OA
ENDROOT
BRANCH   1   2
ATOM      2  C   UNL     1       3.016  -1.155  21.714  1.00  0.00     0.316 C 
ATOM      3  C   UNL     1       2.744   1.500  20.782  1.00  0.00     0.018 C 
ATOM      4  C   UNL     1       2.074   1.097  21.863  1.00  0.00     0.186 C 
ATOM      5  C   UNL     1       3.375   0.522  19.800  1.00  0.00     0.061 C 
ATOM      6  O   UNL     1       2.039  -0.252  22.214  1.00  0.00    -0.472 OA
ATOM      7  C   UNL     1       3.159  -0.969  20.184  1.00  0.00     0.096 C 
ATOM      8  C   UNL     1       2.718   0.633  18.405  1.00  0.00     0.145 C 
ATOM      9  C   UNL     1       1.960  -1.359  19.363  1.00  0.00    -0.036 C 
ATOM     10  C   UNL     1       1.723  -0.470  18.401  1.00  0.00     0.007 C 
BRANCH   8  11
ATOM     11  O   UNL     1       2.080   1.863  18.179  1.00  0.00    -0.388 OA
ATOM     12  H   UNL     1       1.177   1.787  18.581  1.00  0.00     0.211 HD
ENDBRANCH   8  11
BRANCH   9  13
ATOM     13  C   UNL     1       1.226  -2.671  19.499  1.00  0.00     0.187 C 
BRANCH  13  14
ATOM     14  O   UNL     1       0.135  -2.575  20.376  1.00  0.00    -0.392 OA
ATOM     15  H   UNL     1       0.452  -2.895  21.261  1.00  0.00     0.211 HD
ENDBRANCH  13  14
ENDBRANCH   9  13
ENDBRANCH   1   2
BRANCH   1  16
ATOM     16  C   UNL     1       2.597  -2.670  23.482  1.00  0.00     0.286 C 
ATOM     17  C   UNL     1       1.234  -3.235  23.955  1.00  0.00     0.202 C 
ATOM     18  O   UNL     1       3.686  -3.485  23.904  1.00  0.00    -0.341 OA
ATOM     19  C   UNL     1       1.044  -4.687  23.497  1.00  0.00     0.179 C 
ATOM     20  C   UNL     1       3.589  -4.862  23.538  1.00  0.00     0.178 C 
ATOM     21  C   UNL     1       2.249  -5.522  23.947  1.00  0.00     0.177 C 
BRANCH  17  22
ATOM     22  O   UNL     1       0.176  -2.434  23.498  1.00  0.00    -0.385 OA
ATOM     23  H   UNL     1      -0.559  -2.521  24.162  1.00  0.00     0.211 HD
ENDBRANCH  17  22
BRANCH  19  24
ATOM     24  O   UNL     1       0.897  -4.762  22.102  1.00  0.00    -0.387 OA
ATOM     25  H   UNL     1       1.503  -4.080  21.709  1.00  0.00     0.211 HD
ENDBRANCH  19  24
BRANCH  20  26
ATOM     26  C   UNL     1       4.008  -5.119  22.075  1.00  0.00     0.191 C 
BRANCH  26  27
ATOM     27  O   UNL     1       3.577  -6.386  21.654  1.00  0.00    -0.394 OA
ATOM     28  H   UNL     1       2.724  -6.575  22.125  1.00  0.00     0.210 HD
ENDBRANCH  26  27
ENDBRANCH  20  26
BRANCH  21  29
ATOM     29  O   UNL     1       2.226  -5.667  25.345  1.00  0.00    -0.387 OA
ATOM     30  H   UNL     1       1.280  -5.819  25.608  1.00  0.00     0.211 HD
ENDBRANCH  21  29
ENDBRANCH   1  16
TORSDOF 10
ENDMDL
MODEL 7
REMARK VINA RESULT:    -6.161     13.260     15.428
REMARK INTER + INTRA:         -10.518
REMARK INTER:                  -8.661
REMARK INTRA:                  -1.858
REMARK UNBOUND:                -1.836
REMARK SMILES OCC1=C[C@@H](O)[C@H]2C=CO[C@@H](O[C@@H]3O[C@H](CO)[C@@H](O)[C@H](O)[C@@H]3O)[C@@H]12
REMARK SMILES IDX 12 1 11 2 8 3 9 4 7 5 10 6 24 7 5 8 3 9 4 10 6 11 2 13 1 14
REMARK SMILES IDX 13 16 22 17 14 18 20 19 15 20 18 21 23 22 21 24 16 26 17 27
REMARK SMILES IDX 19 29
REMARK H PARENT 6 12 1 15 23 23 21 25 17 28 19 30
REMARK Flexibility Score: inf
ROOT
ATOM      1  O   UNL     1      10.032   8.039  27.421  1.00  0.00    -0.310 OA
ENDROOT
BRANCH   1   2
ATOM      2  C   UNL     1       9.428   8.234  28.692  1.00  0.00     0.316 C 
ATOM      3  C   UNL     1       9.218   8.794  31.455  1.00  0.00     0.018 C 
ATOM      4  C   UNL     1       9.696   9.717  30.619  1.00  0.00     0.186 C 
ATOM      5  C   UNL     1       9.109   7.323  31.073  1.00  0.00     0.061 C 
ATOM      6  O   UNL     1       9.993   9.390  29.296  1.00  0.00    -0.472 OA
ATOM      7  C   UNL     1       9.605   7.017  29.632  1.00  0.00     0.096 C 
ATOM      8  C   UNL     1      10.024   6.449  31.962  1.00  0.00     0.145 C 
ATOM      9  C   UNL     1      11.022   6.562  29.851  1.00  0.00    -0.036 C 
ATOM     10  C   UNL     1      11.242   6.265  31.130  1.00  0.00     0.007 C 
BRANCH   8  11
ATOM     11  O   UNL     1      10.358   7.047  33.187  1.00  0.00    -0.388 OA
ATOM     12  H   UNL     1      10.865   7.871  32.966  1.00  0.00     0.211 HD
ENDBRANCH   8  11
BRANCH   9  13
ATOM     13  C   UNL     1      12.016   6.309  28.744  1.00  0.00     0.187 C 
BRANCH  13  14
ATOM     14  O   UNL     1      12.770   7.454  28.442  1.00  0.00    -0.392 OA
ATOM     15  H   UNL     1      12.369   8.202  28.957  1.00  0.00     0.211 HD
ENDBRANCH  13  14
ENDBRANCH   9  13
ENDBRANCH   1   2
BRANCH   1  16
ATOM     16  C   UNL     1       9.895   9.170  26.569  1.00  0.00     0.286 C 
ATOM     17  C   UNL     1      11.244   9.606  25.946  1.00  0.00     0.202 C 
ATOM     18  O   UNL     1       8.906   8.918  25.575  1.00  0.00    -0.341 OA
ATOM     19  C   UNL     1      11.743   8.580  24.922  1.00  0.00     0.179 C 
ATOM     20  C   UNL     1       9.287   7.985  24.564  1.00  0.00     0.178 C 
ATOM     21  C   UNL     1      10.641   8.318  23.888  1.00  0.00     0.177 C 
BRANCH  17  22
ATOM     22  O   UNL     1      12.210   9.813  26.942  1.00  0.00    -0.385 OA
ATOM     23  H   UNL     1      11.719   9.951  27.796  1.00  0.00     0.211 HD
ENDBRANCH  17  22
BRANCH  19  24
ATOM     24  O   UNL     1      12.112   7.378  25.549  1.00  0.00    -0.387 OA
ATOM     25  H   UNL     1      11.663   7.362  26.435  1.00  0.00     0.211 HD
ENDBRANCH  19  24
BRANCH  20  26
ATOM     26  C   UNL     1       9.146   6.519  25.026  1.00  0.00     0.191 C 
BRANCH  26  27
ATOM     27  O   UNL     1       8.067   6.382  25.913  1.00  0.00    -0.394 OA
ATOM     28  H   UNL     1       7.343   6.977  25.585  1.00  0.00     0.210 HD
ENDBRANCH  26  27
ENDBRANCH  20  26
BRANCH  21  29
ATOM     29  O   UNL     1      10.472   9.456  23.080  1.00  0.00    -0.387 OA
ATOM     30  H   UNL     1       9.775   9.237  22.407  1.00  0.00     0.211 HD
ENDBRANCH  21  29
ENDBRANCH   1  16
TORSDOF 10
ENDMDL
MODEL 8
REMARK VINA RESULT:    -6.088     13.355     15.749
REMARK INTER + INTRA:         -10.416
REMARK INTER:                  -8.755
REMARK INTRA:                  -1.661
REMARK UNBOUND:                -1.836
REMARK SMILES OCC1=C[C@@H](O)[C@H]2C=CO[C@@H](O[C@@H]3O[C@H](CO)[C@@H](O)[C@H](O)[C@@H]3O)[C@@H]12
REMARK SMILES IDX 12 1 11 2 8 3 9 4 7 5 10 6 24 7 5 8 3 9 4 10 6 11 2 13 1 14
REMARK SMILES IDX 13 16 22 17 14 18 20 19 15 20 18 21 23 22 21 24 16 26 17 27
REMARK SMILES IDX 19 29
REMARK H PARENT 6 12 1 15 23 23 21 25 17 28 19 30
REMARK Flexibility Score: inf
ROOT
ATOM      1  O   UNL     1      10.879   7.326  26.693  1.00  0.00    -0.310 OA
ENDROOT
BRANCH   1   2
ATOM      2  C   UNL     1      11.997   6.562  26.262  1.00  0.00     0.316 C 
ATOM      3  C   UNL     1      14.675   5.951  25.593  1.00  0.00     0.018 C 
ATOM      4  C   UNL     1      14.363   6.330  26.834  1.00  0.00     0.186 C 
ATOM      5  C   UNL     1      13.737   6.170  24.413  1.00  0.00     0.061 C 
ATOM      6  O   UNL     1      13.093   6.825  27.127  1.00  0.00    -0.472 OA
ATOM      7  C   UNL     1      12.403   6.869  24.801  1.00  0.00     0.096 C 
ATOM      8  C   UNL     1      14.361   7.135  23.379  1.00  0.00     0.145 C 
ATOM      9  C   UNL     1      12.675   8.314  24.487  1.00  0.00    -0.036 C 
ATOM     10  C   UNL     1      13.754   8.448  23.719  1.00  0.00     0.007 C 
BRANCH   8  11
ATOM     11  O   UNL     1      15.761   7.213  23.454  1.00  0.00    -0.388 OA
ATOM     12  H   UNL     1      15.989   7.200  24.419  1.00  0.00     0.211 HD
ENDBRANCH   8  11
BRANCH   9  13
ATOM     13  C   UNL     1      11.752   9.452  24.850  1.00  0.00     0.187 C 
BRANCH  13  14
ATOM     14  O   UNL     1      12.085  10.026  26.086  1.00  0.00    -0.392 OA
ATOM     15  H   UNL     1      13.071   9.954  26.176  1.00  0.00     0.211 HD
ENDBRANCH  13  14
ENDBRANCH   9  13
ENDBRANCH   1   2
BRANCH   1  16
ATOM     16  C   UNL     1      10.268   6.793  27.862  1.00  0.00     0.286 C 
ATOM     17  C   UNL     1      10.197   7.826  29.014  1.00  0.00     0.202 C 
ATOM     18  O   UNL     1       8.986   6.259  27.546  1.00  0.00    -0.341 OA
ATOM     19  C   UNL     1       9.198   8.946  28.697  1.00  0.00     0.179 C 
ATOM     20  C   UNL     1       7.981   7.230  27.253  1.00  0.00     0.178 C 
ATOM     21  C   UNL     1       7.842   8.329  28.337  1.00  0.00     0.177 C 
BRANCH  17  22
ATOM     22  O   UNL     1      11.466   8.363  29.282  1.00  0.00    -0.385 OA
ATOM     23  H   UNL     1      11.518   8.503  30.265  1.00  0.00     0.211 HD
ENDBRANCH  17  22
BRANCH  19  24
ATOM     24  O   UNL     1       9.659   9.751  27.641  1.00  0.00    -0.387 OA
ATOM     25  H   UNL     1       9.046  10.530  27.581  1.00  0.00     0.211 HD
ENDBRANCH  19  24
BRANCH  20  26
ATOM     26  C   UNL     1       8.076   7.766  25.808  1.00  0.00     0.191 C 
BRANCH  26  27
ATOM     27  O   UNL     1       7.348   8.959  25.676  1.00  0.00    -0.394 OA
ATOM     28  H   UNL     1       7.952   9.624  25.254  1.00  0.00     0.210 HD
ENDBRANCH  26  27
ENDBRANCH  20  26
BRANCH  21  29
ATOM     29  O   UNL     1       7.264   7.758  29.484  1.00  0.00    -0.387 OA
ATOM     30  H   UNL     1       7.029   6.820  29.258  1.00  0.00     0.211 HD
ENDBRANCH  21  29
ENDBRANCH   1  16
TORSDOF 10
ENDMDL
MODEL 9
REMARK VINA RESULT:    -6.080      1.966      3.883
REMARK INTER + INTRA:         -10.404
REMARK INTER:                  -8.557
REMARK INTRA:                  -1.847
REMARK UNBOUND:                -1.836
REMARK SMILES OCC1=C[C@@H](O)[C@H]2C=CO[C@@H](O[C@@H]3O[C@H](CO)[C@@H](O)[C@H](O)[C@@H]3O)[C@@H]12
REMARK SMILES IDX 12 1 11 2 8 3 9 4 7 5 10 6 24 7 5 8 3 9 4 10 6 11 2 13 1 14
REMARK SMILES IDX 13 16 22 17 14 18 20 19 15 20 18 21 23 22 21 24 16 26 17 27
REMARK SMILES IDX 19 29
REMARK H PARENT 6 12 1 15 23 23 21 25 17 28 19 30
REMARK Flexibility Score: inf
ROOT
ATOM      1  O   UNL     1       3.456  -4.677  22.529  1.00  0.00    -0.310 OA
ENDROOT
BRANCH   1   2
ATOM      2  C   UNL     1       2.840  -5.571  23.445  1.00  0.00     0.316 C 
ATOM      3  C   UNL     1       2.014  -6.656  25.922  1.00  0.00     0.018 C 
ATOM      4  C   UNL     1       1.603  -5.442  25.551  1.00  0.00     0.186 C 
ATOM      5  C   UNL     1       3.193  -7.357  25.259  1.00  0.00     0.061 C 
ATOM      6  O   UNL     1       2.158  -4.815  24.436  1.00  0.00    -0.472 OA
ATOM      7  C   UNL     1       3.854  -6.523  24.125  1.00  0.00     0.096 C 
ATOM      8  C   UNL     1       4.347  -7.575  26.264  1.00  0.00     0.145 C 
ATOM      9  C   UNL     1       5.008  -5.858  24.823  1.00  0.00    -0.036 C 
ATOM     10  C   UNL     1       5.261  -6.434  25.997  1.00  0.00     0.007 C 
BRANCH   8  11
ATOM     11  O   UNL     1       3.935  -7.563  27.606  1.00  0.00    -0.388 OA
ATOM     12  H   UNL     1       3.217  -8.242  27.683  1.00  0.00     0.211 HD
ENDBRANCH   8  11
BRANCH   9  13
ATOM     13  C   UNL     1       5.877  -4.790  24.204  1.00  0.00     0.187 C 
BRANCH  13  14
ATOM     14  O   UNL     1       5.379  -3.500  24.447  1.00  0.00    -0.392 OA
ATOM     15  H   UNL     1       5.917  -2.879  23.890  1.00  0.00     0.211 HD
ENDBRANCH  13  14
ENDBRANCH   9  13
ENDBRANCH   1   2
BRANCH   1  16
ATOM     16  C   UNL     1       2.517  -3.844  21.860  1.00  0.00     0.286 C 
ATOM     17  C   UNL     1       2.882  -2.343  21.961  1.00  0.00     0.202 C 
ATOM     18  O   UNL     1       2.364  -4.265  20.507  1.00  0.00    -0.341 OA
ATOM     19  C   UNL     1       4.136  -2.017  21.139  1.00  0.00     0.179 C 
ATOM     20  C   UNL     1       3.476  -3.988  19.658  1.00  0.00     0.178 C 
ATOM     21  C   UNL     1       3.940  -2.510  19.700  1.00  0.00     0.177 C 
BRANCH  17  22
ATOM     22  O   UNL     1       3.062  -1.962  23.300  1.00  0.00    -0.385 OA
ATOM     23  H   UNL     1       2.882  -2.767  23.856  1.00  0.00     0.211 HD
ENDBRANCH  17  22
BRANCH  19  24
ATOM     24  O   UNL     1       5.278  -2.611  21.703  1.00  0.00    -0.387 OA
ATOM     25  H   UNL     1       6.058  -2.301  21.173  1.00  0.00     0.211 HD
ENDBRANCH  19  24
BRANCH  20  26
ATOM     26  C   UNL     1       4.614  -5.019  19.813  1.00  0.00     0.191 C 
BRANCH  26  27
ATOM     27  O   UNL     1       4.092  -6.318  19.915  1.00  0.00    -0.394 OA
ATOM     28  H   UNL     1       3.320  -6.372  19.294  1.00  0.00     0.210 HD
ENDBRANCH  26  27
ENDBRANCH  20  26
BRANCH  21  29
ATOM     29  O   UNL     1       2.974  -1.716  19.058  1.00  0.00    -0.387 OA
ATOM     30  H   UNL     1       2.212  -1.616  19.688  1.00  0.00     0.211 HD
ENDBRANCH  21  29
ENDBRANCH   1  16
TORSDOF 10
ENDMDL
