MODEL 1
REMARK VINA RESULT:    -6.177      0.000      0.000
REMARK INTER + INTRA:          -7.162
REMARK INTER:                  -7.080
REMARK INTRA:                  -0.082
REMARK UNBOUND:                -0.082
REMARK SMILES COc1cc(C(=O)[O-])ccc1O
REMARK SMILES IDX 5 1 9 2 4 3 10 4 3 5 11 6 6 7 7 8 8 9 2 10 1 11 12 12
REMARK H PARENT 12 13
REMARK Flexibility Score: inf
ROOT
ATOM      1  C   UNL     1     -29.950 -12.601 -38.373  1.00  0.00     0.001 A 
ATOM      2  C   UNL     1     -28.673 -12.900 -38.878  1.00  0.00     0.014 A 
ATOM      3  C   UNL     1     -30.065 -12.057 -37.082  1.00  0.00     0.060 A 
ATOM      4  C   UNL     1     -27.534 -12.659 -38.107  1.00  0.00     0.051 A 
ATOM      5  C   UNL     1     -28.918 -11.813 -36.300  1.00  0.00     0.161 A 
ATOM      6  C   UNL     1     -27.654 -12.118 -36.822  1.00  0.00     0.157 A 
ENDROOT
BRANCH   1   7
ATOM      7  C   UNL     1     -31.159 -12.854 -39.189  1.00  0.00     0.072 C 
ATOM      8  O   UNL     1     -32.187 -12.137 -39.053  1.00  0.00    -0.545 OA
ATOM      9  O   UNL     1     -31.178 -13.887 -40.120  1.00  0.00    -0.545 OA
ENDBRANCH   1   7
BRANCH   5  10
ATOM     10  O   UNL     1     -28.994 -11.272 -35.007  1.00  0.00    -0.493 OA
ATOM     11  C   UNL     1     -30.047 -10.431 -34.546  1.00  0.00     0.278 C 
ENDBRANCH   5  10
BRANCH   6  12
ATOM     12  O   UNL     1     -26.515 -11.879 -36.052  1.00  0.00    -0.504 OA
ATOM     13  H   UNL     1     -25.941 -12.638 -35.704  1.00  0.00     0.293 HD
ENDBRANCH   6  12
TORSDOF 3
ENDMDL
MODEL 2
REMARK VINA RESULT:    -5.977      6.574      9.154
REMARK INTER + INTRA:          -6.933
REMARK INTER:                  -6.851
REMARK INTRA:                  -0.082
REMARK UNBOUND:                -0.082
REMARK SMILES COc1cc(C(=O)[O-])ccc1O
REMARK SMILES IDX 5 1 9 2 4 3 10 4 3 5 11 6 6 7 7 8 8 9 2 10 1 11 12 12
REMARK H PARENT 12 13
REMARK Flexibility Score: inf
ROOT
ATOM      1  C   UNL     1     -20.412 -11.406 -35.962  1.00  0.00     0.001 A 
ATOM      2  C   UNL     1     -21.257 -11.457 -37.084  1.00  0.00     0.014 A 
ATOM      3  C   UNL     1     -20.981 -11.396 -34.677  1.00  0.00     0.060 A 
ATOM      4  C   UNL     1     -22.643 -11.498 -36.923  1.00  0.00     0.051 A 
ATOM      5  C   UNL     1     -22.380 -11.437 -34.510  1.00  0.00     0.161 A 
ATOM      6  C   UNL     1     -23.206 -11.488 -35.642  1.00  0.00     0.157 A 
ENDROOT
BRANCH   1   7
ATOM      7  C   UNL     1     -18.942 -11.363 -36.130  1.00  0.00     0.072 C 
ATOM      8  O   UNL     1     -18.179 -11.751 -35.205  1.00  0.00    -0.545 OA
ATOM      9  O   UNL     1     -18.380 -10.894 -37.313  1.00  0.00    -0.545 OA
ENDBRANCH   1   7
BRANCH   5  10
ATOM     10  O   UNL     1     -22.984 -11.430 -33.243  1.00  0.00    -0.493 OA
ATOM     11  C   UNL     1     -22.321 -11.778 -32.032  1.00  0.00     0.278 C 
ENDBRANCH   5  10
BRANCH   6  12
ATOM     12  O   UNL     1     -24.591 -11.528 -35.484  1.00  0.00    -0.504 OA
ATOM     13  H   UNL     1     -25.131 -12.345 -35.742  1.00  0.00     0.293 HD
ENDBRANCH   6  12
TORSDOF 3
ENDMDL
MODEL 3
REMARK VINA RESULT:    -5.860      1.555      4.105
REMARK INTER + INTRA:          -6.799
REMARK INTER:                  -6.720
REMARK INTRA:                  -0.079
REMARK UNBOUND:                -0.082
REMARK SMILES COc1cc(C(=O)[O-])ccc1O
REMARK SMILES IDX 5 1 9 2 4 3 10 4 3 5 11 6 6 7 7 8 8 9 2 10 1 11 12 12
REMARK H PARENT 12 13
REMARK Flexibility Score: inf
ROOT
ATOM      1  C   UNL     1     -29.466 -11.952 -36.274  1.00  0.00     0.001 A 
ATOM      2  C   UNL     1     -28.116 -12.339 -36.349  1.00  0.00     0.014 A 
ATOM      3  C   UNL     1     -30.287 -12.110 -37.404  1.00  0.00     0.060 A 
ATOM      4  C   UNL     1     -27.600 -12.872 -37.532  1.00  0.00     0.051 A 
ATOM      5  C   UNL     1     -29.769 -12.648 -38.599  1.00  0.00     0.161 A 
ATOM      6  C   UNL     1     -28.421 -13.028 -38.654  1.00  0.00     0.157 A 
ENDROOT
BRANCH   1   7
ATOM      7  C   UNL     1     -30.016 -11.387 -35.021  1.00  0.00     0.072 C 
ATOM      8  O   UNL     1     -30.008 -10.143 -34.821  1.00  0.00    -0.545 OA
ATOM      9  O   UNL     1     -30.553 -12.221 -34.047  1.00  0.00    -0.545 OA
ENDBRANCH   1   7
BRANCH   5  10
ATOM     10  O   UNL     1     -30.558 -12.821 -39.747  1.00  0.00    -0.493 OA
ATOM     11  C   UNL     1     -31.338 -13.981 -40.022  1.00  0.00     0.278 C 
ENDBRANCH   5  10
BRANCH   6  12
ATOM     12  O   UNL     1     -27.902 -13.560 -39.835  1.00  0.00    -0.504 OA
ATOM     13  H   UNL     1     -26.944 -13.392 -40.116  1.00  0.00     0.293 HD
ENDBRANCH   6  12
TORSDOF 3
ENDMDL
MODEL 4
REMARK VINA RESULT:    -5.752      7.373      9.345
REMARK INTER + INTRA:          -6.675
REMARK INTER:                  -6.604
REMARK INTRA:                  -0.071
REMARK UNBOUND:                -0.082
REMARK SMILES COc1cc(C(=O)[O-])ccc1O
REMARK SMILES IDX 5 1 9 2 4 3 10 4 3 5 11 6 6 7 7 8 8 9 2 10 1 11 12 12
REMARK H PARENT 12 13
REMARK Flexibility Score: inf
ROOT
ATOM      1  C   UNL     1     -22.007 -11.264 -34.223  1.00  0.00     0.001 A 
ATOM      2  C   UNL     1     -23.122 -11.306 -35.077  1.00  0.00     0.014 A 
ATOM      3  C   UNL     1     -20.723 -11.454 -34.765  1.00  0.00     0.060 A 
ATOM      4  C   UNL     1     -22.957 -11.531 -36.445  1.00  0.00     0.051 A 
ATOM      5  C   UNL     1     -20.552 -11.682 -36.145  1.00  0.00     0.161 A 
ATOM      6  C   UNL     1     -21.677 -11.719 -36.980  1.00  0.00     0.157 A 
ENDROOT
BRANCH   1   7
ATOM      7  C   UNL     1     -22.179 -11.025 -32.773  1.00  0.00     0.072 C 
ATOM      8  O   UNL     1     -22.101  -9.858 -32.302  1.00  0.00    -0.545 OA
ATOM      9  O   UNL     1     -22.432 -12.084 -31.908  1.00  0.00    -0.545 OA
ENDBRANCH   1   7
BRANCH   5  10
ATOM     10  O   UNL     1     -19.286 -11.874 -36.721  1.00  0.00    -0.493 OA
ATOM     11  C   UNL     1     -18.462 -10.827 -37.224  1.00  0.00     0.278 C 
ENDBRANCH   5  10
BRANCH   6  12
ATOM     12  O   UNL     1     -21.514 -11.945 -38.347  1.00  0.00    -0.504 OA
ATOM     13  H   UNL     1     -22.290 -11.870 -38.993  1.00  0.00     0.293 HD
ENDBRANCH   6  12
TORSDOF 3
ENDMDL
MODEL 5
REMARK VINA RESULT:    -5.587     10.605     12.710
REMARK INTER + INTRA:          -6.485
REMARK INTER:                  -6.414
REMARK INTRA:                  -0.071
REMARK UNBOUND:                -0.082
REMARK SMILES COc1cc(C(=O)[O-])ccc1O
REMARK SMILES IDX 5 1 9 2 4 3 10 4 3 5 11 6 6 7 7 8 8 9 2 10 1 11 12 12
REMARK H PARENT 12 13
REMARK Flexibility Score: inf
ROOT
ATOM      1  C   UNL     1     -23.986  -9.159 -27.971  1.00  0.00     0.001 A 
ATOM      2  C   UNL     1     -25.299  -9.549 -27.655  1.00  0.00     0.014 A 
ATOM      3  C   UNL     1     -23.192  -8.561 -26.977  1.00  0.00     0.060 A 
ATOM      4  C   UNL     1     -25.807  -9.345 -26.370  1.00  0.00     0.051 A 
ATOM      5  C   UNL     1     -23.701  -8.353 -25.679  1.00  0.00     0.161 A 
ATOM      6  C   UNL     1     -25.012  -8.750 -25.383  1.00  0.00     0.157 A 
ENDROOT
BRANCH   1   7
ATOM      7  C   UNL     1     -23.445  -9.375 -29.332  1.00  0.00     0.072 C 
ATOM      8  O   UNL     1     -23.591  -8.499 -30.226  1.00  0.00    -0.545 OA
ATOM      9  O   UNL     1     -22.766 -10.547 -29.643  1.00  0.00    -0.545 OA
ENDBRANCH   1   7
BRANCH   5  10
ATOM     10  O   UNL     1     -22.938  -7.760 -24.661  1.00  0.00    -0.493 OA
ATOM     11  C   UNL     1     -22.099  -8.477 -23.761  1.00  0.00     0.278 C 
ENDBRANCH   5  10
BRANCH   6  12
ATOM     12  O   UNL     1     -25.522  -8.546 -24.101  1.00  0.00    -0.504 OA
ATOM     13  H   UNL     1     -25.076  -7.914 -23.447  1.00  0.00     0.293 HD
ENDBRANCH   6  12
TORSDOF 3
ENDMDL
MODEL 6
REMARK VINA RESULT:    -5.497      7.142      9.447
REMARK INTER + INTRA:          -6.382
REMARK INTER:                  -6.458
REMARK INTRA:                   0.076
REMARK UNBOUND:                -0.082
REMARK SMILES COc1cc(C(=O)[O-])ccc1O
REMARK SMILES IDX 5 1 9 2 4 3 10 4 3 5 11 6 6 7 7 8 8 9 2 10 1 11 12 12
REMARK H PARENT 12 13
REMARK Flexibility Score: inf
ROOT
ATOM      1  C   UNL     1     -21.708 -11.574 -36.041  1.00  0.00     0.001 A 
ATOM      2  C   UNL     1     -22.022 -11.640 -37.409  1.00  0.00     0.014 A 
ATOM      3  C   UNL     1     -20.372 -11.370 -35.654  1.00  0.00     0.060 A 
ATOM      4  C   UNL     1     -21.019 -11.504 -38.371  1.00  0.00     0.051 A 
ATOM      5  C   UNL     1     -19.356 -11.233 -36.622  1.00  0.00     0.161 A 
ATOM      6  C   UNL     1     -19.690 -11.301 -37.982  1.00  0.00     0.157 A 
ENDROOT
BRANCH   1   7
ATOM      7  C   UNL     1     -22.769 -11.718 -35.018  1.00  0.00     0.072 C 
ATOM      8  O   UNL     1     -23.984 -11.725 -35.352  1.00  0.00    -0.545 OA
ATOM      9  O   UNL     1     -22.440 -11.848 -33.674  1.00  0.00    -0.545 OA
ENDBRANCH   1   7
BRANCH   5  10
ATOM     10  O   UNL     1     -18.013 -11.027 -36.275  1.00  0.00    -0.493 OA
ATOM     11  C   UNL     1     -17.313  -9.800 -36.452  1.00  0.00     0.278 C 
ENDBRANCH   5  10
BRANCH   6  12
ATOM     12  O   UNL     1     -18.690 -11.166 -38.945  1.00  0.00    -0.504 OA
ATOM     13  H   UNL     1     -18.283 -11.972 -39.404  1.00  0.00     0.293 HD
ENDBRANCH   6  12
TORSDOF 3
ENDMDL
MODEL 7
REMARK VINA RESULT:    -5.483      6.943      9.618
REMARK INTER + INTRA:          -6.367
REMARK INTER:                  -6.277
REMARK INTRA:                  -0.090
REMARK UNBOUND:                -0.082
REMARK SMILES COc1cc(C(=O)[O-])ccc1O
REMARK SMILES IDX 5 1 9 2 4 3 10 4 3 5 11 6 6 7 7 8 8 9 2 10 1 11 12 12
REMARK H PARENT 12 13
REMARK Flexibility Score: inf
ROOT
ATOM      1  C   UNL     1     -31.200 -11.223 -29.565  1.00  0.00     0.001 A 
ATOM      2  C   UNL     1     -30.196 -10.641 -28.772  1.00  0.00     0.014 A 
ATOM      3  C   UNL     1     -32.476 -11.427 -29.011  1.00  0.00     0.060 A 
ATOM      4  C   UNL     1     -30.463 -10.270 -27.453  1.00  0.00     0.051 A 
ATOM      5  C   UNL     1     -32.750 -11.054 -27.679  1.00  0.00     0.161 A 
ATOM      6  C   UNL     1     -31.734 -10.475 -26.906  1.00  0.00     0.157 A 
ENDROOT
BRANCH   1   7
ATOM      7  C   UNL     1     -30.920 -11.616 -30.964  1.00  0.00     0.072 C 
ATOM      8  O   UNL     1     -31.127 -10.810 -31.911  1.00  0.00    -0.545 OA
ATOM      9  O   UNL     1     -30.422 -12.882 -31.254  1.00  0.00    -0.545 OA
ENDBRANCH   1   7
BRANCH   5  10
ATOM     10  O   UNL     1     -34.011 -11.242 -27.093  1.00  0.00    -0.493 OA
ATOM     11  C   UNL     1     -35.104 -10.339 -27.227  1.00  0.00     0.278 C 
ENDBRANCH   5  10
BRANCH   6  12
ATOM     12  O   UNL     1     -31.999 -10.105 -25.587  1.00  0.00    -0.504 OA
ATOM     13  H   UNL     1     -32.681 -10.598 -25.024  1.00  0.00     0.293 HD
ENDBRANCH   6  12
TORSDOF 3
ENDMDL
MODEL 8
REMARK VINA RESULT:    -5.475      1.180      4.535
REMARK INTER + INTRA:          -6.357
REMARK INTER:                  -6.430
REMARK INTRA:                   0.072
REMARK UNBOUND:                -0.082
REMARK SMILES COc1cc(C(=O)[O-])ccc1O
REMARK SMILES IDX 5 1 9 2 4 3 10 4 3 5 11 6 6 7 7 8 8 9 2 10 1 11 12 12
REMARK H PARENT 12 13
REMARK Flexibility Score: inf
ROOT
ATOM      1  C   UNL     1     -28.685 -12.411 -37.697  1.00  0.00     0.001 A 
ATOM      2  C   UNL     1     -27.756 -12.832 -38.664  1.00  0.00     0.014 A 
ATOM      3  C   UNL     1     -30.059 -12.534 -37.969  1.00  0.00     0.060 A 
ATOM      4  C   UNL     1     -28.193 -13.365 -39.878  1.00  0.00     0.051 A 
ATOM      5  C   UNL     1     -30.505 -13.071 -39.193  1.00  0.00     0.161 A 
ATOM      6  C   UNL     1     -29.562 -13.485 -40.145  1.00  0.00     0.157 A 
ENDROOT
BRANCH   1   7
ATOM      7  C   UNL     1     -28.224 -11.846 -36.408  1.00  0.00     0.072 C 
ATOM      8  O   UNL     1     -26.998 -11.821 -36.121  1.00  0.00    -0.545 OA
ATOM      9  O   UNL     1     -29.140 -11.334 -35.496  1.00  0.00    -0.545 OA
ENDBRANCH   1   7
BRANCH   5  10
ATOM     10  O   UNL     1     -31.867 -13.209 -39.499  1.00  0.00    -0.493 OA
ATOM     11  C   UNL     1     -32.559 -14.453 -39.556  1.00  0.00     0.278 C 
ENDBRANCH   5  10
BRANCH   6  12
ATOM     12  O   UNL     1     -29.997 -14.017 -41.359  1.00  0.00    -0.504 OA
ATOM     13  H   UNL     1     -30.982 -14.119 -41.571  1.00  0.00     0.293 HD
ENDBRANCH   6  12
TORSDOF 3
ENDMDL
MODEL 9
REMARK VINA RESULT:    -5.393     11.258     14.386
REMARK INTER + INTRA:          -6.264
REMARK INTER:                  -6.212
REMARK INTRA:                  -0.052
REMARK UNBOUND:                -0.082
REMARK SMILES COc1cc(C(=O)[O-])ccc1O
REMARK SMILES IDX 5 1 9 2 4 3 10 4 3 5 11 6 6 7 7 8 8 9 2 10 1 11 12 12
REMARK H PARENT 12 13
REMARK Flexibility Score: inf
ROOT
ATOM      1  C   UNL     1     -23.472  -8.726 -24.475  1.00  0.00     0.001 A 
ATOM      2  C   UNL     1     -24.798  -9.093 -24.187  1.00  0.00     0.014 A 
ATOM      3  C   UNL     1     -23.082  -8.568 -25.817  1.00  0.00     0.060 A 
ATOM      4  C   UNL     1     -25.715  -9.297 -25.220  1.00  0.00     0.051 A 
ATOM      5  C   UNL     1     -24.004  -8.774 -26.863  1.00  0.00     0.161 A 
ATOM      6  C   UNL     1     -25.322  -9.139 -26.555  1.00  0.00     0.157 A 
ENDROOT
BRANCH   1   7
ATOM      7  C   UNL     1     -22.498  -8.508 -23.382  1.00  0.00     0.072 C 
ATOM      8  O   UNL     1     -21.288  -8.827 -23.528  1.00  0.00    -0.545 OA
ATOM      9  O   UNL     1     -22.905  -7.945 -22.177  1.00  0.00    -0.545 OA
ENDBRANCH   1   7
BRANCH   5  10
ATOM     10  O   UNL     1     -23.652  -8.625 -28.213  1.00  0.00    -0.493 OA
ATOM     11  C   UNL     1     -23.224  -9.689 -29.057  1.00  0.00     0.278 C 
ENDBRANCH   5  10
BRANCH   6  12
ATOM     12  O   UNL     1     -26.239  -9.345 -27.585  1.00  0.00    -0.504 OA
ATOM     13  H   UNL     1     -26.348  -8.678 -28.339  1.00  0.00     0.293 HD
ENDBRANCH   6  12
TORSDOF 3
ENDMDL
