MODEL 1
REMARK VINA RESULT:    -4.551      0.000      0.000
REMARK INTER + INTRA:          -5.675
REMARK INTER:                  -5.482
REMARK INTRA:                  -0.193
REMARK UNBOUND:                -0.193
REMARK SMILES CCCCc1oc(O)c2ccccc12
REMARK SMILES IDX 4 1 5 2 7 3 6 4 9 5 14 6 10 7 13 8 11 9 12 10 8 11 3 13 2 14
REMARK SMILES IDX 1 15
REMARK H PARENT 8 12
REMARK Flexibility Score: inf
ROOT
ATOM      1  C   UNL     1      15.947  81.322  26.315  1.00  0.00     0.076 C 
ENDROOT
BRANCH   1   2
ATOM      2  C   UNL     1      16.354  79.900  26.062  1.00  0.00     0.116 A 
ATOM      3  C   UNL     1      17.539  78.112  26.116  1.00  0.00     0.290 A 
ATOM      4  O   UNL     1      17.461  79.359  26.538  1.00  0.00    -0.430 OA
ATOM      5  C   UNL     1      16.445  77.819  25.330  1.00  0.00     0.066 A 
ATOM      6  C   UNL     1      15.686  78.960  25.294  1.00  0.00     0.027 A 
ATOM      7  C   UNL     1      16.068  76.660  24.653  1.00  0.00     0.016 A 
ATOM      8  C   UNL     1      14.492  79.021  24.573  1.00  0.00     0.012 A 
ATOM      9  C   UNL     1      14.869  76.693  23.918  1.00  0.00     0.001 A 
ATOM     10  C   UNL     1      14.085  77.867  23.878  1.00  0.00     0.001 A 
BRANCH   3  11
ATOM     11  O   UNL     1      18.584  77.250  26.434  1.00  0.00    -0.480 OA
ATOM     12  H   UNL     1      19.544  77.571  26.451  1.00  0.00     0.297 HD
ENDBRANCH   3  11
ENDBRANCH   1   2
BRANCH   1  13
ATOM     13  C   UNL     1      16.399  81.802  27.702  1.00  0.00     0.008 C 
BRANCH  13  14
ATOM     14  C   UNL     1      16.550  83.330  27.814  1.00  0.00    -0.003 C 
ATOM     15  C   UNL     1      15.786  84.078  26.722  1.00  0.00     0.004 C 
ENDBRANCH  13  14
ENDBRANCH   1  13
TORSDOF 4
ENDMDL
MODEL 2
REMARK VINA RESULT:    -4.539      1.424      4.695
REMARK INTER + INTRA:          -5.661
REMARK INTER:                  -5.492
REMARK INTRA:                  -0.169
REMARK UNBOUND:                -0.193
REMARK SMILES CCCCc1oc(O)c2ccccc12
REMARK SMILES IDX 4 1 5 2 7 3 6 4 9 5 14 6 10 7 13 8 11 9 12 10 8 11 3 13 2 14
REMARK SMILES IDX 1 15
REMARK H PARENT 8 12
REMARK Flexibility Score: inf
ROOT
ATOM      1  C   UNL     1      15.002  77.000  23.768  1.00  0.00     0.076 C 
ENDROOT
BRANCH   1   2
ATOM      2  C   UNL     1      15.896  77.685  24.760  1.00  0.00     0.116 A 
ATOM      3  C   UNL     1      17.501  77.965  26.157  1.00  0.00     0.290 A 
ATOM      4  O   UNL     1      16.948  77.111  25.317  1.00  0.00    -0.430 OA
ATOM      5  C   UNL     1      16.787  79.145  26.156  1.00  0.00     0.066 A 
ATOM      6  C   UNL     1      15.761  78.968  25.264  1.00  0.00     0.027 A 
ATOM      7  C   UNL     1      16.956  80.335  26.862  1.00  0.00     0.016 A 
ATOM      8  C   UNL     1      14.827  79.975  25.017  1.00  0.00     0.012 A 
ATOM      9  C   UNL     1      16.028  81.368  26.633  1.00  0.00     0.001 A 
ATOM     10  C   UNL     1      14.969  81.189  25.714  1.00  0.00     0.001 A 
BRANCH   3  11
ATOM     11  O   UNL     1      18.633  77.684  26.914  1.00  0.00    -0.480 OA
ATOM     12  H   UNL     1      19.562  77.744  26.515  1.00  0.00     0.297 HD
ENDBRANCH   3  11
ENDBRANCH   1   2
BRANCH   1  13
ATOM     13  C   UNL     1      13.885  76.208  24.465  1.00  0.00     0.008 C 
BRANCH  13  14
ATOM     14  C   UNL     1      14.016  76.167  25.998  1.00  0.00    -0.003 C 
ATOM     15  C   UNL     1      13.875  74.754  26.563  1.00  0.00     0.004 C 
ENDBRANCH  13  14
ENDBRANCH   1  13
TORSDOF 4
ENDMDL
MODEL 3
REMARK VINA RESULT:    -4.355      6.764      9.727
REMARK INTER + INTRA:          -5.439
REMARK INTER:                  -5.255
REMARK INTRA:                  -0.184
REMARK UNBOUND:                -0.193
REMARK SMILES CCCCc1oc(O)c2ccccc12
REMARK SMILES IDX 4 1 5 2 7 3 6 4 9 5 14 6 10 7 13 8 11 9 12 10 8 11 3 13 2 14
REMARK SMILES IDX 1 15
REMARK H PARENT 8 12
REMARK Flexibility Score: inf
ROOT
ATOM      1  C   UNL     1      16.067  85.615  23.699  1.00  0.00     0.076 C 
ENDROOT
BRANCH   1   2
ATOM      2  C   UNL     1      16.300  86.925  23.004  1.00  0.00     0.116 A 
ATOM      3  C   UNL     1      15.924  88.915  22.295  1.00  0.00     0.290 A 
ATOM      4  O   UNL     1      15.435  87.924  23.014  1.00  0.00    -0.430 OA
ATOM      5  C   UNL     1      17.156  88.558  21.789  1.00  0.00     0.066 A 
ATOM      6  C   UNL     1      17.398  87.287  22.241  1.00  0.00     0.027 A 
ATOM      7  C   UNL     1      18.063  89.238  20.978  1.00  0.00     0.016 A 
ATOM      8  C   UNL     1      18.570  86.604  21.911  1.00  0.00     0.012 A 
ATOM      9  C   UNL     1      19.253  88.574  20.628  1.00  0.00     0.001 A 
ATOM     10  C   UNL     1      19.506  87.264  21.092  1.00  0.00     0.001 A 
BRANCH   3  11
ATOM     11  O   UNL     1      15.268  90.125  22.095  1.00  0.00    -0.480 OA
ATOM     12  H   UNL     1      15.705  91.007  22.335  1.00  0.00     0.297 HD
ENDBRANCH   3  11
ENDBRANCH   1   2
BRANCH   1  13
ATOM     13  C   UNL     1      14.676  85.560  24.350  1.00  0.00     0.008 C 
BRANCH  13  14
ATOM     14  C   UNL     1      13.877  84.292  24.001  1.00  0.00    -0.003 C 
ATOM     15  C   UNL     1      13.955  83.227  25.094  1.00  0.00     0.004 C 
ENDBRANCH  13  14
ENDBRANCH   1  13
TORSDOF 4
ENDMDL
MODEL 4
REMARK VINA RESULT:    -4.266      7.101      9.371
REMARK INTER + INTRA:          -5.332
REMARK INTER:                  -4.917
REMARK INTRA:                  -0.415
REMARK UNBOUND:                -0.193
REMARK SMILES CCCCc1oc(O)c2ccccc12
REMARK SMILES IDX 4 1 5 2 7 3 6 4 9 5 14 6 10 7 13 8 11 9 12 10 8 11 3 13 2 14
REMARK SMILES IDX 1 15
REMARK H PARENT 8 12
REMARK Flexibility Score: inf
ROOT
ATOM      1  C   UNL     1      17.644  86.836  21.001  1.00  0.00     0.076 C 
ENDROOT
BRANCH   1   2
ATOM      2  C   UNL     1      16.840  86.723  22.264  1.00  0.00     0.116 A 
ATOM      3  C   UNL     1      16.091  85.899  24.098  1.00  0.00     0.290 A 
ATOM      4  O   UNL     1      16.945  85.714  23.111  1.00  0.00    -0.430 OA
ATOM      5  C   UNL     1      15.394  87.072  23.895  1.00  0.00     0.066 A 
ATOM      6  C   UNL     1      15.872  87.600  22.724  1.00  0.00     0.027 A 
ATOM      7  C   UNL     1      14.393  87.700  24.634  1.00  0.00     0.016 A 
ATOM      8  C   UNL     1      15.377  88.798  22.207  1.00  0.00     0.012 A 
ATOM      9  C   UNL     1      13.875  88.910  24.137  1.00  0.00     0.001 A 
ATOM     10  C   UNL     1      14.365  89.457  22.930  1.00  0.00     0.001 A 
BRANCH   3  11
ATOM     11  O   UNL     1      15.939  85.022  25.167  1.00  0.00    -0.480 OA
ATOM     12  H   UNL     1      16.338  85.225  26.075  1.00  0.00     0.297 HD
ENDBRANCH   3  11
ENDBRANCH   1   2
BRANCH   1  13
ATOM     13  C   UNL     1      19.125  87.116  21.297  1.00  0.00     0.008 C 
BRANCH  13  14
ATOM     14  C   UNL     1      19.648  88.422  20.672  1.00  0.00    -0.003 C 
ATOM     15  C   UNL     1      18.705  89.603  20.899  1.00  0.00     0.004 C 
ENDBRANCH  13  14
ENDBRANCH   1  13
TORSDOF 4
ENDMDL
MODEL 5
REMARK VINA RESULT:    -4.223      7.365      9.618
REMARK INTER + INTRA:          -5.281
REMARK INTER:                  -4.974
REMARK INTRA:                  -0.307
REMARK UNBOUND:                -0.193
REMARK SMILES CCCCc1oc(O)c2ccccc12
REMARK SMILES IDX 4 1 5 2 7 3 6 4 9 5 14 6 10 7 13 8 11 9 12 10 8 11 3 13 2 14
REMARK SMILES IDX 1 15
REMARK H PARENT 8 12
REMARK Flexibility Score: inf
ROOT
ATOM      1  C   UNL     1      15.866  85.608  23.760  1.00  0.00     0.076 C 
ENDROOT
BRANCH   1   2
ATOM      2  C   UNL     1      16.139  86.907  23.059  1.00  0.00     0.116 A 
ATOM      3  C   UNL     1      15.819  88.901  22.332  1.00  0.00     0.290 A 
ATOM      4  O   UNL     1      15.298  87.927  23.053  1.00  0.00    -0.430 OA
ATOM      5  C   UNL     1      17.047  88.510  21.842  1.00  0.00     0.066 A 
ATOM      6  C   UNL     1      17.253  87.236  22.305  1.00  0.00     0.027 A 
ATOM      7  C   UNL     1      17.979  89.162  21.036  1.00  0.00     0.016 A 
ATOM      8  C   UNL     1      18.412  86.523  21.991  1.00  0.00     0.012 A 
ATOM      9  C   UNL     1      19.155  88.467  20.702  1.00  0.00     0.001 A 
ATOM     10  C   UNL     1      19.371  87.154  21.178  1.00  0.00     0.001 A 
BRANCH   3  11
ATOM     11  O   UNL     1      15.195  90.125  22.118  1.00  0.00    -0.480 OA
ATOM     12  H   UNL     1      15.685  90.897  21.683  1.00  0.00     0.297 HD
ENDBRANCH   3  11
ENDBRANCH   1   2
BRANCH   1  13
ATOM     13  C   UNL     1      14.962  85.806  24.986  1.00  0.00     0.008 C 
BRANCH  13  14
ATOM     14  C   UNL     1      15.730  85.880  26.318  1.00  0.00    -0.003 C 
ATOM     15  C   UNL     1      16.067  87.314  26.724  1.00  0.00     0.004 C 
ENDBRANCH  13  14
ENDBRANCH   1  13
TORSDOF 4
ENDMDL
MODEL 6
REMARK VINA RESULT:    -4.205      7.475      9.597
REMARK INTER + INTRA:          -5.259
REMARK INTER:                  -4.850
REMARK INTRA:                  -0.410
REMARK UNBOUND:                -0.193
REMARK SMILES CCCCc1oc(O)c2ccccc12
REMARK SMILES IDX 4 1 5 2 7 3 6 4 9 5 14 6 10 7 13 8 11 9 12 10 8 11 3 13 2 14
REMARK SMILES IDX 1 15
REMARK H PARENT 8 12
REMARK Flexibility Score: inf
ROOT
ATOM      1  C   UNL     1      15.828  85.999  23.764  1.00  0.00     0.076 C 
ENDROOT
BRANCH   1   2
ATOM      2  C   UNL     1      16.781  86.653  22.808  1.00  0.00     0.116 A 
ATOM      3  C   UNL     1      18.564  86.977  21.659  1.00  0.00     0.290 A 
ATOM      4  O   UNL     1      17.966  86.156  22.500  1.00  0.00    -0.430 OA
ATOM      5  C   UNL     1      17.746  88.057  21.404  1.00  0.00     0.066 A 
ATOM      6  C   UNL     1      16.606  87.852  22.137  1.00  0.00     0.027 A 
ATOM      7  C   UNL     1      17.916  89.186  20.602  1.00  0.00     0.016 A 
ATOM      8  C   UNL     1      15.551  88.767  22.119  1.00  0.00     0.012 A 
ATOM      9  C   UNL     1      16.869  90.125  20.566  1.00  0.00     0.001 A 
ATOM     10  C   UNL     1      15.692  89.917  21.320  1.00  0.00     0.001 A 
BRANCH   3  11
ATOM     11  O   UNL     1      19.832  86.757  21.130  1.00  0.00    -0.480 OA
ATOM     12  H   UNL     1      19.976  86.120  20.356  1.00  0.00     0.297 HD
ENDBRANCH   3  11
ENDBRANCH   1   2
BRANCH   1  13
ATOM     13  C   UNL     1      15.613  86.853  25.023  1.00  0.00     0.008 C 
BRANCH  13  14
ATOM     14  C   UNL     1      16.895  87.526  25.544  1.00  0.00    -0.003 C 
ATOM     15  C   UNL     1      16.673  88.983  25.950  1.00  0.00     0.004 C 
ENDBRANCH  13  14
ENDBRANCH   1  13
TORSDOF 4
ENDMDL
MODEL 7
REMARK VINA RESULT:    -4.163      7.898      9.680
REMARK INTER + INTRA:          -5.209
REMARK INTER:                  -4.919
REMARK INTRA:                  -0.290
REMARK UNBOUND:                -0.193
REMARK SMILES CCCCc1oc(O)c2ccccc12
REMARK SMILES IDX 4 1 5 2 7 3 6 4 9 5 14 6 10 7 13 8 11 9 12 10 8 11 3 13 2 14
REMARK SMILES IDX 1 15
REMARK H PARENT 8 12
REMARK Flexibility Score: inf
ROOT
ATOM      1  C   UNL     1      15.032  89.658  22.487  1.00  0.00     0.076 C 
ENDROOT
BRANCH   1   2
ATOM      2  C   UNL     1      15.917  88.446  22.509  1.00  0.00     0.116 A 
ATOM      3  C   UNL     1      16.612  86.478  23.007  1.00  0.00     0.290 A 
ATOM      4  O   UNL     1      15.625  87.337  23.166  1.00  0.00    -0.430 OA
ATOM      5  C   UNL     1      17.594  87.040  22.218  1.00  0.00     0.066 A 
ATOM      6  C   UNL     1      17.152  88.297  21.899  1.00  0.00     0.027 A 
ATOM      7  C   UNL     1      18.821  86.552  21.770  1.00  0.00     0.016 A 
ATOM      8  C   UNL     1      17.911  89.160  21.106  1.00  0.00     0.012 A 
ATOM      9  C   UNL     1      19.608  87.400  20.969  1.00  0.00     0.001 A 
ATOM     10  C   UNL     1      19.155  88.697  20.638  1.00  0.00     0.001 A 
BRANCH   3  11
ATOM     11  O   UNL     1      16.629  85.204  23.566  1.00  0.00    -0.480 OA
ATOM     12  H   UNL     1      17.186  84.460  23.164  1.00  0.00     0.297 HD
ENDBRANCH   3  11
ENDBRANCH   1   2
BRANCH   1  13
ATOM     13  C   UNL     1      13.905  89.555  23.526  1.00  0.00     0.008 C 
BRANCH  13  14
ATOM     14  C   UNL     1      14.278  90.125  24.907  1.00  0.00    -0.003 C 
ATOM     15  C   UNL     1      14.473  89.036  25.961  1.00  0.00     0.004 C 
ENDBRANCH  13  14
ENDBRANCH   1  13
TORSDOF 4
ENDMDL
MODEL 8
REMARK VINA RESULT:    -4.018      8.836     10.446
REMARK INTER + INTRA:          -5.034
REMARK INTER:                  -4.663
REMARK INTRA:                  -0.371
REMARK UNBOUND:                -0.193
REMARK SMILES CCCCc1oc(O)c2ccccc12
REMARK SMILES IDX 4 1 5 2 7 3 6 4 9 5 14 6 10 7 13 8 11 9 12 10 8 11 3 13 2 14
REMARK SMILES IDX 1 15
REMARK H PARENT 8 12
REMARK Flexibility Score: inf
ROOT
ATOM      1  C   UNL     1      18.322  86.660  22.427  1.00  0.00     0.076 C 
ENDROOT
BRANCH   1   2
ATOM      2  C   UNL     1      17.139  87.437  22.926  1.00  0.00     0.116 A 
ATOM      3  C   UNL     1      15.172  88.295  22.962  1.00  0.00     0.290 A 
ATOM      4  O   UNL     1      15.992  87.524  22.275  1.00  0.00    -0.430 OA
ATOM      5  C   UNL     1      15.800  88.734  24.109  1.00  0.00     0.066 A 
ATOM      6  C   UNL     1      17.056  88.187  24.088  1.00  0.00     0.027 A 
ATOM      7  C   UNL     1      15.372  89.561  25.147  1.00  0.00     0.016 A 
ATOM      8  C   UNL     1      17.977  88.431  25.108  1.00  0.00     0.012 A 
ATOM      9  C   UNL     1      16.280  89.825  26.188  1.00  0.00     0.001 A 
ATOM     10  C   UNL     1      17.576  89.262  26.170  1.00  0.00     0.001 A 
BRANCH   3  11
ATOM     11  O   UNL     1      13.876  88.600  22.562  1.00  0.00    -0.480 OA
ATOM     12  H   UNL     1      13.697  89.152  21.732  1.00  0.00     0.297 HD
ENDBRANCH   3  11
ENDBRANCH   1   2
BRANCH   1  13
ATOM     13  C   UNL     1      18.691  87.055  20.989  1.00  0.00     0.008 C 
BRANCH  13  14
ATOM     14  C   UNL     1      19.520  88.349  20.893  1.00  0.00    -0.003 C 
ATOM     15  C   UNL     1      18.650  89.593  20.718  1.00  0.00     0.004 C 
ENDBRANCH  13  14
ENDBRANCH   1  13
TORSDOF 4
ENDMDL
MODEL 9
REMARK VINA RESULT:    -3.853      7.768      9.552
REMARK INTER + INTRA:          -4.835
REMARK INTER:                  -4.386
REMARK INTRA:                  -0.449
REMARK UNBOUND:                -0.193
REMARK SMILES CCCCc1oc(O)c2ccccc12
REMARK SMILES IDX 4 1 5 2 7 3 6 4 9 5 14 6 10 7 13 8 11 9 12 10 8 11 3 13 2 14
REMARK SMILES IDX 1 15
REMARK H PARENT 8 12
REMARK Flexibility Score: inf
ROOT
ATOM      1  C   UNL     1      17.289  90.024  22.145  1.00  0.00     0.076 C 
ENDROOT
BRANCH   1   2
ATOM      2  C   UNL     1      17.079  89.073  23.287  1.00  0.00     0.116 A 
ATOM      3  C   UNL     1      17.492  87.968  25.080  1.00  0.00     0.290 A 
ATOM      4  O   UNL     1      17.964  88.877  24.250  1.00  0.00    -0.430 OA
ATOM      5  C   UNL     1      16.252  87.546  24.650  1.00  0.00     0.066 A 
ATOM      6  C   UNL     1      15.986  88.251  23.505  1.00  0.00     0.027 A 
ATOM      7  C   UNL     1      15.356  86.610  25.166  1.00  0.00     0.016 A 
ATOM      8  C   UNL     1      14.800  88.066  22.792  1.00  0.00     0.012 A 
ATOM      9  C   UNL     1      14.153  86.403  24.468  1.00  0.00     0.001 A 
ATOM     10  C   UNL     1      13.876  87.128  23.287  1.00  0.00     0.001 A 
BRANCH   3  11
ATOM     11  O   UNL     1      18.171  87.523  26.210  1.00  0.00    -0.480 OA
ATOM     12  H   UNL     1      18.595  88.174  26.860  1.00  0.00     0.297 HD
ENDBRANCH   3  11
ENDBRANCH   1   2
BRANCH   1  13
ATOM     13  C   UNL     1      17.728  89.288  20.870  1.00  0.00     0.008 C 
BRANCH  13  14
ATOM     14  C   UNL     1      19.128  88.656  20.967  1.00  0.00    -0.003 C 
ATOM     15  C   UNL     1      19.084  87.129  21.002  1.00  0.00     0.004 C 
ENDBRANCH  13  14
ENDBRANCH   1  13
TORSDOF 4
ENDMDL
