MODEL 1
REMARK VINA RESULT:    -4.223      0.000      0.000
REMARK INTER + INTRA:          -5.558
REMARK INTER:                  -5.457
REMARK INTRA:                  -0.101
REMARK UNBOUND:                -0.101
REMARK SMILES CCCCCCC(=O)[O-]
REMARK SMILES IDX 5 1 6 2 7 3 8 4 9 5 4 6 3 7 2 8 1 9
REMARK H PARENT
REMARK Flexibility Score: inf
ROOT
ATOM      1  C   UNL     1      20.547 -11.506  22.931  1.00  0.00     0.006 C 
ENDROOT
BRANCH   1   2
ATOM      2  C   UNL     1      21.857 -11.563  22.135  1.00  0.00     0.053 C 
BRANCH   2   3
ATOM      3  C   UNL     1      21.893 -12.788  21.277  1.00  0.00     0.041 C 
ATOM      4  O   UNL     1      22.939 -13.483  21.210  1.00  0.00    -0.550 OA
ATOM      5  O   UNL     1      20.786 -13.134  20.513  1.00  0.00    -0.550 OA
ENDBRANCH   2   3
ENDBRANCH   1   2
BRANCH   1   6
ATOM      6  C   UNL     1      20.695 -10.748  24.261  1.00  0.00     0.000 C 
BRANCH   6   7
ATOM      7  C   UNL     1      21.082  -9.273  24.059  1.00  0.00    -0.000 C 
BRANCH   7   8
ATOM      8  C   UNL     1      21.029  -8.467  25.367  1.00  0.00    -0.003 C 
ATOM      9  C   UNL     1      19.882  -7.457  25.391  1.00  0.00     0.004 C 
ENDBRANCH   7   8
ENDBRANCH   6   7
ENDBRANCH   1   6
TORSDOF 5
ENDMDL
MODEL 2
REMARK VINA RESULT:    -4.191      1.166      1.807
REMARK INTER + INTRA:          -5.517
REMARK INTER:                  -5.337
REMARK INTRA:                  -0.180
REMARK UNBOUND:                -0.101
REMARK SMILES CCCCCCC(=O)[O-]
REMARK SMILES IDX 5 1 6 2 7 3 8 4 9 5 4 6 3 7 2 8 1 9
REMARK H PARENT
REMARK Flexibility Score: inf
ROOT
ATOM      1  C   UNL     1      22.538 -11.432  21.737  1.00  0.00     0.006 C 
ENDROOT
BRANCH   1   2
ATOM      2  C   UNL     1      21.639 -12.584  21.271  1.00  0.00     0.053 C 
BRANCH   2   3
ATOM      3  C   UNL     1      22.464 -13.785  20.931  1.00  0.00     0.041 C 
ATOM      4  O   UNL     1      23.487 -14.063  21.608  1.00  0.00    -0.550 OA
ATOM      5  O   UNL     1      22.129 -14.571  19.835  1.00  0.00    -0.550 OA
ENDBRANCH   2   3
ENDBRANCH   1   2
BRANCH   1   6
ATOM      6  C   UNL     1      21.802 -10.440  22.652  1.00  0.00     0.000 C 
BRANCH   6   7
ATOM      7  C   UNL     1      20.793 -11.134  23.582  1.00  0.00    -0.000 C 
BRANCH   7   8
ATOM      8  C   UNL     1      20.419 -10.267  24.795  1.00  0.00    -0.003 C 
ATOM      9  C   UNL     1      21.103  -8.900  24.776  1.00  0.00     0.004 C 
ENDBRANCH   7   8
ENDBRANCH   6   7
ENDBRANCH   1   6
TORSDOF 5
ENDMDL
MODEL 3
REMARK VINA RESULT:    -4.190      3.025      6.479
REMARK INTER + INTRA:          -5.516
REMARK INTER:                  -5.440
REMARK INTRA:                  -0.076
REMARK UNBOUND:                -0.101
REMARK SMILES CCCCCCC(=O)[O-]
REMARK SMILES IDX 5 1 6 2 7 3 8 4 9 5 4 6 3 7 2 8 1 9
REMARK H PARENT
REMARK Flexibility Score: inf
ROOT
ATOM      1  C   UNL     1      21.607 -13.241  20.910  1.00  0.00     0.006 C 
ENDROOT
BRANCH   1   2
ATOM      2  C   UNL     1      21.955 -11.984  21.718  1.00  0.00     0.053 C 
BRANCH   2   3
ATOM      3  C   UNL     1      20.815 -11.606  22.611  1.00  0.00     0.041 C 
ATOM      4  O   UNL     1      20.977 -10.744  23.513  1.00  0.00    -0.550 OA
ATOM      5  O   UNL     1      19.587 -12.240  22.477  1.00  0.00    -0.550 OA
ENDBRANCH   2   3
ENDBRANCH   1   2
BRANCH   1   6
ATOM      6  C   UNL     1      22.769 -14.246  20.852  1.00  0.00     0.000 C 
BRANCH   6   7
ATOM      7  C   UNL     1      22.700 -15.155  19.612  1.00  0.00    -0.000 C 
BRANCH   7   8
ATOM      8  C   UNL     1      23.133 -16.599  19.917  1.00  0.00    -0.003 C 
ATOM      9  C   UNL     1      23.258 -17.455  18.656  1.00  0.00     0.004 C 
ENDBRANCH   7   8
ENDBRANCH   6   7
ENDBRANCH   1   6
TORSDOF 5
ENDMDL
MODEL 4
REMARK VINA RESULT:    -4.141      4.386      7.794
REMARK INTER + INTRA:          -5.452
REMARK INTER:                  -5.298
REMARK INTRA:                  -0.154
REMARK UNBOUND:                -0.101
REMARK SMILES CCCCCCC(=O)[O-]
REMARK SMILES IDX 5 1 6 2 7 3 8 4 9 5 4 6 3 7 2 8 1 9
REMARK H PARENT
REMARK Flexibility Score: inf
ROOT
ATOM      1  C   UNL     1      22.690 -15.358  19.714  1.00  0.00     0.006 C 
ENDROOT
BRANCH   1   2
ATOM      2  C   UNL     1      22.781 -14.289  20.811  1.00  0.00     0.053 C 
BRANCH   2   3
ATOM      3  C   UNL     1      21.639 -13.329  20.701  1.00  0.00     0.041 C 
ATOM      4  O   UNL     1      21.520 -12.388  21.528  1.00  0.00    -0.550 OA
ATOM      5  O   UNL     1      20.678 -13.503  19.714  1.00  0.00    -0.550 OA
ENDBRANCH   2   3
ENDBRANCH   1   2
BRANCH   1   6
ATOM      6  C   UNL     1      23.243 -16.718  20.166  1.00  0.00     0.000 C 
BRANCH   6   7
ATOM      7  C   UNL     1      23.142 -17.791  19.068  1.00  0.00    -0.000 C 
BRANCH   7   8
ATOM      8  C   UNL     1      23.187 -17.191  17.654  1.00  0.00    -0.003 C 
ATOM      9  C   UNL     1      22.773 -18.192  16.575  1.00  0.00     0.004 C 
ENDBRANCH   7   8
ENDBRANCH   6   7
ENDBRANCH   1   6
TORSDOF 5
ENDMDL
MODEL 5
REMARK VINA RESULT:    -4.081      1.910      3.099
REMARK INTER + INTRA:          -5.375
REMARK INTER:                  -5.226
REMARK INTRA:                  -0.150
REMARK UNBOUND:                -0.101
REMARK SMILES CCCCCCC(=O)[O-]
REMARK SMILES IDX 5 1 6 2 7 3 8 4 9 5 4 6 3 7 2 8 1 9
REMARK H PARENT
REMARK Flexibility Score: inf
ROOT
ATOM      1  C   UNL     1      22.101 -12.935  21.230  1.00  0.00     0.006 C 
ENDROOT
BRANCH   1   2
ATOM      2  C   UNL     1      23.043 -14.141  21.121  1.00  0.00     0.053 C 
BRANCH   2   3
ATOM      3  C   UNL     1      22.667 -14.992  19.948  1.00  0.00     0.041 C 
ATOM      4  O   UNL     1      21.908 -14.538  19.054  1.00  0.00    -0.550 OA
ATOM      5  O   UNL     1      23.118 -16.303  19.869  1.00  0.00    -0.550 OA
ENDBRANCH   2   3
ENDBRANCH   1   2
BRANCH   1   6
ATOM      6  C   UNL     1      22.767 -11.725  21.904  1.00  0.00     0.000 C 
BRANCH   6   7
ATOM      7  C   UNL     1      21.745 -10.669  22.362  1.00  0.00    -0.000 C 
BRANCH   7   8
ATOM      8  C   UNL     1      20.621 -11.272  23.220  1.00  0.00    -0.003 C 
ATOM      9  C   UNL     1      20.555 -10.661  24.619  1.00  0.00     0.004 C 
ENDBRANCH   7   8
ENDBRANCH   6   7
ENDBRANCH   1   6
TORSDOF 5
ENDMDL
MODEL 6
REMARK VINA RESULT:    -4.069      2.874      5.701
REMARK INTER + INTRA:          -5.359
REMARK INTER:                  -5.251
REMARK INTRA:                  -0.108
REMARK UNBOUND:                -0.101
REMARK SMILES CCCCCCC(=O)[O-]
REMARK SMILES IDX 5 1 6 2 7 3 8 4 9 5 4 6 3 7 2 8 1 9
REMARK H PARENT
REMARK Flexibility Score: inf
ROOT
ATOM      1  C   UNL     1      22.470 -11.280  21.997  1.00  0.00     0.006 C 
ENDROOT
BRANCH   1   2
ATOM      2  C   UNL     1      21.089 -11.437  22.646  1.00  0.00     0.053 C 
BRANCH   2   3
ATOM      3  C   UNL     1      20.941 -10.488  23.794  1.00  0.00     0.041 C 
ATOM      4  O   UNL     1      21.348  -9.301  23.691  1.00  0.00    -0.550 OA
ATOM      5  O   UNL     1      20.398 -10.928  24.994  1.00  0.00    -0.550 OA
ENDBRANCH   2   3
ENDBRANCH   1   2
BRANCH   1   6
ATOM      6  C   UNL     1      23.143 -12.631  21.708  1.00  0.00     0.000 C 
BRANCH   6   7
ATOM      7  C   UNL     1      22.228 -13.591  20.928  1.00  0.00    -0.000 C 
BRANCH   7   8
ATOM      8  C   UNL     1      22.917 -14.927  20.604  1.00  0.00    -0.003 C 
ATOM      9  C   UNL     1      22.765 -15.327  19.136  1.00  0.00     0.004 C 
ENDBRANCH   7   8
ENDBRANCH   6   7
ENDBRANCH   1   6
TORSDOF 5
ENDMDL
MODEL 7
REMARK VINA RESULT:    -3.915      4.257      8.025
REMARK INTER + INTRA:          -5.161
REMARK INTER:                  -5.088
REMARK INTRA:                  -0.072
REMARK UNBOUND:                -0.101
REMARK SMILES CCCCCCC(=O)[O-]
REMARK SMILES IDX 5 1 6 2 7 3 8 4 9 5 4 6 3 7 2 8 1 9
REMARK H PARENT
REMARK Flexibility Score: inf
ROOT
ATOM      1  C   UNL     1      22.407 -14.883  19.567  1.00  0.00     0.006 C 
ENDROOT
BRANCH   1   2
ATOM      2  C   UNL     1      22.911 -14.322  20.903  1.00  0.00     0.053 C 
BRANCH   2   3
ATOM      3  C   UNL     1      22.220 -13.034  21.222  1.00  0.00     0.041 C 
ATOM      4  O   UNL     1      20.987 -12.905  21.004  1.00  0.00    -0.550 OA
ATOM      5  O   UNL     1      22.947 -11.959  21.716  1.00  0.00    -0.550 OA
ENDBRANCH   2   3
ENDBRANCH   1   2
BRANCH   1   6
ATOM      6  C   UNL     1      22.987 -16.271  19.253  1.00  0.00     0.000 C 
BRANCH   6   7
ATOM      7  C   UNL     1      22.998 -16.578  17.745  1.00  0.00    -0.000 C 
BRANCH   7   8
ATOM      8  C   UNL     1      23.426 -18.023  17.443  1.00  0.00    -0.003 C 
ATOM      9  C   UNL     1      22.506 -18.711  16.434  1.00  0.00     0.004 C 
ENDBRANCH   7   8
ENDBRANCH   6   7
ENDBRANCH   1   6
TORSDOF 5
ENDMDL
MODEL 8
REMARK VINA RESULT:    -3.856      3.909      5.679
REMARK INTER + INTRA:          -5.084
REMARK INTER:                  -5.015
REMARK INTRA:                  -0.070
REMARK UNBOUND:                -0.101
REMARK SMILES CCCCCCC(=O)[O-]
REMARK SMILES IDX 5 1 6 2 7 3 8 4 9 5 4 6 3 7 2 8 1 9
REMARK H PARENT
REMARK Flexibility Score: inf
ROOT
ATOM      1  C   UNL     1      22.860 -15.321  19.434  1.00  0.00     0.006 C 
ENDROOT
BRANCH   1   2
ATOM      2  C   UNL     1      23.157 -16.826  19.437  1.00  0.00     0.053 C 
BRANCH   2   3
ATOM      3  C   UNL     1      22.992 -17.393  18.062  1.00  0.00     0.041 C 
ATOM      4  O   UNL     1      23.112 -16.652  17.053  1.00  0.00    -0.550 OA
ATOM      5  O   UNL     1      22.659 -18.731  17.898  1.00  0.00    -0.550 OA
ENDBRANCH   2   3
ENDBRANCH   1   2
BRANCH   1   6
ATOM      6  C   UNL     1      22.921 -14.704  20.841  1.00  0.00     0.000 C 
BRANCH   6   7
ATOM      7  C   UNL     1      22.044 -13.447  20.972  1.00  0.00    -0.000 C 
BRANCH   7   8
ATOM      8  C   UNL     1      22.786 -12.279  21.640  1.00  0.00    -0.003 C 
ATOM      9  C   UNL     1      21.838 -11.280  22.304  1.00  0.00     0.004 C 
ENDBRANCH   7   8
ENDBRANCH   6   7
ENDBRANCH   1   6
TORSDOF 5
ENDMDL
MODEL 9
REMARK VINA RESULT:    -3.703      1.605      2.321
REMARK INTER + INTRA:          -4.886
REMARK INTER:                  -4.723
REMARK INTRA:                  -0.163
REMARK UNBOUND:                -0.101
REMARK SMILES CCCCCCC(=O)[O-]
REMARK SMILES IDX 5 1 6 2 7 3 8 4 9 5 4 6 3 7 2 8 1 9
REMARK H PARENT
REMARK Flexibility Score: inf
ROOT
ATOM      1  C   UNL     1      21.163  -9.239  23.792  1.00  0.00     0.006 C 
ENDROOT
BRANCH   1   2
ATOM      2  C   UNL     1      21.103 -10.755  23.561  1.00  0.00     0.053 C 
BRANCH   2   3
ATOM      3  C   UNL     1      21.889 -11.129  22.344  1.00  0.00     0.041 C 
ATOM      4  O   UNL     1      22.878 -10.436  21.992  1.00  0.00    -0.550 OA
ATOM      5  O   UNL     1      21.499 -12.216  21.572  1.00  0.00    -0.550 OA
ENDBRANCH   2   3
ENDBRANCH   1   2
BRANCH   1   6
ATOM      6  C   UNL     1      20.738  -8.841  25.215  1.00  0.00     0.000 C 
BRANCH   6   7
ATOM      7  C   UNL     1      20.087  -7.448  25.267  1.00  0.00    -0.000 C 
BRANCH   7   8
ATOM      8  C   UNL     1      20.389  -6.609  24.015  1.00  0.00    -0.003 C 
ATOM      9  C   UNL     1      19.339  -5.528  23.762  1.00  0.00     0.004 C 
ENDBRANCH   7   8
ENDBRANCH   6   7
ENDBRANCH   1   6
TORSDOF 5
ENDMDL
