MODEL 1
REMARK VINA RESULT:    -2.658      0.000      0.000
REMARK INTER + INTRA:          -3.019
REMARK INTER:                  -2.969
REMARK INTRA:                  -0.050
REMARK UNBOUND:                -0.050
REMARK SMILES CCCC(=O)[O-]
REMARK SMILES IDX 3 1 4 2 5 3 6 4 2 5 1 6
REMARK H PARENT
REMARK Flexibility Score: inf
ROOT
ATOM      1  C   UNL     1     -21.673   0.341   2.464  1.00  0.00     0.052 C 
ENDROOT
BRANCH   1   2
ATOM      2  C   UNL     1     -20.912   0.583   1.197  1.00  0.00     0.041 C 
ATOM      3  O   UNL     1     -19.701   0.924   1.240  1.00  0.00    -0.550 OA
ATOM      4  O   UNL     1     -21.531   0.398  -0.033  1.00  0.00    -0.550 OA
ENDBRANCH   1   2
BRANCH   1   5
ATOM      5  C   UNL     1     -23.137   0.782   2.343  1.00  0.00     0.003 C 
ATOM      6  C   UNL     1     -23.290   2.302   2.362  1.00  0.00     0.004 C 
ENDBRANCH   1   5
TORSDOF 2
ENDMDL
MODEL 2
REMARK VINA RESULT:    -2.651      0.112      1.323
REMARK INTER + INTRA:          -3.011
REMARK INTER:                  -2.964
REMARK INTRA:                  -0.047
REMARK UNBOUND:                -0.050
REMARK SMILES CCCC(=O)[O-]
REMARK SMILES IDX 3 1 4 2 5 3 6 4 2 5 1 6
REMARK H PARENT
REMARK Flexibility Score: inf
ROOT
ATOM      1  C   UNL     1     -21.712   0.347   2.514  1.00  0.00     0.052 C 
ENDROOT
BRANCH   1   2
ATOM      2  C   UNL     1     -20.969   0.496   1.222  1.00  0.00     0.041 C 
ATOM      3  O   UNL     1     -21.540   0.239   0.129  1.00  0.00    -0.550 OA
ATOM      4  O   UNL     1     -19.657   0.952   1.222  1.00  0.00    -0.550 OA
ENDBRANCH   1   2
BRANCH   1   5
ATOM      5  C   UNL     1     -23.175   0.791   2.385  1.00  0.00     0.003 C 
ATOM      6  C   UNL     1     -23.320   2.313   2.358  1.00  0.00     0.004 C 
ENDBRANCH   1   5
TORSDOF 2
ENDMDL
MODEL 3
REMARK VINA RESULT:    -2.531     13.580     14.010
REMARK INTER + INTRA:          -2.878
REMARK INTER:                  -2.826
REMARK INTRA:                  -0.052
REMARK UNBOUND:                -0.050
REMARK SMILES CCCC(=O)[O-]
REMARK SMILES IDX 3 1 4 2 5 3 6 4 2 5 1 6
REMARK H PARENT
REMARK Flexibility Score: inf
ROOT
ATOM      1  C   UNL     1     -14.725  -9.962   2.465  1.00  0.00     0.052 C 
ENDROOT
BRANCH   1   2
ATOM      2  C   UNL     1     -13.587 -10.849   2.065  1.00  0.00     0.041 C 
ATOM      3  O   UNL     1     -13.546 -11.344   0.908  1.00  0.00    -0.550 OA
ATOM      4  O   UNL     1     -12.554 -11.103   2.958  1.00  0.00    -0.550 OA
ENDBRANCH   1   2
BRANCH   1   5
ATOM      5  C   UNL     1     -15.623 -10.625   3.518  1.00  0.00     0.003 C 
ATOM      6  C   UNL     1     -16.580 -11.647   2.906  1.00  0.00     0.004 C 
ENDBRANCH   1   5
TORSDOF 2
ENDMDL
MODEL 4
REMARK VINA RESULT:    -2.447     13.309     14.125
REMARK INTER + INTRA:          -2.783
REMARK INTER:                  -2.745
REMARK INTRA:                  -0.038
REMARK UNBOUND:                -0.050
REMARK SMILES CCCC(=O)[O-]
REMARK SMILES IDX 3 1 4 2 5 3 6 4 2 5 1 6
REMARK H PARENT
REMARK Flexibility Score: inf
ROOT
ATOM      1  C   UNL     1     -15.581 -11.142   3.615  1.00  0.00     0.052 C 
ENDROOT
BRANCH   1   2
ATOM      2  C   UNL     1     -14.836 -10.190   2.731  1.00  0.00     0.041 C 
ATOM      3  O   UNL     1     -15.284  -9.031   2.527  1.00  0.00    -0.550 OA
ATOM      4  O   UNL     1     -13.628 -10.570   2.160  1.00  0.00    -0.550 OA
ENDBRANCH   1   2
BRANCH   1   5
ATOM      5  C   UNL     1     -14.918 -12.525   3.652  1.00  0.00     0.003 C 
ATOM      6  C   UNL     1     -14.228 -12.805   4.987  1.00  0.00     0.004 C 
ENDBRANCH   1   5
TORSDOF 2
ENDMDL
MODEL 5
REMARK VINA RESULT:    -2.441     13.644     14.366
REMARK INTER + INTRA:          -2.777
REMARK INTER:                  -2.740
REMARK INTRA:                  -0.037
REMARK UNBOUND:                -0.050
REMARK SMILES CCCC(=O)[O-]
REMARK SMILES IDX 3 1 4 2 5 3 6 4 2 5 1 6
REMARK H PARENT
REMARK Flexibility Score: inf
ROOT
ATOM      1  C   UNL     1     -13.429 -10.803   2.419  1.00  0.00     0.052 C 
ENDROOT
BRANCH   1   2
ATOM      2  C   UNL     1     -13.271 -11.470   1.087  1.00  0.00     0.041 C 
ATOM      3  O   UNL     1     -14.283 -11.880   0.460  1.00  0.00    -0.550 OA
ATOM      4  O   UNL     1     -12.009 -11.606   0.522  1.00  0.00    -0.550 OA
ENDBRANCH   1   2
BRANCH   1   5
ATOM      5  C   UNL     1     -14.745 -10.020   2.512  1.00  0.00     0.003 C 
ATOM      6  C   UNL     1     -15.743 -10.670   3.470  1.00  0.00     0.004 C 
ENDBRANCH   1   5
TORSDOF 2
ENDMDL
MODEL 6
REMARK VINA RESULT:    -2.353     16.675     17.234
REMARK INTER + INTRA:          -2.679
REMARK INTER:                  -2.671
REMARK INTRA:                  -0.008
REMARK UNBOUND:                -0.050
REMARK SMILES CCCC(=O)[O-]
REMARK SMILES IDX 3 1 4 2 5 3 6 4 2 5 1 6
REMARK H PARENT
REMARK Flexibility Score: inf
ROOT
ATOM      1  C   UNL     1     -19.669   6.044  18.164  1.00  0.00     0.052 C 
ENDROOT
BRANCH   1   2
ATOM      2  C   UNL     1     -18.173   6.093  18.191  1.00  0.00     0.041 C 
ATOM      3  O   UNL     1     -17.565   7.125  17.801  1.00  0.00    -0.550 OA
ATOM      4  O   UNL     1     -17.449   5.013  18.681  1.00  0.00    -0.550 OA
ENDBRANCH   1   2
BRANCH   1   5
ATOM      5  C   UNL     1     -20.213   6.031  16.730  1.00  0.00     0.003 C 
ATOM      6  C   UNL     1     -21.696   6.397  16.666  1.00  0.00     0.004 C 
ENDBRANCH   1   5
TORSDOF 2
ENDMDL
MODEL 7
REMARK VINA RESULT:    -2.339     14.059     14.754
REMARK INTER + INTRA:          -2.663
REMARK INTER:                  -2.628
REMARK INTRA:                  -0.036
REMARK UNBOUND:                -0.050
REMARK SMILES CCCC(=O)[O-]
REMARK SMILES IDX 3 1 4 2 5 3 6 4 2 5 1 6
REMARK H PARENT
REMARK Flexibility Score: inf
ROOT
ATOM      1  C   UNL     1     -15.063 -12.084   3.076  1.00  0.00     0.052 C 
ENDROOT
BRANCH   1   2
ATOM      2  C   UNL     1     -13.941 -12.429   4.005  1.00  0.00     0.041 C 
ATOM      3  O   UNL     1     -12.746 -12.290   3.634  1.00  0.00    -0.550 OA
ATOM      4  O   UNL     1     -14.214 -12.870   5.294  1.00  0.00    -0.550 OA
ENDBRANCH   1   2
BRANCH   1   5
ATOM      5  C   UNL     1     -15.754 -10.774   3.477  1.00  0.00     0.003 C 
ATOM      6  C   UNL     1     -15.255  -9.581   2.662  1.00  0.00     0.004 C 
ENDBRANCH   1   5
TORSDOF 2
ENDMDL
MODEL 8
REMARK VINA RESULT:    -2.317     16.285     16.859
REMARK INTER + INTRA:          -2.639
REMARK INTER:                  -2.603
REMARK INTRA:                  -0.035
REMARK UNBOUND:                -0.050
REMARK SMILES CCCC(=O)[O-]
REMARK SMILES IDX 3 1 4 2 5 3 6 4 2 5 1 6
REMARK H PARENT
REMARK Flexibility Score: inf
ROOT
ATOM      1  C   UNL     1     -20.463   5.922  16.624  1.00  0.00     0.052 C 
ENDROOT
BRANCH   1   2
ATOM      2  C   UNL     1     -21.785   6.376  17.163  1.00  0.00     0.041 C 
ATOM      3  O   UNL     1     -21.963   6.474  18.405  1.00  0.00    -0.550 OA
ATOM      4  O   UNL     1     -22.810   6.724  16.292  1.00  0.00    -0.550 OA
ENDBRANCH   1   2
BRANCH   1   5
ATOM      5  C   UNL     1     -19.358   6.954  16.884  1.00  0.00     0.003 C 
ATOM      6  C   UNL     1     -18.258   6.411  17.797  1.00  0.00     0.004 C 
ENDBRANCH   1   5
TORSDOF 2
ENDMDL
MODEL 9
REMARK VINA RESULT:    -2.264     13.694     14.583
REMARK INTER + INTRA:          -2.579
REMARK INTER:                  -2.544
REMARK INTRA:                  -0.035
REMARK UNBOUND:                -0.050
REMARK SMILES CCCC(=O)[O-]
REMARK SMILES IDX 3 1 4 2 5 3 6 4 2 5 1 6
REMARK H PARENT
REMARK Flexibility Score: inf
ROOT
ATOM      1  C   UNL     1     -13.402 -10.797   2.460  1.00  0.00     0.052 C 
ENDROOT
BRANCH   1   2
ATOM      2  C   UNL     1     -14.789 -10.387   2.847  1.00  0.00     0.041 C 
ATOM      3  O   UNL     1     -15.241  -9.266   2.494  1.00  0.00    -0.550 OA
ATOM      4  O   UNL     1     -15.598 -11.257   3.568  1.00  0.00    -0.550 OA
ENDBRANCH   1   2
BRANCH   1   5
ATOM      5  C   UNL     1     -13.089 -12.233   2.899  1.00  0.00     0.003 C 
ATOM      6  C   UNL     1     -12.001 -12.290   3.971  1.00  0.00     0.004 C 
ENDBRANCH   1   5
TORSDOF 2
ENDMDL
