MODEL 1
REMARK VINA RESULT:    -5.132      0.000      0.000
REMARK INTER + INTRA:          -7.538
REMARK INTER:                  -7.832
REMARK INTRA:                   0.293
REMARK UNBOUND:                 0.293
REMARK SMILES CC1=CCC[C@@H](C)C(=O)C[C@@H](C(C)C)C(=O)C1
REMARK SMILES IDX 8 1 9 2 6 3 7 4 5 5 4 6 3 7 2 8 1 9 10 11 11 12 15 13 16 14
REMARK SMILES IDX 17 15 12 17 13 18 14 19
REMARK H PARENT
REMARK Flexibility Score: 70.00
ROOT
ATOM      1  C   UNL     1     -12.033 -15.704  29.050  1.00  0.00     0.136 C 
ATOM      2  O   UNL     1     -10.954 -15.194  29.313  1.00  0.00    -0.299 OA
ENDROOT
BRANCH   1   3
ATOM      3  C   UNL     1     -12.216 -16.392  27.707  1.00  0.00     0.053 C 
ATOM      4  C   UNL     1     -13.560 -15.963  27.102  1.00  0.00     0.016 C 
BRANCH   3   5
ATOM      5  C   UNL     1     -12.124 -17.939  27.797  1.00  0.00     0.015 C 
BRANCH   5   6
ATOM      6  C   UNL     1     -13.170 -18.625  28.699  1.00  0.00     0.028 C 
BRANCH   6   7
ATOM      7  C   UNL     1     -12.662 -19.677  29.655  1.00  0.00    -0.028 C 
ATOM      8  C   UNL     1     -12.826 -19.680  30.998  1.00  0.00    -0.070 CG0
ATOM      9  C   UNL     1     -12.497 -20.958  31.732  1.00  0.00     0.039 C 
ATOM     10  G   UNL     1     -13.332 -18.486  31.792  1.00  0.00     0.000 G0
ENDBRANCH   6   7
ENDBRANCH   5   6
ENDBRANCH   3   5
ENDBRANCH   1   3
BRANCH   1  11
ATOM     11  C   UNL     1     -13.191 -15.514  30.012  1.00  0.00     0.087 C 
BRANCH  11  12
ATOM     12  C   UNL     1     -12.903 -15.883  31.497  1.00  0.00     0.066 C 
BRANCH  12  13
ATOM     13  C   UNL     1     -12.409 -17.310  31.696  1.00  0.00     0.140 C 
ATOM     14  O   UNL     1     -11.207 -17.485  31.837  1.00  0.00    -0.299 OA
BRANCH  13  15
ATOM     15  C   UNL     1     -13.338 -18.500  31.813  1.00  0.00     0.106 CG0
ATOM     16  G   UNL     1     -12.815 -19.668  30.992  1.00  0.00     0.000 G0
ENDBRANCH  13  15
ENDBRANCH  12  13
BRANCH  12  17
ATOM     17  C   UNL     1     -14.125 -15.578  32.421  1.00  0.00    -0.006 C 
ATOM     18  C   UNL     1     -15.000 -14.447  31.847  1.00  0.00     0.008 C 
ATOM     19  C   UNL     1     -13.688 -15.190  33.845  1.00  0.00     0.008 C 
ENDBRANCH  12  17
ENDBRANCH  11  12
ENDBRANCH   1  11
TORSDOF 1
ENDMDL
MODEL 2
REMARK VINA RESULT:    -4.921      1.681      3.819
REMARK INTER + INTRA:          -7.216
REMARK INTER:                  -7.337
REMARK INTRA:                   0.122
REMARK UNBOUND:                 0.293
REMARK SMILES CC1=CCC[C@@H](C)C(=O)C[C@@H](C(C)C)C(=O)C1
REMARK SMILES IDX 8 1 9 2 6 3 7 4 5 5 4 6 3 7 2 8 1 9 10 11 11 12 15 13 16 14
REMARK SMILES IDX 17 15 12 17 13 18 14 19
REMARK H PARENT
REMARK Flexibility Score: 70.00
ROOT
ATOM      1  C   UNL     1     -11.863 -18.316  31.665  1.00  0.00     0.136 C 
ATOM      2  O   UNL     1     -10.746 -18.634  31.285  1.00  0.00    -0.299 OA
ENDROOT
BRANCH   1   3
ATOM      3  C   UNL     1     -12.989 -19.335  31.580  1.00  0.00     0.053 C 
ATOM      4  C   UNL     1     -12.453 -20.710  32.002  1.00  0.00     0.016 C 
BRANCH   3   5
ATOM      5  C   UNL     1     -13.641 -19.407  30.173  1.00  0.00     0.015 C 
BRANCH   5   6
ATOM      6  C   UNL     1     -12.712 -19.089  28.983  1.00  0.00     0.028 C 
BRANCH   6   7
ATOM      7  C   UNL     1     -13.213 -18.079  27.979  1.00  0.00    -0.028 C 
ATOM      8  C   UNL     1     -12.952 -16.752  27.984  1.00  0.00    -0.070 CG0
ATOM      9  C   UNL     1     -13.305 -15.973  26.740  1.00  0.00     0.039 C 
ATOM     10  G   UNL     1     -12.318 -16.019  29.156  1.00  0.00     0.000 G0
ENDBRANCH   6   7
ENDBRANCH   5   6
ENDBRANCH   3   5
ENDBRANCH   1   3
BRANCH   1  11
ATOM     11  C   UNL     1     -12.119 -16.879  32.079  1.00  0.00     0.087 C 
BRANCH  11  12
ATOM     12  C   UNL     1     -13.460 -16.262  31.582  1.00  0.00     0.066 C 
BRANCH  12  13
ATOM     13  C   UNL     1     -13.380 -15.641  30.194  1.00  0.00     0.140 C 
ATOM     14  O   UNL     1     -14.167 -14.747  29.920  1.00  0.00    -0.299 OA
BRANCH  13  15
ATOM     15  C   UNL     1     -12.322 -16.019  29.178  1.00  0.00     0.106 CG0
ATOM     16  G   UNL     1     -12.948 -16.743  27.997  1.00  0.00     0.000 G0
ENDBRANCH  13  15
ENDBRANCH  12  13
BRANCH  12  17
ATOM     17  C   UNL     1     -14.054 -15.253  32.616  1.00  0.00    -0.006 C 
ATOM     18  C   UNL     1     -13.133 -15.086  33.838  1.00  0.00     0.008 C 
ATOM     19  C   UNL     1     -15.450 -15.683  33.103  1.00  0.00     0.008 C 
ENDBRANCH  12  17
ENDBRANCH  11  12
ENDBRANCH   1  11
TORSDOF 1
ENDMDL
MODEL 3
REMARK VINA RESULT:    -4.736      0.992      1.167
REMARK INTER + INTRA:          -6.934
REMARK INTER:                  -7.928
REMARK INTRA:                   0.994
REMARK UNBOUND:                 0.293
REMARK SMILES CC1=CCC[C@@H](C)C(=O)C[C@@H](C(C)C)C(=O)C1
REMARK SMILES IDX 8 1 9 2 6 3 7 4 5 5 4 6 3 7 2 8 1 9 10 11 11 12 15 13 16 14
REMARK SMILES IDX 17 15 12 17 13 18 14 19
REMARK H PARENT
REMARK Flexibility Score: 70.00
ROOT
ATOM      1  C   UNL     1     -13.104 -15.492  29.369  1.00  0.00     0.136 C 
ATOM      2  O   UNL     1     -13.417 -14.763  28.438  1.00  0.00    -0.299 OA
ENDROOT
BRANCH   1   3
ATOM      3  C   UNL     1     -12.011 -16.528  29.158  1.00  0.00     0.053 C 
ATOM      4  C   UNL     1     -10.718 -15.814  28.738  1.00  0.00     0.016 C 
BRANCH   3   5
ATOM      5  C   UNL     1     -12.396 -17.620  28.124  1.00  0.00     0.015 C 
BRANCH   5   6
ATOM      6  C   UNL     1     -13.303 -18.752  28.646  1.00  0.00     0.028 C 
BRANCH   6   7
ATOM      7  C   UNL     1     -12.700 -19.697  29.658  1.00  0.00    -0.028 C 
ATOM      8  C   UNL     1     -12.919 -19.681  30.993  1.00  0.00    -0.070 CG0
ATOM      9  C   UNL     1     -12.453 -20.881  31.783  1.00  0.00     0.039 C 
ATOM     10  G   UNL     1     -13.612 -18.543  31.724  1.00  0.00     0.000 G0
ENDBRANCH   6   7
ENDBRANCH   5   6
ENDBRANCH   3   5
ENDBRANCH   1   3
BRANCH   1  11
ATOM     11  C   UNL     1     -13.907 -15.432  30.654  1.00  0.00     0.087 C 
BRANCH  11  12
ATOM     12  C   UNL     1     -13.165 -15.909  31.938  1.00  0.00     0.066 C 
BRANCH  12  13
ATOM     13  C   UNL     1     -12.664 -17.346  31.866  1.00  0.00     0.140 C 
ATOM     14  O   UNL     1     -11.463 -17.540  31.976  1.00  0.00    -0.299 OA
BRANCH  13  15
ATOM     15  C   UNL     1     -13.589 -18.540  31.752  1.00  0.00     0.106 CG0
ATOM     16  G   UNL     1     -12.911 -19.671  30.996  1.00  0.00     0.000 G0
ENDBRANCH  13  15
ENDBRANCH  12  13
BRANCH  12  17
ATOM     17  C   UNL     1     -14.017 -15.674  33.225  1.00  0.00    -0.006 C 
ATOM     18  C   UNL     1     -15.382 -15.043  32.892  1.00  0.00     0.008 C 
ATOM     19  C   UNL     1     -13.290 -14.774  34.240  1.00  0.00     0.008 C 
ENDBRANCH  12  17
ENDBRANCH  11  12
ENDBRANCH   1  11
TORSDOF 1
ENDMDL
MODEL 4
REMARK VINA RESULT:    -4.533      1.747      3.938
REMARK INTER + INTRA:          -6.624
REMARK INTER:                  -7.197
REMARK INTRA:                   0.573
REMARK UNBOUND:                 0.293
REMARK SMILES CC1=CCC[C@@H](C)C(=O)C[C@@H](C(C)C)C(=O)C1
REMARK SMILES IDX 8 1 9 2 6 3 7 4 5 5 4 6 3 7 2 8 1 9 10 11 11 12 15 13 16 14
REMARK SMILES IDX 17 15 12 17 13 18 14 19
REMARK H PARENT
REMARK Flexibility Score: 70.00
ROOT
ATOM      1  C   UNL     1     -12.952 -15.985  31.280  1.00  0.00     0.136 C 
ATOM      2  O   UNL     1     -14.036 -15.446  31.450  1.00  0.00    -0.299 OA
ENDROOT
BRANCH   1   3
ATOM      3  C   UNL     1     -12.313 -16.739  32.435  1.00  0.00     0.053 C 
ATOM      4  C   UNL     1     -11.461 -15.766  33.260  1.00  0.00     0.016 C 
BRANCH   3   5
ATOM      5  C   UNL     1     -11.467 -17.957  31.975  1.00  0.00     0.015 C 
BRANCH   5   6
ATOM      6  C   UNL     1     -12.195 -19.316  31.956  1.00  0.00     0.028 C 
BRANCH   6   7
ATOM      7  C   UNL     1     -13.209 -19.531  30.858  1.00  0.00    -0.028 C 
ATOM      8  C   UNL     1     -12.974 -19.453  29.528  1.00  0.00    -0.070 CG0
ATOM      9  C   UNL     1     -14.044 -19.984  28.605  1.00  0.00     0.039 C 
ATOM     10  G   UNL     1     -11.700 -18.882  28.926  1.00  0.00     0.000 G0
ENDBRANCH   6   7
ENDBRANCH   5   6
ENDBRANCH   3   5
ENDBRANCH   1   3
BRANCH   1  11
ATOM     11  C   UNL     1     -12.219 -15.767  29.969  1.00  0.00     0.087 C 
BRANCH  11  12
ATOM     12  C   UNL     1     -12.836 -16.472  28.725  1.00  0.00     0.066 C 
BRANCH  12  13
ATOM     13  C   UNL     1     -11.975 -17.593  28.158  1.00  0.00     0.140 C 
ATOM     14  O   UNL     1     -11.424 -17.404  27.084  1.00  0.00    -0.299 OA
BRANCH  13  15
ATOM     15  C   UNL     1     -11.704 -18.885  28.900  1.00  0.00     0.106 CG0
ATOM     16  G   UNL     1     -12.985 -19.428  29.513  1.00  0.00     0.000 G0
ENDBRANCH  13  15
ENDBRANCH  12  13
BRANCH  12  17
ATOM     17  C   UNL     1     -13.232 -15.449  27.613  1.00  0.00    -0.006 C 
ATOM     18  C   UNL     1     -14.077 -14.294  28.181  1.00  0.00     0.008 C 
ATOM     19  C   UNL     1     -14.015 -16.118  26.468  1.00  0.00     0.008 C 
ENDBRANCH  12  17
ENDBRANCH  11  12
ENDBRANCH   1  11
TORSDOF 1
ENDMDL
MODEL 5
REMARK VINA RESULT:    -4.490      1.531      3.957
REMARK INTER + INTRA:          -6.559
REMARK INTER:                  -7.368
REMARK INTRA:                   0.809
REMARK UNBOUND:                 0.293
REMARK SMILES CC1=CCC[C@@H](C)C(=O)C[C@@H](C(C)C)C(=O)C1
REMARK SMILES IDX 8 1 9 2 6 3 7 4 5 5 4 6 3 7 2 8 1 9 10 11 11 12 15 13 16 14
REMARK SMILES IDX 17 15 12 17 13 18 14 19
REMARK H PARENT
REMARK Flexibility Score: 70.00
ROOT
ATOM      1  C   UNL     1     -13.926 -14.994  30.263  1.00  0.00     0.136 C 
ATOM      2  O   UNL     1     -14.760 -14.131  30.030  1.00  0.00    -0.299 OA
ENDROOT
BRANCH   1   3
ATOM      3  C   UNL     1     -13.928 -15.673  31.623  1.00  0.00     0.053 C 
ATOM      4  C   UNL     1     -15.044 -15.067  32.485  1.00  0.00     0.016 C 
BRANCH   3   5
ATOM      5  C   UNL     1     -12.560 -15.580  32.352  1.00  0.00     0.015 C 
BRANCH   5   6
ATOM      6  C   UNL     1     -11.715 -16.870  32.366  1.00  0.00     0.028 C 
BRANCH   6   7
ATOM      7  C   UNL     1     -12.411 -18.146  31.956  1.00  0.00    -0.028 C 
ATOM      8  C   UNL     1     -12.028 -18.980  30.962  1.00  0.00    -0.070 CG0
ATOM      9  C   UNL     1     -12.688 -20.337  30.906  1.00  0.00     0.039 C 
ATOM     10  G   UNL     1     -10.971 -18.632  29.926  1.00  0.00     0.000 G0
ENDBRANCH   6   7
ENDBRANCH   5   6
ENDBRANCH   3   5
ENDBRANCH   1   3
BRANCH   1  11
ATOM     11  C   UNL     1     -12.837 -15.261  29.241  1.00  0.00     0.087 C 
BRANCH  11  12
ATOM     12  C   UNL     1     -12.579 -16.759  28.905  1.00  0.00     0.066 C 
BRANCH  12  13
ATOM     13  C   UNL     1     -11.206 -17.262  29.331  1.00  0.00     0.140 C 
ATOM     14  O   UNL     1     -10.265 -16.485  29.259  1.00  0.00    -0.299 OA
BRANCH  13  15
ATOM     15  C   UNL     1     -10.973 -18.640  29.915  1.00  0.00     0.106 CG0
ATOM     16  G   UNL     1     -12.034 -18.965  30.955  1.00  0.00     0.000 G0
ENDBRANCH  13  15
ENDBRANCH  12  13
BRANCH  12  17
ATOM     17  C   UNL     1     -12.851 -17.074  27.399  1.00  0.00    -0.006 C 
ATOM     18  C   UNL     1     -11.547 -17.084  26.579  1.00  0.00     0.008 C 
ATOM     19  C   UNL     1     -13.825 -16.062  26.767  1.00  0.00     0.008 C 
ENDBRANCH  12  17
ENDBRANCH  11  12
ENDBRANCH   1  11
TORSDOF 1
ENDMDL
MODEL 6
REMARK VINA RESULT:    -3.948      1.919      3.808
REMARK INTER + INTRA:          -5.732
REMARK INTER:                  -6.093
REMARK INTRA:                   0.362
REMARK UNBOUND:                 0.293
REMARK SMILES CC1=CCC[C@@H](C)C(=O)C[C@@H](C(C)C)C(=O)C1
REMARK SMILES IDX 8 1 9 2 6 3 7 4 5 5 4 6 3 7 2 8 1 9 10 11 11 12 15 13 16 14
REMARK SMILES IDX 17 15 12 17 13 18 14 19
REMARK H PARENT
REMARK Flexibility Score: 70.00
ROOT
ATOM      1  C   UNL     1     -13.016 -19.162  30.924  1.00  0.00     0.136 C 
ATOM      2  O   UNL     1     -12.837 -20.291  31.359  1.00  0.00    -0.299 OA
ENDROOT
BRANCH   1   3
ATOM      3  C   UNL     1     -13.257 -18.976  29.434  1.00  0.00     0.053 C 
ATOM      4  C   UNL     1     -14.121 -20.135  28.918  1.00  0.00     0.016 C 
BRANCH   3   5
ATOM      5  C   UNL     1     -11.943 -18.862  28.614  1.00  0.00     0.015 C 
BRANCH   5   6
ATOM      6  C   UNL     1     -11.880 -17.701  27.601  1.00  0.00     0.028 C 
BRANCH   6   7
ATOM      7  C   UNL     1     -12.935 -16.628  27.727  1.00  0.00    -0.028 C 
ATOM      8  C   UNL     1     -12.809 -15.462  28.401  1.00  0.00    -0.070 CG0
ATOM      9  C   UNL     1     -13.865 -14.409  28.164  1.00  0.00     0.039 C 
ATOM     10  G   UNL     1     -11.669 -15.157  29.359  1.00  0.00     0.000 G0
ENDBRANCH   6   7
ENDBRANCH   5   6
ENDBRANCH   3   5
ENDBRANCH   1   3
BRANCH   1  11
ATOM     11  C   UNL     1     -12.856 -17.978  31.858  1.00  0.00     0.087 C 
BRANCH  11  12
ATOM     12  C   UNL     1     -12.976 -16.573  31.196  1.00  0.00     0.066 C 
BRANCH  12  13
ATOM     13  C   UNL     1     -11.687 -16.081  30.552  1.00  0.00     0.140 C 
ATOM     14  O   UNL     1     -10.629 -16.519  30.980  1.00  0.00    -0.299 OA
BRANCH  13  15
ATOM     15  C   UNL     1     -11.661 -15.148  29.359  1.00  0.00     0.106 CG0
ATOM     16  G   UNL     1     -12.794 -15.476  28.400  1.00  0.00     0.000 G0
ENDBRANCH  13  15
ENDBRANCH  12  13
BRANCH  12  17
ATOM     17  C   UNL     1     -13.553 -15.511  32.185  1.00  0.00    -0.006 C 
ATOM     18  C   UNL     1     -13.953 -16.147  33.529  1.00  0.00     0.008 C 
ATOM     19  C   UNL     1     -14.776 -14.784  31.598  1.00  0.00     0.008 C 
ENDBRANCH  12  17
ENDBRANCH  11  12
ENDBRANCH   1  11
TORSDOF 1
ENDMDL
MODEL 7
REMARK VINA RESULT:    -3.896      2.206      2.776
REMARK INTER + INTRA:          -5.652
REMARK INTER:                  -5.824
REMARK INTRA:                   0.172
REMARK UNBOUND:                 0.293
REMARK SMILES CC1=CCC[C@@H](C)C(=O)C[C@@H](C(C)C)C(=O)C1
REMARK SMILES IDX 8 1 9 2 6 3 7 4 5 5 4 6 3 7 2 8 1 9 10 11 11 12 15 13 16 14
REMARK SMILES IDX 17 15 12 17 13 18 14 19
REMARK H PARENT
REMARK Flexibility Score: 70.00
ROOT
ATOM      1  C   UNL     1     -13.170 -17.161  29.330  1.00  0.00     0.136 C 
ATOM      2  O   UNL     1     -13.171 -18.299  28.883  1.00  0.00    -0.299 OA
ENDROOT
BRANCH   1   3
ATOM      3  C   UNL     1     -12.648 -16.028  28.461  1.00  0.00     0.053 C 
ATOM      4  C   UNL     1     -13.625 -15.794  27.302  1.00  0.00     0.016 C 
BRANCH   3   5
ATOM      5  C   UNL     1     -11.212 -16.283  27.926  1.00  0.00     0.015 C 
BRANCH   5   6
ATOM      6  C   UNL     1     -10.076 -16.159  28.961  1.00  0.00     0.028 C 
BRANCH   6   7
ATOM      7  C   UNL     1      -9.946 -17.274  29.969  1.00  0.00    -0.028 C 
ATOM      8  C   UNL     1     -10.231 -17.194  31.289  1.00  0.00    -0.070 CG0
ATOM      9  C   UNL     1     -10.310 -18.490  32.060  1.00  0.00     0.039 C 
ATOM     10  G   UNL     1     -10.486 -15.886  32.022  1.00  0.00     0.000 G0
ENDBRANCH   6   7
ENDBRANCH   5   6
ENDBRANCH   3   5
ENDBRANCH   1   3
BRANCH   1  11
ATOM     11  C   UNL     1     -13.562 -16.938  30.779  1.00  0.00     0.087 C 
BRANCH  11  12
ATOM     12  C   UNL     1     -13.078 -15.600  31.411  1.00  0.00     0.066 C 
BRANCH  12  13
ATOM     13  C   UNL     1     -11.953 -15.765  32.425  1.00  0.00     0.140 C 
ATOM     14  O   UNL     1     -12.257 -15.879  33.603  1.00  0.00    -0.299 OA
BRANCH  13  15
ATOM     15  C   UNL     1     -10.495 -15.881  32.033  1.00  0.00     0.106 CG0
ATOM     16  G   UNL     1     -10.242 -17.187  31.296  1.00  0.00     0.000 G0
ENDBRANCH  13  15
ENDBRANCH  12  13
BRANCH  12  17
ATOM     17  C   UNL     1     -14.262 -14.778  32.013  1.00  0.00    -0.006 C 
ATOM     18  C   UNL     1     -15.187 -15.663  32.869  1.00  0.00     0.008 C 
ATOM     19  C   UNL     1     -15.103 -14.095  30.919  1.00  0.00     0.008 C 
ENDBRANCH  12  17
ENDBRANCH  11  12
ENDBRANCH   1  11
TORSDOF 1
ENDMDL
MODEL 8
REMARK VINA RESULT:    -3.850      1.931      4.515
REMARK INTER + INTRA:          -5.582
REMARK INTER:                  -5.867
REMARK INTRA:                   0.285
REMARK UNBOUND:                 0.293
REMARK SMILES CC1=CCC[C@@H](C)C(=O)C[C@@H](C(C)C)C(=O)C1
REMARK SMILES IDX 8 1 9 2 6 3 7 4 5 5 4 6 3 7 2 8 1 9 10 11 11 12 15 13 16 14
REMARK SMILES IDX 17 15 12 17 13 18 14 19
REMARK H PARENT
REMARK Flexibility Score: 70.00
ROOT
ATOM      1  C   UNL     1     -13.195 -15.895  32.037  1.00  0.00     0.136 C 
ATOM      2  O   UNL     1     -12.378 -15.809  32.942  1.00  0.00    -0.299 OA
ENDROOT
BRANCH   1   3
ATOM      3  C   UNL     1     -14.249 -14.809  31.891  1.00  0.00     0.053 C 
ATOM      4  C   UNL     1     -15.352 -15.037  32.933  1.00  0.00     0.016 C 
BRANCH   3   5
ATOM      5  C   UNL     1     -14.852 -14.733  30.462  1.00  0.00     0.015 C 
BRANCH   5   6
ATOM      6  C   UNL     1     -13.947 -14.105  29.382  1.00  0.00     0.028 C 
BRANCH   6   7
ATOM      7  C   UNL     1     -13.499 -15.008  28.258  1.00  0.00    -0.028 C 
ATOM      8  C   UNL     1     -12.415 -15.816  28.269  1.00  0.00    -0.070 CG0
ATOM      9  C   UNL     1     -12.308 -16.844  27.168  1.00  0.00     0.039 C 
ATOM     10  G   UNL     1     -11.323 -15.754  29.325  1.00  0.00     0.000 G0
ENDBRANCH   6   7
ENDBRANCH   5   6
ENDBRANCH   3   5
ENDBRANCH   1   3
BRANCH   1  11
ATOM     11  C   UNL     1     -13.215 -17.145  31.179  1.00  0.00     0.087 C 
BRANCH  11  12
ATOM     12  C   UNL     1     -11.833 -17.820  30.935  1.00  0.00     0.066 C 
BRANCH  12  13
ATOM     13  C   UNL     1     -10.987 -17.133  29.872  1.00  0.00     0.140 C 
ATOM     14  O   UNL     1     -10.049 -17.756  29.396  1.00  0.00    -0.299 OA
BRANCH  13  15
ATOM     15  C   UNL     1     -11.304 -15.757  29.323  1.00  0.00     0.106 CG0
ATOM     16  G   UNL     1     -12.402 -15.841  28.275  1.00  0.00     0.000 G0
ENDBRANCH  13  15
ENDBRANCH  12  13
BRANCH  12  17
ATOM     17  C   UNL     1     -11.975 -19.347  30.641  1.00  0.00    -0.006 C 
ATOM     18  C   UNL     1     -12.904 -19.608  29.440  1.00  0.00     0.008 C 
ATOM     19  C   UNL     1     -12.511 -20.121  31.859  1.00  0.00     0.008 C 
ENDBRANCH  12  17
ENDBRANCH  11  12
ENDBRANCH   1  11
TORSDOF 1
ENDMDL
MODEL 9
REMARK VINA RESULT:    -3.775      2.298      4.714
REMARK INTER + INTRA:          -5.467
REMARK INTER:                  -6.332
REMARK INTRA:                   0.865
REMARK UNBOUND:                 0.293
REMARK SMILES CC1=CCC[C@@H](C)C(=O)C[C@@H](C(C)C)C(=O)C1
REMARK SMILES IDX 8 1 9 2 6 3 7 4 5 5 4 6 3 7 2 8 1 9 10 11 11 12 15 13 16 14
REMARK SMILES IDX 17 15 12 17 13 18 14 19
REMARK H PARENT
REMARK Flexibility Score: 70.00
ROOT
ATOM      1  C   UNL     1     -12.525 -16.417  31.960  1.00  0.00     0.136 C 
ATOM      2  O   UNL     1     -12.945 -15.276  31.832  1.00  0.00    -0.299 OA
ENDROOT
BRANCH   1   3
ATOM      3  C   UNL     1     -11.085 -16.628  32.400  1.00  0.00     0.053 C 
ATOM      4  C   UNL     1     -10.634 -15.421  33.233  1.00  0.00     0.016 C 
BRANCH   3   5
ATOM      5  C   UNL     1     -10.114 -16.869  31.212  1.00  0.00     0.015 C 
BRANCH   5   6
ATOM      6  C   UNL     1     -10.226 -15.875  30.038  1.00  0.00     0.028 C 
BRANCH   6   7
ATOM      7  C   UNL     1     -10.276 -16.463  28.649  1.00  0.00    -0.028 C 
ATOM      8  C   UNL     1     -11.391 -16.676  27.913  1.00  0.00    -0.070 CG0
ATOM      9  C   UNL     1     -11.202 -16.999  26.450  1.00  0.00     0.039 C 
ATOM     10  G   UNL     1     -12.803 -16.594  28.472  1.00  0.00     0.000 G0
ENDBRANCH   6   7
ENDBRANCH   5   6
ENDBRANCH   3   5
ENDBRANCH   1   3
BRANCH   1  11
ATOM     11  C   UNL     1     -13.409 -17.579  31.546  1.00  0.00     0.087 C 
BRANCH  11  12
ATOM     12  C   UNL     1     -12.869 -18.457  30.378  1.00  0.00     0.066 C 
BRANCH  12  13
ATOM     13  C   UNL     1     -13.250 -17.949  28.994  1.00  0.00     0.140 C 
ATOM     14  O   UNL     1     -14.001 -18.637  28.318  1.00  0.00    -0.299 OA
BRANCH  13  15
ATOM     15  C   UNL     1     -12.814 -16.601  28.457  1.00  0.00     0.106 CG0
ATOM     16  G   UNL     1     -11.391 -16.673  27.925  1.00  0.00     0.000 G0
ENDBRANCH  13  15
ENDBRANCH  12  13
BRANCH  12  17
ATOM     17  C   UNL     1     -13.256 -19.959  30.553  1.00  0.00    -0.006 C 
ATOM     18  C   UNL     1     -12.499 -20.607  31.727  1.00  0.00     0.008 C 
ATOM     19  C   UNL     1     -12.981 -20.776  29.277  1.00  0.00     0.008 C 
ENDBRANCH  12  17
ENDBRANCH  11  12
ENDBRANCH   1  11
TORSDOF 1
ENDMDL
