MODEL 1
REMARK VINA RESULT:    -5.815      0.000      0.000
REMARK INTER + INTRA:         -10.267
REMARK INTER:                  -8.875
REMARK INTRA:                  -1.392
REMARK UNBOUND:                -1.392
REMARK SMILES OC[C@@H]1O[C@@](CO)(O[C@@H]2O[C@H](CO)[C@@H](O)[C@@H](O)[C@@H]2O)[C@H](O)[C@@H]1O
REMARK SMILES IDX 8 1 9 2 11 3 14 4 10 5 16 6 18 7 12 8 13 9 15 11 17 13 19 15
REMARK SMILES IDX 5 17 20 18 4 19 22 20 3 21 6 22 7 23 21 25 23 27 2 29 1 30
REMARK H PARENT 13 10 15 12 17 14 19 16 7 24 21 26 23 28 1 31
REMARK Flexibility Score: inf
ROOT
ATOM      1  O   UNL     1      22.345  -4.093   3.644  1.00  0.00    -0.313 OA
ENDROOT
BRANCH   1   2
ATOM      2  C   UNL     1      22.443  -3.147   2.597  1.00  0.00     0.285 C 
ATOM      3  C   UNL     1      22.708  -2.961   0.286  1.00  0.00     0.178 C 
ATOM      4  C   UNL     1      24.220  -2.619   0.276  1.00  0.00     0.177 C 
ATOM      5  O   UNL     1      22.431  -3.847   1.358  1.00  0.00    -0.341 OA
ATOM      6  C   UNL     1      24.812  -2.707   1.715  1.00  0.00     0.179 C 
ATOM      7  C   UNL     1      23.762  -2.317   2.776  1.00  0.00     0.202 C 
BRANCH   3   8
ATOM      8  C   UNL     1      22.265  -3.596  -1.044  1.00  0.00     0.191 C 
BRANCH   8   9
ATOM      9  O   UNL     1      22.850  -2.960  -2.156  1.00  0.00    -0.394 OA
ATOM     10  H   UNL     1      23.618  -2.425  -1.823  1.00  0.00     0.210 HD
ENDBRANCH   8   9
ENDBRANCH   3   8
BRANCH   4  11
ATOM     11  O   UNL     1      24.428  -1.350  -0.304  1.00  0.00    -0.387 OA
ATOM     12  H   UNL     1      23.547  -0.897  -0.388  1.00  0.00     0.211 HD
ENDBRANCH   4  11
BRANCH   6  13
ATOM     13  O   UNL     1      25.958  -1.906   1.845  1.00  0.00    -0.387 OA
ATOM     14  H   UNL     1      26.609  -2.404   2.406  1.00  0.00     0.211 HD
ENDBRANCH   6  13
BRANCH   7  15
ATOM     15  O   UNL     1      24.285  -2.505   4.066  1.00  0.00    -0.385 OA
ATOM     16  H   UNL     1      23.709  -2.000   4.695  1.00  0.00     0.211 HD
ENDBRANCH   7  15
ENDBRANCH   1   2
BRANCH   1  17
ATOM     17  C   UNL     1      21.030  -4.346   4.158  1.00  0.00     0.224 C 
ATOM     18  C   UNL     1      21.016  -5.297   5.377  1.00  0.00     0.208 C 
ATOM     19  O   UNL     1      20.574  -3.113   4.672  1.00  0.00    -0.337 OA
ATOM     20  C   UNL     1      21.585  -4.373   6.432  1.00  0.00     0.180 C 
ATOM     21  C   UNL     1      21.102  -2.992   5.978  1.00  0.00     0.179 C 
BRANCH  17  22
ATOM     22  C   UNL     1      20.038  -4.750   3.028  1.00  0.00     0.225 C 
BRANCH  22  23
ATOM     23  O   UNL     1      20.348  -6.009   2.475  1.00  0.00    -0.391 OA
ATOM     24  H   UNL     1      19.945  -6.027   1.573  1.00  0.00     0.210 HD
ENDBRANCH  22  23
ENDBRANCH  17  22
BRANCH  18  25
ATOM     25  O   UNL     1      19.689  -5.648   5.695  1.00  0.00    -0.385 OA
ATOM     26  H   UNL     1      19.659  -6.636   5.845  1.00  0.00     0.211 HD
ENDBRANCH  18  25
BRANCH  20  27
ATOM     27  O   UNL     1      21.268  -4.711   7.763  1.00  0.00    -0.387 OA
ATOM     28  H   UNL     1      22.000  -5.245   8.147  1.00  0.00     0.211 HD
ENDBRANCH  20  27
BRANCH  21  29
ATOM     29  C   UNL     1      20.047  -2.353   6.894  1.00  0.00     0.191 C 
BRANCH  29  30
ATOM     30  O   UNL     1      18.879  -3.128   6.921  1.00  0.00    -0.394 OA
ATOM     31  H   UNL     1      19.132  -4.042   6.642  1.00  0.00     0.210 HD
ENDBRANCH  29  30
ENDBRANCH  21  29
ENDBRANCH   1  17
TORSDOF 13
ENDMDL
MODEL 2
REMARK VINA RESULT:    -5.692      1.226      2.122
REMARK INTER + INTRA:         -10.078
REMARK INTER:                  -8.618
REMARK INTRA:                  -1.460
REMARK UNBOUND:                -1.392
REMARK SMILES OC[C@@H]1O[C@@](CO)(O[C@@H]2O[C@H](CO)[C@@H](O)[C@@H](O)[C@@H]2O)[C@H](O)[C@@H]1O
REMARK SMILES IDX 8 1 9 2 11 3 14 4 10 5 16 6 18 7 12 8 13 9 15 11 17 13 19 15
REMARK SMILES IDX 5 17 20 18 4 19 22 20 3 21 6 22 7 23 21 25 23 27 2 29 1 30
REMARK H PARENT 13 10 15 12 17 14 19 16 7 24 21 26 23 28 1 31
REMARK Flexibility Score: inf
ROOT
ATOM      1  O   UNL     1      22.727  -3.727   3.806  1.00  0.00    -0.313 OA
ENDROOT
BRANCH   1   2
ATOM      2  C   UNL     1      22.592  -2.893   2.672  1.00  0.00     0.285 C 
ATOM      3  C   UNL     1      22.235  -2.943   0.367  1.00  0.00     0.178 C 
ATOM      4  C   UNL     1      23.705  -2.730  -0.077  1.00  0.00     0.177 C 
ATOM      5  O   UNL     1      22.208  -3.700   1.564  1.00  0.00    -0.341 OA
ATOM      6  C   UNL     1      24.657  -2.734   1.157  1.00  0.00     0.179 C 
ATOM      7  C   UNL     1      23.955  -2.163   2.406  1.00  0.00     0.202 C 
BRANCH   3   8
ATOM      8  C   UNL     1      21.416  -3.658  -0.722  1.00  0.00     0.191 C 
BRANCH   8   9
ATOM      9  O   UNL     1      21.870  -3.345  -2.019  1.00  0.00    -0.394 OA
ATOM     10  H   UNL     1      21.497  -2.455  -2.257  1.00  0.00     0.210 HD
ENDBRANCH   8   9
ENDBRANCH   3   8
BRANCH   4  11
ATOM     11  O   UNL     1      23.820  -1.541  -0.827  1.00  0.00    -0.387 OA
ATOM     12  H   UNL     1      23.576  -0.777  -0.240  1.00  0.00     0.211 HD
ENDBRANCH   4  11
BRANCH   6  13
ATOM     13  O   UNL     1      25.839  -2.023   0.894  1.00  0.00    -0.387 OA
ATOM     14  H   UNL     1      26.569  -2.686   0.784  1.00  0.00     0.211 HD
ENDBRANCH   6  13
BRANCH   7  15
ATOM     15  O   UNL     1      24.794  -2.275   3.528  1.00  0.00    -0.385 OA
ATOM     16  H   UNL     1      25.688  -1.940   3.262  1.00  0.00     0.211 HD
ENDBRANCH   7  15
ENDBRANCH   1   2
BRANCH   1  17
ATOM     17  C   UNL     1      21.655  -3.692   4.759  1.00  0.00     0.224 C 
ATOM     18  C   UNL     1      20.488  -4.645   4.411  1.00  0.00     0.208 C 
ATOM     19  O   UNL     1      22.188  -4.215   5.957  1.00  0.00    -0.337 OA
ATOM     20  C   UNL     1      21.137  -5.974   4.730  1.00  0.00     0.180 C 
ATOM     21  C   UNL     1      22.107  -5.623   5.862  1.00  0.00     0.179 C 
BRANCH  17  22
ATOM     22  C   UNL     1      21.210  -2.233   5.071  1.00  0.00     0.225 C 
BRANCH  22  23
ATOM     23  O   UNL     1      19.989  -1.905   4.448  1.00  0.00    -0.391 OA
ATOM     24  H   UNL     1      19.900  -2.507   3.669  1.00  0.00     0.210 HD
ENDBRANCH  22  23
ENDBRANCH  17  22
BRANCH  18  25
ATOM     25  O   UNL     1      19.402  -4.408   5.279  1.00  0.00    -0.385 OA
ATOM     26  H   UNL     1      19.542  -4.955   6.104  1.00  0.00     0.211 HD
ENDBRANCH  18  25
BRANCH  20  27
ATOM     27  O   UNL     1      20.245  -7.028   5.010  1.00  0.00    -0.387 OA
ATOM     28  H   UNL     1      20.418  -7.370   5.917  1.00  0.00     0.211 HD
ENDBRANCH  20  27
BRANCH  21  29
ATOM     29  C   UNL     1      21.723  -6.202   7.232  1.00  0.00     0.191 C 
BRANCH  29  30
ATOM     30  O   UNL     1      20.567  -5.582   7.726  1.00  0.00    -0.394 OA
ATOM     31  H   UNL     1      20.013  -5.338   6.945  1.00  0.00     0.210 HD
ENDBRANCH  29  30
ENDBRANCH  21  29
ENDBRANCH   1  17
TORSDOF 13
ENDMDL
MODEL 3
REMARK VINA RESULT:    -5.530      1.708      6.745
REMARK INTER + INTRA:          -9.831
REMARK INTER:                  -8.105
REMARK INTRA:                  -1.727
REMARK UNBOUND:                -1.392
REMARK SMILES OC[C@@H]1O[C@@](CO)(O[C@@H]2O[C@H](CO)[C@@H](O)[C@@H](O)[C@@H]2O)[C@H](O)[C@@H]1O
REMARK SMILES IDX 8 1 9 2 11 3 14 4 10 5 16 6 18 7 12 8 13 9 15 11 17 13 19 15
REMARK SMILES IDX 5 17 20 18 4 19 22 20 3 21 6 22 7 23 21 25 23 27 2 29 1 30
REMARK H PARENT 13 10 15 12 17 14 19 16 7 24 21 26 23 28 1 31
REMARK Flexibility Score: inf
ROOT
ATOM      1  O   UNL     1      22.225  -2.506   3.099  1.00  0.00    -0.313 OA
ENDROOT
BRANCH   1   2
ATOM      2  C   UNL     1      21.073  -2.259   3.881  1.00  0.00     0.285 C 
ATOM      3  C   UNL     1      20.385  -1.581   6.005  1.00  0.00     0.178 C 
ATOM      4  C   UNL     1      20.054  -2.984   6.575  1.00  0.00     0.177 C 
ATOM      5  O   UNL     1      21.483  -1.680   5.115  1.00  0.00    -0.341 OA
ATOM      6  C   UNL     1      20.456  -4.097   5.562  1.00  0.00     0.179 C 
ATOM      7  C   UNL     1      20.307  -3.609   4.106  1.00  0.00     0.202 C 
BRANCH   3   8
ATOM      8  C   UNL     1      20.711  -0.579   7.127  1.00  0.00     0.191 C 
BRANCH   8   9
ATOM      9  O   UNL     1      19.556  -0.159   7.816  1.00  0.00    -0.394 OA
ATOM     10  H   UNL     1      19.474   0.822   7.687  1.00  0.00     0.210 HD
ENDBRANCH   8   9
ENDBRANCH   3   8
BRANCH   4  11
ATOM     11  O   UNL     1      18.688  -3.057   6.924  1.00  0.00    -0.387 OA
ATOM     12  H   UNL     1      18.562  -2.589   7.792  1.00  0.00     0.211 HD
ENDBRANCH   4  11
BRANCH   6  13
ATOM     13  O   UNL     1      19.707  -5.267   5.764  1.00  0.00    -0.387 OA
ATOM     14  H   UNL     1      18.912  -5.220   5.172  1.00  0.00     0.211 HD
ENDBRANCH   6  13
BRANCH   7  15
ATOM     15  O   UNL     1      20.775  -4.590   3.216  1.00  0.00    -0.385 OA
ATOM     16  H   UNL     1      20.005  -5.168   2.981  1.00  0.00     0.211 HD
ENDBRANCH   7  15
ENDBRANCH   1   2
BRANCH   1  17
ATOM     17  C   UNL     1      22.271  -1.877   1.810  1.00  0.00     0.224 C 
ATOM     18  C   UNL     1      23.669  -1.330   1.439  1.00  0.00     0.208 C 
ATOM     19  O   UNL     1      22.039  -2.906   0.872  1.00  0.00    -0.337 OA
ATOM     20  C   UNL     1      24.393  -2.633   1.172  1.00  0.00     0.180 C 
ATOM     21  C   UNL     1      23.280  -3.545   0.647  1.00  0.00     0.179 C 
BRANCH  17  22
ATOM     22  C   UNL     1      21.119  -0.846   1.631  1.00  0.00     0.225 C 
BRANCH  22  23
ATOM     23  O   UNL     1      20.638  -0.812   0.306  1.00  0.00    -0.391 OA
ATOM     24  H   UNL     1      19.654  -0.734   0.365  1.00  0.00     0.210 HD
ENDBRANCH  22  23
ENDBRANCH  17  22
BRANCH  18  25
ATOM     25  O   UNL     1      23.586  -0.563   0.259  1.00  0.00    -0.385 OA
ATOM     26  H   UNL     1      23.825   0.380   0.487  1.00  0.00     0.211 HD
ENDBRANCH  18  25
BRANCH  20  27
ATOM     27  O   UNL     1      25.527  -2.532   0.341  1.00  0.00    -0.387 OA
ATOM     28  H   UNL     1      25.938  -1.645   0.457  1.00  0.00     0.211 HD
ENDBRANCH  20  27
BRANCH  21  29
ATOM     29  C   UNL     1      23.401  -3.907  -0.841  1.00  0.00     0.191 C 
BRANCH  29  30
ATOM     30  O   UNL     1      23.091  -2.802  -1.647  1.00  0.00    -0.394 OA
ATOM     31  H   UNL     1      23.052  -2.013  -1.053  1.00  0.00     0.210 HD
ENDBRANCH  29  30
ENDBRANCH  21  29
ENDBRANCH   1  17
TORSDOF 13
ENDMDL
MODEL 4
REMARK VINA RESULT:    -5.499      2.169      5.561
REMARK INTER + INTRA:          -9.785
REMARK INTER:                  -8.595
REMARK INTRA:                  -1.190
REMARK UNBOUND:                -1.392
REMARK SMILES OC[C@@H]1O[C@@](CO)(O[C@@H]2O[C@H](CO)[C@@H](O)[C@@H](O)[C@@H]2O)[C@H](O)[C@@H]1O
REMARK SMILES IDX 8 1 9 2 11 3 14 4 10 5 16 6 18 7 12 8 13 9 15 11 17 13 19 15
REMARK SMILES IDX 5 17 20 18 4 19 22 20 3 21 6 22 7 23 21 25 23 27 2 29 1 30
REMARK H PARENT 13 10 15 12 17 14 19 16 7 24 21 26 23 28 1 31
REMARK Flexibility Score: inf
ROOT
ATOM      1  O   UNL     1      22.813  -3.504   1.862  1.00  0.00    -0.313 OA
ENDROOT
BRANCH   1   2
ATOM      2  C   UNL     1      23.129  -2.417   2.711  1.00  0.00     0.285 C 
ATOM      3  C   UNL     1      24.900  -1.404   3.842  1.00  0.00     0.178 C 
ATOM      4  C   UNL     1      24.603  -1.977   5.252  1.00  0.00     0.177 C 
ATOM      5  O   UNL     1      24.543  -2.361   2.859  1.00  0.00    -0.341 OA
ATOM      6  C   UNL     1      23.427  -2.998   5.193  1.00  0.00     0.179 C 
ATOM      7  C   UNL     1      22.414  -2.621   4.093  1.00  0.00     0.202 C 
BRANCH   3   8
ATOM      8  C   UNL     1      26.385  -1.028   3.690  1.00  0.00     0.191 C 
BRANCH   8   9
ATOM      9  O   UNL     1      26.893  -1.377   2.423  1.00  0.00    -0.394 OA
ATOM     10  H   UNL     1      26.177  -1.203   1.757  1.00  0.00     0.210 HD
ENDBRANCH   8   9
ENDBRANCH   3   8
BRANCH   4  11
ATOM     11  O   UNL     1      24.344  -0.927   6.158  1.00  0.00    -0.387 OA
ATOM     12  H   UNL     1      23.377  -0.703   6.109  1.00  0.00     0.211 HD
ENDBRANCH   4  11
BRANCH   6  13
ATOM     13  O   UNL     1      22.782  -3.107   6.435  1.00  0.00    -0.387 OA
ATOM     14  H   UNL     1      23.223  -3.839   6.940  1.00  0.00     0.211 HD
ENDBRANCH   6  13
BRANCH   7  15
ATOM     15  O   UNL     1      21.423  -3.611   3.987  1.00  0.00    -0.385 OA
ATOM     16  H   UNL     1      21.883  -4.488   3.963  1.00  0.00     0.211 HD
ENDBRANCH   7  15
ENDBRANCH   1   2
BRANCH   1  17
ATOM     17  C   UNL     1      22.552  -3.187   0.487  1.00  0.00     0.224 C 
ATOM     18  C   UNL     1      21.800  -4.305  -0.272  1.00  0.00     0.208 C 
ATOM     19  O   UNL     1      21.645  -2.106   0.506  1.00  0.00    -0.337 OA
ATOM     20  C   UNL     1      20.425  -4.154   0.343  1.00  0.00     0.180 C 
ATOM     21  C   UNL     1      20.353  -2.657   0.663  1.00  0.00     0.179 C 
BRANCH  17  22
ATOM     22  C   UNL     1      23.832  -2.679  -0.239  1.00  0.00     0.225 C 
BRANCH  22  23
ATOM     23  O   UNL     1      23.527  -1.805  -1.303  1.00  0.00    -0.391 OA
ATOM     24  H   UNL     1      22.665  -2.109  -1.679  1.00  0.00     0.210 HD
ENDBRANCH  22  23
ENDBRANCH  17  22
BRANCH  18  25
ATOM     25  O   UNL     1      21.758  -4.004  -1.648  1.00  0.00    -0.385 OA
ATOM     26  H   UNL     1      22.565  -4.409  -2.077  1.00  0.00     0.211 HD
ENDBRANCH  18  25
BRANCH  20  27
ATOM     27  O   UNL     1      19.360  -4.653  -0.433  1.00  0.00    -0.387 OA
ATOM     28  H   UNL     1      19.400  -5.636  -0.448  1.00  0.00     0.211 HD
ENDBRANCH  20  27
BRANCH  21  29
ATOM     29  C   UNL     1      19.357  -1.869  -0.200  1.00  0.00     0.191 C 
BRANCH  29  30
ATOM     30  O   UNL     1      19.503  -2.202  -1.554  1.00  0.00    -0.394 OA
ATOM     31  H   UNL     1      20.244  -1.653  -1.909  1.00  0.00     0.210 HD
ENDBRANCH  29  30
ENDBRANCH  21  29
ENDBRANCH   1  17
TORSDOF 13
ENDMDL
MODEL 5
REMARK VINA RESULT:    -5.499      1.698      5.936
REMARK INTER + INTRA:          -9.785
REMARK INTER:                  -8.480
REMARK INTRA:                  -1.304
REMARK UNBOUND:                -1.392
REMARK SMILES OC[C@@H]1O[C@@](CO)(O[C@@H]2O[C@H](CO)[C@@H](O)[C@@H](O)[C@@H]2O)[C@H](O)[C@@H]1O
REMARK SMILES IDX 8 1 9 2 11 3 14 4 10 5 16 6 18 7 12 8 13 9 15 11 17 13 19 15
REMARK SMILES IDX 5 17 20 18 4 19 22 20 3 21 6 22 7 23 21 25 23 27 2 29 1 30
REMARK H PARENT 13 10 15 12 17 14 19 16 7 24 21 26 23 28 1 31
REMARK Flexibility Score: inf
ROOT
ATOM      1  O   UNL     1      21.298  -3.357   2.804  1.00  0.00    -0.313 OA
ENDROOT
BRANCH   1   2
ATOM      2  C   UNL     1      21.751  -3.815   4.063  1.00  0.00     0.285 C 
ATOM      3  C   UNL     1      21.321  -3.670   6.352  1.00  0.00     0.178 C 
ATOM      4  C   UNL     1      22.431  -2.647   6.708  1.00  0.00     0.177 C 
ATOM      5  O   UNL     1      20.822  -3.392   5.055  1.00  0.00    -0.341 OA
ATOM      6  C   UNL     1      23.146  -2.142   5.419  1.00  0.00     0.179 C 
ATOM      7  C   UNL     1      23.184  -3.238   4.334  1.00  0.00     0.202 C 
BRANCH   3   8
ATOM      8  C   UNL     1      20.172  -3.631   7.374  1.00  0.00     0.191 C 
BRANCH   8   9
ATOM      9  O   UNL     1      18.957  -3.220   6.791  1.00  0.00    -0.394 OA
ATOM     10  H   UNL     1      19.160  -2.456   6.189  1.00  0.00     0.210 HD
ENDBRANCH   8   9
ENDBRANCH   3   8
BRANCH   4  11
ATOM     11  O   UNL     1      23.339  -3.215   7.627  1.00  0.00    -0.387 OA
ATOM     12  H   UNL     1      22.819  -3.604   8.379  1.00  0.00     0.211 HD
ENDBRANCH   4  11
BRANCH   6  13
ATOM     13  O   UNL     1      24.445  -1.687   5.699  1.00  0.00    -0.387 OA
ATOM     14  H   UNL     1      24.389  -1.088   6.488  1.00  0.00     0.211 HD
ENDBRANCH   6  13
BRANCH   7  15
ATOM     15  O   UNL     1      23.737  -2.728   3.148  1.00  0.00    -0.385 OA
ATOM     16  H   UNL     1      24.635  -2.372   3.370  1.00  0.00     0.211 HD
ENDBRANCH   7  15
ENDBRANCH   1   2
BRANCH   1  17
ATOM     17  C   UNL     1      21.100  -4.354   1.792  1.00  0.00     0.224 C 
ATOM     18  C   UNL     1      19.989  -3.994   0.779  1.00  0.00     0.208 C 
ATOM     19  O   UNL     1      22.283  -4.363   1.023  1.00  0.00    -0.337 OA
ATOM     20  C   UNL     1      20.693  -2.904   0.000  1.00  0.00     0.180 C 
ATOM     21  C   UNL     1      22.165  -3.323   0.074  1.00  0.00     0.179 C 
BRANCH  17  22
ATOM     22  C   UNL     1      20.959  -5.778   2.407  1.00  0.00     0.225 C 
BRANCH  22  23
ATOM     23  O   UNL     1      21.197  -6.792   1.457  1.00  0.00    -0.391 OA
ATOM     24  H   UNL     1      20.314  -7.169   1.221  1.00  0.00     0.210 HD
ENDBRANCH  22  23
ENDBRANCH  17  22
BRANCH  18  25
ATOM     25  O   UNL     1      19.723  -5.100  -0.054  1.00  0.00    -0.385 OA
ATOM     26  H   UNL     1      19.170  -5.751   0.465  1.00  0.00     0.211 HD
ENDBRANCH  18  25
BRANCH  20  27
ATOM     27  O   UNL     1      20.198  -2.677  -1.300  1.00  0.00    -0.387 OA
ATOM     28  H   UNL     1      20.878  -2.947  -1.959  1.00  0.00     0.211 HD
ENDBRANCH  20  27
BRANCH  21  29
ATOM     29  C   UNL     1      22.762  -3.787  -1.264  1.00  0.00     0.191 C 
BRANCH  29  30
ATOM     30  O   UNL     1      23.011  -2.690  -2.101  1.00  0.00    -0.394 OA
ATOM     31  H   UNL     1      23.855  -2.277  -1.794  1.00  0.00     0.210 HD
ENDBRANCH  29  30
ENDBRANCH  21  29
ENDBRANCH   1  17
TORSDOF 13
ENDMDL
MODEL 6
REMARK VINA RESULT:    -5.480      1.794      6.331
REMARK INTER + INTRA:          -9.755
REMARK INTER:                  -8.396
REMARK INTRA:                  -1.359
REMARK UNBOUND:                -1.392
REMARK SMILES OC[C@@H]1O[C@@](CO)(O[C@@H]2O[C@H](CO)[C@@H](O)[C@@H](O)[C@@H]2O)[C@H](O)[C@@H]1O
REMARK SMILES IDX 8 1 9 2 11 3 14 4 10 5 16 6 18 7 12 8 13 9 15 11 17 13 19 15
REMARK SMILES IDX 5 17 20 18 4 19 22 20 3 21 6 22 7 23 21 25 23 27 2 29 1 30
REMARK H PARENT 13 10 15 12 17 14 19 16 7 24 21 26 23 28 1 31
REMARK Flexibility Score: inf
ROOT
ATOM      1  O   UNL     1      20.280  -4.167   2.190  1.00  0.00    -0.313 OA
ENDROOT
BRANCH   1   2
ATOM      2  C   UNL     1      20.847  -4.692   3.375  1.00  0.00     0.285 C 
ATOM      3  C   UNL     1      20.754  -6.518   4.823  1.00  0.00     0.178 C 
ATOM      4  C   UNL     1      19.893  -5.862   5.933  1.00  0.00     0.177 C 
ATOM      5  O   UNL     1      20.358  -6.015   3.559  1.00  0.00    -0.341 OA
ATOM      6  C   UNL     1      19.421  -4.442   5.494  1.00  0.00     0.179 C 
ATOM      7  C   UNL     1      20.464  -3.765   4.581  1.00  0.00     0.202 C 
BRANCH   3   8
ATOM      8  C   UNL     1      20.620  -8.051   4.840  1.00  0.00     0.191 C 
BRANCH   8   9
ATOM      9  O   UNL     1      19.877  -8.507   5.947  1.00  0.00    -0.394 OA
ATOM     10  H   UNL     1      20.069  -9.476   6.056  1.00  0.00     0.210 HD
ENDBRANCH   8   9
ENDBRANCH   3   8
BRANCH   4  11
ATOM     11  O   UNL     1      20.609  -5.827   7.148  1.00  0.00    -0.387 OA
ATOM     12  H   UNL     1      21.572  -5.966   6.946  1.00  0.00     0.211 HD
ENDBRANCH   4  11
BRANCH   6  13
ATOM     13  O   UNL     1      19.144  -3.630   6.605  1.00  0.00    -0.387 OA
ATOM     14  H   UNL     1      19.202  -4.200   7.416  1.00  0.00     0.211 HD
ENDBRANCH   6  13
BRANCH   7  15
ATOM     15  O   UNL     1      19.972  -2.534   4.114  1.00  0.00    -0.385 OA
ATOM     16  H   UNL     1      20.750  -1.933   3.989  1.00  0.00     0.211 HD
ENDBRANCH   7  15
ENDBRANCH   1   2
BRANCH   1  17
ATOM     17  C   UNL     1      21.115  -4.170   1.024  1.00  0.00     0.224 C 
ATOM     18  C   UNL     1      20.850  -2.981   0.072  1.00  0.00     0.208 C 
ATOM     19  O   UNL     1      22.430  -3.957   1.491  1.00  0.00    -0.337 OA
ATOM     20  C   UNL     1      21.462  -1.859   0.883  1.00  0.00     0.180 C 
ATOM     21  C   UNL     1      22.589  -2.561   1.647  1.00  0.00     0.179 C 
BRANCH  17  22
ATOM     22  C   UNL     1      21.115  -5.559   0.319  1.00  0.00     0.225 C 
BRANCH  22  23
ATOM     23  O   UNL     1      20.004  -5.721  -0.533  1.00  0.00    -0.391 OA
ATOM     24  H   UNL     1      19.821  -6.691  -0.577  1.00  0.00     0.210 HD
ENDBRANCH  22  23
ENDBRANCH  17  22
BRANCH  18  25
ATOM     25  O   UNL     1      21.564  -3.163  -1.131  1.00  0.00    -0.385 OA
ATOM     26  H   UNL     1      22.410  -2.635  -1.070  1.00  0.00     0.211 HD
ENDBRANCH  18  25
BRANCH  20  27
ATOM     27  O   UNL     1      21.855  -0.726   0.144  1.00  0.00    -0.387 OA
ATOM     28  H   UNL     1      22.652  -0.945  -0.391  1.00  0.00     0.211 HD
ENDBRANCH  20  27
BRANCH  21  29
ATOM     29  C   UNL     1      24.005  -2.160   1.205  1.00  0.00     0.191 C 
BRANCH  29  30
ATOM     30  O   UNL     1      24.175  -2.378  -0.169  1.00  0.00    -0.394 OA
ATOM     31  H   UNL     1      24.519  -3.298  -0.276  1.00  0.00     0.210 HD
ENDBRANCH  29  30
ENDBRANCH  21  29
ENDBRANCH   1  17
TORSDOF 13
ENDMDL
MODEL 7
REMARK VINA RESULT:    -5.458      2.690      5.343
REMARK INTER + INTRA:          -9.722
REMARK INTER:                  -8.063
REMARK INTRA:                  -1.659
REMARK UNBOUND:                -1.392
REMARK SMILES OC[C@@H]1O[C@@](CO)(O[C@@H]2O[C@H](CO)[C@@H](O)[C@@H](O)[C@@H]2O)[C@H](O)[C@@H]1O
REMARK SMILES IDX 8 1 9 2 11 3 14 4 10 5 16 6 18 7 12 8 13 9 15 11 17 13 19 15
REMARK SMILES IDX 5 17 20 18 4 19 22 20 3 21 6 22 7 23 21 25 23 27 2 29 1 30
REMARK H PARENT 13 10 15 12 17 14 19 16 7 24 21 26 23 28 1 31
REMARK Flexibility Score: inf
ROOT
ATOM      1  O   UNL     1      23.770  -2.557   2.033  1.00  0.00    -0.313 OA
ENDROOT
BRANCH   1   2
ATOM      2  C   UNL     1      22.467  -3.049   1.785  1.00  0.00     0.285 C 
ATOM      3  C   UNL     1      21.257  -5.020   1.484  1.00  0.00     0.178 C 
ATOM      4  C   UNL     1      21.163  -4.973  -0.063  1.00  0.00     0.177 C 
ATOM      5  O   UNL     1      22.494  -4.467   1.899  1.00  0.00    -0.341 OA
ATOM      6  C   UNL     1      21.997  -3.784  -0.628  1.00  0.00     0.179 C 
ATOM      7  C   UNL     1      22.011  -2.595   0.355  1.00  0.00     0.202 C 
BRANCH   3   8
ATOM      8  C   UNL     1      21.125  -6.460   2.012  1.00  0.00     0.191 C 
BRANCH   8   9
ATOM      9  O   UNL     1      20.818  -7.375   0.986  1.00  0.00    -0.394 OA
ATOM     10  H   UNL     1      21.501  -7.264   0.275  1.00  0.00     0.210 HD
ENDBRANCH   8   9
ENDBRANCH   3   8
BRANCH   4  11
ATOM     11  O   UNL     1      19.813  -4.909  -0.467  1.00  0.00    -0.387 OA
ATOM     12  H   UNL     1      19.251  -5.287   0.261  1.00  0.00     0.211 HD
ENDBRANCH   4  11
BRANCH   6  13
ATOM     13  O   UNL     1      21.519  -3.375  -1.883  1.00  0.00    -0.387 OA
ATOM     14  H   UNL     1      22.156  -2.703  -2.242  1.00  0.00     0.211 HD
ENDBRANCH   6  13
BRANCH   7  15
ATOM     15  O   UNL     1      22.853  -1.578  -0.126  1.00  0.00    -0.385 OA
ATOM     16  H   UNL     1      22.380  -0.717   0.003  1.00  0.00     0.211 HD
ENDBRANCH   7  15
ENDBRANCH   1   2
BRANCH   1  17
ATOM     17  C   UNL     1      23.937  -1.744   3.203  1.00  0.00     0.224 C 
ATOM     18  C   UNL     1      25.415  -1.429   3.530  1.00  0.00     0.208 C 
ATOM     19  O   UNL     1      23.375  -0.489   2.882  1.00  0.00    -0.337 OA
ATOM     20  C   UNL     1      25.719  -0.441   2.424  1.00  0.00     0.180 C 
ATOM     21  C   UNL     1      24.367   0.240   2.188  1.00  0.00     0.179 C 
BRANCH  17  22
ATOM     22  C   UNL     1      23.125  -2.298   4.410  1.00  0.00     0.225 C 
BRANCH  22  23
ATOM     23  O   UNL     1      23.849  -3.264   5.138  1.00  0.00    -0.391 OA
ATOM     24  H   UNL     1      23.326  -4.102   5.093  1.00  0.00     0.210 HD
ENDBRANCH  22  23
ENDBRANCH  17  22
BRANCH  18  25
ATOM     25  O   UNL     1      25.503  -0.799   4.789  1.00  0.00    -0.385 OA
ATOM     26  H   UNL     1      25.167   0.137   4.689  1.00  0.00     0.211 HD
ENDBRANCH  18  25
BRANCH  20  27
ATOM     27  O   UNL     1      26.795   0.434   2.677  1.00  0.00    -0.387 OA
ATOM     28  H   UNL     1      26.945   1.003   1.888  1.00  0.00     0.211 HD
ENDBRANCH  20  27
BRANCH  21  29
ATOM     29  C   UNL     1      24.311   1.713   2.622  1.00  0.00     0.191 C 
BRANCH  29  30
ATOM     30  O   UNL     1      24.544   1.832   4.000  1.00  0.00    -0.394 OA
ATOM     31  H   UNL     1      25.215   1.148   4.240  1.00  0.00     0.210 HD
ENDBRANCH  29  30
ENDBRANCH  21  29
ENDBRANCH   1  17
TORSDOF 13
ENDMDL
MODEL 8
REMARK VINA RESULT:    -5.428      1.652      6.702
REMARK INTER + INTRA:          -9.676
REMARK INTER:                  -7.995
REMARK INTRA:                  -1.680
REMARK UNBOUND:                -1.392
REMARK SMILES OC[C@@H]1O[C@@](CO)(O[C@@H]2O[C@H](CO)[C@@H](O)[C@@H](O)[C@@H]2O)[C@H](O)[C@@H]1O
REMARK SMILES IDX 8 1 9 2 11 3 14 4 10 5 16 6 18 7 12 8 13 9 15 11 17 13 19 15
REMARK SMILES IDX 5 17 20 18 4 19 22 20 3 21 6 22 7 23 21 25 23 27 2 29 1 30
REMARK H PARENT 13 10 15 12 17 14 19 16 7 24 21 26 23 28 1 31
REMARK Flexibility Score: inf
ROOT
ATOM      1  O   UNL     1      22.353  -4.242   3.035  1.00  0.00    -0.313 OA
ENDROOT
BRANCH   1   2
ATOM      2  C   UNL     1      21.282  -4.576   3.896  1.00  0.00     0.285 C 
ATOM      3  C   UNL     1      20.800  -5.268   6.071  1.00  0.00     0.178 C 
ATOM      4  C   UNL     1      20.574  -6.772   5.767  1.00  0.00     0.177 C 
ATOM      5  O   UNL     1      21.801  -4.757   5.208  1.00  0.00    -0.341 OA
ATOM      6  C   UNL     1      20.903  -7.085   4.276  1.00  0.00     0.179 C 
ATOM      7  C   UNL     1      20.586  -5.879   3.368  1.00  0.00     0.202 C 
BRANCH   3   8
ATOM      8  C   UNL     1      21.210  -5.046   7.538  1.00  0.00     0.191 C 
BRANCH   8   9
ATOM      9  O   UNL     1      20.840  -6.127   8.362  1.00  0.00    -0.394 OA
ATOM     10  H   UNL     1      20.062  -6.574   7.934  1.00  0.00     0.210 HD
ENDBRANCH   8   9
ENDBRANCH   3   8
BRANCH   4  11
ATOM     11  O   UNL     1      19.256  -7.144   6.106  1.00  0.00    -0.387 OA
ATOM     12  H   UNL     1      19.256  -8.109   6.346  1.00  0.00     0.211 HD
ENDBRANCH   4  11
BRANCH   6  13
ATOM     13  O   UNL     1      20.216  -8.226   3.830  1.00  0.00    -0.387 OA
ATOM     14  H   UNL     1      19.918  -8.729   4.632  1.00  0.00     0.211 HD
ENDBRANCH   6  13
BRANCH   7  15
ATOM     15  O   UNL     1      20.989  -6.147   2.049  1.00  0.00    -0.385 OA
ATOM     16  H   UNL     1      21.204  -7.113   1.996  1.00  0.00     0.211 HD
ENDBRANCH   7  15
ENDBRANCH   1   2
BRANCH   1  17
ATOM     17  C   UNL     1      22.188  -3.062   2.235  1.00  0.00     0.224 C 
ATOM     18  C   UNL     1      23.465  -2.195   2.144  1.00  0.00     0.208 C 
ATOM     19  O   UNL     1      21.980  -3.517   0.916  1.00  0.00    -0.337 OA
ATOM     20  C   UNL     1      24.304  -3.067   1.234  1.00  0.00     0.180 C 
ATOM     21  C   UNL     1      23.256  -3.761   0.359  1.00  0.00     0.179 C 
BRANCH  17  22
ATOM     22  C   UNL     1      20.910  -2.268   2.637  1.00  0.00     0.225 C 
BRANCH  22  23
ATOM     23  O   UNL     1      20.235  -1.745   1.516  1.00  0.00    -0.391 OA
ATOM     24  H   UNL     1      19.796  -2.510   1.070  1.00  0.00     0.210 HD
ENDBRANCH  22  23
ENDBRANCH  17  22
BRANCH  18  25
ATOM     25  O   UNL     1      23.168  -0.970   1.513  1.00  0.00    -0.385 OA
ATOM     26  H   UNL     1      23.532  -0.234   2.083  1.00  0.00     0.211 HD
ENDBRANCH  18  25
BRANCH  20  27
ATOM     27  O   UNL     1      25.324  -2.396   0.529  1.00  0.00    -0.387 OA
ATOM     28  H   UNL     1      24.951  -2.014  -0.298  1.00  0.00     0.211 HD
ENDBRANCH  20  27
BRANCH  21  29
ATOM     29  C   UNL     1      23.260  -3.320  -1.112  1.00  0.00     0.191 C 
BRANCH  29  30
ATOM     30  O   UNL     1      23.322  -1.922  -1.210  1.00  0.00    -0.394 OA
ATOM     31  H   UNL     1      23.568  -1.708  -2.143  1.00  0.00     0.210 HD
ENDBRANCH  29  30
ENDBRANCH  21  29
ENDBRANCH   1  17
TORSDOF 13
ENDMDL
MODEL 9
REMARK VINA RESULT:    -5.312      1.747      6.361
REMARK INTER + INTRA:          -9.498
REMARK INTER:                  -8.386
REMARK INTRA:                  -1.112
REMARK UNBOUND:                -1.392
REMARK SMILES OC[C@@H]1O[C@@](CO)(O[C@@H]2O[C@H](CO)[C@@H](O)[C@@H](O)[C@@H]2O)[C@H](O)[C@@H]1O
REMARK SMILES IDX 8 1 9 2 11 3 14 4 10 5 16 6 18 7 12 8 13 9 15 11 17 13 19 15
REMARK SMILES IDX 5 17 20 18 4 19 22 20 3 21 6 22 7 23 21 25 23 27 2 29 1 30
REMARK H PARENT 13 10 15 12 17 14 19 16 7 24 21 26 23 28 1 31
REMARK Flexibility Score: inf
ROOT
ATOM      1  O   UNL     1      21.719  -4.307   2.291  1.00  0.00    -0.313 OA
ENDROOT
BRANCH   1   2
ATOM      2  C   UNL     1      20.712  -3.800   3.145  1.00  0.00     0.285 C 
ATOM      3  C   UNL     1      20.385  -2.519   5.067  1.00  0.00     0.178 C 
ATOM      4  C   UNL     1      20.162  -3.687   6.062  1.00  0.00     0.177 C 
ATOM      5  O   UNL     1      21.320  -2.913   4.077  1.00  0.00    -0.341 OA
ATOM      6  C   UNL     1      20.396  -5.058   5.360  1.00  0.00     0.179 C 
ATOM      7  C   UNL     1      20.002  -4.997   3.869  1.00  0.00     0.202 C 
BRANCH   3   8
ATOM      8  C   UNL     1      20.888  -1.255   5.787  1.00  0.00     0.191 C 
BRANCH   8   9
ATOM      9  O   UNL     1      19.942  -0.753   6.702  1.00  0.00    -0.394 OA
ATOM     10  H   UNL     1      20.440  -0.446   7.506  1.00  0.00     0.210 HD
ENDBRANCH   8   9
ENDBRANCH   3   8
BRANCH   4  11
ATOM     11  O   UNL     1      18.875  -3.600   6.633  1.00  0.00    -0.387 OA
ATOM     12  H   UNL     1      18.753  -4.372   7.248  1.00  0.00     0.211 HD
ENDBRANCH   4  11
BRANCH   6  13
ATOM     13  O   UNL     1      19.698  -6.090   6.007  1.00  0.00    -0.387 OA
ATOM     14  H   UNL     1      20.364  -6.767   6.297  1.00  0.00     0.211 HD
ENDBRANCH   6  13
BRANCH   7  15
ATOM     15  O   UNL     1      20.321  -6.209   3.234  1.00  0.00    -0.385 OA
ATOM     16  H   UNL     1      21.281  -6.388   3.403  1.00  0.00     0.211 HD
ENDBRANCH   7  15
ENDBRANCH   1   2
BRANCH   1  17
ATOM     17  C   UNL     1      21.565  -4.040   0.890  1.00  0.00     0.224 C 
ATOM     18  C   UNL     1      20.754  -2.758   0.591  1.00  0.00     0.208 C 
ATOM     19  O   UNL     1      22.861  -3.753   0.409  1.00  0.00    -0.337 OA
ATOM     20  C   UNL     1      21.770  -1.710   0.994  1.00  0.00     0.180 C 
ATOM     21  C   UNL     1      23.107  -2.388   0.681  1.00  0.00     0.179 C 
BRANCH  17  22
ATOM     22  C   UNL     1      21.072  -5.297   0.114  1.00  0.00     0.225 C 
BRANCH  22  23
ATOM     23  O   UNL     1      19.700  -5.220  -0.202  1.00  0.00    -0.391 OA
ATOM     24  H   UNL     1      19.554  -5.824  -0.971  1.00  0.00     0.210 HD
ENDBRANCH  22  23
ENDBRANCH  17  22
BRANCH  18  25
ATOM     25  O   UNL     1      20.483  -2.674  -0.790  1.00  0.00    -0.385 OA
ATOM     26  H   UNL     1      19.499  -2.535  -0.902  1.00  0.00     0.211 HD
ENDBRANCH  18  25
BRANCH  20  27
ATOM     27  O   UNL     1      21.590  -0.441   0.409  1.00  0.00    -0.387 OA
ATOM     28  H   UNL     1      21.071  -0.535  -0.422  1.00  0.00     0.211 HD
ENDBRANCH  20  27
BRANCH  21  29
ATOM     29  C   UNL     1      23.876  -1.768  -0.496  1.00  0.00     0.191 C 
BRANCH  29  30
ATOM     30  O   UNL     1      23.368  -2.229  -1.718  1.00  0.00    -0.394 OA
ATOM     31  H   UNL     1      23.633  -1.573  -2.408  1.00  0.00     0.210 HD
ENDBRANCH  29  30
ENDBRANCH  21  29
ENDBRANCH   1  17
TORSDOF 13
ENDMDL
