MODEL 1
REMARK VINA RESULT:    -2.641      0.000      0.000
REMARK INTER + INTRA:          -3.209
REMARK INTER:                  -3.182
REMARK INTRA:                  -0.028
REMARK UNBOUND:                -0.028
REMARK SMILES CC[C@@H](C)[C@H]([NH3+])C(=O)[O-]
REMARK SMILES IDX 3 1 4 2 5 3 6 4 7 8 8 9 9 10 2 11 1 12
REMARK H PARENT 6 5 6 6 6 7
REMARK Flexibility Score: inf
ROOT
ATOM      1  C   UNL     1     -24.466  59.806 -46.540  1.00  0.00     0.050 C 
ATOM      2  C   UNL     1     -25.790  60.451 -46.991  1.00  0.00     0.014 C 
ENDROOT
BRANCH   1   3
ATOM      3  C   UNL     1     -23.565  59.367 -47.740  1.00  0.00     0.230 C 
BRANCH   3   4
ATOM      4  N   UNL     1     -24.267  59.409 -49.033  1.00  0.00    -0.350 N 
ATOM      5  H   UNL     1     -25.259  59.098 -48.939  1.00  0.00     0.345 HD
ATOM      6  H   UNL     1     -24.240  60.374 -49.431  1.00  0.00     0.345 HD
ATOM      7  H   UNL     1     -23.783  58.777 -49.712  1.00  0.00     0.345 HD
ENDBRANCH   3   4
BRANCH   3   8
ATOM      8  C   UNL     1     -22.968  58.001 -47.499  1.00  0.00     0.099 C 
ATOM      9  O   UNL     1     -22.304  57.783 -46.452  1.00  0.00    -0.544 OA
ATOM     10  O   UNL     1     -23.183  56.964 -48.400  1.00  0.00    -0.544 OA
ENDBRANCH   3   8
ENDBRANCH   1   3
BRANCH   1  11
ATOM     11  C   UNL     1     -23.755  60.747 -45.535  1.00  0.00     0.006 C 
ATOM     12  C   UNL     1     -24.634  61.144 -44.347  1.00  0.00     0.004 C 
ENDBRANCH   1  11
TORSDOF 4
ENDMDL
MODEL 2
REMARK VINA RESULT:    -2.586      6.955      7.946
REMARK INTER + INTRA:          -3.143
REMARK INTER:                  -3.047
REMARK INTRA:                  -0.096
REMARK UNBOUND:                -0.028
REMARK SMILES CC[C@@H](C)[C@H]([NH3+])C(=O)[O-]
REMARK SMILES IDX 3 1 4 2 5 3 6 4 7 8 8 9 9 10 2 11 1 12
REMARK H PARENT 6 5 6 6 6 7
REMARK Flexibility Score: inf
ROOT
ATOM      1  C   UNL     1     -29.304  59.433 -52.948  1.00  0.00     0.050 C 
ATOM      2  C   UNL     1     -30.612  60.017 -53.514  1.00  0.00     0.014 C 
ENDROOT
BRANCH   1   3
ATOM      3  C   UNL     1     -28.983  58.008 -53.504  1.00  0.00     0.230 C 
BRANCH   3   4
ATOM      4  N   UNL     1     -30.119  57.399 -54.216  1.00  0.00    -0.350 N 
ATOM      5  H   UNL     1     -30.994  57.442 -53.647  1.00  0.00     0.345 HD
ATOM      6  H   UNL     1     -30.274  57.878 -55.131  1.00  0.00     0.345 HD
ATOM      7  H   UNL     1     -29.904  56.396 -54.421  1.00  0.00     0.345 HD
ENDBRANCH   3   4
BRANCH   3   8
ATOM      8  C   UNL     1     -28.489  57.096 -52.408  1.00  0.00     0.099 C 
ATOM      9  O   UNL     1     -29.059  55.992 -52.204  1.00  0.00    -0.544 OA
ATOM     10  O   UNL     1     -27.376  57.439 -51.647  1.00  0.00    -0.544 OA
ENDBRANCH   3   8
ENDBRANCH   1   3
BRANCH   1  11
ATOM     11  C   UNL     1     -28.157  60.456 -53.151  1.00  0.00     0.006 C 
ATOM     12  C   UNL     1     -27.591  61.004 -51.839  1.00  0.00     0.004 C 
ENDBRANCH   1  11
TORSDOF 4
ENDMDL
MODEL 3
REMARK VINA RESULT:    -2.529      3.396      4.483
REMARK INTER + INTRA:          -3.074
REMARK INTER:                  -3.007
REMARK INTRA:                  -0.067
REMARK UNBOUND:                -0.028
REMARK SMILES CC[C@@H](C)[C@H]([NH3+])C(=O)[O-]
REMARK SMILES IDX 3 1 4 2 5 3 6 4 7 8 8 9 9 10 2 11 1 12
REMARK H PARENT 6 5 6 6 6 7
REMARK Flexibility Score: inf
ROOT
ATOM      1  C   UNL     1     -26.632  61.388 -48.036  1.00  0.00     0.050 C 
ATOM      2  C   UNL     1     -26.776  60.380 -49.191  1.00  0.00     0.014 C 
ENDROOT
BRANCH   1   3
ATOM      3  C   UNL     1     -25.497  61.003 -47.032  1.00  0.00     0.230 C 
BRANCH   3   4
ATOM      4  N   UNL     1     -24.998  59.632 -47.225  1.00  0.00    -0.350 N 
ATOM      5  H   UNL     1     -23.967  59.620 -47.386  1.00  0.00     0.345 HD
ATOM      6  H   UNL     1     -25.229  59.040 -46.395  1.00  0.00     0.345 HD
ATOM      7  H   UNL     1     -25.470  59.203 -48.054  1.00  0.00     0.345 HD
ENDBRANCH   3   4
BRANCH   3   8
ATOM      8  C   UNL     1     -25.941  61.215 -45.604  1.00  0.00     0.099 C 
ATOM      9  O   UNL     1     -25.123  61.049 -44.662  1.00  0.00    -0.544 OA
ATOM     10  O   UNL     1     -27.234  61.637 -45.318  1.00  0.00    -0.544 OA
ENDBRANCH   3   8
ENDBRANCH   1   3
BRANCH   1  11
ATOM     11  C   UNL     1     -26.493  62.817 -48.618  1.00  0.00     0.006 C 
ATOM     12  C   UNL     1     -27.450  63.097 -49.778  1.00  0.00     0.004 C 
ENDBRANCH   1  11
TORSDOF 4
ENDMDL
MODEL 4
REMARK VINA RESULT:    -2.518      3.940      4.743
REMARK INTER + INTRA:          -3.061
REMARK INTER:                  -3.000
REMARK INTRA:                  -0.061
REMARK UNBOUND:                -0.028
REMARK SMILES CC[C@@H](C)[C@H]([NH3+])C(=O)[O-]
REMARK SMILES IDX 3 1 4 2 5 3 6 4 7 8 8 9 9 10 2 11 1 12
REMARK H PARENT 6 5 6 6 6 7
REMARK Flexibility Score: inf
ROOT
ATOM      1  C   UNL     1     -25.881  61.286 -47.521  1.00  0.00     0.050 C 
ATOM      2  C   UNL     1     -24.668  60.369 -47.764  1.00  0.00     0.014 C 
ENDROOT
BRANCH   1   3
ATOM      3  C   UNL     1     -27.001  61.110 -48.597  1.00  0.00     0.230 C 
BRANCH   3   4
ATOM      4  N   UNL     1     -26.769  59.961 -49.487  1.00  0.00    -0.350 N 
ATOM      5  H   UNL     1     -25.753  59.839 -49.696  1.00  0.00     0.345 HD
ATOM      6  H   UNL     1     -27.145  59.086 -49.058  1.00  0.00     0.345 HD
ATOM      7  H   UNL     1     -27.279  60.110 -50.389  1.00  0.00     0.345 HD
ENDBRANCH   3   4
BRANCH   3   8
ATOM      8  C   UNL     1     -27.188  62.377 -49.397  1.00  0.00     0.099 C 
ATOM      9  O   UNL     1     -27.508  62.309 -50.613  1.00  0.00    -0.544 OA
ATOM     10  O   UNL     1     -27.057  63.623 -48.795  1.00  0.00    -0.544 OA
ENDBRANCH   3   8
ENDBRANCH   1   3
BRANCH   1  11
ATOM     11  C   UNL     1     -26.379  61.101 -46.065  1.00  0.00     0.006 C 
ATOM     12  C   UNL     1     -25.252  61.111 -45.031  1.00  0.00     0.004 C 
ENDBRANCH   1  11
TORSDOF 4
ENDMDL
MODEL 5
REMARK VINA RESULT:    -2.489      9.182     10.386
REMARK INTER + INTRA:          -3.026
REMARK INTER:                  -2.898
REMARK INTRA:                  -0.127
REMARK UNBOUND:                -0.028
REMARK SMILES CC[C@@H](C)[C@H]([NH3+])C(=O)[O-]
REMARK SMILES IDX 3 1 4 2 5 3 6 4 7 8 8 9 9 10 2 11 1 12
REMARK H PARENT 6 5 6 6 6 7
REMARK Flexibility Score: inf
ROOT
ATOM      1  C   UNL     1     -31.135  64.289 -53.096  1.00  0.00     0.050 C 
ATOM      2  C   UNL     1     -31.795  62.920 -53.352  1.00  0.00     0.014 C 
ENDROOT
BRANCH   1   3
ATOM      3  C   UNL     1     -29.644  64.168 -52.643  1.00  0.00     0.230 C 
BRANCH   3   4
ATOM      4  N   UNL     1     -29.085  62.822 -52.853  1.00  0.00    -0.350 N 
ATOM      5  H   UNL     1     -28.210  62.857 -53.422  1.00  0.00     0.345 HD
ATOM      6  H   UNL     1     -28.888  62.363 -51.936  1.00  0.00     0.345 HD
ATOM      7  H   UNL     1     -29.785  62.229 -53.355  1.00  0.00     0.345 HD
ENDBRANCH   3   4
BRANCH   3   8
ATOM      8  C   UNL     1     -29.476  64.598 -51.205  1.00  0.00     0.099 C 
ATOM      9  O   UNL     1     -30.180  65.534 -50.744  1.00  0.00    -0.544 OA
ATOM     10  O   UNL     1     -28.584  63.939 -50.367  1.00  0.00    -0.544 OA
ENDBRANCH   3   8
ENDBRANCH   1   3
BRANCH   1  11
ATOM     11  C   UNL     1     -31.341  65.196 -54.334  1.00  0.00     0.006 C 
ATOM     12  C   UNL     1     -31.492  66.678 -53.984  1.00  0.00     0.004 C 
ENDBRANCH   1  11
TORSDOF 4
ENDMDL
MODEL 6
REMARK VINA RESULT:    -2.483      3.362      4.030
REMARK INTER + INTRA:          -3.019
REMARK INTER:                  -2.933
REMARK INTRA:                  -0.086
REMARK UNBOUND:                -0.028
REMARK SMILES CC[C@@H](C)[C@H]([NH3+])C(=O)[O-]
REMARK SMILES IDX 3 1 4 2 5 3 6 4 7 8 8 9 9 10 2 11 1 12
REMARK H PARENT 6 5 6 6 6 7
REMARK Flexibility Score: inf
ROOT
ATOM      1  C   UNL     1     -24.317  60.526 -46.509  1.00  0.00     0.050 C 
ATOM      2  C   UNL     1     -23.656  59.255 -47.075  1.00  0.00     0.014 C 
ENDROOT
BRANCH   1   3
ATOM      3  C   UNL     1     -25.878  60.477 -46.568  1.00  0.00     0.230 C 
BRANCH   3   4
ATOM      4  N   UNL     1     -26.396  60.272 -47.930  1.00  0.00    -0.350 N 
ATOM      5  H   UNL     1     -25.769  59.650 -48.488  1.00  0.00     0.345 HD
ATOM      6  H   UNL     1     -27.356  59.861 -47.897  1.00  0.00     0.345 HD
ATOM      7  H   UNL     1     -26.470  61.195 -48.418  1.00  0.00     0.345 HD
ENDBRANCH   3   4
BRANCH   3   8
ATOM      8  C   UNL     1     -26.484  61.712 -45.946  1.00  0.00     0.099 C 
ATOM      9  O   UNL     1     -27.225  61.606 -44.934  1.00  0.00    -0.544 OA
ATOM     10  O   UNL     1     -26.195  62.976 -46.450  1.00  0.00    -0.544 OA
ENDBRANCH   3   8
ENDBRANCH   1   3
BRANCH   1  11
ATOM     11  C   UNL     1     -23.754  60.808 -45.093  1.00  0.00     0.006 C 
ATOM     12  C   UNL     1     -22.344  60.253 -44.877  1.00  0.00     0.004 C 
ENDBRANCH   1  11
TORSDOF 4
ENDMDL
MODEL 7
REMARK VINA RESULT:    -2.470      3.829      4.873
REMARK INTER + INTRA:          -3.003
REMARK INTER:                  -2.870
REMARK INTRA:                  -0.133
REMARK UNBOUND:                -0.028
REMARK SMILES CC[C@@H](C)[C@H]([NH3+])C(=O)[O-]
REMARK SMILES IDX 3 1 4 2 5 3 6 4 7 8 8 9 9 10 2 11 1 12
REMARK H PARENT 6 5 6 6 6 7
REMARK Flexibility Score: inf
ROOT
ATOM      1  C   UNL     1     -25.176  60.465 -46.656  1.00  0.00     0.050 C 
ATOM      2  C   UNL     1     -23.987  59.497 -46.801  1.00  0.00     0.014 C 
ENDROOT
BRANCH   1   3
ATOM      3  C   UNL     1     -24.981  61.497 -45.499  1.00  0.00     0.230 C 
BRANCH   3   4
ATOM      4  N   UNL     1     -24.527  60.877 -44.244  1.00  0.00    -0.350 N 
ATOM      5  H   UNL     1     -24.240  61.597 -43.544  1.00  0.00     0.345 HD
ATOM      6  H   UNL     1     -25.283  60.279 -43.840  1.00  0.00     0.345 HD
ATOM      7  H   UNL     1     -23.708  60.256 -44.438  1.00  0.00     0.345 HD
ENDBRANCH   3   4
BRANCH   3   8
ATOM      8  C   UNL     1     -26.238  62.303 -45.273  1.00  0.00     0.099 C 
ATOM      9  O   UNL     1     -27.244  61.761 -44.745  1.00  0.00    -0.544 OA
ATOM     10  O   UNL     1     -26.284  63.654 -45.600  1.00  0.00    -0.544 OA
ENDBRANCH   3   8
ENDBRANCH   1   3
BRANCH   1  11
ATOM     11  C   UNL     1     -25.477  61.114 -48.030  1.00  0.00     0.006 C 
ATOM     12  C   UNL     1     -26.864  60.768 -48.577  1.00  0.00     0.004 C 
ENDBRANCH   1  11
TORSDOF 4
ENDMDL
MODEL 8
REMARK VINA RESULT:    -2.468      3.290      3.878
REMARK INTER + INTRA:          -3.001
REMARK INTER:                  -2.880
REMARK INTRA:                  -0.120
REMARK UNBOUND:                -0.028
REMARK SMILES CC[C@@H](C)[C@H]([NH3+])C(=O)[O-]
REMARK SMILES IDX 3 1 4 2 5 3 6 4 7 8 8 9 9 10 2 11 1 12
REMARK H PARENT 6 5 6 6 6 7
REMARK Flexibility Score: inf
ROOT
ATOM      1  C   UNL     1     -23.992  61.293 -45.565  1.00  0.00     0.050 C 
ATOM      2  C   UNL     1     -22.847  61.356 -46.593  1.00  0.00     0.014 C 
ENDROOT
BRANCH   1   3
ATOM      3  C   UNL     1     -25.190  60.411 -46.043  1.00  0.00     0.230 C 
BRANCH   3   4
ATOM      4  N   UNL     1     -24.901  59.669 -47.281  1.00  0.00    -0.350 N 
ATOM      5  H   UNL     1     -25.604  58.915 -47.448  1.00  0.00     0.345 HD
ATOM      6  H   UNL     1     -24.883  60.318 -48.099  1.00  0.00     0.345 HD
ATOM      7  H   UNL     1     -23.953  59.230 -47.211  1.00  0.00     0.345 HD
ENDBRANCH   3   4
BRANCH   3   8
ATOM      8  C   UNL     1     -26.445  61.237 -46.197  1.00  0.00     0.099 C 
ATOM      9  O   UNL     1     -26.814  61.611 -47.341  1.00  0.00    -0.544 OA
ATOM     10  O   UNL     1     -27.227  61.553 -45.091  1.00  0.00    -0.544 OA
ENDBRANCH   3   8
ENDBRANCH   1   3
BRANCH   1  11
ATOM     11  C   UNL     1     -23.419  60.875 -44.187  1.00  0.00     0.006 C 
ATOM     12  C   UNL     1     -24.357  61.185 -43.019  1.00  0.00     0.004 C 
ENDBRANCH   1  11
TORSDOF 4
ENDMDL
MODEL 9
REMARK VINA RESULT:    -2.426      9.594     10.763
REMARK INTER + INTRA:          -2.950
REMARK INTER:                  -2.846
REMARK INTRA:                  -0.104
REMARK UNBOUND:                -0.028
REMARK SMILES CC[C@@H](C)[C@H]([NH3+])C(=O)[O-]
REMARK SMILES IDX 3 1 4 2 5 3 6 4 7 8 8 9 9 10 2 11 1 12
REMARK H PARENT 6 5 6 6 6 7
REMARK Flexibility Score: inf
ROOT
ATOM      1  C   UNL     1     -30.582  63.496 -52.989  1.00  0.00     0.050 C 
ATOM      2  C   UNL     1     -29.549  63.085 -54.056  1.00  0.00     0.014 C 
ENDROOT
BRANCH   1   3
ATOM      3  C   UNL     1     -30.526  65.019 -52.645  1.00  0.00     0.230 C 
BRANCH   3   4
ATOM      4  N   UNL     1     -29.699  65.792 -53.585  1.00  0.00    -0.350 N 
ATOM      5  H   UNL     1     -30.082  65.749 -54.556  1.00  0.00     0.345 HD
ATOM      6  H   UNL     1     -29.635  66.790 -53.280  1.00  0.00     0.345 HD
ATOM      7  H   UNL     1     -28.726  65.406 -53.593  1.00  0.00     0.345 HD
ENDBRANCH   3   4
BRANCH   3   8
ATOM      8  C   UNL     1     -30.065  65.238 -51.224  1.00  0.00     0.099 C 
ATOM      9  O   UNL     1     -29.335  64.380 -50.662  1.00  0.00    -0.544 OA
ATOM     10  O   UNL     1     -30.401  66.401 -50.540  1.00  0.00    -0.544 OA
ENDBRANCH   3   8
ENDBRANCH   1   3
BRANCH   1  11
ATOM     11  C   UNL     1     -31.986  63.003 -53.422  1.00  0.00     0.006 C 
ATOM     12  C   UNL     1     -32.433  63.553 -54.778  1.00  0.00     0.004 C 
ENDBRANCH   1  11
TORSDOF 4
ENDMDL
