MODEL 1
REMARK VINA RESULT:    -3.963      0.000      0.000
REMARK INTER + INTRA:          -4.407
REMARK INTER:                  -4.311
REMARK INTRA:                  -0.096
REMARK UNBOUND:                -0.096
REMARK SMILES C=C(C)[C@H]1CC=C(C)[C@@H](O)C1
REMARK SMILES IDX 8 1 7 2 6 3 5 4 4 5 11 6 9 7 10 8 2 10 1 11 3 12
REMARK H PARENT 10 9
REMARK Flexibility Score: inf
ROOT
ATOM      1  C   UNL     1     138.260 136.688 146.574  1.00  0.00     0.042 C 
ATOM      2  C   UNL     1     137.690 136.550 145.188  1.00  0.00    -0.049 C 
ATOM      3  C   UNL     1     136.779 135.578 144.960  1.00  0.00    -0.025 C 
ATOM      4  C   UNL     1     136.141 135.344 143.613  1.00  0.00     0.035 C 
ATOM      5  C   UNL     1     136.169 136.608 142.740  1.00  0.00     0.021 C 
ATOM      6  C   UNL     1     137.591 137.187 142.718  1.00  0.00     0.044 C 
ATOM      7  C   UNL     1     138.031 137.597 144.136  1.00  0.00     0.140 C 
ENDROOT
BRANCH   7   8
ATOM      8  O   UNL     1     139.415 137.832 144.142  1.00  0.00    -0.389 OA
ATOM      9  H   UNL     1     139.689 137.910 145.093  1.00  0.00     0.211 HD
ENDBRANCH   7   8
BRANCH   5  10
ATOM     10  C   UNL     1     135.658 136.323 141.334  1.00  0.00    -0.077 C 
ATOM     11  C   UNL     1     136.223 135.354 140.597  1.00  0.00     0.008 C 
ATOM     12  C   UNL     1     134.524 137.117 140.733  1.00  0.00     0.039 C 
ENDBRANCH   5  10
TORSDOF 2
ENDMDL
MODEL 2
REMARK VINA RESULT:    -3.962     11.579     12.712
REMARK INTER + INTRA:          -4.406
REMARK INTER:                  -4.317
REMARK INTRA:                  -0.089
REMARK UNBOUND:                -0.096
REMARK SMILES C=C(C)[C@H]1CC=C(C)[C@@H](O)C1
REMARK SMILES IDX 8 1 7 2 6 3 5 4 4 5 11 6 9 7 10 8 2 10 1 11 3 12
REMARK H PARENT 10 9
REMARK Flexibility Score: inf
ROOT
ATOM      1  C   UNL     1     124.378 135.306 144.958  1.00  0.00     0.042 C 
ATOM      2  C   UNL     1     124.850 136.307 145.979  1.00  0.00    -0.049 C 
ATOM      3  C   UNL     1     124.133 136.452 147.116  1.00  0.00    -0.025 C 
ATOM      4  C   UNL     1     124.508 137.422 148.208  1.00  0.00     0.035 C 
ATOM      5  C   UNL     1     126.006 137.766 148.179  1.00  0.00     0.021 C 
ATOM      6  C   UNL     1     126.413 138.169 146.756  1.00  0.00     0.044 C 
ATOM      7  C   UNL     1     126.190 137.001 145.777  1.00  0.00     0.140 C 
ENDROOT
BRANCH   7   8
ATOM      8  O   UNL     1     126.276 137.477 144.459  1.00  0.00    -0.389 OA
ATOM      9  H   UNL     1     125.344 137.565 144.124  1.00  0.00     0.211 HD
ENDBRANCH   7   8
BRANCH   5  10
ATOM     10  C   UNL     1     126.345 138.854 149.189  1.00  0.00    -0.077 C 
ATOM     11  C   UNL     1     127.378 138.692 150.031  1.00  0.00     0.008 C 
ATOM     12  C   UNL     1     125.536 140.125 149.279  1.00  0.00     0.039 C 
ENDBRANCH   5  10
TORSDOF 2
ENDMDL
MODEL 3
REMARK VINA RESULT:    -3.914     11.464     12.081
REMARK INTER + INTRA:          -4.353
REMARK INTER:                  -4.263
REMARK INTRA:                  -0.090
REMARK UNBOUND:                -0.096
REMARK SMILES C=C(C)[C@H]1CC=C(C)[C@@H](O)C1
REMARK SMILES IDX 8 1 7 2 6 3 5 4 4 5 11 6 9 7 10 8 2 10 1 11 3 12
REMARK H PARENT 10 9
REMARK Flexibility Score: inf
ROOT
ATOM      1  C   UNL     1     126.254 140.125 149.750  1.00  0.00     0.042 C 
ATOM      2  C   UNL     1     126.051 138.941 148.842  1.00  0.00    -0.049 C 
ATOM      3  C   UNL     1     125.204 137.965 149.237  1.00  0.00    -0.025 C 
ATOM      4  C   UNL     1     124.923 136.733 148.412  1.00  0.00     0.035 C 
ATOM      5  C   UNL     1     125.204 136.968 146.920  1.00  0.00     0.021 C 
ATOM      6  C   UNL     1     126.599 137.585 146.750  1.00  0.00     0.044 C 
ATOM      7  C   UNL     1     126.675 138.954 147.453  1.00  0.00     0.140 C 
ENDROOT
BRANCH   7   8
ATOM      8  O   UNL     1     128.018 139.352 147.546  1.00  0.00    -0.389 OA
ATOM      9  H   UNL     1     128.100 139.893 148.376  1.00  0.00     0.211 HD
ENDBRANCH   7   8
BRANCH   5  10
ATOM     10  C   UNL     1     125.059 135.680 146.119  1.00  0.00    -0.077 C 
ATOM     11  C   UNL     1     124.434 135.695 144.931  1.00  0.00     0.008 C 
ATOM     12  C   UNL     1     125.596 134.368 146.634  1.00  0.00     0.039 C 
ENDBRANCH   5  10
TORSDOF 2
ENDMDL
MODEL 4
REMARK VINA RESULT:    -3.910      8.672     10.809
REMARK INTER + INTRA:          -4.349
REMARK INTER:                  -4.250
REMARK INTRA:                  -0.098
REMARK UNBOUND:                -0.096
REMARK SMILES C=C(C)[C@H]1CC=C(C)[C@@H](O)C1
REMARK SMILES IDX 8 1 7 2 6 3 5 4 4 5 11 6 9 7 10 8 2 10 1 11 3 12
REMARK H PARENT 10 9
REMARK Flexibility Score: inf
ROOT
ATOM      1  C   UNL     1     132.617 127.576 135.249  1.00  0.00     0.042 C 
ATOM      2  C   UNL     1     133.036 128.009 136.629  1.00  0.00    -0.049 C 
ATOM      3  C   UNL     1     132.415 127.454 137.694  1.00  0.00    -0.025 C 
ATOM      4  C   UNL     1     132.749 127.810 139.121  1.00  0.00     0.035 C 
ATOM      5  C   UNL     1     134.174 128.371 139.252  1.00  0.00     0.021 C 
ATOM      6  C   UNL     1     134.386 129.483 138.216  1.00  0.00     0.044 C 
ATOM      7  C   UNL     1     134.240 128.928 136.786  1.00  0.00     0.140 C 
ENDROOT
BRANCH   7   8
ATOM      8  O   UNL     1     134.135 129.996 135.882  1.00  0.00    -0.389 OA
ATOM      9  H   UNL     1     135.003 130.478 135.905  1.00  0.00     0.211 HD
ENDBRANCH   7   8
BRANCH   5  10
ATOM     10  C   UNL     1     134.449 128.863 140.667  1.00  0.00    -0.077 C 
ATOM     11  C   UNL     1     133.459 129.402 141.395  1.00  0.00     0.008 C 
ATOM     12  C   UNL     1     135.825 128.769 141.279  1.00  0.00     0.039 C 
ENDBRANCH   5  10
TORSDOF 2
ENDMDL
MODEL 5
REMARK VINA RESULT:    -3.864      2.928      4.033
REMARK INTER + INTRA:          -4.299
REMARK INTER:                  -4.202
REMARK INTRA:                  -0.097
REMARK UNBOUND:                -0.096
REMARK SMILES C=C(C)[C@H]1CC=C(C)[C@@H](O)C1
REMARK SMILES IDX 8 1 7 2 6 3 5 4 4 5 11 6 9 7 10 8 2 10 1 11 3 12
REMARK H PARENT 10 9
REMARK Flexibility Score: inf
ROOT
ATOM      1  C   UNL     1     143.125 136.444 142.814  1.00  0.00     0.042 C 
ATOM      2  C   UNL     1     141.649 136.654 143.023  1.00  0.00    -0.049 C 
ATOM      3  C   UNL     1     140.977 135.775 143.800  1.00  0.00    -0.025 C 
ATOM      4  C   UNL     1     139.499 135.883 144.079  1.00  0.00     0.035 C 
ATOM      5  C   UNL     1     138.988 137.321 143.905  1.00  0.00     0.021 C 
ATOM      6  C   UNL     1     139.457 137.874 142.553  1.00  0.00     0.044 C 
ATOM      7  C   UNL     1     140.995 137.922 142.491  1.00  0.00     0.140 C 
ENDROOT
BRANCH   7   8
ATOM      8  O   UNL     1     141.400 138.136 141.164  1.00  0.00    -0.389 OA
ATOM      9  H   UNL     1     142.267 138.618 141.202  1.00  0.00     0.211 HD
ENDBRANCH   7   8
BRANCH   5  10
ATOM     10  C   UNL     1     137.473 137.393 144.045  1.00  0.00    -0.077 C 
ATOM     11  C   UNL     1     136.781 138.336 143.387  1.00  0.00     0.008 C 
ATOM     12  C   UNL     1     136.717 136.427 144.924  1.00  0.00     0.039 C 
ENDBRANCH   5  10
TORSDOF 2
ENDMDL
MODEL 6
REMARK VINA RESULT:    -3.775      3.089      4.920
REMARK INTER + INTRA:          -4.201
REMARK INTER:                  -4.113
REMARK INTRA:                  -0.089
REMARK UNBOUND:                -0.096
REMARK SMILES C=C(C)[C@H]1CC=C(C)[C@@H](O)C1
REMARK SMILES IDX 8 1 7 2 6 3 5 4 4 5 11 6 9 7 10 8 2 10 1 11 3 12
REMARK H PARENT 10 9
REMARK Flexibility Score: inf
ROOT
ATOM      1  C   UNL     1     135.913 136.403 142.119  1.00  0.00     0.042 C 
ATOM      2  C   UNL     1     137.401 136.585 142.256  1.00  0.00    -0.049 C 
ATOM      3  C   UNL     1     137.867 137.318 143.292  1.00  0.00    -0.025 C 
ATOM      4  C   UNL     1     139.335 137.569 143.530  1.00  0.00     0.035 C 
ATOM      5  C   UNL     1     140.213 136.489 142.880  1.00  0.00     0.021 C 
ATOM      6  C   UNL     1     139.794 136.299 141.415  1.00  0.00     0.044 C 
ATOM      7  C   UNL     1     138.333 135.818 141.328  1.00  0.00     0.140 C 
ENDROOT
BRANCH   7   8
ATOM      8  O   UNL     1     137.882 135.943 140.004  1.00  0.00    -0.389 OA
ATOM      9  H   UNL     1     137.658 136.901 139.867  1.00  0.00     0.211 HD
ENDBRANCH   7   8
BRANCH   5  10
ATOM     10  C   UNL     1     141.692 136.830 143.000  1.00  0.00    -0.077 C 
ATOM     11  C   UNL     1     142.555 135.922 143.482  1.00  0.00     0.008 C 
ATOM     12  C   UNL     1     142.224 138.183 142.595  1.00  0.00     0.039 C 
ENDBRANCH   5  10
TORSDOF 2
ENDMDL
MODEL 7
REMARK VINA RESULT:    -3.754      9.140     10.508
REMARK INTER + INTRA:          -4.179
REMARK INTER:                  -4.081
REMARK INTRA:                  -0.098
REMARK UNBOUND:                -0.096
REMARK SMILES C=C(C)[C@H]1CC=C(C)[C@@H](O)C1
REMARK SMILES IDX 8 1 7 2 6 3 5 4 4 5 11 6 9 7 10 8 2 10 1 11 3 12
REMARK H PARENT 10 9
REMARK Flexibility Score: inf
ROOT
ATOM      1  C   UNL     1     136.217 131.496 134.452  1.00  0.00     0.042 C 
ATOM      2  C   UNL     1     135.676 130.673 135.591  1.00  0.00    -0.049 C 
ATOM      3  C   UNL     1     136.072 130.975 136.848  1.00  0.00    -0.025 C 
ATOM      4  C   UNL     1     135.597 130.221 138.065  1.00  0.00     0.035 C 
ATOM      5  C   UNL     1     134.252 129.521 137.816  1.00  0.00     0.021 C 
ATOM      6  C   UNL     1     134.326 128.713 136.514  1.00  0.00     0.044 C 
ATOM      7  C   UNL     1     134.590 129.642 135.313  1.00  0.00     0.140 C 
ENDROOT
BRANCH   7   8
ATOM      8  O   UNL     1     134.952 128.869 134.199  1.00  0.00    -0.389 OA
ATOM      9  H   UNL     1     135.847 128.483 134.396  1.00  0.00     0.211 HD
ENDBRANCH   7   8
BRANCH   5  10
ATOM     10  C   UNL     1     133.856 128.646 138.998  1.00  0.00    -0.077 C 
ATOM     11  C   UNL     1     134.614 128.626 140.105  1.00  0.00     0.008 C 
ATOM     12  C   UNL     1     132.621 127.779 138.955  1.00  0.00     0.039 C 
ENDBRANCH   5  10
TORSDOF 2
ENDMDL
MODEL 8
REMARK VINA RESULT:    -3.753      2.504      4.566
REMARK INTER + INTRA:          -4.178
REMARK INTER:                  -4.090
REMARK INTRA:                  -0.088
REMARK UNBOUND:                -0.096
REMARK SMILES C=C(C)[C@H]1CC=C(C)[C@@H](O)C1
REMARK SMILES IDX 8 1 7 2 6 3 5 4 4 5 11 6 9 7 10 8 2 10 1 11 3 12
REMARK H PARENT 10 9
REMARK Flexibility Score: inf
ROOT
ATOM      1  C   UNL     1     135.287 136.531 141.750  1.00  0.00     0.042 C 
ATOM      2  C   UNL     1     136.751 136.649 142.080  1.00  0.00    -0.049 C 
ATOM      3  C   UNL     1     137.643 136.017 141.284  1.00  0.00    -0.025 C 
ATOM      4  C   UNL     1     139.132 136.063 141.517  1.00  0.00     0.035 C 
ATOM      5  C   UNL     1     139.547 137.300 142.326  1.00  0.00     0.021 C 
ATOM      6  C   UNL     1     138.669 137.413 143.580  1.00  0.00     0.044 C 
ATOM      7  C   UNL     1     137.190 137.593 143.191  1.00  0.00     0.140 C 
ENDROOT
BRANCH   7   8
ATOM      8  O   UNL     1     136.385 137.390 144.323  1.00  0.00    -0.389 OA
ATOM      9  H   UNL     1     136.788 136.636 144.830  1.00  0.00     0.211 HD
ENDBRANCH   7   8
BRANCH   5  10
ATOM     10  C   UNL     1     141.028 137.261 142.681  1.00  0.00    -0.077 C 
ATOM     11  C   UNL     1     141.829 138.283 142.339  1.00  0.00     0.008 C 
ATOM     12  C   UNL     1     141.633 136.085 143.407  1.00  0.00     0.039 C 
ENDBRANCH   5  10
TORSDOF 2
ENDMDL
MODEL 9
REMARK VINA RESULT:    -3.737      9.727     11.311
REMARK INTER + INTRA:          -4.160
REMARK INTER:                  -4.063
REMARK INTRA:                  -0.097
REMARK UNBOUND:                -0.096
REMARK SMILES C=C(C)[C@H]1CC=C(C)[C@@H](O)C1
REMARK SMILES IDX 8 1 7 2 6 3 5 4 4 5 11 6 9 7 10 8 2 10 1 11 3 12
REMARK H PARENT 10 9
REMARK Flexibility Score: inf
ROOT
ATOM      1  C   UNL     1     135.311 130.012 136.401  1.00  0.00     0.042 C 
ATOM      2  C   UNL     1     134.404 129.144 137.231  1.00  0.00    -0.049 C 
ATOM      3  C   UNL     1     134.362 129.350 138.566  1.00  0.00    -0.025 C 
ATOM      4  C   UNL     1     133.492 128.542 139.498  1.00  0.00     0.035 C 
ATOM      5  C   UNL     1     132.295 127.918 138.765  1.00  0.00     0.021 C 
ATOM      6  C   UNL     1     132.785 127.190 137.506  1.00  0.00     0.044 C 
ATOM      7  C   UNL     1     133.454 128.180 136.533  1.00  0.00     0.140 C 
ENDROOT
BRANCH   7   8
ATOM      8  O   UNL     1     134.153 127.463 135.550  1.00  0.00    -0.389 OA
ATOM      9  H   UNL     1     134.266 126.538 135.895  1.00  0.00     0.211 HD
ENDBRANCH   7   8
BRANCH   5  10
ATOM     10  C   UNL     1     131.508 126.988 139.680  1.00  0.00    -0.077 C 
ATOM     11  C   UNL     1     131.095 125.793 139.229  1.00  0.00     0.008 C 
ATOM     12  C   UNL     1     131.166 127.381 141.096  1.00  0.00     0.039 C 
ENDBRANCH   5  10
TORSDOF 2
ENDMDL
