MODEL 1
REMARK VINA RESULT:    -5.971      0.000      0.000
REMARK INTER + INTRA:         -19.678
REMARK INTER:                 -15.746
REMARK INTRA:                  -3.932
REMARK UNBOUND:                -3.932
REMARK SMILES CCCCCCCCCCCCCCCCCCCCCCCCCCCCCC(=O)[O-]
REMARK SMILES IDX 16 1 17 2 18 3 19 4 20 5 21 6 22 7 23 8 24 9 25 10 26 11
REMARK SMILES IDX 27 12 28 13 29 14 30 15 31 16 32 17 15 18 14 19 13 20 12 21
REMARK SMILES IDX 11 22 10 23 9 24 8 25 7 26 6 27 5 28 4 29 3 30 2 31 1 32
REMARK H PARENT
REMARK Flexibility Score: inf
ROOT
ATOM      1  C   UNL     1      44.366 -11.982 -39.820  1.00  0.00     0.000 C 
ENDROOT
BRANCH   1   2
ATOM      2  C   UNL     1      45.425 -13.097 -39.886  1.00  0.00     0.000 C 
BRANCH   2   3
ATOM      3  C   UNL     1      46.853 -12.540 -39.721  1.00  0.00     0.000 C 
BRANCH   3   4
ATOM      4  C   UNL     1      47.443 -12.806 -38.322  1.00  0.00     0.000 C 
BRANCH   4   5
ATOM      5  C   UNL     1      46.650 -13.885 -37.562  1.00  0.00     0.000 C 
BRANCH   5   6
ATOM      6  C   UNL     1      47.495 -14.601 -36.487  1.00  0.00     0.000 C 
BRANCH   6   7
ATOM      7  C   UNL     1      48.201 -13.648 -35.502  1.00  0.00     0.000 C 
BRANCH   7   8
ATOM      8  C   UNL     1      47.274 -12.910 -34.521  1.00  0.00     0.000 C 
BRANCH   8   9
ATOM      9  C   UNL     1      47.500 -13.326 -33.057  1.00  0.00     0.000 C 
BRANCH   9  10
ATOM     10  C   UNL     1      46.222 -13.852 -32.383  1.00  0.00     0.000 C 
BRANCH  10  11
ATOM     11  C   UNL     1      45.714 -15.183 -32.976  1.00  0.00     0.000 C 
BRANCH  11  12
ATOM     12  C   UNL     1      44.225 -15.112 -33.355  1.00  0.00     0.000 C 
BRANCH  12  13
ATOM     13  C   UNL     1      43.996 -15.078 -34.874  1.00  0.00     0.006 C 
BRANCH  13  14
ATOM     14  C   UNL     1      43.836 -13.651 -35.418  1.00  0.00     0.053 C 
BRANCH  14  15
ATOM     15  C   UNL     1      42.782 -12.914 -34.652  1.00  0.00     0.041 C 
ATOM     16  O   UNL     1      41.565 -13.064 -34.941  1.00  0.00    -0.550 OA
ATOM     17  O   UNL     1      43.143 -12.037 -33.636  1.00  0.00    -0.550 OA
ENDBRANCH  14  15
ENDBRANCH  13  14
ENDBRANCH  12  13
ENDBRANCH  11  12
ENDBRANCH  10  11
ENDBRANCH   9  10
ENDBRANCH   8   9
ENDBRANCH   7   8
ENDBRANCH   6   7
ENDBRANCH   5   6
ENDBRANCH   4   5
ENDBRANCH   3   4
ENDBRANCH   2   3
ENDBRANCH   1   2
BRANCH   1  18
ATOM     18  C   UNL     1      44.803 -10.779 -38.960  1.00  0.00     0.000 C 
BRANCH  18  19
ATOM     19  C   UNL     1      44.123 -10.706 -37.578  1.00  0.00     0.000 C 
BRANCH  19  20
ATOM     20  C   UNL     1      42.634 -10.311 -37.587  1.00  0.00     0.000 C 
BRANCH  20  21
ATOM     21  C   UNL     1      42.348  -8.841 -37.944  1.00  0.00     0.000 C 
BRANCH  21  22
ATOM     22  C   UNL     1      41.641  -8.682 -39.299  1.00  0.00     0.000 C 
BRANCH  22  23
ATOM     23  C   UNL     1      41.291 -10.047 -39.905  1.00  0.00     0.000 C 
BRANCH  23  24
ATOM     24  C   UNL     1      40.268  -9.894 -41.039  1.00  0.00    -0.000 C 
BRANCH  24  25
ATOM     25  C   UNL     1      40.537  -8.669 -41.933  1.00  0.00    -0.000 C 
BRANCH  25  26
ATOM     26  C   UNL     1      41.590  -8.884 -43.039  1.00  0.00    -0.000 C 
BRANCH  26  27
ATOM     27  C   UNL     1      41.023  -9.233 -44.427  1.00  0.00    -0.000 C 
BRANCH  27  28
ATOM     28  C   UNL     1      40.114 -10.471 -44.409  1.00  0.00    -0.000 C 
BRANCH  28  29
ATOM     29  C   UNL     1      40.948 -11.760 -44.367  1.00  0.00    -0.000 C 
BRANCH  29  30
ATOM     30  C   UNL     1      42.099 -11.756 -45.386  1.00  0.00    -0.000 C 
BRANCH  30  31
ATOM     31  C   UNL     1      43.452 -12.103 -44.749  1.00  0.00    -0.003 C 
ATOM     32  C   UNL     1      43.351 -12.126 -43.225  1.00  0.00     0.004 C 
ENDBRANCH  30  31
ENDBRANCH  29  30
ENDBRANCH  28  29
ENDBRANCH  27  28
ENDBRANCH  26  27
ENDBRANCH  25  26
ENDBRANCH  24  25
ENDBRANCH  23  24
ENDBRANCH  22  23
ENDBRANCH  21  22
ENDBRANCH  20  21
ENDBRANCH  19  20
ENDBRANCH  18  19
ENDBRANCH   1  18
TORSDOF 28
ENDMDL
MODEL 2
REMARK VINA RESULT:    -5.831      1.276      2.209
REMARK INTER + INTRA:         -19.308
REMARK INTER:                 -15.384
REMARK INTRA:                  -3.925
REMARK UNBOUND:                -3.932
REMARK SMILES CCCCCCCCCCCCCCCCCCCCCCCCCCCCCC(=O)[O-]
REMARK SMILES IDX 16 1 17 2 18 3 19 4 20 5 21 6 22 7 23 8 24 9 25 10 26 11
REMARK SMILES IDX 27 12 28 13 29 14 30 15 31 16 32 17 15 18 14 19 13 20 12 21
REMARK SMILES IDX 11 22 10 23 9 24 8 25 7 26 6 27 5 28 4 29 3 30 2 31 1 32
REMARK H PARENT
REMARK Flexibility Score: inf
ROOT
ATOM      1  C   UNL     1      45.702 -13.784 -39.133  1.00  0.00     0.000 C 
ENDROOT
BRANCH   1   2
ATOM      2  C   UNL     1      46.308 -14.445 -37.882  1.00  0.00     0.000 C 
BRANCH   2   3
ATOM      3  C   UNL     1      47.232 -13.478 -37.116  1.00  0.00     0.000 C 
BRANCH   3   4
ATOM      4  C   UNL     1      48.024 -14.170 -35.989  1.00  0.00     0.000 C 
BRANCH   4   5
ATOM      5  C   UNL     1      48.944 -13.184 -35.248  1.00  0.00     0.000 C 
BRANCH   5   6
ATOM      6  C   UNL     1      49.067 -13.498 -33.742  1.00  0.00     0.000 C 
BRANCH   6   7
ATOM      7  C   UNL     1      47.954 -12.877 -32.875  1.00  0.00     0.000 C 
BRANCH   7   8
ATOM      8  C   UNL     1      47.251 -13.848 -31.911  1.00  0.00     0.000 C 
BRANCH   8   9
ATOM      9  C   UNL     1      46.931 -15.206 -32.560  1.00  0.00     0.000 C 
BRANCH   9  10
ATOM     10  C   UNL     1      45.436 -15.560 -32.493  1.00  0.00     0.000 C 
BRANCH  10  11
ATOM     11  C   UNL     1      44.668 -15.243 -33.795  1.00  0.00     0.000 C 
BRANCH  11  12
ATOM     12  C   UNL     1      44.025 -13.846 -33.756  1.00  0.00     0.000 C 
BRANCH  12  13
ATOM     13  C   UNL     1      44.355 -13.002 -34.998  1.00  0.00     0.006 C 
BRANCH  13  14
ATOM     14  C   UNL     1      43.322 -13.171 -36.122  1.00  0.00     0.053 C 
BRANCH  14  15
ATOM     15  C   UNL     1      42.878 -11.834 -36.630  1.00  0.00     0.041 C 
ATOM     16  O   UNL     1      41.727 -11.692 -37.121  1.00  0.00    -0.550 OA
ATOM     17  O   UNL     1      43.745 -10.749 -36.589  1.00  0.00    -0.550 OA
ENDBRANCH  14  15
ENDBRANCH  13  14
ENDBRANCH  12  13
ENDBRANCH  11  12
ENDBRANCH  10  11
ENDBRANCH   9  10
ENDBRANCH   8   9
ENDBRANCH   7   8
ENDBRANCH   6   7
ENDBRANCH   5   6
ENDBRANCH   4   5
ENDBRANCH   3   4
ENDBRANCH   2   3
ENDBRANCH   1   2
BRANCH   1  18
ATOM     18  C   UNL     1      46.305 -12.399 -39.441  1.00  0.00     0.000 C 
BRANCH  18  19
ATOM     19  C   UNL     1      45.260 -11.306 -39.746  1.00  0.00     0.000 C 
BRANCH  19  20
ATOM     20  C   UNL     1      43.994 -11.782 -40.485  1.00  0.00     0.000 C 
BRANCH  20  21
ATOM     21  C   UNL     1      42.946 -10.687 -40.761  1.00  0.00     0.000 C 
BRANCH  21  22
ATOM     22  C   UNL     1      42.893  -9.621 -39.656  1.00  0.00     0.000 C 
BRANCH  22  23
ATOM     23  C   UNL     1      41.581  -8.829 -39.713  1.00  0.00     0.000 C 
BRANCH  23  24
ATOM     24  C   UNL     1      40.591  -9.484 -40.687  1.00  0.00    -0.000 C 
BRANCH  24  25
ATOM     25  C   UNL     1      40.129  -8.535 -41.808  1.00  0.00    -0.000 C 
BRANCH  25  26
ATOM     26  C   UNL     1      41.249  -8.027 -42.739  1.00  0.00    -0.000 C 
BRANCH  26  27
ATOM     27  C   UNL     1      41.277  -8.663 -44.141  1.00  0.00    -0.000 C 
BRANCH  27  28
ATOM     28  C   UNL     1      39.919  -9.242 -44.564  1.00  0.00    -0.000 C 
BRANCH  28  29
ATOM     29  C   UNL     1      39.948 -10.778 -44.535  1.00  0.00    -0.000 C 
BRANCH  29  30
ATOM     30  C   UNL     1      41.260 -11.336 -43.958  1.00  0.00    -0.000 C 
BRANCH  30  31
ATOM     31  C   UNL     1      42.162 -11.953 -45.036  1.00  0.00    -0.003 C 
ATOM     32  C   UNL     1      43.599 -12.090 -44.537  1.00  0.00     0.004 C 
ENDBRANCH  30  31
ENDBRANCH  29  30
ENDBRANCH  28  29
ENDBRANCH  27  28
ENDBRANCH  26  27
ENDBRANCH  25  26
ENDBRANCH  24  25
ENDBRANCH  23  24
ENDBRANCH  22  23
ENDBRANCH  21  22
ENDBRANCH  20  21
ENDBRANCH  19  20
ENDBRANCH  18  19
ENDBRANCH   1  18
TORSDOF 28
ENDMDL
MODEL 3
REMARK VINA RESULT:    -5.713      2.377      9.838
REMARK INTER + INTRA:         -18.996
REMARK INTER:                 -14.685
REMARK INTRA:                  -4.311
REMARK UNBOUND:                -3.932
REMARK SMILES CCCCCCCCCCCCCCCCCCCCCCCCCCCCCC(=O)[O-]
REMARK SMILES IDX 16 1 17 2 18 3 19 4 20 5 21 6 22 7 23 8 24 9 25 10 26 11
REMARK SMILES IDX 27 12 28 13 29 14 30 15 31 16 32 17 15 18 14 19 13 20 12 21
REMARK SMILES IDX 11 22 10 23 9 24 8 25 7 26 6 27 5 28 4 29 3 30 2 31 1 32
REMARK H PARENT
REMARK Flexibility Score: inf
ROOT
ATOM      1  C   UNL     1      44.251 -11.987 -39.726  1.00  0.00     0.000 C 
ENDROOT
BRANCH   1   2
ATOM      2  C   UNL     1      44.619 -10.605 -39.156  1.00  0.00     0.000 C 
BRANCH   2   3
ATOM      3  C   UNL     1      43.382  -9.860 -38.618  1.00  0.00     0.000 C 
BRANCH   3   4
ATOM      4  C   UNL     1      42.222 -10.808 -38.254  1.00  0.00     0.000 C 
BRANCH   4   5
ATOM      5  C   UNL     1      40.930 -10.446 -39.009  1.00  0.00     0.000 C 
BRANCH   5   6
ATOM      6  C   UNL     1      41.199  -9.915 -40.432  1.00  0.00     0.000 C 
BRANCH   6   7
ATOM      7  C   UNL     1      40.135  -8.926 -40.950  1.00  0.00     0.000 C 
BRANCH   7   8
ATOM      8  C   UNL     1      40.643  -7.875 -41.950  1.00  0.00     0.000 C 
BRANCH   8   9
ATOM      9  C   UNL     1      41.299  -8.502 -43.193  1.00  0.00     0.000 C 
BRANCH   9  10
ATOM     10  C   UNL     1      40.422  -8.387 -44.451  1.00  0.00     0.000 C 
BRANCH  10  11
ATOM     11  C   UNL     1      39.789  -9.725 -44.887  1.00  0.00     0.000 C 
BRANCH  11  12
ATOM     12  C   UNL     1      40.159 -10.873 -43.933  1.00  0.00     0.000 C 
BRANCH  12  13
ATOM     13  C   UNL     1      40.931 -12.005 -44.630  1.00  0.00     0.006 C 
BRANCH  13  14
ATOM     14  C   UNL     1      42.425 -11.692 -44.793  1.00  0.00     0.053 C 
BRANCH  14  15
ATOM     15  C   UNL     1      43.156 -11.944 -43.510  1.00  0.00     0.041 C 
ATOM     16  O   UNL     1      43.442 -10.985 -42.744  1.00  0.00    -0.550 OA
ATOM     17  O   UNL     1      43.546 -13.234 -43.172  1.00  0.00    -0.550 OA
ENDBRANCH  14  15
ENDBRANCH  13  14
ENDBRANCH  12  13
ENDBRANCH  11  12
ENDBRANCH  10  11
ENDBRANCH   9  10
ENDBRANCH   8   9
ENDBRANCH   7   8
ENDBRANCH   6   7
ENDBRANCH   5   6
ENDBRANCH   4   5
ENDBRANCH   3   4
ENDBRANCH   2   3
ENDBRANCH   1   2
BRANCH   1  18
ATOM     18  C   UNL     1      45.392 -13.016 -39.608  1.00  0.00     0.000 C 
BRANCH  18  19
ATOM     19  C   UNL     1      46.788 -12.394 -39.397  1.00  0.00     0.000 C 
BRANCH  19  20
ATOM     20  C   UNL     1      47.560 -12.895 -38.161  1.00  0.00     0.000 C 
BRANCH  20  21
ATOM     21  C   UNL     1      46.940 -14.112 -37.449  1.00  0.00     0.000 C 
BRANCH  21  22
ATOM     22  C   UNL     1      47.448 -14.284 -36.010  1.00  0.00     0.000 C 
BRANCH  22  23
ATOM     23  C   UNL     1      48.257 -13.062 -35.558  1.00  0.00     0.000 C 
BRANCH  23  24
ATOM     24  C   UNL     1      48.606 -13.162 -34.065  1.00  0.00    -0.000 C 
BRANCH  24  25
ATOM     25  C   UNL     1      48.320 -14.552 -33.471  1.00  0.00    -0.000 C 
BRANCH  25  26
ATOM     26  C   UNL     1      47.349 -14.566 -32.273  1.00  0.00    -0.000 C 
BRANCH  26  27
ATOM     27  C   UNL     1      45.867 -14.783 -32.630  1.00  0.00    -0.000 C 
BRANCH  27  28
ATOM     28  C   UNL     1      45.000 -13.542 -32.374  1.00  0.00    -0.000 C 
BRANCH  28  29
ATOM     29  C   UNL     1      43.792 -13.515 -33.321  1.00  0.00    -0.000 C 
BRANCH  29  30
ATOM     30  C   UNL     1      44.113 -14.095 -34.709  1.00  0.00    -0.000 C 
BRANCH  30  31
ATOM     31  C   UNL     1      43.844 -13.095 -35.842  1.00  0.00    -0.003 C 
ATOM     32  C   UNL     1      44.601 -11.789 -35.613  1.00  0.00     0.004 C 
ENDBRANCH  30  31
ENDBRANCH  29  30
ENDBRANCH  28  29
ENDBRANCH  27  28
ENDBRANCH  26  27
ENDBRANCH  25  26
ENDBRANCH  24  25
ENDBRANCH  23  24
ENDBRANCH  22  23
ENDBRANCH  21  22
ENDBRANCH  20  21
ENDBRANCH  19  20
ENDBRANCH  18  19
ENDBRANCH   1  18
TORSDOF 28
ENDMDL
MODEL 4
REMARK VINA RESULT:    -5.672      1.732      6.703
REMARK INTER + INTRA:         -18.888
REMARK INTER:                 -15.352
REMARK INTRA:                  -3.536
REMARK UNBOUND:                -3.932
REMARK SMILES CCCCCCCCCCCCCCCCCCCCCCCCCCCCCC(=O)[O-]
REMARK SMILES IDX 16 1 17 2 18 3 19 4 20 5 21 6 22 7 23 8 24 9 25 10 26 11
REMARK SMILES IDX 27 12 28 13 29 14 30 15 31 16 32 17 15 18 14 19 13 20 12 21
REMARK SMILES IDX 11 22 10 23 9 24 8 25 7 26 6 27 5 28 4 29 3 30 2 31 1 32
REMARK H PARENT
REMARK Flexibility Score: inf
ROOT
ATOM      1  C   UNL     1      41.272 -11.443 -44.216  1.00  0.00     0.000 C 
ENDROOT
BRANCH   1   2
ATOM      2  C   UNL     1      42.538 -11.812 -45.010  1.00  0.00     0.000 C 
BRANCH   2   3
ATOM      3  C   UNL     1      43.650 -12.356 -44.093  1.00  0.00     0.000 C 
BRANCH   3   4
ATOM      4  C   UNL     1      43.570 -11.800 -42.657  1.00  0.00     0.000 C 
BRANCH   4   5
ATOM      5  C   UNL     1      43.947 -12.864 -41.610  1.00  0.00     0.000 C 
BRANCH   5   6
ATOM      6  C   UNL     1      44.337 -12.250 -40.249  1.00  0.00     0.000 C 
BRANCH   6   7
ATOM      7  C   UNL     1      45.828 -11.875 -40.129  1.00  0.00     0.000 C 
BRANCH   7   8
ATOM      8  C   UNL     1      46.571 -12.505 -38.939  1.00  0.00     0.000 C 
BRANCH   8   9
ATOM      9  C   UNL     1      46.028 -13.895 -38.565  1.00  0.00     0.000 C 
BRANCH   9  10
ATOM     10  C   UNL     1      46.782 -14.531 -37.384  1.00  0.00     0.000 C 
BRANCH  10  11
ATOM     11  C   UNL     1      47.287 -13.503 -36.349  1.00  0.00     0.000 C 
BRANCH  11  12
ATOM     12  C   UNL     1      47.940 -14.185 -35.135  1.00  0.00     0.000 C 
BRANCH  12  13
ATOM     13  C   UNL     1      46.931 -14.525 -34.026  1.00  0.00     0.006 C 
BRANCH  13  14
ATOM     14  C   UNL     1      47.564 -14.530 -32.628  1.00  0.00     0.053 C 
BRANCH  14  15
ATOM     15  C   UNL     1      47.198 -13.285 -31.882  1.00  0.00     0.041 C 
ATOM     16  O   UNL     1      48.096 -12.494 -31.487  1.00  0.00    -0.550 OA
ATOM     17  O   UNL     1      45.866 -13.008 -31.597  1.00  0.00    -0.550 OA
ENDBRANCH  14  15
ENDBRANCH  13  14
ENDBRANCH  12  13
ENDBRANCH  11  12
ENDBRANCH  10  11
ENDBRANCH   9  10
ENDBRANCH   8   9
ENDBRANCH   7   8
ENDBRANCH   6   7
ENDBRANCH   5   6
ENDBRANCH   4   5
ENDBRANCH   3   4
ENDBRANCH   2   3
ENDBRANCH   1   2
BRANCH   1  18
ATOM     18  C   UNL     1      40.940  -9.939 -44.268  1.00  0.00     0.000 C 
BRANCH  18  19
ATOM     19  C   UNL     1      40.518  -9.335 -42.912  1.00  0.00     0.000 C 
BRANCH  19  20
ATOM     20  C   UNL     1      40.364 -10.340 -41.754  1.00  0.00     0.000 C 
BRANCH  20  21
ATOM     21  C   UNL     1      40.561  -9.751 -40.345  1.00  0.00     0.000 C 
BRANCH  21  22
ATOM     22  C   UNL     1      41.952 -10.047 -39.764  1.00  0.00     0.000 C 
BRANCH  22  23
ATOM     23  C   UNL     1      41.873 -10.349 -38.262  1.00  0.00     0.000 C 
BRANCH  23  24
ATOM     24  C   UNL     1      43.151  -9.889 -37.546  1.00  0.00    -0.000 C 
BRANCH  24  25
ATOM     25  C   UNL     1      43.910 -11.043 -36.865  1.00  0.00    -0.000 C 
BRANCH  25  26
ATOM     26  C   UNL     1      43.051 -12.275 -36.513  1.00  0.00    -0.000 C 
BRANCH  26  27
ATOM     27  C   UNL     1      43.789 -13.397 -35.760  1.00  0.00    -0.000 C 
BRANCH  27  28
ATOM     28  C   UNL     1      42.860 -14.228 -34.863  1.00  0.00    -0.000 C 
BRANCH  28  29
ATOM     29  C   UNL     1      43.466 -15.612 -34.584  1.00  0.00    -0.000 C 
BRANCH  29  30
ATOM     30  C   UNL     1      42.612 -16.759 -35.150  1.00  0.00    -0.000 C 
BRANCH  30  31
ATOM     31  C   UNL     1      42.979 -18.121 -34.545  1.00  0.00    -0.003 C 
ATOM     32  C   UNL     1      43.115 -18.028 -33.026  1.00  0.00     0.004 C 
ENDBRANCH  30  31
ENDBRANCH  29  30
ENDBRANCH  28  29
ENDBRANCH  27  28
ENDBRANCH  26  27
ENDBRANCH  25  26
ENDBRANCH  24  25
ENDBRANCH  23  24
ENDBRANCH  22  23
ENDBRANCH  21  22
ENDBRANCH  20  21
ENDBRANCH  19  20
ENDBRANCH  18  19
ENDBRANCH   1  18
TORSDOF 28
ENDMDL
MODEL 5
REMARK VINA RESULT:    -5.666      1.930      2.996
REMARK INTER + INTRA:         -18.872
REMARK INTER:                 -14.961
REMARK INTRA:                  -3.911
REMARK UNBOUND:                -3.932
REMARK SMILES CCCCCCCCCCCCCCCCCCCCCCCCCCCCCC(=O)[O-]
REMARK SMILES IDX 16 1 17 2 18 3 19 4 20 5 21 6 22 7 23 8 24 9 25 10 26 11
REMARK SMILES IDX 27 12 28 13 29 14 30 15 31 16 32 17 15 18 14 19 13 20 12 21
REMARK SMILES IDX 11 22 10 23 9 24 8 25 7 26 6 27 5 28 4 29 3 30 2 31 1 32
REMARK H PARENT
REMARK Flexibility Score: inf
ROOT
ATOM      1  C   UNL     1      45.493 -13.263 -39.412  1.00  0.00     0.000 C 
ENDROOT
BRANCH   1   2
ATOM      2  C   UNL     1      46.538 -13.919 -38.492  1.00  0.00     0.000 C 
BRANCH   2   3
ATOM      3  C   UNL     1      45.914 -14.392 -37.164  1.00  0.00     0.000 C 
BRANCH   3   4
ATOM      4  C   UNL     1      45.228 -13.254 -36.384  1.00  0.00     0.000 C 
BRANCH   4   5
ATOM      5  C   UNL     1      43.751 -13.572 -36.088  1.00  0.00     0.000 C 
BRANCH   5   6
ATOM      6  C   UNL     1      43.019 -12.410 -35.385  1.00  0.00     0.000 C 
BRANCH   6   7
ATOM      7  C   UNL     1      42.662 -12.688 -33.911  1.00  0.00     0.000 C 
BRANCH   7   8
ATOM      8  C   UNL     1      43.592 -12.035 -32.874  1.00  0.00     0.000 C 
BRANCH   8   9
ATOM      9  C   UNL     1      44.395 -13.064 -32.060  1.00  0.00     0.000 C 
BRANCH   9  10
ATOM     10  C   UNL     1      45.721 -13.454 -32.734  1.00  0.00     0.000 C 
BRANCH  10  11
ATOM     11  C   UNL     1      45.825 -14.958 -33.067  1.00  0.00     0.000 C 
BRANCH  11  12
ATOM     12  C   UNL     1      44.694 -15.770 -32.416  1.00  0.00     0.000 C 
BRANCH  12  13
ATOM     13  C   UNL     1      43.744 -16.404 -33.445  1.00  0.00     0.006 C 
BRANCH  13  14
ATOM     14  C   UNL     1      43.581 -17.918 -33.249  1.00  0.00     0.053 C 
BRANCH  14  15
ATOM     15  C   UNL     1      42.721 -18.497 -34.330  1.00  0.00     0.041 C 
ATOM     16  O   UNL     1      42.392 -17.795 -35.323  1.00  0.00    -0.550 OA
ATOM     17  O   UNL     1      42.258 -19.803 -34.228  1.00  0.00    -0.550 OA
ENDBRANCH  14  15
ENDBRANCH  13  14
ENDBRANCH  12  13
ENDBRANCH  11  12
ENDBRANCH  10  11
ENDBRANCH   9  10
ENDBRANCH   8   9
ENDBRANCH   7   8
ENDBRANCH   6   7
ENDBRANCH   5   6
ENDBRANCH   4   5
ENDBRANCH   3   4
ENDBRANCH   2   3
ENDBRANCH   1   2
BRANCH   1  18
ATOM     18  C   UNL     1      45.824 -11.797 -39.757  1.00  0.00     0.000 C 
BRANCH  18  19
ATOM     19  C   UNL     1      44.806 -10.772 -39.214  1.00  0.00     0.000 C 
BRANCH  19  20
ATOM     20  C   UNL     1      43.322 -11.128 -39.431  1.00  0.00     0.000 C 
BRANCH  20  21
ATOM     21  C   UNL     1      42.350 -10.550 -38.385  1.00  0.00     0.000 C 
BRANCH  21  22
ATOM     22  C   UNL     1      41.649  -9.271 -38.866  1.00  0.00     0.000 C 
BRANCH  22  23
ATOM     23  C   UNL     1      41.812  -9.084 -40.379  1.00  0.00     0.000 C 
BRANCH  23  24
ATOM     24  C   UNL     1      40.449  -9.142 -41.085  1.00  0.00    -0.000 C 
BRANCH  24  25
ATOM     25  C   UNL     1      40.407  -8.317 -42.384  1.00  0.00    -0.000 C 
BRANCH  25  26
ATOM     26  C   UNL     1      41.526  -8.633 -43.398  1.00  0.00    -0.000 C 
BRANCH  26  27
ATOM     27  C   UNL     1      41.094  -9.475 -44.612  1.00  0.00    -0.000 C 
BRANCH  27  28
ATOM     28  C   UNL     1      40.251 -10.699 -44.223  1.00  0.00    -0.000 C 
BRANCH  28  29
ATOM     29  C   UNL     1      41.048 -11.997 -44.427  1.00  0.00    -0.000 C 
BRANCH  29  30
ATOM     30  C   UNL     1      42.311 -11.790 -45.279  1.00  0.00    -0.000 C 
BRANCH  30  31
ATOM     31  C   UNL     1      43.600 -12.119 -44.511  1.00  0.00    -0.003 C 
ATOM     32  C   UNL     1      43.356 -12.116 -43.003  1.00  0.00     0.004 C 
ENDBRANCH  30  31
ENDBRANCH  29  30
ENDBRANCH  28  29
ENDBRANCH  27  28
ENDBRANCH  26  27
ENDBRANCH  25  26
ENDBRANCH  24  25
ENDBRANCH  23  24
ENDBRANCH  22  23
ENDBRANCH  21  22
ENDBRANCH  20  21
ENDBRANCH  19  20
ENDBRANCH  18  19
ENDBRANCH   1  18
TORSDOF 28
ENDMDL
MODEL 6
REMARK VINA RESULT:    -5.585      2.945      9.144
REMARK INTER + INTRA:         -18.659
REMARK INTER:                 -14.864
REMARK INTRA:                  -3.795
REMARK UNBOUND:                -3.932
REMARK SMILES CCCCCCCCCCCCCCCCCCCCCCCCCCCCCC(=O)[O-]
REMARK SMILES IDX 16 1 17 2 18 3 19 4 20 5 21 6 22 7 23 8 24 9 25 10 26 11
REMARK SMILES IDX 27 12 28 13 29 14 30 15 31 16 32 17 15 18 14 19 13 20 12 21
REMARK SMILES IDX 11 22 10 23 9 24 8 25 7 26 6 27 5 28 4 29 3 30 2 31 1 32
REMARK H PARENT
REMARK Flexibility Score: inf
ROOT
ATOM      1  C   UNL     1      47.459 -14.183 -36.023  1.00  0.00     0.000 C 
ENDROOT
BRANCH   1   2
ATOM      2  C   UNL     1      46.750 -13.923 -37.365  1.00  0.00     0.000 C 
BRANCH   2   3
ATOM      3  C   UNL     1      47.433 -12.794 -38.163  1.00  0.00     0.000 C 
BRANCH   3   4
ATOM      4  C   UNL     1      46.744 -12.511 -39.512  1.00  0.00     0.000 C 
BRANCH   4   5
ATOM      5  C   UNL     1      45.260 -12.917 -39.493  1.00  0.00     0.000 C 
BRANCH   5   6
ATOM      6  C   UNL     1      44.575 -12.743 -40.864  1.00  0.00     0.000 C 
BRANCH   6   7
ATOM      7  C   UNL     1      43.552 -11.590 -40.917  1.00  0.00     0.000 C 
BRANCH   7   8
ATOM      8  C   UNL     1      43.387 -10.795 -39.611  1.00  0.00     0.000 C 
BRANCH   8   9
ATOM      9  C   UNL     1      42.246  -9.766 -39.678  1.00  0.00     0.000 C 
BRANCH   9  10
ATOM     10  C   UNL     1      41.028 -10.278 -40.465  1.00  0.00     0.000 C 
BRANCH  10  11
ATOM     11  C   UNL     1      40.496  -9.267 -41.504  1.00  0.00     0.000 C 
BRANCH  11  12
ATOM     12  C   UNL     1      40.412  -9.881 -42.912  1.00  0.00     0.000 C 
BRANCH  12  13
ATOM     13  C   UNL     1      41.671 -10.675 -43.294  1.00  0.00     0.006 C 
BRANCH  13  14
ATOM     14  C   UNL     1      41.426 -11.661 -44.445  1.00  0.00     0.053 C 
BRANCH  14  15
ATOM     15  C   UNL     1      42.712 -11.985 -45.140  1.00  0.00     0.041 C 
ATOM     16  O   UNL     1      43.748 -12.241 -44.471  1.00  0.00    -0.550 OA
ATOM     17  O   UNL     1      42.775 -11.979 -46.529  1.00  0.00    -0.550 OA
ENDBRANCH  14  15
ENDBRANCH  13  14
ENDBRANCH  12  13
ENDBRANCH  11  12
ENDBRANCH  10  11
ENDBRANCH   9  10
ENDBRANCH   8   9
ENDBRANCH   7   8
ENDBRANCH   6   7
ENDBRANCH   5   6
ENDBRANCH   4   5
ENDBRANCH   3   4
ENDBRANCH   2   3
ENDBRANCH   1   2
BRANCH   1  18
ATOM     18  C   UNL     1      48.271 -12.973 -35.521  1.00  0.00     0.000 C 
BRANCH  18  19
ATOM     19  C   UNL     1      49.041 -13.226 -34.209  1.00  0.00     0.000 C 
BRANCH  19  20
ATOM     20  C   UNL     1      48.387 -14.225 -33.234  1.00  0.00     0.000 C 
BRANCH  20  21
ATOM     21  C   UNL     1      47.557 -13.589 -32.103  1.00  0.00     0.000 C 
BRANCH  21  22
ATOM     22  C   UNL     1      46.056 -13.897 -32.220  1.00  0.00     0.000 C 
BRANCH  22  23
ATOM     23  C   UNL     1      45.821 -15.287 -32.824  1.00  0.00     0.000 C 
BRANCH  23  24
ATOM     24  C   UNL     1      44.459 -15.847 -32.387  1.00  0.00    -0.000 C 
BRANCH  24  25
ATOM     25  C   UNL     1      44.206 -17.279 -32.892  1.00  0.00    -0.000 C 
BRANCH  25  26
ATOM     26  C   UNL     1      43.100 -17.413 -33.959  1.00  0.00    -0.000 C 
BRANCH  26  27
ATOM     27  C   UNL     1      42.734 -16.110 -34.692  1.00  0.00    -0.000 C 
BRANCH  27  28
ATOM     28  C   UNL     1      43.780 -15.697 -35.739  1.00  0.00    -0.000 C 
BRANCH  28  29
ATOM     29  C   UNL     1      43.648 -14.206 -36.083  1.00  0.00    -0.000 C 
BRANCH  29  30
ATOM     30  C   UNL     1      43.503 -13.320 -34.835  1.00  0.00    -0.000 C 
BRANCH  30  31
ATOM     31  C   UNL     1      44.361 -12.049 -34.912  1.00  0.00    -0.003 C 
ATOM     32  C   UNL     1      44.195 -11.356 -36.263  1.00  0.00     0.004 C 
ENDBRANCH  30  31
ENDBRANCH  29  30
ENDBRANCH  28  29
ENDBRANCH  27  28
ENDBRANCH  26  27
ENDBRANCH  25  26
ENDBRANCH  24  25
ENDBRANCH  23  24
ENDBRANCH  22  23
ENDBRANCH  21  22
ENDBRANCH  20  21
ENDBRANCH  19  20
ENDBRANCH  18  19
ENDBRANCH   1  18
TORSDOF 28
ENDMDL
MODEL 7
REMARK VINA RESULT:    -5.584      2.486      9.708
REMARK INTER + INTRA:         -18.658
REMARK INTER:                 -14.907
REMARK INTRA:                  -3.751
REMARK UNBOUND:                -3.932
REMARK SMILES CCCCCCCCCCCCCCCCCCCCCCCCCCCCCC(=O)[O-]
REMARK SMILES IDX 16 1 17 2 18 3 19 4 20 5 21 6 22 7 23 8 24 9 25 10 26 11
REMARK SMILES IDX 27 12 28 13 29 14 30 15 31 16 32 17 15 18 14 19 13 20 12 21
REMARK SMILES IDX 11 22 10 23 9 24 8 25 7 26 6 27 5 28 4 29 3 30 2 31 1 32
REMARK H PARENT
REMARK Flexibility Score: inf
ROOT
ATOM      1  C   UNL     1      45.334 -13.134 -38.496  1.00  0.00     0.000 C 
ENDROOT
BRANCH   1   2
ATOM      2  C   UNL     1      45.575 -12.240 -39.726  1.00  0.00     0.000 C 
BRANCH   2   3
ATOM      3  C   UNL     1      44.854 -10.884 -39.598  1.00  0.00     0.000 C 
BRANCH   3   4
ATOM      4  C   UNL     1      44.162 -10.699 -38.233  1.00  0.00     0.000 C 
BRANCH   4   5
ATOM      5  C   UNL     1      42.630 -10.650 -38.370  1.00  0.00     0.000 C 
BRANCH   5   6
ATOM      6  C   UNL     1      42.080  -9.209 -38.418  1.00  0.00     0.000 C 
BRANCH   6   7
ATOM      7  C   UNL     1      41.611  -8.758 -39.816  1.00  0.00     0.000 C 
BRANCH   7   8
ATOM      8  C   UNL     1      41.794  -9.794 -40.938  1.00  0.00     0.000 C 
BRANCH   8   9
ATOM      9  C   UNL     1      42.031  -9.148 -42.314  1.00  0.00     0.000 C 
BRANCH   9  10
ATOM     10  C   UNL     1      40.728  -8.690 -42.990  1.00  0.00     0.000 C 
BRANCH  10  11
ATOM     11  C   UNL     1      40.315  -9.565 -44.193  1.00  0.00     0.000 C 
BRANCH  11  12
ATOM     12  C   UNL     1      40.026 -11.017 -43.775  1.00  0.00     0.000 C 
BRANCH  12  13
ATOM     13  C   UNL     1      40.768 -12.047 -44.642  1.00  0.00     0.006 C 
BRANCH  13  14
ATOM     14  C   UNL     1      42.140 -11.547 -45.116  1.00  0.00     0.053 C 
BRANCH  14  15
ATOM     15  C   UNL     1      43.229 -12.110 -44.256  1.00  0.00     0.041 C 
ATOM     16  O   UNL     1      44.383 -12.288 -44.729  1.00  0.00    -0.550 OA
ATOM     17  O   UNL     1      42.964 -12.466 -42.939  1.00  0.00    -0.550 OA
ENDBRANCH  14  15
ENDBRANCH  13  14
ENDBRANCH  12  13
ENDBRANCH  11  12
ENDBRANCH  10  11
ENDBRANCH   9  10
ENDBRANCH   8   9
ENDBRANCH   7   8
ENDBRANCH   6   7
ENDBRANCH   5   6
ENDBRANCH   4   5
ENDBRANCH   3   4
ENDBRANCH   2   3
ENDBRANCH   1   2
BRANCH   1  18
ATOM     18  C   UNL     1      46.573 -13.958 -38.093  1.00  0.00     0.000 C 
BRANCH  18  19
ATOM     19  C   UNL     1      47.433 -13.311 -36.988  1.00  0.00     0.000 C 
BRANCH  19  20
ATOM     20  C   UNL     1      47.957 -14.272 -35.902  1.00  0.00     0.000 C 
BRANCH  20  21
ATOM     21  C   UNL     1      49.020 -13.679 -34.959  1.00  0.00     0.000 C 
BRANCH  21  22
ATOM     22  C   UNL     1      48.408 -12.895 -33.788  1.00  0.00     0.000 C 
BRANCH  22  23
ATOM     23  C   UNL     1      48.906 -13.433 -32.441  1.00  0.00     0.000 C 
BRANCH  23  24
ATOM     24  C   UNL     1      48.020 -14.589 -31.954  1.00  0.00    -0.000 C 
BRANCH  24  25
ATOM     25  C   UNL     1      46.529 -14.386 -32.283  1.00  0.00    -0.000 C 
BRANCH  25  26
ATOM     26  C   UNL     1      45.761 -15.668 -32.663  1.00  0.00    -0.000 C 
BRANCH  26  27
ATOM     27  C   UNL     1      44.240 -15.498 -32.830  1.00  0.00    -0.000 C 
BRANCH  27  28
ATOM     28  C   UNL     1      43.767 -15.721 -34.274  1.00  0.00    -0.000 C 
BRANCH  28  29
ATOM     29  C   UNL     1      44.378 -14.673 -35.216  1.00  0.00    -0.000 C 
BRANCH  29  30
ATOM     30  C   UNL     1      43.433 -13.491 -35.483  1.00  0.00    -0.000 C 
BRANCH  30  31
ATOM     31  C   UNL     1      43.930 -12.184 -34.849  1.00  0.00    -0.003 C 
ATOM     32  C   UNL     1      43.334 -11.988 -33.457  1.00  0.00     0.004 C 
ENDBRANCH  30  31
ENDBRANCH  29  30
ENDBRANCH  28  29
ENDBRANCH  27  28
ENDBRANCH  26  27
ENDBRANCH  25  26
ENDBRANCH  24  25
ENDBRANCH  23  24
ENDBRANCH  22  23
ENDBRANCH  21  22
ENDBRANCH  20  21
ENDBRANCH  19  20
ENDBRANCH  18  19
ENDBRANCH   1  18
TORSDOF 28
ENDMDL
MODEL 8
REMARK VINA RESULT:    -5.456      5.401      8.845
REMARK INTER + INTRA:         -18.319
REMARK INTER:                 -14.697
REMARK INTRA:                  -3.622
REMARK UNBOUND:                -3.932
REMARK SMILES CCCCCCCCCCCCCCCCCCCCCCCCCCCCCC(=O)[O-]
REMARK SMILES IDX 16 1 17 2 18 3 19 4 20 5 21 6 22 7 23 8 24 9 25 10 26 11
REMARK SMILES IDX 27 12 28 13 29 14 30 15 31 16 32 17 15 18 14 19 13 20 12 21
REMARK SMILES IDX 11 22 10 23 9 24 8 25 7 26 6 27 5 28 4 29 3 30 2 31 1 32
REMARK H PARENT
REMARK Flexibility Score: inf
ROOT
ATOM      1  C   UNL     1      44.671 -15.576 -32.429  1.00  0.00     0.000 C 
ENDROOT
BRANCH   1   2
ATOM      2  C   UNL     1      43.872 -16.153 -33.611  1.00  0.00     0.000 C 
BRANCH   2   3
ATOM      3  C   UNL     1      43.505 -17.633 -33.385  1.00  0.00     0.000 C 
BRANCH   3   4
ATOM      4  C   UNL     1      42.619 -18.210 -34.507  1.00  0.00     0.000 C 
BRANCH   4   5
ATOM      5  C   UNL     1      42.626 -19.750 -34.506  1.00  0.00     0.000 C 
BRANCH   5   6
ATOM      6  C   UNL     1      41.423 -20.351 -33.749  1.00  0.00     0.000 C 
BRANCH   6   7
ATOM      7  C   UNL     1      41.503 -21.878 -33.549  1.00  0.00     0.000 C 
BRANCH   7   8
ATOM      8  C   UNL     1      40.607 -22.711 -34.481  1.00  0.00     0.000 C 
BRANCH   8   9
ATOM      9  C   UNL     1      39.207 -22.101 -34.666  1.00  0.00     0.000 C 
BRANCH   9  10
ATOM     10  C   UNL     1      38.161 -22.711 -33.718  1.00  0.00     0.000 C 
BRANCH  10  11
ATOM     11  C   UNL     1      38.036 -21.962 -32.374  1.00  0.00     0.000 C 
BRANCH  11  12
ATOM     12  C   UNL     1      38.731 -22.717 -31.229  1.00  0.00     0.000 C 
BRANCH  12  13
ATOM     13  C   UNL     1      39.028 -21.821 -30.016  1.00  0.00     0.006 C 
BRANCH  13  14
ATOM     14  C   UNL     1      39.834 -20.568 -30.386  1.00  0.00     0.053 C 
BRANCH  14  15
ATOM     15  C   UNL     1      41.173 -20.589 -29.715  1.00  0.00     0.041 C 
ATOM     16  O   UNL     1      41.757 -21.683 -29.498  1.00  0.00    -0.550 OA
ATOM     17  O   UNL     1      41.765 -19.400 -29.304  1.00  0.00    -0.550 OA
ENDBRANCH  14  15
ENDBRANCH  13  14
ENDBRANCH  12  13
ENDBRANCH  11  12
ENDBRANCH  10  11
ENDBRANCH   9  10
ENDBRANCH   8   9
ENDBRANCH   7   8
ENDBRANCH   6   7
ENDBRANCH   5   6
ENDBRANCH   4   5
ENDBRANCH   3   4
ENDBRANCH   2   3
ENDBRANCH   1   2
BRANCH   1  18
ATOM     18  C   UNL     1      45.576 -14.393 -32.828  1.00  0.00     0.000 C 
BRANCH  18  19
ATOM     19  C   UNL     1      47.084 -14.652 -32.628  1.00  0.00     0.000 C 
BRANCH  19  20
ATOM     20  C   UNL     1      48.005 -14.122 -33.744  1.00  0.00     0.000 C 
BRANCH  20  21
ATOM     21  C   UNL     1      47.447 -12.929 -34.543  1.00  0.00     0.000 C 
BRANCH  21  22
ATOM     22  C   UNL     1      47.423 -13.184 -36.058  1.00  0.00     0.000 C 
BRANCH  22  23
ATOM     23  C   UNL     1      46.445 -14.310 -36.415  1.00  0.00     0.000 C 
BRANCH  23  24
ATOM     24  C   UNL     1      46.028 -14.221 -37.890  1.00  0.00    -0.000 C 
BRANCH  24  25
ATOM     25  C   UNL     1      46.661 -13.027 -38.625  1.00  0.00    -0.000 C 
BRANCH  25  26
ATOM     26  C   UNL     1      45.710 -12.253 -39.562  1.00  0.00    -0.000 C 
BRANCH  26  27
ATOM     27  C   UNL     1      44.958 -11.079 -38.911  1.00  0.00    -0.000 C 
BRANCH  27  28
ATOM     28  C   UNL     1      43.503 -11.422 -38.557  1.00  0.00    -0.000 C 
BRANCH  28  29
ATOM     29  C   UNL     1      43.164 -10.959 -37.132  1.00  0.00    -0.000 C 
BRANCH  29  30
ATOM     30  C   UNL     1      44.237 -11.361 -36.107  1.00  0.00    -0.000 C 
BRANCH  30  31
ATOM     31  C   UNL     1      43.690 -12.295 -35.018  1.00  0.00    -0.003 C 
ATOM     32  C   UNL     1      42.246 -12.696 -35.312  1.00  0.00     0.004 C 
ENDBRANCH  30  31
ENDBRANCH  29  30
ENDBRANCH  28  29
ENDBRANCH  27  28
ENDBRANCH  26  27
ENDBRANCH  25  26
ENDBRANCH  24  25
ENDBRANCH  23  24
ENDBRANCH  22  23
ENDBRANCH  21  22
ENDBRANCH  20  21
ENDBRANCH  19  20
ENDBRANCH  18  19
ENDBRANCH   1  18
TORSDOF 28
ENDMDL
MODEL 9
REMARK VINA RESULT:    -5.448      2.917      9.259
REMARK INTER + INTRA:         -18.297
REMARK INTER:                 -14.576
REMARK INTRA:                  -3.721
REMARK UNBOUND:                -3.932
REMARK SMILES CCCCCCCCCCCCCCCCCCCCCCCCCCCCCC(=O)[O-]
REMARK SMILES IDX 16 1 17 2 18 3 19 4 20 5 21 6 22 7 23 8 24 9 25 10 26 11
REMARK SMILES IDX 27 12 28 13 29 14 30 15 31 16 32 17 15 18 14 19 13 20 12 21
REMARK SMILES IDX 11 22 10 23 9 24 8 25 7 26 6 27 5 28 4 29 3 30 2 31 1 32
REMARK H PARENT
REMARK Flexibility Score: inf
ROOT
ATOM      1  C   UNL     1      44.771 -12.016 -40.291  1.00  0.00     0.000 C 
ENDROOT
BRANCH   1   2
ATOM      2  C   UNL     1      45.638 -10.995 -39.532  1.00  0.00     0.000 C 
BRANCH   2   3
ATOM      3  C   UNL     1      44.811 -10.194 -38.506  1.00  0.00     0.000 C 
BRANCH   3   4
ATOM      4  C   UNL     1      43.975 -11.094 -37.575  1.00  0.00     0.000 C 
BRANCH   4   5
ATOM      5  C   UNL     1      42.541 -10.564 -37.403  1.00  0.00     0.000 C 
BRANCH   5   6
ATOM      6  C   UNL     1      42.363  -9.133 -37.954  1.00  0.00     0.000 C 
BRANCH   6   7
ATOM      7  C   UNL     1      41.241  -8.995 -39.002  1.00  0.00     0.000 C 
BRANCH   7   8
ATOM      8  C   UNL     1      41.176 -10.119 -40.050  1.00  0.00     0.000 C 
BRANCH   8   9
ATOM      9  C   UNL     1      42.122  -9.881 -41.240  1.00  0.00     0.000 C 
BRANCH   9  10
ATOM     10  C   UNL     1      41.734  -8.647 -42.072  1.00  0.00     0.000 C 
BRANCH  10  11
ATOM     11  C   UNL     1      41.218  -8.994 -43.485  1.00  0.00     0.000 C 
BRANCH  11  12
ATOM     12  C   UNL     1      40.283 -10.215 -43.472  1.00  0.00     0.000 C 
BRANCH  12  13
ATOM     13  C   UNL     1      40.121 -10.858 -44.859  1.00  0.00     0.006 C 
BRANCH  13  14
ATOM     14  C   UNL     1      40.843 -12.207 -44.976  1.00  0.00     0.053 C 
BRANCH  14  15
ATOM     15  C   UNL     1      42.327 -12.006 -45.006  1.00  0.00     0.041 C 
ATOM     16  O   UNL     1      42.903 -11.689 -46.081  1.00  0.00    -0.550 OA
ATOM     17  O   UNL     1      43.080 -12.196 -43.853  1.00  0.00    -0.550 OA
ENDBRANCH  14  15
ENDBRANCH  13  14
ENDBRANCH  12  13
ENDBRANCH  11  12
ENDBRANCH  10  11
ENDBRANCH   9  10
ENDBRANCH   8   9
ENDBRANCH   7   8
ENDBRANCH   6   7
ENDBRANCH   5   6
ENDBRANCH   4   5
ENDBRANCH   3   4
ENDBRANCH   2   3
ENDBRANCH   1   2
BRANCH   1  18
ATOM     18  C   UNL     1      45.054 -13.475 -39.880  1.00  0.00     0.000 C 
BRANCH  18  19
ATOM     19  C   UNL     1      46.302 -13.654 -38.991  1.00  0.00     0.000 C 
BRANCH  19  20
ATOM     20  C   UNL     1      46.132 -14.602 -37.788  1.00  0.00     0.000 C 
BRANCH  20  21
ATOM     21  C   UNL     1      47.307 -14.613 -36.792  1.00  0.00     0.000 C 
BRANCH  21  22
ATOM     22  C   UNL     1      47.635 -13.218 -36.241  1.00  0.00     0.000 C 
BRANCH  22  23
ATOM     23  C   UNL     1      47.842 -13.256 -34.721  1.00  0.00     0.000 C 
BRANCH  23  24
ATOM     24  C   UNL     1      46.506 -13.475 -33.995  1.00  0.00    -0.000 C 
BRANCH  24  25
ATOM     25  C   UNL     1      45.344 -12.682 -34.619  1.00  0.00    -0.000 C 
BRANCH  25  26
ATOM     26  C   UNL     1      44.000 -12.789 -33.868  1.00  0.00    -0.000 C 
BRANCH  26  27
ATOM     27  C   UNL     1      42.836 -13.378 -34.685  1.00  0.00    -0.000 C 
BRANCH  27  28
ATOM     28  C   UNL     1      43.231 -14.640 -35.468  1.00  0.00    -0.000 C 
BRANCH  28  29
ATOM     29  C   UNL     1      43.557 -15.796 -34.510  1.00  0.00    -0.000 C 
BRANCH  29  30
ATOM     30  C   UNL     1      42.869 -17.111 -34.912  1.00  0.00    -0.000 C 
BRANCH  30  31
ATOM     31  C   UNL     1      43.124 -18.241 -33.905  1.00  0.00    -0.003 C 
ATOM     32  C   UNL     1      42.172 -19.412 -34.142  1.00  0.00     0.004 C 
ENDBRANCH  30  31
ENDBRANCH  29  30
ENDBRANCH  28  29
ENDBRANCH  27  28
ENDBRANCH  26  27
ENDBRANCH  25  26
ENDBRANCH  24  25
ENDBRANCH  23  24
ENDBRANCH  22  23
ENDBRANCH  21  22
ENDBRANCH  20  21
ENDBRANCH  19  20
ENDBRANCH  18  19
ENDBRANCH   1  18
TORSDOF 28
ENDMDL
