MODEL 1
REMARK VINA RESULT:    -5.149      0.000      0.000
REMARK INTER + INTRA:          -6.370
REMARK INTER:                  -6.052
REMARK INTRA:                  -0.318
REMARK UNBOUND:                -0.318
REMARK SMILES O=c1cc(-c2ccc(O)c(O)c2)oc2cc(O)cc(O)c12
REMARK SMILES IDX 4 1 3 2 2 3 1 4 21 5 19 6 18 7 16 8 15 9 14 10 13 11 5 12
REMARK SMILES IDX 6 13 7 14 8 15 12 16 10 17 9 18 11 20 20 22 17 24
REMARK H PARENT 9 19 11 21 20 23 17 25
REMARK Flexibility Score: inf
ROOT
ATOM      1  C   UNL     1      10.924 -15.437  10.852  1.00  0.00     0.138 A 
ATOM      2  C   UNL     1      11.264 -16.676  10.292  1.00  0.00     0.100 A 
ATOM      3  C   UNL     1      10.945 -16.943   8.960  1.00  0.00     0.197 A 
ATOM      4  O   UNL     1      11.313 -18.042   8.472  1.00  0.00    -0.289 OA
ATOM      5  C   UNL     1      10.249 -15.976   8.196  1.00  0.00     0.107 A 
ATOM      6  C   UNL     1       9.841 -16.152   6.839  1.00  0.00     0.134 A 
ATOM      7  C   UNL     1       9.244 -15.085   6.155  1.00  0.00     0.093 A 
ATOM      8  C   UNL     1       8.989 -13.872   6.792  1.00  0.00     0.123 A 
ATOM      9  C   UNL     1       9.338 -13.706   8.133  1.00  0.00     0.094 A 
ATOM     10  C   UNL     1       9.966 -14.739   8.834  1.00  0.00     0.146 A 
ATOM     11  O   UNL     1      10.299 -14.534  10.104  1.00  0.00    -0.456 OA
ENDROOT
BRANCH   1  12
ATOM     12  C   UNL     1      11.236 -15.101  12.264  1.00  0.00     0.021 A 
ATOM     13  C   UNL     1      11.815 -16.040  13.139  1.00  0.00     0.016 A 
ATOM     14  C   UNL     1      12.108 -15.691  14.460  1.00  0.00     0.051 A 
ATOM     15  C   UNL     1      11.835 -14.400  14.928  1.00  0.00     0.157 A 
ATOM     16  C   UNL     1      10.979 -13.801  12.738  1.00  0.00     0.062 A 
ATOM     17  C   UNL     1      11.271 -13.453  14.065  1.00  0.00     0.158 A 
BRANCH  15  18
ATOM     18  O   UNL     1      12.125 -14.050  16.245  1.00  0.00    -0.504 OA
ATOM     19  H   UNL     1      12.801 -13.329  16.466  1.00  0.00     0.293 HD
ENDBRANCH  15  18
BRANCH  17  20
ATOM     20  O   UNL     1      11.006 -12.167  14.532  1.00  0.00    -0.504 OA
ATOM     21  H   UNL     1      10.609 -11.455  13.928  1.00  0.00     0.293 HD
ENDBRANCH  17  20
ENDBRANCH   1  12
BRANCH   6  22
ATOM     22  O   UNL     1       9.974 -17.348   6.128  1.00  0.00    -0.507 OA
ATOM     23  H   UNL     1      10.838 -17.707   5.752  1.00  0.00     0.293 HD
ENDBRANCH   6  22
BRANCH   8  24
ATOM     24  O   UNL     1       8.381 -12.838   6.085  1.00  0.00    -0.508 OA
ATOM     25  H   UNL     1       7.674 -13.020   5.381  1.00  0.00     0.293 HD
ENDBRANCH   8  24
TORSDOF 5
ENDMDL
MODEL 2
REMARK VINA RESULT:    -4.952     19.968     21.930
REMARK INTER + INTRA:          -6.139
REMARK INTER:                  -5.821
REMARK INTRA:                  -0.318
REMARK UNBOUND:                -0.318
REMARK SMILES O=c1cc(-c2ccc(O)c(O)c2)oc2cc(O)cc(O)c12
REMARK SMILES IDX 4 1 3 2 2 3 1 4 21 5 19 6 18 7 16 8 15 9 14 10 13 11 5 12
REMARK SMILES IDX 6 13 7 14 8 15 12 16 10 17 9 18 11 20 20 22 17 24
REMARK H PARENT 9 19 11 21 20 23 17 25
REMARK Flexibility Score: inf
ROOT
ATOM      1  C   UNL     1      -6.298 -12.169  23.015  1.00  0.00     0.138 A 
ATOM      2  C   UNL     1      -7.365 -12.996  23.391  1.00  0.00     0.100 A 
ATOM      3  C   UNL     1      -7.137 -14.066  24.257  1.00  0.00     0.197 A 
ATOM      4  O   UNL     1      -8.124 -14.756  24.619  1.00  0.00    -0.289 OA
ATOM      5  C   UNL     1      -5.825 -14.331  24.719  1.00  0.00     0.107 A 
ATOM      6  C   UNL     1      -5.468 -15.415  25.578  1.00  0.00     0.134 A 
ATOM      7  C   UNL     1      -4.153 -15.516  26.049  1.00  0.00     0.093 A 
ATOM      8  C   UNL     1      -3.171 -14.611  25.648  1.00  0.00     0.123 A 
ATOM      9  C   UNL     1      -3.498 -13.577  24.770  1.00  0.00     0.094 A 
ATOM     10  C   UNL     1      -4.808 -13.428  24.309  1.00  0.00     0.146 A 
ATOM     11  O   UNL     1      -5.081 -12.419  23.488  1.00  0.00    -0.456 OA
ENDROOT
BRANCH   1  12
ATOM     12  C   UNL     1      -6.482 -11.019  22.095  1.00  0.00     0.021 A 
ATOM     13  C   UNL     1      -7.759 -10.619  21.654  1.00  0.00     0.016 A 
ATOM     14  C   UNL     1      -7.902  -9.526  20.797  1.00  0.00     0.051 A 
ATOM     15  C   UNL     1      -6.778  -8.809  20.370  1.00  0.00     0.157 A 
ATOM     16  C   UNL     1      -5.359 -10.283  21.673  1.00  0.00     0.062 A 
ATOM     17  C   UNL     1      -5.504  -9.187  20.811  1.00  0.00     0.158 A 
BRANCH  15  18
ATOM     18  O   UNL     1      -6.918  -7.718  19.514  1.00  0.00    -0.504 OA
ATOM     19  H   UNL     1      -6.264  -6.945  19.528  1.00  0.00     0.293 HD
ENDBRANCH  15  18
BRANCH  17  20
ATOM     20  O   UNL     1      -4.387  -8.468  20.389  1.00  0.00    -0.504 OA
ATOM     21  H   UNL     1      -4.344  -8.046  19.469  1.00  0.00     0.293 HD
ENDBRANCH  17  20
ENDBRANCH   1  12
BRANCH   6  22
ATOM     22  O   UNL     1      -6.351 -16.423  25.977  1.00  0.00    -0.507 OA
ATOM     23  H   UNL     1      -6.792 -16.483  26.881  1.00  0.00     0.293 HD
ENDBRANCH   6  22
BRANCH   8  24
ATOM     24  O   UNL     1      -1.870 -14.753  26.125  1.00  0.00    -0.508 OA
ATOM     25  H   UNL     1      -1.425 -14.028  26.677  1.00  0.00     0.293 HD
ENDBRANCH   8  24
TORSDOF 5
ENDMDL
MODEL 3
REMARK VINA RESULT:    -4.666      2.143      6.785
REMARK INTER + INTRA:          -5.802
REMARK INTER:                  -5.490
REMARK INTRA:                  -0.312
REMARK UNBOUND:                -0.318
REMARK SMILES O=c1cc(-c2ccc(O)c(O)c2)oc2cc(O)cc(O)c12
REMARK SMILES IDX 4 1 3 2 2 3 1 4 21 5 19 6 18 7 16 8 15 9 14 10 13 11 5 12
REMARK SMILES IDX 6 13 7 14 8 15 12 16 10 17 9 18 11 20 20 22 17 24
REMARK H PARENT 9 19 11 21 20 23 17 25
REMARK Flexibility Score: inf
ROOT
ATOM      1  C   UNL     1      11.417 -17.021  11.019  1.00  0.00     0.138 A 
ATOM      2  C   UNL     1      11.689 -17.671  12.230  1.00  0.00     0.100 A 
ATOM      3  C   UNL     1      11.780 -16.927  13.408  1.00  0.00     0.197 A 
ATOM      4  O   UNL     1      11.972 -17.545  14.486  1.00  0.00    -0.289 OA
ATOM      5  C   UNL     1      11.632 -15.520  13.365  1.00  0.00     0.107 A 
ATOM      6  C   UNL     1      11.739 -14.655  14.496  1.00  0.00     0.134 A 
ATOM      7  C   UNL     1      11.474 -13.287  14.346  1.00  0.00     0.093 A 
ATOM      8  C   UNL     1      11.166 -12.745  13.100  1.00  0.00     0.123 A 
ATOM      9  C   UNL     1      11.108 -13.573  11.978  1.00  0.00     0.094 A 
ATOM     10  C   UNL     1      11.332 -14.947  12.100  1.00  0.00     0.146 A 
ATOM     11  O   UNL     1      11.250 -15.702  11.010  1.00  0.00    -0.456 OA
ENDROOT
BRANCH   1  12
ATOM     12  C   UNL     1      11.312 -17.762   9.737  1.00  0.00     0.021 A 
ATOM     13  C   UNL     1      11.881 -19.039   9.570  1.00  0.00     0.016 A 
ATOM     14  C   UNL     1      11.757 -19.717   8.355  1.00  0.00     0.051 A 
ATOM     15  C   UNL     1      11.059 -19.137   7.289  1.00  0.00     0.157 A 
ATOM     16  C   UNL     1      10.600 -17.193   8.665  1.00  0.00     0.062 A 
ATOM     17  C   UNL     1      10.478 -17.873   7.445  1.00  0.00     0.158 A 
BRANCH  15  18
ATOM     18  O   UNL     1      10.935 -19.811   6.076  1.00  0.00    -0.504 OA
ATOM     19  H   UNL     1      10.071 -19.798   5.548  1.00  0.00     0.293 HD
ENDBRANCH  15  18
BRANCH  17  20
ATOM     20  O   UNL     1       9.779 -17.300   6.384  1.00  0.00    -0.504 OA
ATOM     21  H   UNL     1       9.260 -17.866   5.724  1.00  0.00     0.293 HD
ENDBRANCH  17  20
ENDBRANCH   1  12
BRANCH   6  22
ATOM     22  O   UNL     1      12.120 -15.078  15.773  1.00  0.00    -0.507 OA
ATOM     23  H   UNL     1      11.561 -15.651  16.385  1.00  0.00     0.293 HD
ENDBRANCH   6  22
BRANCH   8  24
ATOM     24  O   UNL     1      10.923 -11.378  12.985  1.00  0.00    -0.508 OA
ATOM     25  H   UNL     1      10.139 -11.021  12.452  1.00  0.00     0.293 HD
ENDBRANCH   8  24
TORSDOF 5
ENDMDL
MODEL 4
REMARK VINA RESULT:    -4.483     19.856     22.089
REMARK INTER + INTRA:          -5.587
REMARK INTER:                  -5.306
REMARK INTRA:                  -0.282
REMARK UNBOUND:                -0.318
REMARK SMILES O=c1cc(-c2ccc(O)c(O)c2)oc2cc(O)cc(O)c12
REMARK SMILES IDX 4 1 3 2 2 3 1 4 21 5 19 6 18 7 16 8 15 9 14 10 13 11 5 12
REMARK SMILES IDX 6 13 7 14 8 15 12 16 10 17 9 18 11 20 20 22 17 24
REMARK H PARENT 9 19 11 21 20 23 17 25
REMARK Flexibility Score: inf
ROOT
ATOM      1  C   UNL     1      -6.303  -8.310  20.892  1.00  0.00     0.138 A 
ATOM      2  C   UNL     1      -5.375  -9.257  20.439  1.00  0.00     0.100 A 
ATOM      3  C   UNL     1      -5.135 -10.405  21.196  1.00  0.00     0.197 A 
ATOM      4  O   UNL     1      -4.338 -11.262  20.736  1.00  0.00    -0.289 OA
ATOM      5  C   UNL     1      -5.804 -10.587  22.430  1.00  0.00     0.107 A 
ATOM      6  C   UNL     1      -5.614 -11.702  23.303  1.00  0.00     0.134 A 
ATOM      7  C   UNL     1      -6.406 -11.820  24.452  1.00  0.00     0.093 A 
ATOM      8  C   UNL     1      -7.338 -10.840  24.790  1.00  0.00     0.123 A 
ATOM      9  C   UNL     1      -7.497  -9.722  23.971  1.00  0.00     0.094 A 
ATOM     10  C   UNL     1      -6.746  -9.590  22.800  1.00  0.00     0.146 A 
ATOM     11  O   UNL     1      -6.941  -8.519  22.039  1.00  0.00    -0.456 OA
ENDROOT
BRANCH   1  12
ATOM     12  C   UNL     1      -6.594  -7.070  20.129  1.00  0.00     0.021 A 
ATOM     13  C   UNL     1      -7.884  -6.506  20.094  1.00  0.00     0.016 A 
ATOM     14  C   UNL     1      -8.125  -5.332  19.377  1.00  0.00     0.051 A 
ATOM     15  C   UNL     1      -7.084  -4.697  18.688  1.00  0.00     0.157 A 
ATOM     16  C   UNL     1      -5.551  -6.417  19.446  1.00  0.00     0.062 A 
ATOM     17  C   UNL     1      -5.794  -5.240  18.724  1.00  0.00     0.158 A 
BRANCH  15  18
ATOM     18  O   UNL     1      -7.323  -3.527  17.970  1.00  0.00    -0.504 OA
ATOM     19  H   UNL     1      -7.127  -2.614  18.363  1.00  0.00     0.293 HD
ENDBRANCH  15  18
BRANCH  17  20
ATOM     20  O   UNL     1      -4.759  -4.603  18.042  1.00  0.00    -0.504 OA
ATOM     21  H   UNL     1      -3.787  -4.803  18.249  1.00  0.00     0.293 HD
ENDBRANCH  17  20
ENDBRANCH   1  12
BRANCH   6  22
ATOM     22  O   UNL     1      -4.655 -12.698  23.104  1.00  0.00    -0.507 OA
ATOM     23  H   UNL     1      -3.761 -12.745  23.568  1.00  0.00     0.293 HD
ENDBRANCH   6  22
BRANCH   8  24
ATOM     24  O   UNL     1      -8.098 -10.985  25.949  1.00  0.00    -0.508 OA
ATOM     25  H   UNL     1      -8.925 -11.570  25.971  1.00  0.00     0.293 HD
ENDBRANCH   8  24
TORSDOF 5
ENDMDL
MODEL 5
REMARK VINA RESULT:    -4.184     19.445     21.274
REMARK INTER + INTRA:          -5.236
REMARK INTER:                  -4.944
REMARK INTRA:                  -0.292
REMARK UNBOUND:                -0.318
REMARK SMILES O=c1cc(-c2ccc(O)c(O)c2)oc2cc(O)cc(O)c12
REMARK SMILES IDX 4 1 3 2 2 3 1 4 21 5 19 6 18 7 16 8 15 9 14 10 13 11 5 12
REMARK SMILES IDX 6 13 7 14 8 15 12 16 10 17 9 18 11 20 20 22 17 24
REMARK H PARENT 9 19 11 21 20 23 17 25
REMARK Flexibility Score: inf
ROOT
ATOM      1  C   UNL     1      -6.539 -12.223  22.756  1.00  0.00     0.138 A 
ATOM      2  C   UNL     1      -7.476 -11.181  22.778  1.00  0.00     0.100 A 
ATOM      3  C   UNL     1      -7.239 -10.022  22.038  1.00  0.00     0.197 A 
ATOM      4  O   UNL     1      -8.125  -9.129  22.035  1.00  0.00    -0.289 OA
ATOM      5  C   UNL     1      -6.039  -9.892  21.299  1.00  0.00     0.107 A 
ATOM      6  C   UNL     1      -5.674  -8.742  20.535  1.00  0.00     0.134 A 
ATOM      7  C   UNL     1      -4.504  -8.769  19.765  1.00  0.00     0.093 A 
ATOM      8  C   UNL     1      -3.658  -9.877  19.776  1.00  0.00     0.123 A 
ATOM      9  C   UNL     1      -3.979 -10.987  20.559  1.00  0.00     0.094 A 
ATOM     10  C   UNL     1      -5.156 -11.006  21.311  1.00  0.00     0.146 A 
ATOM     11  O   UNL     1      -5.434 -12.089  22.028  1.00  0.00    -0.456 OA
ENDROOT
BRANCH   1  12
ATOM     12  C   UNL     1      -6.738 -13.476  23.526  1.00  0.00     0.021 A 
ATOM     13  C   UNL     1      -7.959 -14.177  23.499  1.00  0.00     0.016 A 
ATOM     14  C   UNL     1      -8.114 -15.359  24.226  1.00  0.00     0.051 A 
ATOM     15  C   UNL     1      -7.053 -15.866  24.986  1.00  0.00     0.157 A 
ATOM     16  C   UNL     1      -5.673 -14.000  24.281  1.00  0.00     0.062 A 
ATOM     17  C   UNL     1      -5.830 -15.186  25.013  1.00  0.00     0.158 A 
BRANCH  15  18
ATOM     18  O   UNL     1      -7.206 -17.045  25.714  1.00  0.00    -0.504 OA
ATOM     19  H   UNL     1      -7.249 -17.041  26.726  1.00  0.00     0.293 HD
ENDBRANCH  15  18
BRANCH  17  20
ATOM     20  O   UNL     1      -4.774 -15.695  25.767  1.00  0.00    -0.504 OA
ATOM     21  H   UNL     1      -3.949 -16.085  25.326  1.00  0.00     0.293 HD
ENDBRANCH  17  20
ENDBRANCH   1  12
BRANCH   6  22
ATOM     22  O   UNL     1      -6.404  -7.551  20.514  1.00  0.00    -0.507 OA
ATOM     23  H   UNL     1      -6.332  -6.814  21.198  1.00  0.00     0.293 HD
ENDBRANCH   6  22
BRANCH   8  24
ATOM     24  O   UNL     1      -2.495  -9.862  19.010  1.00  0.00    -0.508 OA
ATOM     25  H   UNL     1      -2.348 -10.524  18.256  1.00  0.00     0.293 HD
ENDBRANCH   8  24
TORSDOF 5
ENDMDL
MODEL 6
REMARK VINA RESULT:    -3.794     19.490     21.276
REMARK INTER + INTRA:          -4.777
REMARK INTER:                  -4.509
REMARK INTRA:                  -0.268
REMARK UNBOUND:                -0.318
REMARK SMILES O=c1cc(-c2ccc(O)c(O)c2)oc2cc(O)cc(O)c12
REMARK SMILES IDX 4 1 3 2 2 3 1 4 21 5 19 6 18 7 16 8 15 9 14 10 13 11 5 12
REMARK SMILES IDX 6 13 7 14 8 15 12 16 10 17 9 18 11 20 20 22 17 24
REMARK H PARENT 9 19 11 21 20 23 17 25
REMARK Flexibility Score: inf
ROOT
ATOM      1  C   UNL     1      -5.801 -11.753  23.504  1.00  0.00     0.138 A 
ATOM      2  C   UNL     1      -6.747 -10.924  24.124  1.00  0.00     0.100 A 
ATOM      3  C   UNL     1      -7.238  -9.808  23.444  1.00  0.00     0.197 A 
ATOM      4  O   UNL     1      -8.125  -9.115  24.006  1.00  0.00    -0.289 OA
ATOM      5  C   UNL     1      -6.751  -9.502  22.151  1.00  0.00     0.107 A 
ATOM      6  C   UNL     1      -7.154  -8.371  21.376  1.00  0.00     0.134 A 
ATOM      7  C   UNL     1      -6.676  -8.226  20.067  1.00  0.00     0.093 A 
ATOM      8  C   UNL     1      -5.770  -9.136  19.526  1.00  0.00     0.123 A 
ATOM      9  C   UNL     1      -5.331 -10.217  20.291  1.00  0.00     0.094 A 
ATOM     10  C   UNL     1      -5.814 -10.409  21.588  1.00  0.00     0.146 A 
ATOM     11  O   UNL     1      -5.385 -11.461  22.276  1.00  0.00    -0.456 OA
ENDROOT
BRANCH   1  12
ATOM     12  C   UNL     1      -5.244 -12.950  24.181  1.00  0.00     0.021 A 
ATOM     13  C   UNL     1      -5.999 -14.126  24.349  1.00  0.00     0.016 A 
ATOM     14  C   UNL     1      -5.444 -15.241  24.981  1.00  0.00     0.051 A 
ATOM     15  C   UNL     1      -4.125 -15.205  25.449  1.00  0.00     0.157 A 
ATOM     16  C   UNL     1      -3.914 -12.927  24.642  1.00  0.00     0.062 A 
ATOM     17  C   UNL     1      -3.358 -14.046  25.278  1.00  0.00     0.158 A 
BRANCH  15  18
ATOM     18  O   UNL     1      -3.569 -16.315  26.082  1.00  0.00    -0.504 OA
ATOM     19  H   UNL     1      -4.123 -17.135  26.299  1.00  0.00     0.293 HD
ENDBRANCH  15  18
BRANCH  17  20
ATOM     20  O   UNL     1      -2.044 -14.014  25.741  1.00  0.00    -0.504 OA
ATOM     21  H   UNL     1      -1.808 -13.613  26.641  1.00  0.00     0.293 HD
ENDBRANCH  17  20
ENDBRANCH   1  12
BRANCH   6  22
ATOM     22  O   UNL     1      -7.993  -7.357  21.847  1.00  0.00    -0.507 OA
ATOM     23  H   UNL     1      -8.524  -6.727  21.266  1.00  0.00     0.293 HD
ENDBRANCH   6  22
BRANCH   8  24
ATOM     24  O   UNL     1      -5.305  -8.952  18.226  1.00  0.00    -0.508 OA
ATOM     25  H   UNL     1      -4.343  -9.150  17.973  1.00  0.00     0.293 HD
ENDBRANCH   8  24
TORSDOF 5
ENDMDL
MODEL 7
REMARK VINA RESULT:    -2.967     19.932     22.013
REMARK INTER + INTRA:          -3.805
REMARK INTER:                  -3.525
REMARK INTRA:                  -0.280
REMARK UNBOUND:                -0.318
REMARK SMILES O=c1cc(-c2ccc(O)c(O)c2)oc2cc(O)cc(O)c12
REMARK SMILES IDX 4 1 3 2 2 3 1 4 21 5 19 6 18 7 16 8 15 9 14 10 13 11 5 12
REMARK SMILES IDX 6 13 7 14 8 15 12 16 10 17 9 18 11 20 20 22 17 24
REMARK H PARENT 9 19 11 21 20 23 17 25
REMARK Flexibility Score: inf
ROOT
ATOM      1  C   UNL     1      -7.008  -6.514  19.659  1.00  0.00     0.138 A 
ATOM      2  C   UNL     1      -7.773  -6.865  20.780  1.00  0.00     0.100 A 
ATOM      3  C   UNL     1      -7.453  -8.016  21.501  1.00  0.00     0.197 A 
ATOM      4  O   UNL     1      -8.124  -8.275  22.533  1.00  0.00    -0.289 OA
ATOM      5  C   UNL     1      -6.382  -8.839  21.075  1.00  0.00     0.107 A 
ATOM      6  C   UNL     1      -5.986 -10.054  21.712  1.00  0.00     0.134 A 
ATOM      7  C   UNL     1      -4.848 -10.731  21.257  1.00  0.00     0.093 A 
ATOM      8  C   UNL     1      -4.126 -10.271  20.157  1.00  0.00     0.123 A 
ATOM      9  C   UNL     1      -4.533  -9.112  19.496  1.00  0.00     0.094 A 
ATOM     10  C   UNL     1      -5.644  -8.394  19.945  1.00  0.00     0.146 A 
ATOM     11  O   UNL     1      -5.988  -7.286  19.299  1.00  0.00    -0.456 OA
ENDROOT
BRANCH   1  12
ATOM     12  C   UNL     1      -7.306  -5.303  18.854  1.00  0.00     0.021 A 
ATOM     13  C   UNL     1      -7.297  -4.014  19.422  1.00  0.00     0.016 A 
ATOM     14  C   UNL     1      -7.571  -2.892  18.637  1.00  0.00     0.051 A 
ATOM     15  C   UNL     1      -7.850  -3.034  17.272  1.00  0.00     0.157 A 
ATOM     16  C   UNL     1      -7.573  -5.435  17.479  1.00  0.00     0.062 A 
ATOM     17  C   UNL     1      -7.850  -4.308  16.692  1.00  0.00     0.158 A 
BRANCH  15  18
ATOM     18  O   UNL     1      -8.125  -1.916  16.487  1.00  0.00    -0.504 OA
ATOM     19  H   UNL     1      -8.264  -1.992  15.487  1.00  0.00     0.293 HD
ENDBRANCH  15  18
BRANCH  17  20
ATOM     20  O   UNL     1      -8.123  -4.446  15.332  1.00  0.00    -0.504 OA
ATOM     21  H   UNL     1      -7.394  -4.673  14.666  1.00  0.00     0.293 HD
ENDBRANCH  17  20
ENDBRANCH   1  12
BRANCH   6  22
ATOM     22  O   UNL     1      -6.682 -10.648  22.769  1.00  0.00    -0.507 OA
ATOM     23  H   UNL     1      -7.472 -10.241  23.245  1.00  0.00     0.293 HD
ENDBRANCH   6  22
BRANCH   8  24
ATOM     24  O   UNL     1      -3.007 -10.979  19.724  1.00  0.00    -0.508 OA
ATOM     25  H   UNL     1      -2.804 -11.912  20.066  1.00  0.00     0.293 HD
ENDBRANCH   8  24
TORSDOF 5
ENDMDL
MODEL 8
REMARK VINA RESULT:    -2.786      1.360      2.043
REMARK INTER + INTRA:          -3.592
REMARK INTER:                  -3.298
REMARK INTRA:                  -0.294
REMARK UNBOUND:                -0.318
REMARK SMILES O=c1cc(-c2ccc(O)c(O)c2)oc2cc(O)cc(O)c12
REMARK SMILES IDX 4 1 3 2 2 3 1 4 21 5 19 6 18 7 16 8 15 9 14 10 13 11 5 12
REMARK SMILES IDX 6 13 7 14 8 15 12 16 10 17 9 18 11 20 20 22 17 24
REMARK H PARENT 9 19 11 21 20 23 17 25
REMARK Flexibility Score: inf
ROOT
ATOM      1  C   UNL     1      11.156 -16.444  10.782  1.00  0.00     0.138 A 
ATOM      2  C   UNL     1      11.310 -17.695  10.169  1.00  0.00     0.100 A 
ATOM      3  C   UNL     1      11.051 -17.833   8.805  1.00  0.00     0.197 A 
ATOM      4  O   UNL     1      11.251 -18.955   8.274  1.00  0.00    -0.289 OA
ATOM      5  C   UNL     1      10.599 -16.718   8.059  1.00  0.00     0.107 A 
ATOM      6  C   UNL     1      10.270 -16.748   6.669  1.00  0.00     0.134 A 
ATOM      7  C   UNL     1       9.928 -15.557   6.016  1.00  0.00     0.093 A 
ATOM      8  C   UNL     1       9.846 -14.351   6.710  1.00  0.00     0.123 A 
ATOM      9  C   UNL     1      10.117 -14.319   8.079  1.00  0.00     0.094 A 
ATOM     10  C   UNL     1      10.495 -15.483   8.753  1.00  0.00     0.146 A 
ATOM     11  O   UNL     1      10.761 -15.405  10.052  1.00  0.00    -0.456 OA
ENDROOT
BRANCH   1  12
ATOM     12  C   UNL     1      11.415 -16.241  12.229  1.00  0.00     0.021 A 
ATOM     13  C   UNL     1      11.407 -14.959  12.812  1.00  0.00     0.016 A 
ATOM     14  C   UNL     1      11.645 -14.800  14.179  1.00  0.00     0.051 A 
ATOM     15  C   UNL     1      11.886 -15.916  14.990  1.00  0.00     0.157 A 
ATOM     16  C   UNL     1      11.645 -17.358  13.054  1.00  0.00     0.062 A 
ATOM     17  C   UNL     1      11.885 -17.198  14.426  1.00  0.00     0.158 A 
BRANCH  15  18
ATOM     18  O   UNL     1      12.125 -15.761  16.354  1.00  0.00    -0.504 OA
ATOM     19  H   UNL     1      12.568 -16.488  16.901  1.00  0.00     0.293 HD
ENDBRANCH  15  18
BRANCH  17  20
ATOM     20  O   UNL     1      12.121 -18.308  15.236  1.00  0.00    -0.504 OA
ATOM     21  H   UNL     1      12.109 -19.249  14.861  1.00  0.00     0.293 HD
ENDBRANCH  17  20
ENDBRANCH   1  12
BRANCH   6  22
ATOM     22  O   UNL     1      10.240 -17.912   5.896  1.00  0.00    -0.507 OA
ATOM     23  H   UNL     1      10.234 -18.851   6.261  1.00  0.00     0.293 HD
ENDBRANCH   6  22
BRANCH   8  24
ATOM     24  O   UNL     1       9.488 -13.189   6.030  1.00  0.00    -0.508 OA
ATOM     25  H   UNL     1       9.704 -13.061   5.048  1.00  0.00     0.293 HD
ENDBRANCH   8  24
TORSDOF 5
ENDMDL
