MODEL 1
REMARK VINA RESULT:    -4.902      0.000      0.000
REMARK INTER + INTRA:          -5.314
REMARK INTER:                  -5.189
REMARK INTRA:                  -0.126
REMARK UNBOUND:                -0.126
REMARK SMILES C=C(C)[C@@H]1CC=C(C)CC1
REMARK SMILES IDX 8 1 7 2 6 3 5 4 4 5 10 6 9 7 2 8 1 9 3 10
REMARK H PARENT
REMARK Flexibility Score: inf
ROOT
ATOM      1  C   UNL     1       3.743  -7.855  26.142  1.00  0.00     0.039 C 
ATOM      2  C   UNL     1       2.977  -6.815  25.370  1.00  0.00    -0.077 C 
ATOM      3  C   UNL     1       1.778  -6.406  25.836  1.00  0.00    -0.027 C 
ATOM      4  C   UNL     1       0.959  -5.331  25.164  1.00  0.00     0.035 C 
ATOM      5  C   UNL     1       1.323  -5.167  23.677  1.00  0.00     0.018 C 
ATOM      6  C   UNL     1       2.849  -5.072  23.522  1.00  0.00     0.013 C 
ATOM      7  C   UNL     1       3.513  -6.358  24.027  1.00  0.00     0.031 C 
ENDROOT
BRANCH   5   8
ATOM      8  C   UNL     1       0.616  -3.969  23.057  1.00  0.00    -0.077 C 
ATOM      9  C   UNL     1       0.618  -2.767  23.659  1.00  0.00     0.008 C 
ATOM     10  C   UNL     1      -0.100  -4.112  21.739  1.00  0.00     0.039 C 
ENDBRANCH   5   8
TORSDOF 1
ENDMDL
MODEL 2
REMARK VINA RESULT:    -4.804      0.749      1.744
REMARK INTER + INTRA:          -5.211
REMARK INTER:                  -5.089
REMARK INTRA:                  -0.121
REMARK UNBOUND:                -0.126
REMARK SMILES C=C(C)[C@@H]1CC=C(C)CC1
REMARK SMILES IDX 8 1 7 2 6 3 5 4 4 5 10 6 9 7 2 8 1 9 3 10
REMARK H PARENT
REMARK Flexibility Score: inf
ROOT
ATOM      1  C   UNL     1       3.494  -8.187  26.612  1.00  0.00     0.039 C 
ATOM      2  C   UNL     1       2.885  -7.134  25.728  1.00  0.00    -0.077 C 
ATOM      3  C   UNL     1       3.537  -6.765  24.605  1.00  0.00    -0.027 C 
ATOM      4  C   UNL     1       2.983  -5.758  23.627  1.00  0.00     0.035 C 
ATOM      5  C   UNL     1       1.947  -4.824  24.278  1.00  0.00     0.018 C 
ATOM      6  C   UNL     1       0.925  -5.652  25.071  1.00  0.00     0.013 C 
ATOM      7  C   UNL     1       1.627  -6.427  26.193  1.00  0.00     0.031 C 
ENDROOT
BRANCH   5   8
ATOM      8  C   UNL     1       1.272  -3.930  23.246  1.00  0.00    -0.077 C 
ATOM      9  C   UNL     1       1.730  -2.693  22.986  1.00  0.00     0.008 C 
ATOM     10  C   UNL     1       0.069  -4.427  22.487  1.00  0.00     0.039 C 
ENDBRANCH   5   8
TORSDOF 1
ENDMDL
MODEL 3
REMARK VINA RESULT:    -4.625      1.218      4.375
REMARK INTER + INTRA:          -5.021
REMARK INTER:                  -4.892
REMARK INTRA:                  -0.128
REMARK UNBOUND:                -0.126
REMARK SMILES C=C(C)[C@@H]1CC=C(C)CC1
REMARK SMILES IDX 8 1 7 2 6 3 5 4 4 5 10 6 9 7 2 8 1 9 3 10
REMARK H PARENT
REMARK Flexibility Score: inf
ROOT
ATOM      1  C   UNL     1       0.783  -2.763  20.335  1.00  0.00     0.039 C 
ATOM      2  C   UNL     1       1.126  -3.634  21.512  1.00  0.00    -0.077 C 
ATOM      3  C   UNL     1       0.153  -3.963  22.389  1.00  0.00    -0.027 C 
ATOM      4  C   UNL     1       0.385  -4.873  23.570  1.00  0.00     0.035 C 
ATOM      5  C   UNL     1       1.867  -4.922  23.984  1.00  0.00     0.018 C 
ATOM      6  C   UNL     1       2.746  -5.158  22.746  1.00  0.00     0.013 C 
ATOM      7  C   UNL     1       2.577  -4.005  21.750  1.00  0.00     0.031 C 
ENDROOT
BRANCH   5   8
ATOM      8  C   UNL     1       2.114  -5.972  25.060  1.00  0.00    -0.077 C 
ATOM      9  C   UNL     1       1.207  -6.212  26.023  1.00  0.00     0.008 C 
ATOM     10  C   UNL     1       3.391  -6.771  25.058  1.00  0.00     0.039 C 
ENDBRANCH   5   8
TORSDOF 1
ENDMDL
MODEL 4
REMARK VINA RESULT:    -4.525     14.443     15.748
REMARK INTER + INTRA:          -4.915
REMARK INTER:                  -4.786
REMARK INTRA:                  -0.129
REMARK UNBOUND:                -0.126
REMARK SMILES C=C(C)[C@@H]1CC=C(C)CC1
REMARK SMILES IDX 8 1 7 2 6 3 5 4 4 5 10 6 9 7 2 8 1 9 3 10
REMARK H PARENT
REMARK Flexibility Score: inf
ROOT
ATOM      1  C   UNL     1      16.441  -1.914  30.584  1.00  0.00     0.039 C 
ATOM      2  C   UNL     1      16.447  -3.166  29.751  1.00  0.00    -0.077 C 
ATOM      3  C   UNL     1      16.032  -4.325  30.308  1.00  0.00    -0.027 C 
ATOM      4  C   UNL     1      15.950  -5.621  29.541  1.00  0.00     0.035 C 
ATOM      5  C   UNL     1      16.872  -5.627  28.308  1.00  0.00     0.018 C 
ATOM      6  C   UNL     1      16.673  -4.334  27.502  1.00  0.00     0.013 C 
ATOM      7  C   UNL     1      17.042  -3.116  28.357  1.00  0.00     0.031 C 
ENDROOT
BRANCH   5   8
ATOM      8  C   UNL     1      16.652  -6.867  27.450  1.00  0.00    -0.077 C 
ATOM      9  C   UNL     1      15.516  -7.581  27.531  1.00  0.00     0.008 C 
ATOM     10  C   UNL     1      17.716  -7.313  26.481  1.00  0.00     0.039 C 
ENDBRANCH   5   8
TORSDOF 1
ENDMDL
MODEL 5
REMARK VINA RESULT:    -4.505      1.462      4.545
REMARK INTER + INTRA:          -4.894
REMARK INTER:                  -4.770
REMARK INTRA:                  -0.124
REMARK UNBOUND:                -0.126
REMARK SMILES C=C(C)[C@@H]1CC=C(C)CC1
REMARK SMILES IDX 8 1 7 2 6 3 5 4 4 5 10 6 9 7 2 8 1 9 3 10
REMARK H PARENT
REMARK Flexibility Score: inf
ROOT
ATOM      1  C   UNL     1       1.285  -3.040  19.665  1.00  0.00     0.039 C 
ATOM      2  C   UNL     1       1.272  -3.505  21.095  1.00  0.00    -0.077 C 
ATOM      3  C   UNL     1       2.431  -3.531  21.786  1.00  0.00    -0.027 C 
ATOM      4  C   UNL     1       2.513  -3.930  23.239  1.00  0.00     0.035 C 
ATOM      5  C   UNL     1       1.322  -4.804  23.670  1.00  0.00     0.018 C 
ATOM      6  C   UNL     1       0.007  -4.160  23.203  1.00  0.00     0.013 C 
ATOM      7  C   UNL     1      -0.017  -4.056  21.674  1.00  0.00     0.031 C 
ENDROOT
BRANCH   5   8
ATOM      8  C   UNL     1       1.326  -5.055  25.173  1.00  0.00    -0.077 C 
ATOM      9  C   UNL     1       1.170  -4.048  26.050  1.00  0.00     0.008 C 
ATOM     10  C   UNL     1       1.501  -6.453  25.705  1.00  0.00     0.039 C 
ENDBRANCH   5   8
TORSDOF 1
ENDMDL
MODEL 6
REMARK VINA RESULT:    -4.489      3.396      5.487
REMARK INTER + INTRA:          -4.877
REMARK INTER:                  -4.749
REMARK INTRA:                  -0.128
REMARK UNBOUND:                -0.126
REMARK SMILES C=C(C)[C@@H]1CC=C(C)CC1
REMARK SMILES IDX 8 1 7 2 6 3 5 4 4 5 10 6 9 7 2 8 1 9 3 10
REMARK H PARENT
REMARK Flexibility Score: inf
ROOT
ATOM      1  C   UNL     1       0.061  -4.550  22.953  1.00  0.00     0.039 C 
ATOM      2  C   UNL     1       0.588  -3.336  22.237  1.00  0.00    -0.077 C 
ATOM      3  C   UNL     1       0.440  -3.251  20.898  1.00  0.00    -0.027 C 
ATOM      4  C   UNL     1       0.885  -2.052  20.097  1.00  0.00     0.035 C 
ATOM      5  C   UNL     1       1.975  -1.241  20.821  1.00  0.00     0.018 C 
ATOM      6  C   UNL     1       1.552  -0.983  22.276  1.00  0.00     0.013 C 
ATOM      7  C   UNL     1       1.384  -2.312  23.022  1.00  0.00     0.031 C 
ENDROOT
BRANCH   5   8
ATOM      8  C   UNL     1       2.291   0.055  20.086  1.00  0.00    -0.077 C 
ATOM      9  C   UNL     1       2.444   0.082  18.750  1.00  0.00     0.008 C 
ATOM     10  C   UNL     1       2.432   1.344  20.852  1.00  0.00     0.039 C 
ENDBRANCH   5   8
TORSDOF 1
ENDMDL
MODEL 7
REMARK VINA RESULT:    -4.481      1.786      3.128
REMARK INTER + INTRA:          -4.869
REMARK INTER:                  -4.740
REMARK INTRA:                  -0.129
REMARK UNBOUND:                -0.126
REMARK SMILES C=C(C)[C@@H]1CC=C(C)CC1
REMARK SMILES IDX 8 1 7 2 6 3 5 4 4 5 10 6 9 7 2 8 1 9 3 10
REMARK H PARENT
REMARK Flexibility Score: inf
ROOT
ATOM      1  C   UNL     1       1.009  -5.918  25.789  1.00  0.00     0.039 C 
ATOM      2  C   UNL     1       1.172  -5.249  24.451  1.00  0.00    -0.077 C 
ATOM      3  C   UNL     1       2.394  -5.219  23.878  1.00  0.00    -0.027 C 
ATOM      4  C   UNL     1       2.648  -4.621  22.517  1.00  0.00     0.035 C 
ATOM      5  C   UNL     1       1.569  -3.598  22.120  1.00  0.00     0.018 C 
ATOM      6  C   UNL     1       0.173  -4.192  22.364  1.00  0.00     0.013 C 
ATOM      7  C   UNL     1      -0.012  -4.515  23.852  1.00  0.00     0.031 C 
ENDROOT
BRANCH   5   8
ATOM      8  C   UNL     1       1.740  -3.132  20.680  1.00  0.00    -0.077 C 
ATOM      9  C   UNL     1       0.806  -2.381  20.072  1.00  0.00     0.008 C 
ATOM     10  C   UNL     1       2.979  -3.505  19.907  1.00  0.00     0.039 C 
ENDBRANCH   5   8
TORSDOF 1
ENDMDL
MODEL 8
REMARK VINA RESULT:    -4.473      4.063      6.933
REMARK INTER + INTRA:          -4.861
REMARK INTER:                  -4.738
REMARK INTRA:                  -0.123
REMARK UNBOUND:                -0.126
REMARK SMILES C=C(C)[C@@H]1CC=C(C)CC1
REMARK SMILES IDX 8 1 7 2 6 3 5 4 4 5 10 6 9 7 2 8 1 9 3 10
REMARK H PARENT
REMARK Flexibility Score: inf
ROOT
ATOM      1  C   UNL     1       2.788   2.330  19.854  1.00  0.00     0.039 C 
ATOM      2  C   UNL     1       2.439   0.910  20.207  1.00  0.00    -0.077 C 
ATOM      3  C   UNL     1       2.551  -0.046  19.260  1.00  0.00    -0.027 C 
ATOM      4  C   UNL     1       2.277  -1.505  19.529  1.00  0.00     0.035 C 
ATOM      5  C   UNL     1       1.358  -1.709  20.747  1.00  0.00     0.018 C 
ATOM      6  C   UNL     1       1.868  -0.872  21.930  1.00  0.00     0.013 C 
ATOM      7  C   UNL     1       1.846   0.619  21.572  1.00  0.00     0.031 C 
ENDROOT
BRANCH   5   8
ATOM      8  C   UNL     1       1.229  -3.183  21.111  1.00  0.00    -0.077 C 
ATOM      9  C   UNL     1       0.029  -3.747  21.332  1.00  0.00     0.008 C 
ATOM     10  C   UNL     1       2.461  -4.043  21.226  1.00  0.00     0.039 C 
ENDBRANCH   5   8
TORSDOF 1
ENDMDL
MODEL 9
REMARK VINA RESULT:    -4.400      6.407      9.003
REMARK INTER + INTRA:          -4.782
REMARK INTER:                  -4.653
REMARK INTRA:                  -0.129
REMARK UNBOUND:                -0.126
REMARK SMILES C=C(C)[C@@H]1CC=C(C)CC1
REMARK SMILES IDX 8 1 7 2 6 3 5 4 4 5 10 6 9 7 2 8 1 9 3 10
REMARK H PARENT
REMARK Flexibility Score: inf
ROOT
ATOM      1  C   UNL     1       3.645   3.765  17.164  1.00  0.00     0.039 C 
ATOM      2  C   UNL     1       3.158   2.649  18.046  1.00  0.00    -0.077 C 
ATOM      3  C   UNL     1       3.054   2.863  19.376  1.00  0.00    -0.027 C 
ATOM      4  C   UNL     1       2.526   1.827  20.336  1.00  0.00     0.035 C 
ATOM      5  C   UNL     1       2.653   0.398  19.777  1.00  0.00     0.018 C 
ATOM      6  C   UNL     1       2.111   0.350  18.340  1.00  0.00     0.013 C 
ATOM      7  C   UNL     1       2.926   1.281  17.435  1.00  0.00     0.031 C 
ENDROOT
BRANCH   5   8
ATOM      8  C   UNL     1       1.963  -0.619  20.677  1.00  0.00    -0.077 C 
ATOM      9  C   UNL     1       1.732  -0.361  21.976  1.00  0.00     0.008 C 
ATOM     10  C   UNL     1       1.516  -1.944  20.115  1.00  0.00     0.039 C 
ENDBRANCH   5   8
TORSDOF 1
ENDMDL
