MODEL 1
REMARK VINA RESULT:    -3.724      0.000      0.000
REMARK INTER + INTRA:          -4.334
REMARK INTER:                  -4.269
REMARK INTRA:                  -0.066
REMARK UNBOUND:                -0.066
REMARK SMILES CC(C)[C@H]([NH3+])C(=O)[O-]
REMARK SMILES IDX 4 1 5 2 6 6 7 7 8 8 2 9 1 10 3 11
REMARK H PARENT 5 3 5 4 5 5
REMARK Flexibility Score: inf
ROOT
ATOM      1  C   UNL     1      -2.153  21.054 -19.499  1.00  0.00     0.230 C 
ENDROOT
BRANCH   1   2
ATOM      2  N   UNL     1      -1.595  21.099 -18.138  1.00  0.00    -0.350 N 
ATOM      3  H   UNL     1      -0.651  21.545 -18.144  1.00  0.00     0.345 HD
ATOM      4  H   UNL     1      -1.525  20.143 -17.721  1.00  0.00     0.345 HD
ATOM      5  H   UNL     1      -2.215  21.681 -17.528  1.00  0.00     0.345 HD
ENDBRANCH   1   2
BRANCH   1   6
ATOM      6  C   UNL     1      -3.616  20.687 -19.466  1.00  0.00     0.099 C 
ATOM      7  O   UNL     1      -3.992  19.667 -18.829  1.00  0.00    -0.544 OA
ATOM      8  O   UNL     1      -4.564  21.489 -20.091  1.00  0.00    -0.544 OA
ENDBRANCH   1   6
BRANCH   1   9
ATOM      9  C   UNL     1      -1.363  20.104 -20.450  1.00  0.00     0.047 C 
ATOM     10  C   UNL     1       0.154  20.099 -20.193  1.00  0.00     0.014 C 
ATOM     11  C   UNL     1      -1.649  20.405 -21.928  1.00  0.00     0.014 C 
ENDBRANCH   1   9
TORSDOF 3
ENDMDL
MODEL 2
REMARK VINA RESULT:    -3.443     15.222     16.094
REMARK INTER + INTRA:          -4.012
REMARK INTER:                  -4.002
REMARK INTRA:                  -0.011
REMARK UNBOUND:                -0.066
REMARK SMILES CC(C)[C@H]([NH3+])C(=O)[O-]
REMARK SMILES IDX 4 1 5 2 6 6 7 7 8 8 2 9 1 10 3 11
REMARK H PARENT 5 3 5 4 5 5
REMARK Flexibility Score: inf
ROOT
ATOM      1  C   UNL     1     -11.056  34.219 -19.740  1.00  0.00     0.230 C 
ENDROOT
BRANCH   1   2
ATOM      2  N   UNL     1     -11.812  34.971 -20.754  1.00  0.00    -0.350 N 
ATOM      3  H   UNL     1     -11.751  34.497 -21.682  1.00  0.00     0.345 HD
ATOM      4  H   UNL     1     -11.462  35.952 -20.842  1.00  0.00     0.345 HD
ATOM      5  H   UNL     1     -12.822  35.004 -20.482  1.00  0.00     0.345 HD
ENDBRANCH   1   2
BRANCH   1   6
ATOM      6  C   UNL     1      -9.955  33.414 -20.383  1.00  0.00     0.099 C 
ATOM      7  O   UNL     1     -10.108  32.960 -21.548  1.00  0.00    -0.544 OA
ATOM      8  O   UNL     1      -8.749  33.205 -19.723  1.00  0.00    -0.544 OA
ENDBRANCH   1   6
BRANCH   1   9
ATOM      9  C   UNL     1     -11.962  33.312 -18.852  1.00  0.00     0.047 C 
ATOM     10  C   UNL     1     -13.379  33.874 -18.644  1.00  0.00     0.014 C 
ATOM     11  C   UNL     1     -11.311  33.003 -17.497  1.00  0.00     0.014 C 
ENDBRANCH   1   9
TORSDOF 3
ENDMDL
MODEL 3
REMARK VINA RESULT:    -3.357     14.356     15.407
REMARK INTER + INTRA:          -3.913
REMARK INTER:                  -4.069
REMARK INTRA:                   0.155
REMARK UNBOUND:                -0.066
REMARK SMILES CC(C)[C@H]([NH3+])C(=O)[O-]
REMARK SMILES IDX 4 1 5 2 6 6 7 7 8 8 2 9 1 10 3 11
REMARK H PARENT 5 3 5 4 5 5
REMARK Flexibility Score: inf
ROOT
ATOM      1  C   UNL     1     -10.126  33.921 -20.771  1.00  0.00     0.230 C 
ENDROOT
BRANCH   1   2
ATOM      2  N   UNL     1     -10.913  33.015 -21.623  1.00  0.00    -0.350 N 
ATOM      3  H   UNL     1     -10.345  32.694 -22.438  1.00  0.00     0.345 HD
ATOM      4  H   UNL     1     -11.786  33.477 -21.968  1.00  0.00     0.345 HD
ATOM      5  H   UNL     1     -11.183  32.167 -21.073  1.00  0.00     0.345 HD
ENDBRANCH   1   2
BRANCH   1   6
ATOM      6  C   UNL     1      -8.720  33.403 -20.596  1.00  0.00     0.099 C 
ATOM      7  O   UNL     1      -8.510  32.162 -20.552  1.00  0.00    -0.544 OA
ATOM      8  O   UNL     1      -7.643  34.279 -20.529  1.00  0.00    -0.544 OA
ENDBRANCH   1   6
BRANCH   1   9
ATOM      9  C   UNL     1     -10.795  34.193 -19.389  1.00  0.00     0.047 C 
ATOM     10  C   UNL     1     -10.351  33.214 -18.288  1.00  0.00     0.014 C 
ATOM     11  C   UNL     1     -12.327  34.219 -19.489  1.00  0.00     0.014 C 
ENDBRANCH   1   9
TORSDOF 3
ENDMDL
MODEL 4
REMARK VINA RESULT:    -3.293     15.176     16.092
REMARK INTER + INTRA:          -3.840
REMARK INTER:                  -3.821
REMARK INTRA:                  -0.019
REMARK UNBOUND:                -0.066
REMARK SMILES CC(C)[C@H]([NH3+])C(=O)[O-]
REMARK SMILES IDX 4 1 5 2 6 6 7 7 8 8 2 9 1 10 3 11
REMARK H PARENT 5 3 5 4 5 5
REMARK Flexibility Score: inf
ROOT
ATOM      1  C   UNL     1     -11.602  34.220 -19.108  1.00  0.00     0.230 C 
ENDROOT
BRANCH   1   2
ATOM      2  N   UNL     1     -11.124  34.613 -17.773  1.00  0.00    -0.350 N 
ATOM      3  H   UNL     1     -10.081  34.595 -17.738  1.00  0.00     0.345 HD
ATOM      4  H   UNL     1     -11.508  33.986 -17.030  1.00  0.00     0.345 HD
ATOM      5  H   UNL     1     -11.430  35.593 -17.569  1.00  0.00     0.345 HD
ENDBRANCH   1   2
BRANCH   1   6
ATOM      6  C   UNL     1     -12.995  33.646 -19.030  1.00  0.00     0.099 C 
ATOM      7  O   UNL     1     -13.226  32.496 -19.488  1.00  0.00    -0.544 OA
ATOM      8  O   UNL     1     -14.021  34.353 -18.414  1.00  0.00    -0.544 OA
ENDBRANCH   1   6
BRANCH   1   9
ATOM      9  C   UNL     1     -10.635  33.237 -19.837  1.00  0.00     0.047 C 
ATOM     10  C   UNL     1      -9.220  33.206 -19.233  1.00  0.00     0.014 C 
ATOM     11  C   UNL     1     -10.563  33.516 -21.344  1.00  0.00     0.014 C 
ENDBRANCH   1   9
TORSDOF 3
ENDMDL
MODEL 5
REMARK VINA RESULT:    -3.169     14.910     15.734
REMARK INTER + INTRA:          -3.698
REMARK INTER:                  -3.979
REMARK INTRA:                   0.282
REMARK UNBOUND:                -0.066
REMARK SMILES CC(C)[C@H]([NH3+])C(=O)[O-]
REMARK SMILES IDX 4 1 5 2 6 6 7 7 8 8 2 9 1 10 3 11
REMARK H PARENT 5 3 5 4 5 5
REMARK Flexibility Score: inf
ROOT
ATOM      1  C   UNL     1     -10.100  33.239 -19.349  1.00  0.00     0.230 C 
ENDROOT
BRANCH   1   2
ATOM      2  N   UNL     1      -8.870  33.354 -18.549  1.00  0.00    -0.350 N 
ATOM      3  H   UNL     1      -9.043  33.044 -17.567  1.00  0.00     0.345 HD
ATOM      4  H   UNL     1      -8.507  34.334 -18.546  1.00  0.00     0.345 HD
ATOM      5  H   UNL     1      -8.134  32.729 -18.952  1.00  0.00     0.345 HD
ENDBRANCH   1   2
BRANCH   1   6
ATOM      6  C   UNL     1      -9.815  33.497 -20.808  1.00  0.00     0.099 C 
ATOM      7  O   UNL     1      -8.850  34.237 -21.137  1.00  0.00    -0.544 OA
ATOM      8  O   UNL     1     -10.576  32.888 -21.799  1.00  0.00    -0.544 OA
ENDBRANCH   1   6
BRANCH   1   9
ATOM      9  C   UNL     1     -11.250  34.159 -18.836  1.00  0.00     0.047 C 
ATOM     10  C   UNL     1     -12.094  33.523 -17.718  1.00  0.00     0.014 C 
ATOM     11  C   UNL     1     -12.157  34.635 -19.979  1.00  0.00     0.014 C 
ENDBRANCH   1   9
TORSDOF 3
ENDMDL
MODEL 6
REMARK VINA RESULT:    -3.152     15.120     15.763
REMARK INTER + INTRA:          -3.679
REMARK INTER:                  -3.786
REMARK INTRA:                   0.107
REMARK UNBOUND:                -0.066
REMARK SMILES CC(C)[C@H]([NH3+])C(=O)[O-]
REMARK SMILES IDX 4 1 5 2 6 6 7 7 8 8 2 9 1 10 3 11
REMARK H PARENT 5 3 5 4 5 5
REMARK Flexibility Score: inf
ROOT
ATOM      1  C   UNL     1     -11.298  33.845 -20.222  1.00  0.00     0.230 C 
ENDROOT
BRANCH   1   2
ATOM      2  N   UNL     1     -10.975  35.274 -20.364  1.00  0.00    -0.350 N 
ATOM      3  H   UNL     1     -11.835  35.856 -20.256  1.00  0.00     0.345 HD
ATOM      4  H   UNL     1     -10.534  35.476 -21.291  1.00  0.00     0.345 HD
ATOM      5  H   UNL     1     -10.307  35.556 -19.611  1.00  0.00     0.345 HD
ENDBRANCH   1   2
BRANCH   1   6
ATOM      6  C   UNL     1     -12.288  33.630 -19.104  1.00  0.00     0.099 C 
ATOM      7  O   UNL     1     -13.248  32.831 -19.262  1.00  0.00    -0.544 OA
ATOM      8  O   UNL     1     -12.126  34.268 -17.879  1.00  0.00    -0.544 OA
ENDBRANCH   1   6
BRANCH   1   9
ATOM      9  C   UNL     1     -10.035  32.951 -20.027  1.00  0.00     0.047 C 
ATOM     10  C   UNL     1      -9.223  33.301 -18.769  1.00  0.00     0.014 C 
ATOM     11  C   UNL     1      -9.127  32.964 -21.265  1.00  0.00     0.014 C 
ENDBRANCH   1   9
TORSDOF 3
ENDMDL
MODEL 7
REMARK VINA RESULT:    -3.088     14.518     15.409
REMARK INTER + INTRA:          -3.605
REMARK INTER:                  -3.554
REMARK INTRA:                  -0.051
REMARK UNBOUND:                -0.066
REMARK SMILES CC(C)[C@H]([NH3+])C(=O)[O-]
REMARK SMILES IDX 4 1 5 2 6 6 7 7 8 8 2 9 1 10 3 11
REMARK H PARENT 5 3 5 4 5 5
REMARK Flexibility Score: inf
ROOT
ATOM      1  C   UNL     1     -10.330  33.161 -20.319  1.00  0.00     0.230 C 
ENDROOT
BRANCH   1   2
ATOM      2  N   UNL     1     -10.760  33.046 -21.722  1.00  0.00    -0.350 N 
ATOM      3  H   UNL     1      -9.956  33.216 -22.366  1.00  0.00     0.345 HD
ATOM      4  H   UNL     1     -11.530  33.718 -21.942  1.00  0.00     0.345 HD
ATOM      5  H   UNL     1     -11.107  32.075 -21.900  1.00  0.00     0.345 HD
ENDBRANCH   1   2
BRANCH   1   6
ATOM      6  C   UNL     1     -11.196  34.146 -19.574  1.00  0.00     0.099 C 
ATOM      7  O   UNL     1     -11.988  34.892 -20.210  1.00  0.00    -0.544 OA
ATOM      8  O   UNL     1     -11.167  34.209 -18.185  1.00  0.00    -0.544 OA
ENDBRANCH   1   6
BRANCH   1   9
ATOM      9  C   UNL     1      -8.821  33.526 -20.172  1.00  0.00     0.047 C 
ATOM     10  C   UNL     1      -8.325  34.529 -21.228  1.00  0.00     0.014 C 
ATOM     11  C   UNL     1      -7.927  32.277 -20.167  1.00  0.00     0.014 C 
ENDBRANCH   1   9
TORSDOF 3
ENDMDL
MODEL 8
REMARK VINA RESULT:    -2.984      1.570      2.317
REMARK INTER + INTRA:          -3.486
REMARK INTER:                  -3.567
REMARK INTRA:                   0.081
REMARK UNBOUND:                -0.066
REMARK SMILES CC(C)[C@H]([NH3+])C(=O)[O-]
REMARK SMILES IDX 4 1 5 2 6 6 7 7 8 8 2 9 1 10 3 11
REMARK H PARENT 5 3 5 4 5 5
REMARK Flexibility Score: inf
ROOT
ATOM      1  C   UNL     1      -2.101  20.165 -20.384  1.00  0.00     0.230 C 
ENDROOT
BRANCH   1   2
ATOM      2  N   UNL     1      -2.089  20.540 -21.807  1.00  0.00    -0.350 N 
ATOM      3  H   UNL     1      -2.222  21.569 -21.916  1.00  0.00     0.345 HD
ATOM      4  H   UNL     1      -2.832  20.035 -22.342  1.00  0.00     0.345 HD
ATOM      5  H   UNL     1      -1.160  20.297 -22.223  1.00  0.00     0.345 HD
ENDBRANCH   1   2
BRANCH   1   6
ATOM      6  C   UNL     1      -3.420  20.528 -19.748  1.00  0.00     0.099 C 
ATOM      7  O   UNL     1      -3.971  21.626 -20.029  1.00  0.00    -0.544 OA
ATOM      8  O   UNL     1      -4.062  19.643 -18.890  1.00  0.00    -0.544 OA
ENDBRANCH   1   6
BRANCH   1   9
ATOM      9  C   UNL     1      -0.911  20.774 -19.583  1.00  0.00     0.047 C 
ATOM     10  C   UNL     1       0.437  20.089 -19.867  1.00  0.00     0.014 C 
ATOM     11  C   UNL     1      -1.187  20.794 -18.073  1.00  0.00     0.014 C 
ENDBRANCH   1   9
TORSDOF 3
ENDMDL
MODEL 9
REMARK VINA RESULT:    -2.820     14.175     15.014
REMARK INTER + INTRA:          -3.298
REMARK INTER:                  -3.231
REMARK INTRA:                  -0.066
REMARK UNBOUND:                -0.066
REMARK SMILES CC(C)[C@H]([NH3+])C(=O)[O-]
REMARK SMILES IDX 4 1 5 2 6 6 7 7 8 8 2 9 1 10 3 11
REMARK H PARENT 5 3 5 4 5 5
REMARK Flexibility Score: inf
ROOT
ATOM      1  C   UNL     1      -9.774  33.854 -19.918  1.00  0.00     0.230 C 
ENDROOT
BRANCH   1   2
ATOM      2  N   UNL     1      -9.895  33.234 -18.589  1.00  0.00    -0.350 N 
ATOM      3  H   UNL     1      -9.773  32.199 -18.656  1.00  0.00     0.345 HD
ATOM      4  H   UNL     1     -10.820  33.447 -18.150  1.00  0.00     0.345 HD
ATOM      5  H   UNL     1      -9.140  33.600 -17.964  1.00  0.00     0.345 HD
ENDBRANCH   1   2
BRANCH   1   6
ATOM      6  C   UNL     1     -11.107  33.869 -20.624  1.00  0.00     0.099 C 
ATOM      7  O   UNL     1     -11.241  33.270 -21.724  1.00  0.00    -0.544 OA
ATOM      8  O   UNL     1     -12.207  34.497 -20.051  1.00  0.00    -0.544 OA
ENDBRANCH   1   6
BRANCH   1   9
ATOM      9  C   UNL     1      -8.682  33.184 -20.806  1.00  0.00     0.047 C 
ATOM     10  C   UNL     1      -7.933  32.040 -20.102  1.00  0.00     0.014 C 
ATOM     11  C   UNL     1      -7.682  34.211 -21.357  1.00  0.00     0.014 C 
ENDBRANCH   1   9
TORSDOF 3
ENDMDL
