MODEL 1
REMARK VINA RESULT:    -3.253      0.000      0.000
REMARK INTER + INTRA:          -3.262
REMARK INTER:                  -4.014
REMARK INTRA:                   0.752
REMARK UNBOUND:                 0.752
REMARK SMILES CC1=CC=CC(C)(C)CC1=O
REMARK SMILES IDX 1 1 2 2 3 3 10 4 11 5 9 6 4 8 5 9 6 10 7 11 8 12
REMARK H PARENT
REMARK Flexibility Score: 80.00
ROOT
ATOM      1  C   UNL     1     159.144 166.356 199.872  1.00  0.00     0.048 C 
ATOM      2  C   UNL     1     158.221 165.349 199.228  1.00  0.00    -0.008 C 
ATOM      3  C   UNL     1     158.201 164.100 199.741  1.00  0.00     0.007 C 
ENDROOT
BRANCH   2   4
ATOM      4  C   UNL     1     157.465 165.795 198.031  1.00  0.00     0.159 C 
ATOM      5  O   UNL     1     157.766 166.898 197.496  1.00  0.00    -0.295 OA
BRANCH   4   6
ATOM      6  C   UNL     1     156.344 165.011 197.422  1.00  0.00     0.091 CG0
ATOM      7  G   UNL     1     156.767 163.596 196.966  1.00  0.00     0.000 G0
ENDBRANCH   4   6
ENDBRANCH   2   4
BRANCH   3   8
ATOM      8  C   UNL     1     157.431 162.909 199.313  1.00  0.00    -0.003 C 
ATOM      9  C   UNL     1     156.830 162.667 198.141  1.00  0.00    -0.020 C 
BRANCH   9  10
ATOM     10  C   UNL     1     156.774 163.598 196.953  1.00  0.00    -0.010 CG0
ATOM     11  C   UNL     1     158.128 163.588 196.209  1.00  0.00     0.016 C 
ATOM     12  C   UNL     1     155.691 163.078 195.980  1.00  0.00     0.016 C 
ATOM     13  G   UNL     1     156.361 165.013 197.419  1.00  0.00     0.000 G0
ENDBRANCH   9  10
ENDBRANCH   3   8
TORSDOF 0
ENDMDL
MODEL 2
REMARK VINA RESULT:    -3.195      7.449      8.746
REMARK INTER + INTRA:          -3.190
REMARK INTER:                  -3.943
REMARK INTRA:                   0.753
REMARK UNBOUND:                 0.752
REMARK SMILES CC1=CC=CC(C)(C)CC1=O
REMARK SMILES IDX 1 1 2 2 3 3 10 4 11 5 9 6 4 8 5 9 6 10 7 11 8 12
REMARK H PARENT
REMARK Flexibility Score: 80.00
ROOT
ATOM      1  C   UNL     1     148.103 160.354 200.799  1.00  0.00     0.048 C 
ATOM      2  C   UNL     1     149.587 160.246 200.540  1.00  0.00    -0.008 C 
ATOM      3  C   UNL     1     149.981 159.906 199.294  1.00  0.00     0.007 C 
ENDROOT
BRANCH   2   4
ATOM      4  C   UNL     1     150.492 160.449 201.698  1.00  0.00     0.159 C 
ATOM      5  O   UNL     1     149.994 160.514 202.856  1.00  0.00    -0.295 OA
BRANCH   4   6
ATOM      6  C   UNL     1     151.977 160.597 201.572  1.00  0.00     0.091 CG0
ATOM      7  G   UNL     1     152.656 159.376 200.909  1.00  0.00     0.000 G0
ENDBRANCH   4   6
ENDBRANCH   2   4
BRANCH   3   8
ATOM      8  C   UNL     1     151.344 159.699 198.751  1.00  0.00    -0.003 C 
ATOM      9  C   UNL     1     152.489 159.469 199.407  1.00  0.00    -0.020 C 
BRANCH   9  10
ATOM     10  C   UNL     1     152.665 159.392 200.905  1.00  0.00    -0.010 CG0
ATOM     11  C   UNL     1     152.143 158.034 201.428  1.00  0.00     0.016 C 
ATOM     12  C   UNL     1     154.176 159.476 201.221  1.00  0.00     0.016 C 
ATOM     13  G   UNL     1     151.966 160.597 201.574  1.00  0.00     0.000 G0
ENDBRANCH   9  10
ENDBRANCH   3   8
TORSDOF 0
ENDMDL
MODEL 3
REMARK VINA RESULT:    -3.178      2.066      3.664
REMARK INTER + INTRA:          -3.169
REMARK INTER:                  -3.914
REMARK INTRA:                   0.745
REMARK UNBOUND:                 0.752
REMARK SMILES CC1=CC=CC(C)(C)CC1=O
REMARK SMILES IDX 1 1 2 2 3 3 10 4 11 5 9 6 4 8 5 9 6 10 7 11 8 12
REMARK H PARENT
REMARK Flexibility Score: 80.00
ROOT
ATOM      1  C   UNL     1     157.296 161.193 198.795  1.00  0.00     0.048 C 
ATOM      2  C   UNL     1     157.346 162.696 198.657  1.00  0.00    -0.008 C 
ATOM      3  C   UNL     1     156.512 163.271 197.764  1.00  0.00     0.007 C 
ENDROOT
BRANCH   2   4
ATOM      4  C   UNL     1     158.365 163.415 199.462  1.00  0.00     0.159 C 
ATOM      5  O   UNL     1     159.242 162.744 200.074  1.00  0.00    -0.295 OA
BRANCH   4   6
ATOM      6  C   UNL     1     158.407 164.905 199.603  1.00  0.00     0.091 CG0
ATOM      7  G   UNL     1     158.553 165.641 198.251  1.00  0.00     0.000 G0
ENDBRANCH   4   6
ENDBRANCH   2   4
BRANCH   3   8
ATOM      8  C   UNL     1     156.352 164.696 197.393  1.00  0.00    -0.003 C 
ATOM      9  C   UNL     1     157.199 165.717 197.577  1.00  0.00    -0.020 C 
BRANCH   9  10
ATOM     10  C   UNL     1     158.547 165.654 198.254  1.00  0.00    -0.010 CG0
ATOM     11  C   UNL     1     159.588 165.024 197.301  1.00  0.00     0.016 C 
ATOM     12  C   UNL     1     159.001 167.098 198.568  1.00  0.00     0.016 C 
ATOM     13  G   UNL     1     158.423 164.887 199.591  1.00  0.00     0.000 G0
ENDBRANCH   9  10
ENDBRANCH   3   8
TORSDOF 0
ENDMDL
MODEL 4
REMARK VINA RESULT:    -3.069      1.890      2.697
REMARK INTER + INTRA:          -3.035
REMARK INTER:                  -3.793
REMARK INTRA:                   0.758
REMARK UNBOUND:                 0.752
REMARK SMILES CC1=CC=CC(C)(C)CC1=O
REMARK SMILES IDX 1 1 2 2 3 3 10 4 11 5 9 6 4 8 5 9 6 10 7 11 8 12
REMARK H PARENT
REMARK Flexibility Score: 80.00
ROOT
ATOM      1  C   UNL     1     158.873 167.559 197.885  1.00  0.00     0.048 C 
ATOM      2  C   UNL     1     158.430 166.117 197.812  1.00  0.00    -0.008 C 
ATOM      3  C   UNL     1     157.124 165.852 198.034  1.00  0.00     0.007 C 
ENDROOT
BRANCH   2   4
ATOM      4  C   UNL     1     159.482 165.097 197.578  1.00  0.00     0.159 C 
ATOM      5  O   UNL     1     160.693 165.448 197.631  1.00  0.00    -0.295 OA
BRANCH   4   6
ATOM      6  C   UNL     1     159.189 163.663 197.264  1.00  0.00     0.091 CG0
ATOM      7  G   UNL     1     158.359 162.956 198.361  1.00  0.00     0.000 G0
ENDBRANCH   4   6
ENDBRANCH   2   4
BRANCH   3   8
ATOM      8  C   UNL     1     156.408 164.555 198.057  1.00  0.00    -0.003 C 
ATOM      9  C   UNL     1     156.903 163.319 198.198  1.00  0.00    -0.020 C 
BRANCH   9  10
ATOM     10  C   UNL     1     158.359 162.946 198.343  1.00  0.00    -0.010 CG0
ATOM     11  C   UNL     1     158.844 163.262 199.776  1.00  0.00     0.016 C 
ATOM     12  C   UNL     1     158.496 161.423 198.118  1.00  0.00     0.016 C 
ATOM     13  G   UNL     1     159.193 163.669 197.260  1.00  0.00     0.000 G0
ENDBRANCH   9  10
ENDBRANCH   3   8
TORSDOF 0
ENDMDL
MODEL 5
REMARK VINA RESULT:    -3.039      7.210      8.308
REMARK INTER + INTRA:          -2.998
REMARK INTER:                  -3.753
REMARK INTRA:                   0.755
REMARK UNBOUND:                 0.752
REMARK SMILES CC1=CC=CC(C)(C)CC1=O
REMARK SMILES IDX 1 1 2 2 3 3 10 4 11 5 9 6 4 8 5 9 6 10 7 11 8 12
REMARK H PARENT
REMARK Flexibility Score: 80.00
ROOT
ATOM      1  C   UNL     1     151.175 161.063 202.386  1.00  0.00     0.048 C 
ATOM      2  C   UNL     1     150.986 160.483 201.005  1.00  0.00    -0.008 C 
ATOM      3  C   UNL     1     149.720 160.291 200.576  1.00  0.00     0.007 C 
ENDROOT
BRANCH   2   4
ATOM      4  C   UNL     1     152.210 160.099 200.259  1.00  0.00     0.159 C 
ATOM      5  O   UNL     1     153.320 160.124 200.858  1.00  0.00    -0.295 OA
BRANCH   4   6
ATOM      6  C   UNL     1     152.207 159.693 198.818  1.00  0.00     0.091 CG0
ATOM      7  G   UNL     1     151.287 158.484 198.527  1.00  0.00     0.000 G0
ENDBRANCH   4   6
ENDBRANCH   2   4
BRANCH   3   8
ATOM      8  C   UNL     1     149.224 159.725 199.299  1.00  0.00    -0.003 C 
ATOM      9  C   UNL     1     149.864 158.949 198.414  1.00  0.00    -0.020 C 
BRANCH   9  10
ATOM     10  C   UNL     1     151.296 158.480 198.503  1.00  0.00    -0.010 CG0
ATOM     11  C   UNL     1     151.416 157.339 199.540  1.00  0.00     0.016 C 
ATOM     12  C   UNL     1     151.709 157.916 197.125  1.00  0.00     0.016 C 
ATOM     13  G   UNL     1     152.218 159.678 198.828  1.00  0.00     0.000 G0
ENDBRANCH   9  10
ENDBRANCH   3   8
TORSDOF 0
ENDMDL
MODEL 6
REMARK VINA RESULT:    -2.844      7.135      8.465
REMARK INTER + INTRA:          -2.758
REMARK INTER:                  -3.507
REMARK INTRA:                   0.749
REMARK UNBOUND:                 0.752
REMARK SMILES CC1=CC=CC(C)(C)CC1=O
REMARK SMILES IDX 1 1 2 2 3 3 10 4 11 5 9 6 4 8 5 9 6 10 7 11 8 12
REMARK H PARENT
REMARK Flexibility Score: 80.00
ROOT
ATOM      1  C   UNL     1     148.958 159.873 199.803  1.00  0.00     0.048 C 
ATOM      2  C   UNL     1     150.381 159.575 200.212  1.00  0.00    -0.008 C 
ATOM      3  C   UNL     1     150.978 160.430 201.070  1.00  0.00     0.007 C 
ENDROOT
BRANCH   2   4
ATOM      4  C   UNL     1     151.036 158.406 199.575  1.00  0.00     0.159 C 
ATOM      5  O   UNL     1     150.478 157.860 198.583  1.00  0.00    -0.295 OA
BRANCH   4   6
ATOM      6  C   UNL     1     152.328 157.819 200.055  1.00  0.00     0.091 CG0
ATOM      7  G   UNL     1     153.505 158.819 200.011  1.00  0.00     0.000 G0
ENDBRANCH   4   6
ENDBRANCH   2   4
BRANCH   3   8
ATOM      8  C   UNL     1     152.352 160.417 201.624  1.00  0.00    -0.003 C 
ATOM      9  C   UNL     1     153.433 159.759 201.186  1.00  0.00    -0.020 C 
BRANCH   9  10
ATOM     10  C   UNL     1     153.496 158.824 200.002  1.00  0.00    -0.010 CG0
ATOM     11  C   UNL     1     153.532 159.638 198.688  1.00  0.00     0.016 C 
ATOM     12  C   UNL     1     154.806 158.010 200.095  1.00  0.00     0.016 C 
ATOM     13  G   UNL     1     152.310 157.834 200.057  1.00  0.00     0.000 G0
ENDBRANCH   9  10
ENDBRANCH   3   8
TORSDOF 0
ENDMDL
MODEL 7
REMARK VINA RESULT:    -2.819      1.748      3.499
REMARK INTER + INTRA:          -2.727
REMARK INTER:                  -3.474
REMARK INTRA:                   0.747
REMARK UNBOUND:                 0.752
REMARK SMILES CC1=CC=CC(C)(C)CC1=O
REMARK SMILES IDX 1 1 2 2 3 3 10 4 11 5 9 6 4 8 5 9 6 10 7 11 8 12
REMARK H PARENT
REMARK Flexibility Score: 80.00
ROOT
ATOM      1  C   UNL     1     155.757 160.967 197.836  1.00  0.00     0.048 C 
ATOM      2  C   UNL     1     156.828 161.996 198.108  1.00  0.00    -0.008 C 
ATOM      3  C   UNL     1     157.409 161.987 199.327  1.00  0.00     0.007 C 
ENDROOT
BRANCH   2   4
ATOM      4  C   UNL     1     157.104 162.984 197.036  1.00  0.00     0.159 C 
ATOM      5  O   UNL     1     156.320 163.047 196.049  1.00  0.00    -0.295 OA
BRANCH   4   6
ATOM      6  C   UNL     1     158.279 163.912 197.048  1.00  0.00     0.091 CG0
ATOM      7  G   UNL     1     158.298 164.855 198.274  1.00  0.00     0.000 G0
ENDBRANCH   4   6
ENDBRANCH   2   4
BRANCH   3   8
ATOM      8  C   UNL     1     158.454 162.874 199.889  1.00  0.00    -0.003 C 
ATOM      9  C   UNL     1     158.844 164.087 199.476  1.00  0.00    -0.020 C 
BRANCH   9  10
ATOM     10  C   UNL     1     158.308 164.845 198.284  1.00  0.00    -0.010 CG0
ATOM     11  C   UNL     1     156.931 165.458 198.624  1.00  0.00     0.016 C 
ATOM     12  C   UNL     1     159.281 166.004 197.968  1.00  0.00     0.016 C 
ATOM     13  G   UNL     1     158.258 163.911 197.053  1.00  0.00     0.000 G0
ENDBRANCH   9  10
ENDBRANCH   3   8
TORSDOF 0
ENDMDL
MODEL 8
REMARK VINA RESULT:    -2.788      7.760      8.735
REMARK INTER + INTRA:          -2.688
REMARK INTER:                  -3.731
REMARK INTRA:                   1.042
REMARK UNBOUND:                 0.752
REMARK SMILES CC1=CC=CC(C)(C)CC1=O
REMARK SMILES IDX 1 1 2 2 3 3 10 4 11 5 9 6 4 8 5 9 6 10 7 11 8 12
REMARK H PARENT
REMARK Flexibility Score: 80.00
ROOT
ATOM      1  C   UNL     1     148.303 160.523 202.457  1.00  0.00     0.048 C 
ATOM      2  C   UNL     1     149.540 160.390 201.601  1.00  0.00    -0.008 C 
ATOM      3  C   UNL     1     150.738 160.548 202.204  1.00  0.00     0.007 C 
ENDROOT
BRANCH   2   4
ATOM      4  C   UNL     1     149.336 160.173 200.147  1.00  0.00     0.159 C 
ATOM      5  O   UNL     1     148.201 159.800 199.741  1.00  0.00    -0.295 OA
BRANCH   4   6
ATOM      6  C   UNL     1     150.413 160.360 199.123  1.00  0.00     0.091 CG0
ATOM      7  G   UNL     1     151.638 159.447 199.355  1.00  0.00     0.000 G0
ENDBRANCH   4   6
ENDBRANCH   2   4
BRANCH   3   8
ATOM      8  C   UNL     1     152.104 160.501 201.632  1.00  0.00    -0.003 C 
ATOM      9  C   UNL     1     152.503 160.057 200.433  1.00  0.00    -0.020 C 
BRANCH   9  10
ATOM     10  C   UNL     1     151.626 159.455 199.361  1.00  0.00    -0.010 CG0
ATOM     11  C   UNL     1     152.448 159.222 198.074  1.00  0.00     0.016 C 
ATOM     12  C   UNL     1     151.123 158.081 199.861  1.00  0.00     0.016 C 
ATOM     13  G   UNL     1     150.395 160.361 199.126  1.00  0.00     0.000 G0
ENDBRANCH   9  10
ENDBRANCH   3   8
TORSDOF 0
ENDMDL
MODEL 9
REMARK VINA RESULT:    -2.690      7.407      8.101
REMARK INTER + INTRA:          -2.568
REMARK INTER:                  -3.321
REMARK INTRA:                   0.753
REMARK UNBOUND:                 0.752
REMARK SMILES CC1=CC=CC(C)(C)CC1=O
REMARK SMILES IDX 1 1 2 2 3 3 10 4 11 5 9 6 4 8 5 9 6 10 7 11 8 12
REMARK H PARENT
REMARK Flexibility Score: 80.00
ROOT
ATOM      1  C   UNL     1     151.358 161.288 202.352  1.00  0.00     0.048 C 
ATOM      2  C   UNL     1     151.804 160.162 201.450  1.00  0.00    -0.008 C 
ATOM      3  C   UNL     1     153.114 159.835 201.460  1.00  0.00     0.007 C 
ENDROOT
BRANCH   2   4
ATOM      4  C   UNL     1     150.776 159.555 200.568  1.00  0.00     0.159 C 
ATOM      5  O   UNL     1     149.646 160.110 200.478  1.00  0.00    -0.295 OA
BRANCH   4   6
ATOM      6  C   UNL     1     150.999 158.302 199.779  1.00  0.00     0.091 CG0
ATOM      7  G   UNL     1     152.193 158.402 198.802  1.00  0.00     0.000 G0
ENDBRANCH   4   6
ENDBRANCH   2   4
BRANCH   3   8
ATOM      8  C   UNL     1     153.843 158.809 200.678  1.00  0.00    -0.003 C 
ATOM      9  C   UNL     1     153.480 158.194 199.545  1.00  0.00    -0.020 C 
BRANCH   9  10
ATOM     10  C   UNL     1     152.186 158.391 198.792  1.00  0.00    -0.010 CG0
ATOM     11  C   UNL     1     152.228 159.722 198.008  1.00  0.00     0.016 C 
ATOM     12  C   UNL     1     152.038 157.240 197.771  1.00  0.00     0.016 C 
ATOM     13  G   UNL     1     150.995 158.316 199.775  1.00  0.00     0.000 G0
ENDBRANCH   9  10
ENDBRANCH   3   8
TORSDOF 0
ENDMDL
