MODEL 1
REMARK VINA RESULT:    -4.575      0.000      0.000
REMARK INTER + INTRA:          -5.248
REMARK INTER:                  -4.976
REMARK INTRA:                  -0.272
REMARK UNBOUND:                -0.272
REMARK SMILES C[C@H]1[C@H](C)CC[C@@]2(C(=O)[O-])CC[C@]3(C)C(=CC[C@@H]4[C@]5(C)CC[C@@H](O)C(C)(C)[C@@H]5CC[C@@]43C)[C@@H]12
REMARK SMILES IDX 7 1 6 2 11 3 33 4 5 5 12 6 15 7 2 8 3 9 13 10 16 11 1 12
REMARK SMILES IDX 4 13 14 14 31 15 17 16 18 17 30 18 32 19 19 20 29 21 28 22
REMARK SMILES IDX 21 23 20 24 25 25 22 26 23 27 26 28 27 29 8 30 9 31 10 32
REMARK SMILES IDX 24 33
REMARK H PARENT 24 34
REMARK Flexibility Score: inf
ROOT
ATOM      1  C   UNL     1       4.803   6.867  19.446  1.00  0.00     0.017 C 
ATOM      2  C   UNL     1       3.557   7.043  20.369  1.00  0.00     0.014 C 
ATOM      3  C   UNL     1       5.340   8.269  19.085  1.00  0.00     0.014 C 
ATOM      4  C   UNL     1       5.956   6.064  20.162  1.00  0.00     0.030 C 
ATOM      5  C   UNL     1       3.340   5.825  21.267  1.00  0.00     0.004 C 
ATOM      6  C   UNL     1       6.471   8.233  18.056  1.00  0.00     0.013 C 
ATOM      7  C   UNL     1       7.369   6.337  19.579  1.00  0.00    -0.063 C 
ATOM      8  C   UNL     1       5.878   6.135  21.737  1.00  0.00    -0.003 C 
ATOM      9  C   UNL     1       4.489   5.659  22.287  1.00  0.00    -0.011 C 
ATOM     10  C   UNL     1       7.631   7.189  18.319  1.00  0.00    -0.006 C 
ATOM     11  C   UNL     1       8.392   5.613  20.069  1.00  0.00    -0.027 C 
ATOM     12  C   UNL     1       6.267   7.496  22.340  1.00  0.00     0.008 C 
ATOM     13  C   UNL     1       4.545   4.198  22.767  1.00  0.00     0.008 C 
ATOM     14  C   UNL     1       7.620   6.197  17.111  1.00  0.00     0.017 C 
ATOM     15  C   UNL     1       9.071   7.914  18.423  1.00  0.00    -0.020 C 
ATOM     16  C   UNL     1       9.770   5.592  19.481  1.00  0.00     0.032 C 
ATOM     17  C   UNL     1      10.237   6.858  18.689  1.00  0.00     0.006 C 
ATOM     18  C   UNL     1       9.066   8.920  19.613  1.00  0.00     0.008 C 
ATOM     19  C   UNL     1       9.331   8.686  17.073  1.00  0.00     0.012 C 
ATOM     20  C   UNL     1      11.673   7.460  19.134  1.00  0.00    -0.025 C 
ATOM     21  C   UNL     1      10.404   9.611  19.903  1.00  0.00     0.005 C 
ATOM     22  C   UNL     1      11.589   8.653  20.187  1.00  0.00     0.003 C 
ATOM     23  C   UNL     1      12.683   6.325  19.589  1.00  0.00     0.010 C 
ATOM     24  C   UNL     1      12.347   8.055  17.848  1.00  0.00     0.012 C 
ATOM     25  C   UNL     1      11.827   8.333  21.722  1.00  0.00    -0.006 C 
ATOM     26  C   UNL     1      12.860   6.087  21.100  1.00  0.00     0.033 C 
ATOM     27  C   UNL     1      13.054   7.384  21.870  1.00  0.00     0.120 C 
ATOM     28  C   UNL     1      10.583   7.719  22.411  1.00  0.00     0.014 C 
ATOM     29  C   UNL     1      12.169   9.632  22.511  1.00  0.00     0.014 C 
ENDROOT
BRANCH   1  30
ATOM     30  C   UNL     1       4.313   6.131  18.196  1.00  0.00     0.048 C 
ATOM     31  O   UNL     1       3.526   6.691  17.388  1.00  0.00    -0.550 OA
ATOM     32  O   UNL     1       4.621   4.791  17.992  1.00  0.00    -0.550 OA
ENDBRANCH   1  30
BRANCH  27  33
ATOM     33  O   UNL     1      14.236   8.006  21.414  1.00  0.00    -0.393 OA
ATOM     34  H   UNL     1      15.001   7.449  21.711  1.00  0.00     0.210 HD
ENDBRANCH  27  33
TORSDOF 2
ENDMDL
MODEL 2
REMARK VINA RESULT:    -4.267      1.844      7.237
REMARK INTER + INTRA:          -4.912
REMARK INTER:                  -4.640
REMARK INTRA:                  -0.273
REMARK UNBOUND:                -0.272
REMARK SMILES C[C@H]1[C@H](C)CC[C@@]2(C(=O)[O-])CC[C@]3(C)C(=CC[C@@H]4[C@]5(C)CC[C@@H](O)C(C)(C)[C@@H]5CC[C@@]43C)[C@@H]12
REMARK SMILES IDX 7 1 6 2 11 3 33 4 5 5 12 6 15 7 2 8 3 9 13 10 16 11 1 12
REMARK SMILES IDX 4 13 14 14 31 15 17 16 18 17 30 18 32 19 19 20 29 21 28 22
REMARK SMILES IDX 21 23 20 24 25 25 22 26 23 27 26 28 27 29 8 30 9 31 10 32
REMARK SMILES IDX 24 33
REMARK H PARENT 24 34
REMARK Flexibility Score: inf
ROOT
ATOM      1  C   UNL     1      12.080   7.323  18.348  1.00  0.00     0.017 C 
ATOM      2  C   UNL     1      13.055   6.408  19.151  1.00  0.00     0.014 C 
ATOM      3  C   UNL     1      11.476   6.493  17.193  1.00  0.00     0.014 C 
ATOM      4  C   UNL     1      10.897   7.853  19.246  1.00  0.00     0.030 C 
ATOM      5  C   UNL     1      13.205   6.872  20.599  1.00  0.00     0.004 C 
ATOM      6  C   UNL     1      10.620   7.325  16.238  1.00  0.00     0.013 C 
ATOM      7  C   UNL     1       9.630   8.259  18.445  1.00  0.00    -0.063 C 
ATOM      8  C   UNL     1      10.609   6.937  20.499  1.00  0.00    -0.003 C 
ATOM      9  C   UNL     1      11.884   6.720  21.385  1.00  0.00    -0.011 C 
ATOM     10  C   UNL     1       9.561   8.296  16.904  1.00  0.00    -0.006 C 
ATOM     11  C   UNL     1       8.615   8.816  19.131  1.00  0.00    -0.027 C 
ATOM     12  C   UNL     1       9.936   5.592  20.171  1.00  0.00     0.008 C 
ATOM     13  C   UNL     1      11.893   7.667  22.598  1.00  0.00     0.008 C 
ATOM     14  C   UNL     1       9.961   9.748  16.484  1.00  0.00     0.017 C 
ATOM     15  C   UNL     1       8.060   7.972  16.402  1.00  0.00    -0.020 C 
ATOM     16  C   UNL     1       7.418   9.456  18.496  1.00  0.00     0.032 C 
ATOM     17  C   UNL     1       6.997   8.952  17.077  1.00  0.00     0.006 C 
ATOM     18  C   UNL     1       7.678   6.515  16.801  1.00  0.00     0.008 C 
ATOM     19  C   UNL     1       8.023   8.122  14.833  1.00  0.00     0.012 C 
ATOM     20  C   UNL     1       5.437   8.545  16.923  1.00  0.00    -0.025 C 
ATOM     21  C   UNL     1       6.238   6.097  16.484  1.00  0.00     0.005 C 
ATOM     22  C   UNL     1       5.140   6.991  17.115  1.00  0.00     0.003 C 
ATOM     23  C   UNL     1       4.491   9.453  17.815  1.00  0.00     0.010 C 
ATOM     24  C   UNL     1       5.006   8.898  15.457  1.00  0.00     0.012 C 
ATOM     25  C   UNL     1       4.601   6.486  18.518  1.00  0.00    -0.006 C 
ATOM     26  C   UNL     1       4.007   8.880  19.160  1.00  0.00     0.033 C 
ATOM     27  C   UNL     1       3.492   7.455  19.028  1.00  0.00     0.120 C 
ATOM     28  C   UNL     1       5.720   6.339  19.579  1.00  0.00     0.014 C 
ATOM     29  C   UNL     1       3.938   5.082  18.382  1.00  0.00     0.014 C 
ENDROOT
BRANCH   1  30
ATOM     30  C   UNL     1      12.922   8.481  17.806  1.00  0.00     0.048 C 
ATOM     31  O   UNL     1      13.781   8.284  16.905  1.00  0.00    -0.550 OA
ATOM     32  O   UNL     1      12.851   9.743  18.383  1.00  0.00    -0.550 OA
ENDBRANCH   1  30
BRANCH  27  33
ATOM     33  O   UNL     1       2.379   7.456  18.160  1.00  0.00    -0.393 OA
ATOM     34  H   UNL     1       2.524   6.741  17.487  1.00  0.00     0.210 HD
ENDBRANCH  27  33
TORSDOF 2
ENDMDL
MODEL 3
REMARK VINA RESULT:    -4.259      2.378      7.174
REMARK INTER + INTRA:          -4.904
REMARK INTER:                  -4.632
REMARK INTRA:                  -0.272
REMARK UNBOUND:                -0.272
REMARK SMILES C[C@H]1[C@H](C)CC[C@@]2(C(=O)[O-])CC[C@]3(C)C(=CC[C@@H]4[C@]5(C)CC[C@@H](O)C(C)(C)[C@@H]5CC[C@@]43C)[C@@H]12
REMARK SMILES IDX 7 1 6 2 11 3 33 4 5 5 12 6 15 7 2 8 3 9 13 10 16 11 1 12
REMARK SMILES IDX 4 13 14 14 31 15 17 16 18 17 30 18 32 19 19 20 29 21 28 22
REMARK SMILES IDX 21 23 20 24 25 25 22 26 23 27 26 28 27 29 8 30 9 31 10 32
REMARK SMILES IDX 24 33
REMARK H PARENT 24 34
REMARK Flexibility Score: inf
ROOT
ATOM      1  C   UNL     1       8.448   7.479  18.311  1.00  0.00     0.017 C 
ATOM      2  C   UNL     1       9.616   6.753  17.575  1.00  0.00     0.014 C 
ATOM      3  C   UNL     1       7.113   6.953  17.740  1.00  0.00     0.014 C 
ATOM      4  C   UNL     1       8.467   7.199  19.863  1.00  0.00     0.030 C 
ATOM      5  C   UNL     1      10.880   6.697  18.432  1.00  0.00     0.004 C 
ATOM      6  C   UNL     1       5.892   7.704  18.275  1.00  0.00     0.013 C 
ATOM      7  C   UNL     1       7.088   7.380  20.553  1.00  0.00    -0.063 C 
ATOM      8  C   UNL     1       9.215   5.862  20.245  1.00  0.00    -0.003 C 
ATOM      9  C   UNL     1      10.679   5.817  19.686  1.00  0.00    -0.011 C 
ATOM     10  C   UNL     1       5.834   7.931  19.840  1.00  0.00    -0.006 C 
ATOM     11  C   UNL     1       7.044   7.258  21.892  1.00  0.00    -0.027 C 
ATOM     12  C   UNL     1       8.453   4.574  19.885  1.00  0.00     0.008 C 
ATOM     13  C   UNL     1      11.704   6.213  20.764  1.00  0.00     0.008 C 
ATOM     14  C   UNL     1       5.847   9.477  20.067  1.00  0.00     0.017 C 
ATOM     15  C   UNL     1       4.498   7.291  20.484  1.00  0.00    -0.020 C 
ATOM     16  C   UNL     1       5.854   7.608  22.733  1.00  0.00     0.032 C 
ATOM     17  C   UNL     1       4.444   7.521  22.062  1.00  0.00     0.006 C 
ATOM     18  C   UNL     1       4.479   5.754  20.232  1.00  0.00     0.008 C 
ATOM     19  C   UNL     1       3.250   7.960  19.792  1.00  0.00     0.012 C 
ATOM     20  C   UNL     1       3.340   6.667  22.882  1.00  0.00    -0.025 C 
ATOM     21  C   UNL     1       3.318   4.990  20.879  1.00  0.00     0.005 C 
ATOM     22  C   UNL     1       3.203   5.149  22.416  1.00  0.00     0.003 C 
ATOM     23  C   UNL     1       3.524   6.801  24.451  1.00  0.00     0.010 C 
ATOM     24  C   UNL     1       1.945   7.335  22.620  1.00  0.00     0.012 C 
ATOM     25  C   UNL     1       3.944   4.025  23.255  1.00  0.00    -0.006 C 
ATOM     26  C   UNL     1       4.248   5.658  25.188  1.00  0.00     0.033 C 
ATOM     27  C   UNL     1       3.732   4.288  24.776  1.00  0.00     0.120 C 
ATOM     28  C   UNL     1       5.455   3.924  22.929  1.00  0.00     0.014 C 
ATOM     29  C   UNL     1       3.335   2.622  22.956  1.00  0.00     0.014 C 
ENDROOT
BRANCH   1  30
ATOM     30  C   UNL     1       8.617   8.972  18.018  1.00  0.00     0.048 C 
ATOM     31  O   UNL     1       8.422   9.426  16.860  1.00  0.00    -0.550 OA
ATOM     32  O   UNL     1       9.111   9.837  18.988  1.00  0.00    -0.550 OA
ENDBRANCH   1  30
BRANCH  27  33
ATOM     33  O   UNL     1       2.367   4.197  25.122  1.00  0.00    -0.393 OA
ATOM     34  H   UNL     1       1.943   5.067  24.899  1.00  0.00     0.210 HD
ENDBRANCH  27  33
TORSDOF 2
ENDMDL
MODEL 4
REMARK VINA RESULT:    -4.030      1.963      6.964
REMARK INTER + INTRA:          -4.655
REMARK INTER:                  -4.384
REMARK INTRA:                  -0.272
REMARK UNBOUND:                -0.272
REMARK SMILES C[C@H]1[C@H](C)CC[C@@]2(C(=O)[O-])CC[C@]3(C)C(=CC[C@@H]4[C@]5(C)CC[C@@H](O)C(C)(C)[C@@H]5CC[C@@]43C)[C@@H]12
REMARK SMILES IDX 7 1 6 2 11 3 33 4 5 5 12 6 15 7 2 8 3 9 13 10 16 11 1 12
REMARK SMILES IDX 4 13 14 14 31 15 17 16 18 17 30 18 32 19 19 20 29 21 28 22
REMARK SMILES IDX 21 23 20 24 25 25 22 26 23 27 26 28 27 29 8 30 9 31 10 32
REMARK SMILES IDX 24 33
REMARK H PARENT 24 34
REMARK Flexibility Score: inf
ROOT
ATOM      1  C   UNL     1      11.181   7.402  18.076  1.00  0.00     0.017 C 
ATOM      2  C   UNL     1      12.337   6.357  18.154  1.00  0.00     0.014 C 
ATOM      3  C   UNL     1      10.087   6.846  17.139  1.00  0.00     0.014 C 
ATOM      4  C   UNL     1      10.533   7.668  19.490  1.00  0.00     0.030 C 
ATOM      5  C   UNL     1      13.121   6.473  19.461  1.00  0.00     0.004 C 
ATOM      6  C   UNL     1       8.967   7.851  16.859  1.00  0.00     0.013 C 
ATOM      7  C   UNL     1       9.079   8.208  19.425  1.00  0.00    -0.063 C 
ATOM      8  C   UNL     1      10.739   6.475  20.503  1.00  0.00    -0.003 C 
ATOM      9  C   UNL     1      12.251   6.098  20.681  1.00  0.00    -0.011 C 
ATOM     10  C   UNL     1       8.365   8.603  18.115  1.00  0.00    -0.006 C 
ATOM     11  C   UNL     1       8.495   8.556  20.586  1.00  0.00    -0.027 C 
ATOM     12  C   UNL     1       9.896   5.223  20.202  1.00  0.00     0.008 C 
ATOM     13  C   UNL     1      12.842   6.735  21.951  1.00  0.00     0.008 C 
ATOM     14  C   UNL     1       8.652  10.125  17.903  1.00  0.00     0.017 C 
ATOM     15  C   UNL     1       6.774   8.356  18.248  1.00  0.00    -0.020 C 
ATOM     16  C   UNL     1       7.191   9.287  20.689  1.00  0.00     0.032 C 
ATOM     17  C   UNL     1       6.171   9.115  19.515  1.00  0.00     0.006 C 
ATOM     18  C   UNL     1       6.494   6.835  18.433  1.00  0.00     0.008 C 
ATOM     19  C   UNL     1       6.085   8.868  16.926  1.00  0.00     0.012 C 
ATOM     20  C   UNL     1       4.669   8.705  19.960  1.00  0.00    -0.025 C 
ATOM     21  C   UNL     1       5.029   6.456  18.680  1.00  0.00     0.005 C 
ATOM     22  C   UNL     1       4.371   7.141  19.905  1.00  0.00     0.003 C 
ATOM     23  C   UNL     1       4.260   9.348  21.350  1.00  0.00     0.010 C 
ATOM     24  C   UNL     1       3.683   9.377  18.942  1.00  0.00     0.012 C 
ATOM     25  C   UNL     1       4.444   6.303  21.249  1.00  0.00    -0.006 C 
ATOM     26  C   UNL     1       4.352   8.460  22.605  1.00  0.00     0.033 C 
ATOM     27  C   UNL     1       3.730   7.089  22.390  1.00  0.00     0.120 C 
ATOM     28  C   UNL     1       5.894   5.950  21.663  1.00  0.00     0.014 C 
ATOM     29  C   UNL     1       3.687   4.950  21.099  1.00  0.00     0.014 C 
ENDROOT
BRANCH   1  30
ATOM     30  C   UNL     1      11.795   8.681  17.502  1.00  0.00     0.048 C 
ATOM     31  O   UNL     1      12.169   8.730  16.300  1.00  0.00    -0.550 OA
ATOM     32  O   UNL     1      12.070   9.769  18.321  1.00  0.00    -0.550 OA
ENDBRANCH   1  30
BRANCH  27  33
ATOM     33  O   UNL     1       2.357   7.257  22.109  1.00  0.00    -0.393 OA
ATOM     34  H   UNL     1       1.908   7.522  22.954  1.00  0.00     0.210 HD
ENDBRANCH  27  33
TORSDOF 2
ENDMDL
MODEL 5
REMARK VINA RESULT:    -3.998     13.690     16.794
REMARK INTER + INTRA:          -4.620
REMARK INTER:                  -4.551
REMARK INTRA:                  -0.070
REMARK UNBOUND:                -0.272
REMARK SMILES C[C@H]1[C@H](C)CC[C@@]2(C(=O)[O-])CC[C@]3(C)C(=CC[C@@H]4[C@]5(C)CC[C@@H](O)C(C)(C)[C@@H]5CC[C@@]43C)[C@@H]12
REMARK SMILES IDX 7 1 6 2 11 3 33 4 5 5 12 6 15 7 2 8 3 9 13 10 16 11 1 12
REMARK SMILES IDX 4 13 14 14 31 15 17 16 18 17 30 18 32 19 19 20 29 21 28 22
REMARK SMILES IDX 21 23 20 24 25 25 22 26 23 27 26 28 27 29 8 30 9 31 10 32
REMARK SMILES IDX 24 33
REMARK H PARENT 24 34
REMARK Flexibility Score: inf
ROOT
ATOM      1  C   UNL     1      16.827  -6.835  19.613  1.00  0.00     0.017 C 
ATOM      2  C   UNL     1      18.051  -6.899  20.579  1.00  0.00     0.014 C 
ATOM      3  C   UNL     1      16.413  -8.280  19.259  1.00  0.00     0.014 C 
ATOM      4  C   UNL     1      15.591  -6.115  20.277  1.00  0.00     0.030 C 
ATOM      5  C   UNL     1      18.141  -5.655  21.463  1.00  0.00     0.004 C 
ATOM      6  C   UNL     1      15.318  -8.348  18.192  1.00  0.00     0.013 C 
ATOM      7  C   UNL     1      14.224  -6.506  19.653  1.00  0.00    -0.063 C 
ATOM      8  C   UNL     1      15.621  -6.156  21.855  1.00  0.00    -0.003 C 
ATOM      9  C   UNL     1      16.949  -5.565  22.442  1.00  0.00    -0.011 C 
ATOM     10  C   UNL     1      14.072  -7.394  18.400  1.00  0.00    -0.006 C 
ATOM     11  C   UNL     1      13.132  -5.858  20.097  1.00  0.00    -0.027 C 
ATOM     12  C   UNL     1      15.319  -7.535  22.468  1.00  0.00     0.008 C 
ATOM     13  C   UNL     1      16.763  -4.106  22.894  1.00  0.00     0.008 C 
ATOM     14  C   UNL     1      14.047  -6.422  17.176  1.00  0.00     0.017 C 
ATOM     15  C   UNL     1      12.691  -8.229  18.468  1.00  0.00    -0.020 C 
ATOM     16  C   UNL     1      11.777  -5.954  19.464  1.00  0.00     0.032 C 
ATOM     17  C   UNL     1      11.437  -7.263  18.678  1.00  0.00     0.006 C 
ATOM     18  C   UNL     1      12.733  -9.214  19.675  1.00  0.00     0.008 C 
ATOM     19  C   UNL     1      12.538  -9.037  17.124  1.00  0.00     0.012 C 
ATOM     20  C   UNL     1      10.039  -7.969  19.086  1.00  0.00    -0.025 C 
ATOM     21  C   UNL     1      11.445 -10.003  19.932  1.00  0.00     0.005 C 
ATOM     22  C   UNL     1      10.179  -9.137  20.161  1.00  0.00     0.003 C 
ATOM     23  C   UNL     1       8.929  -6.911  19.487  1.00  0.00     0.010 C 
ATOM     24  C   UNL     1       9.458  -8.634  17.789  1.00  0.00     0.012 C 
ATOM     25  C   UNL     1       9.865  -8.814  21.682  1.00  0.00    -0.006 C 
ATOM     26  C   UNL     1       8.682  -6.665  20.988  1.00  0.00     0.033 C 
ATOM     27  C   UNL     1       8.564  -7.962  21.774  1.00  0.00     0.120 C 
ATOM     28  C   UNL     1      11.033  -8.095  22.401  1.00  0.00     0.014 C 
ATOM     29  C   UNL     1       9.598 -10.125  22.481  1.00  0.00     0.014 C 
ENDROOT
BRANCH   1  30
ATOM     30  C   UNL     1      17.300  -6.081  18.368  1.00  0.00     0.048 C 
ATOM     31  O   UNL     1      18.353  -6.427  17.769  1.00  0.00    -0.550 OA
ATOM     32  O   UNL     1      16.654  -4.925  17.947  1.00  0.00    -0.550 OA
ENDBRANCH   1  30
BRANCH  27  33
ATOM     33  O   UNL     1       7.450  -8.682  21.289  1.00  0.00    -0.393 OA
ATOM     34  H   UNL     1       6.688  -8.500  21.898  1.00  0.00     0.210 HD
ENDBRANCH  27  33
TORSDOF 2
ENDMDL
MODEL 6
REMARK VINA RESULT:    -3.965     14.058     16.690
REMARK INTER + INTRA:          -4.584
REMARK INTER:                  -4.312
REMARK INTRA:                  -0.273
REMARK UNBOUND:                -0.272
REMARK SMILES C[C@H]1[C@H](C)CC[C@@]2(C(=O)[O-])CC[C@]3(C)C(=CC[C@@H]4[C@]5(C)CC[C@@H](O)C(C)(C)[C@@H]5CC[C@@]43C)[C@@H]12
REMARK SMILES IDX 7 1 6 2 11 3 33 4 5 5 12 6 15 7 2 8 3 9 13 10 16 11 1 12
REMARK SMILES IDX 4 13 14 14 31 15 17 16 18 17 30 18 32 19 19 20 29 21 28 22
REMARK SMILES IDX 21 23 20 24 25 25 22 26 23 27 26 28 27 29 8 30 9 31 10 32
REMARK SMILES IDX 24 33
REMARK H PARENT 24 34
REMARK Flexibility Score: inf
ROOT
ATOM      1  C   UNL     1      15.293  -8.114  18.211  1.00  0.00     0.017 C 
ATOM      2  C   UNL     1      15.556  -8.037  16.675  1.00  0.00     0.014 C 
ATOM      3  C   UNL     1      16.411  -8.964  18.853  1.00  0.00     0.014 C 
ATOM      4  C   UNL     1      15.310  -6.686  18.882  1.00  0.00     0.030 C 
ATOM      5  C   UNL     1      14.947  -6.778  16.057  1.00  0.00     0.004 C 
ATOM      6  C   UNL     1      16.178  -9.242  20.339  1.00  0.00     0.013 C 
ATOM      7  C   UNL     1      15.631  -6.708  20.401  1.00  0.00    -0.063 C 
ATOM      8  C   UNL     1      16.135  -5.622  18.059  1.00  0.00    -0.003 C 
ATOM      9  C   UNL     1      15.637  -5.498  16.577  1.00  0.00    -0.011 C 
ATOM     10  C   UNL     1      15.772  -8.001  21.233  1.00  0.00    -0.006 C 
ATOM     11  C   UNL     1      15.564  -5.540  21.066  1.00  0.00    -0.027 C 
ATOM     12  C   UNL     1      17.661  -5.812  18.108  1.00  0.00     0.008 C 
ATOM     13  C   UNL     1      14.693  -4.295  16.400  1.00  0.00     0.008 C 
ATOM     14  C   UNL     1      14.350  -8.309  21.805  1.00  0.00     0.017 C 
ATOM     15  C   UNL     1      16.816  -7.776  22.445  1.00  0.00    -0.020 C 
ATOM     16  C   UNL     1      15.632  -5.412  22.557  1.00  0.00     0.032 C 
ATOM     17  C   UNL     1      16.403  -6.523  23.344  1.00  0.00     0.006 C 
ATOM     18  C   UNL     1      18.236  -7.495  21.869  1.00  0.00     0.008 C 
ATOM     19  C   UNL     1      16.845  -9.088  23.319  1.00  0.00     0.012 C 
ATOM     20  C   UNL     1      17.515  -5.984  24.390  1.00  0.00    -0.025 C 
ATOM     21  C   UNL     1      19.316  -7.156  22.902  1.00  0.00     0.005 C 
ATOM     22  C   UNL     1      18.998  -5.939  23.809  1.00  0.00     0.003 C 
ATOM     23  C   UNL     1      17.089  -4.612  25.061  1.00  0.00     0.010 C 
ATOM     24  C   UNL     1      17.545  -6.987  25.596  1.00  0.00     0.012 C 
ATOM     25  C   UNL     1      19.569  -4.556  23.283  1.00  0.00    -0.006 C 
ATOM     26  C   UNL     1      17.699  -3.316  24.493  1.00  0.00     0.033 C 
ATOM     27  C   UNL     1      19.203  -3.426  24.291  1.00  0.00     0.120 C 
ATOM     28  C   UNL     1      19.068  -4.196  21.862  1.00  0.00     0.014 C 
ATOM     29  C   UNL     1      21.125  -4.595  23.203  1.00  0.00     0.014 C 
ENDROOT
BRANCH   1  30
ATOM     30  C   UNL     1      13.928  -8.786  18.382  1.00  0.00     0.048 C 
ATOM     31  O   UNL     1      13.774 -10.005  18.103  1.00  0.00    -0.550 OA
ATOM     32  O   UNL     1      12.805  -8.042  18.723  1.00  0.00    -0.550 OA
ENDBRANCH   1  30
BRANCH  27  33
ATOM     33  O   UNL     1      19.811  -3.647  25.545  1.00  0.00    -0.393 OA
ATOM     34  H   UNL     1      20.790  -3.713  25.396  1.00  0.00     0.210 HD
ENDBRANCH  27  33
TORSDOF 2
ENDMDL
MODEL 7
REMARK VINA RESULT:    -3.817      2.933      5.756
REMARK INTER + INTRA:          -4.423
REMARK INTER:                  -4.153
REMARK INTRA:                  -0.270
REMARK UNBOUND:                -0.272
REMARK SMILES C[C@H]1[C@H](C)CC[C@@]2(C(=O)[O-])CC[C@]3(C)C(=CC[C@@H]4[C@]5(C)CC[C@@H](O)C(C)(C)[C@@H]5CC[C@@]43C)[C@@H]12
REMARK SMILES IDX 7 1 6 2 11 3 33 4 5 5 12 6 15 7 2 8 3 9 13 10 16 11 1 12
REMARK SMILES IDX 4 13 14 14 31 15 17 16 18 17 30 18 32 19 19 20 29 21 28 22
REMARK SMILES IDX 21 23 20 24 25 25 22 26 23 27 26 28 27 29 8 30 9 31 10 32
REMARK SMILES IDX 24 33
REMARK H PARENT 24 34
REMARK Flexibility Score: inf
ROOT
ATOM      1  C   UNL     1       3.218   5.580  24.627  1.00  0.00     0.017 C 
ATOM      2  C   UNL     1       3.200   4.341  25.574  1.00  0.00     0.014 C 
ATOM      3  C   UNL     1       4.500   6.391  24.913  1.00  0.00     0.014 C 
ATOM      4  C   UNL     1       3.228   5.157  23.107  1.00  0.00     0.030 C 
ATOM      5  C   UNL     1       2.386   3.188  24.987  1.00  0.00     0.004 C 
ATOM      6  C   UNL     1       4.555   7.717  24.152  1.00  0.00     0.013 C 
ATOM      7  C   UNL     1       3.811   6.238  22.157  1.00  0.00    -0.063 C 
ATOM      8  C   UNL     1       3.801   3.705  22.869  1.00  0.00    -0.003 C 
ATOM      9  C   UNL     1       3.043   2.621  23.710  1.00  0.00    -0.011 C 
ATOM     10  C   UNL     1       4.206   7.660  22.610  1.00  0.00    -0.006 C 
ATOM     11  C   UNL     1       3.761   5.994  20.835  1.00  0.00    -0.027 C 
ATOM     12  C   UNL     1       5.323   3.576  23.056  1.00  0.00     0.008 C 
ATOM     13  C   UNL     1       1.983   1.894  22.863  1.00  0.00     0.008 C 
ATOM     14  C   UNL     1       2.938   8.551  22.406  1.00  0.00     0.017 C 
ATOM     15  C   UNL     1       5.423   8.218  21.704  1.00  0.00    -0.020 C 
ATOM     16  C   UNL     1       4.077   7.005  19.776  1.00  0.00     0.032 C 
ATOM     17  C   UNL     1       5.067   8.157  20.150  1.00  0.00     0.006 C 
ATOM     18  C   UNL     1       6.690   7.341  21.932  1.00  0.00     0.008 C 
ATOM     19  C   UNL     1       5.717   9.704  22.139  1.00  0.00     0.012 C 
ATOM     20  C   UNL     1       6.293   8.377  19.116  1.00  0.00    -0.025 C 
ATOM     21  C   UNL     1       7.901   7.686  21.057  1.00  0.00     0.005 C 
ATOM     22  C   UNL     1       7.643   7.636  19.530  1.00  0.00     0.003 C 
ATOM     23  C   UNL     1       5.875   8.074  17.618  1.00  0.00     0.010 C 
ATOM     24  C   UNL     1       6.621   9.911  19.101  1.00  0.00     0.012 C 
ATOM     25  C   UNL     1       7.991   6.249  18.845  1.00  0.00    -0.006 C 
ATOM     26  C   UNL     1       6.262   6.704  17.028  1.00  0.00     0.033 C 
ATOM     27  C   UNL     1       7.710   6.340  17.315  1.00  0.00     0.120 C 
ATOM     28  C   UNL     1       7.220   5.058  19.465  1.00  0.00     0.014 C 
ATOM     29  C   UNL     1       9.507   5.921  19.002  1.00  0.00     0.014 C 
ENDROOT
BRANCH   1  30
ATOM     30  C   UNL     1       1.967   6.397  24.962  1.00  0.00     0.048 C 
ATOM     31  O   UNL     1       1.858   6.975  26.076  1.00  0.00    -0.550 OA
ATOM     32  O   UNL     1       0.875   6.412  24.103  1.00  0.00    -0.550 OA
ENDBRANCH   1  30
BRANCH  27  33
ATOM     33  O   UNL     1       8.545   7.299  16.701  1.00  0.00    -0.393 OA
ATOM     34  H   UNL     1       9.102   6.825  16.030  1.00  0.00     0.210 HD
ENDBRANCH  27  33
TORSDOF 2
ENDMDL
MODEL 8
REMARK VINA RESULT:    -3.772     14.111     17.768
REMARK INTER + INTRA:          -4.375
REMARK INTER:                  -4.105
REMARK INTRA:                  -0.270
REMARK UNBOUND:                -0.272
REMARK SMILES C[C@H]1[C@H](C)CC[C@@]2(C(=O)[O-])CC[C@]3(C)C(=CC[C@@H]4[C@]5(C)CC[C@@H](O)C(C)(C)[C@@H]5CC[C@@]43C)[C@@H]12
REMARK SMILES IDX 7 1 6 2 11 3 33 4 5 5 12 6 15 7 2 8 3 9 13 10 16 11 1 12
REMARK SMILES IDX 4 13 14 14 31 15 17 16 18 17 30 18 32 19 19 20 29 21 28 22
REMARK SMILES IDX 21 23 20 24 25 25 22 26 23 27 26 28 27 29 8 30 9 31 10 32
REMARK SMILES IDX 24 33
REMARK H PARENT 24 34
REMARK Flexibility Score: inf
ROOT
ATOM      1  C   UNL     1      18.836  -6.029  24.540  1.00  0.00     0.017 C 
ATOM      2  C   UNL     1      18.924  -4.841  25.547  1.00  0.00     0.014 C 
ATOM      3  C   UNL     1      17.596  -6.876  24.897  1.00  0.00     0.014 C 
ATOM      4  C   UNL     1      18.682  -5.528  23.052  1.00  0.00     0.030 C 
ATOM      5  C   UNL     1      19.667  -3.645  24.951  1.00  0.00     0.004 C 
ATOM      6  C   UNL     1      17.488  -8.162  24.075  1.00  0.00     0.013 C 
ATOM      7  C   UNL     1      18.029  -6.568  22.102  1.00  0.00    -0.063 C 
ATOM      8  C   UNL     1      18.072  -4.076  22.945  1.00  0.00    -0.003 C 
ATOM      9  C   UNL     1      18.890  -3.023  23.771  1.00  0.00    -0.011 C 
ATOM     10  C   UNL     1      17.694  -8.018  22.512  1.00  0.00    -0.006 C 
ATOM     11  C   UNL     1      17.955  -6.254  20.796  1.00  0.00    -0.027 C 
ATOM     12  C   UNL     1      16.571  -3.983  23.275  1.00  0.00     0.008 C 
ATOM     13  C   UNL     1      19.859  -2.236  22.872  1.00  0.00     0.008 C 
ATOM     14  C   UNL     1      18.950  -8.875  22.147  1.00  0.00     0.017 C 
ATOM     15  C   UNL     1      16.408  -8.549  21.692  1.00  0.00    -0.020 C 
ATOM     16  C   UNL     1      17.557  -7.214  19.717  1.00  0.00     0.032 C 
ATOM     17  C   UNL     1      16.620  -8.401  20.117  1.00  0.00     0.006 C 
ATOM     18  C   UNL     1      15.155  -7.707  22.079  1.00  0.00     0.008 C 
ATOM     19  C   UNL     1      16.173 -10.061  22.072  1.00  0.00     0.012 C 
ATOM     20  C   UNL     1      15.307  -8.588  19.188  1.00  0.00    -0.025 C 
ATOM     21  C   UNL     1      13.875  -8.027  21.301  1.00  0.00     0.005 C 
ATOM     22  C   UNL     1      13.992  -7.894  19.761  1.00  0.00     0.003 C 
ATOM     23  C   UNL     1      15.584  -8.200  17.676  1.00  0.00     0.010 C 
ATOM     24  C   UNL     1      14.999 -10.125  19.121  1.00  0.00     0.012 C 
ATOM     25  C   UNL     1      13.565  -6.479  19.185  1.00  0.00    -0.006 C 
ATOM     26  C   UNL     1      15.128  -6.808  17.198  1.00  0.00     0.033 C 
ATOM     27  C   UNL     1      13.707  -6.485  17.634  1.00  0.00     0.120 C 
ATOM     28  C   UNL     1      14.375  -5.308  19.796  1.00  0.00     0.014 C 
ATOM     29  C   UNL     1      12.066  -6.185  19.495  1.00  0.00     0.014 C 
ENDROOT
BRANCH   1  30
ATOM     30  C   UNL     1      20.122  -6.840  24.717  1.00  0.00     0.048 C 
ATOM     31  O   UNL     1      20.346  -7.462  25.790  1.00  0.00    -0.550 OA
ATOM     32  O   UNL     1      21.125  -6.805  23.756  1.00  0.00    -0.550 OA
ENDBRANCH   1  30
BRANCH  27  33
ATOM     33  O   UNL     1      12.831  -7.425  17.047  1.00  0.00    -0.393 OA
ATOM     34  H   UNL     1      13.388  -8.108  16.591  1.00  0.00     0.210 HD
ENDBRANCH  27  33
TORSDOF 2
ENDMDL
MODEL 9
REMARK VINA RESULT:    -3.487     13.930     16.290
REMARK INTER + INTRA:          -4.064
REMARK INTER:                  -3.863
REMARK INTRA:                  -0.202
REMARK UNBOUND:                -0.272
REMARK SMILES C[C@H]1[C@H](C)CC[C@@]2(C(=O)[O-])CC[C@]3(C)C(=CC[C@@H]4[C@]5(C)CC[C@@H](O)C(C)(C)[C@@H]5CC[C@@]43C)[C@@H]12
REMARK SMILES IDX 7 1 6 2 11 3 33 4 5 5 12 6 15 7 2 8 3 9 13 10 16 11 1 12
REMARK SMILES IDX 4 13 14 14 31 15 17 16 18 17 30 18 32 19 19 20 29 21 28 22
REMARK SMILES IDX 21 23 20 24 25 25 22 26 23 27 26 28 27 29 8 30 9 31 10 32
REMARK SMILES IDX 24 33
REMARK H PARENT 24 34
REMARK Flexibility Score: inf
ROOT
ATOM      1  C   UNL     1      13.752  -7.826  18.550  1.00  0.00     0.017 C 
ATOM      2  C   UNL     1      12.566  -7.129  17.815  1.00  0.00     0.014 C 
ATOM      3  C   UNL     1      15.073  -7.247  17.998  1.00  0.00     0.014 C 
ATOM      4  C   UNL     1      13.711  -7.570  20.106  1.00  0.00     0.030 C 
ATOM      5  C   UNL     1      11.294  -7.128  18.663  1.00  0.00     0.004 C 
ATOM      6  C   UNL     1      16.314  -7.965  18.532  1.00  0.00     0.013 C 
ATOM      7  C   UNL     1      15.090  -7.715  20.804  1.00  0.00    -0.063 C 
ATOM      8  C   UNL     1      12.917  -6.264  20.501  1.00  0.00    -0.003 C 
ATOM      9  C   UNL     1      11.456  -6.261  19.931  1.00  0.00    -0.011 C 
ATOM     10  C   UNL     1      16.367  -8.213  20.094  1.00  0.00    -0.006 C 
ATOM     11  C   UNL     1      15.120  -7.612  22.146  1.00  0.00    -0.027 C 
ATOM     12  C   UNL     1      13.638  -4.947  20.166  1.00  0.00     0.008 C 
ATOM     13  C   UNL     1      10.437  -6.706  20.994  1.00  0.00     0.008 C 
ATOM     14  C   UNL     1      16.405  -9.762  20.298  1.00  0.00     0.017 C 
ATOM     15  C   UNL     1      17.677  -7.539  20.758  1.00  0.00    -0.020 C 
ATOM     16  C   UNL     1      16.314  -7.934  22.991  1.00  0.00     0.032 C 
ATOM     17  C   UNL     1      17.726  -7.791  22.333  1.00  0.00     0.006 C 
ATOM     18  C   UNL     1      17.646  -5.998  20.528  1.00  0.00     0.008 C 
ATOM     19  C   UNL     1      18.952  -8.156  20.066  1.00  0.00     0.012 C 
ATOM     20  C   UNL     1      18.794  -6.912  23.174  1.00  0.00    -0.025 C 
ATOM     21  C   UNL     1      18.776  -5.205  21.196  1.00  0.00     0.005 C 
ATOM     22  C   UNL     1      18.884  -5.384  22.732  1.00  0.00     0.003 C 
ATOM     23  C   UNL     1      18.603  -7.076  24.739  1.00  0.00     0.010 C 
ATOM     24  C   UNL     1      20.213  -7.529  22.913  1.00  0.00     0.012 C 
ATOM     25  C   UNL     1      18.100  -4.298  23.580  1.00  0.00    -0.006 C 
ATOM     26  C   UNL     1      17.836  -5.969  25.488  1.00  0.00     0.033 C 
ATOM     27  C   UNL     1      18.309  -4.576  25.099  1.00  0.00     0.120 C 
ATOM     28  C   UNL     1      16.589  -4.242  23.244  1.00  0.00     0.014 C 
ATOM     29  C   UNL     1      18.663  -2.871  23.307  1.00  0.00     0.014 C 
ENDROOT
BRANCH   1  30
ATOM     30  C   UNL     1      13.636  -9.320  18.235  1.00  0.00     0.048 C 
ATOM     31  O   UNL     1      13.191 -10.125  19.095  1.00  0.00    -0.550 OA
ATOM     32  O   UNL     1      14.136  -9.838  17.046  1.00  0.00    -0.550 OA
ENDBRANCH   1  30
BRANCH  27  33
ATOM     33  O   UNL     1      19.668  -4.445  25.458  1.00  0.00    -0.393 OA
ATOM     34  H   UNL     1      19.937  -5.281  25.920  1.00  0.00     0.210 HD
ENDBRANCH  27  33
TORSDOF 2
ENDMDL
