MODEL 1
REMARK VINA RESULT:    -2.072      0.000      0.000
REMARK INTER + INTRA:          -2.072
REMARK INTER:                  -2.072
REMARK INTRA:                   0.000
REMARK UNBOUND:                 0.000
REMARK SMILES CC(=O)[O-]
REMARK SMILES IDX 1 1 2 2 3 3 4 4
REMARK H PARENT
REMARK Flexibility Score: inf
ROOT
ATOM      1  C   UNL     1     117.192  87.756  23.002  1.00  0.00     0.063 C 
ATOM      2  C   UNL     1     118.534  87.294  23.459  1.00  0.00     0.038 C 
ATOM      3  O   UNL     1     119.114  86.349  22.864  1.00  0.00    -0.550 OA
ATOM      4  O   UNL     1     119.125  87.870  24.576  1.00  0.00    -0.550 OA
ENDROOT
TORSDOF 0
ENDMDL
MODEL 2
REMARK VINA RESULT:    -2.060      4.074      4.435
REMARK INTER + INTRA:          -2.060
REMARK INTER:                  -2.060
REMARK INTRA:                   0.000
REMARK UNBOUND:                 0.000
REMARK SMILES CC(=O)[O-]
REMARK SMILES IDX 1 1 2 2 3 3 4 4
REMARK H PARENT
REMARK Flexibility Score: inf
ROOT
ATOM      1  C   UNL     1     118.065  88.096  26.154  1.00  0.00     0.063 C 
ATOM      2  C   UNL     1     117.346  87.996  27.457  1.00  0.00     0.038 C 
ATOM      3  O   UNL     1     117.394  86.931  28.125  1.00  0.00    -0.550 OA
ATOM      4  O   UNL     1     116.579  89.061  27.911  1.00  0.00    -0.550 OA
ENDROOT
TORSDOF 0
ENDMDL
MODEL 3
REMARK VINA RESULT:    -1.801     14.091     14.629
REMARK INTER + INTRA:          -1.801
REMARK INTER:                  -1.801
REMARK INTRA:                   0.000
REMARK UNBOUND:                 0.000
REMARK SMILES CC(=O)[O-]
REMARK SMILES IDX 1 1 2 2 3 3 4 4
REMARK H PARENT
REMARK Flexibility Score: inf
ROOT
ATOM      1  C   UNL     1     105.944  95.376  26.639  1.00  0.00     0.063 C 
ATOM      2  C   UNL     1     105.929  94.159  25.777  1.00  0.00     0.038 C 
ATOM      3  O   UNL     1     106.800  93.264  25.933  1.00  0.00    -0.550 OA
ATOM      4  O   UNL     1     104.986  94.035  24.765  1.00  0.00    -0.550 OA
ENDROOT
TORSDOF 0
ENDMDL
MODEL 4
REMARK VINA RESULT:    -1.794     14.101     14.564
REMARK INTER + INTRA:          -1.794
REMARK INTER:                  -1.794
REMARK INTRA:                   0.000
REMARK UNBOUND:                 0.000
REMARK SMILES CC(=O)[O-]
REMARK SMILES IDX 1 1 2 2 3 3 4 4
REMARK H PARENT
REMARK Flexibility Score: inf
ROOT
ATOM      1  C   UNL     1     105.949  96.004  27.181  1.00  0.00     0.063 C 
ATOM      2  C   UNL     1     106.663  95.091  26.243  1.00  0.00     0.038 C 
ATOM      3  O   UNL     1     107.705  95.479  25.654  1.00  0.00    -0.550 OA
ATOM      4  O   UNL     1     106.151  93.828  25.976  1.00  0.00    -0.550 OA
ENDROOT
TORSDOF 0
ENDMDL
MODEL 5
REMARK VINA RESULT:    -1.790      3.582      4.304
REMARK INTER + INTRA:          -1.790
REMARK INTER:                  -1.790
REMARK INTRA:                   0.000
REMARK UNBOUND:                 0.000
REMARK SMILES CC(=O)[O-]
REMARK SMILES IDX 1 1 2 2 3 3 4 4
REMARK H PARENT
REMARK Flexibility Score: inf
ROOT
ATOM      1  C   UNL     1     117.430  86.986  27.906  1.00  0.00     0.063 C 
ATOM      2  C   UNL     1     117.602  88.168  27.014  1.00  0.00     0.038 C 
ATOM      3  O   UNL     1     117.194  89.301  27.380  1.00  0.00    -0.550 OA
ATOM      4  O   UNL     1     118.166  88.013  25.754  1.00  0.00    -0.550 OA
ENDROOT
TORSDOF 0
ENDMDL
MODEL 6
REMARK VINA RESULT:    -1.777     14.268     14.550
REMARK INTER + INTRA:          -1.777
REMARK INTER:                  -1.777
REMARK INTRA:                   0.000
REMARK UNBOUND:                 0.000
REMARK SMILES CC(=O)[O-]
REMARK SMILES IDX 1 1 2 2 3 3 4 4
REMARK H PARENT
REMARK Flexibility Score: inf
ROOT
ATOM      1  C   UNL     1     104.607  82.761  26.332  1.00  0.00     0.063 C 
ATOM      2  C   UNL     1     105.195  83.332  27.578  1.00  0.00     0.038 C 
ATOM      3  O   UNL     1     104.664  84.334  28.125  1.00  0.00    -0.550 OA
ATOM      4  O   UNL     1     106.359  82.793  28.109  1.00  0.00    -0.550 OA
ENDROOT
TORSDOF 0
ENDMDL
MODEL 7
REMARK VINA RESULT:    -1.696     14.941     15.176
REMARK INTER + INTRA:          -1.696
REMARK INTER:                  -1.696
REMARK INTRA:                   0.000
REMARK UNBOUND:                 0.000
REMARK SMILES CC(=O)[O-]
REMARK SMILES IDX 1 1 2 2 3 3 4 4
REMARK H PARENT
REMARK Flexibility Score: inf
ROOT
ATOM      1  C   UNL     1     105.559  83.276  28.084  1.00  0.00     0.063 C 
ATOM      2  C   UNL     1     104.485  83.087  27.067  1.00  0.00     0.038 C 
ATOM      3  O   UNL     1     104.783  82.941  25.854  1.00  0.00    -0.550 OA
ATOM      4  O   UNL     1     103.150  83.124  27.449  1.00  0.00    -0.550 OA
ENDROOT
TORSDOF 0
ENDMDL
MODEL 8
REMARK VINA RESULT:    -1.680     14.922     15.217
REMARK INTER + INTRA:          -1.680
REMARK INTER:                  -1.680
REMARK INTRA:                   0.000
REMARK UNBOUND:                 0.000
REMARK SMILES CC(=O)[O-]
REMARK SMILES IDX 1 1 2 2 3 3 4 4
REMARK H PARENT
REMARK Flexibility Score: inf
ROOT
ATOM      1  C   UNL     1     105.661  83.335  28.125  1.00  0.00     0.063 C 
ATOM      2  C   UNL     1     104.477  83.175  27.233  1.00  0.00     0.038 C 
ATOM      3  O   UNL     1     103.314  83.248  27.708  1.00  0.00    -0.550 OA
ATOM      4  O   UNL     1     104.654  82.893  25.885  1.00  0.00    -0.550 OA
ENDROOT
TORSDOF 0
ENDMDL
MODEL 9
REMARK VINA RESULT:    -1.676     10.524     10.975
REMARK INTER + INTRA:          -1.676
REMARK INTER:                  -1.676
REMARK INTRA:                   0.000
REMARK UNBOUND:                 0.000
REMARK SMILES CC(=O)[O-]
REMARK SMILES IDX 1 1 2 2 3 3 4 4
REMARK H PARENT
REMARK Flexibility Score: inf
ROOT
ATOM      1  C   UNL     1     110.542  92.750  24.832  1.00  0.00     0.063 C 
ATOM      2  C   UNL     1     109.900  93.946  24.214  1.00  0.00     0.038 C 
ATOM      3  O   UNL     1     109.729  93.997  22.968  1.00  0.00    -0.550 OA
ATOM      4  O   UNL     1     109.537  95.028  25.005  1.00  0.00    -0.550 OA
ENDROOT
TORSDOF 0
ENDMDL
