MODEL 1
REMARK VINA RESULT:    -5.496      0.000      0.000
REMARK INTER + INTRA:          -7.515
REMARK INTER:                  -7.263
REMARK INTRA:                  -0.252
REMARK UNBOUND:                -0.252
REMARK SMILES CCCCC=CC=CCO
REMARK SMILES IDX 5 1 6 2 4 3 3 4 2 5 1 6 7 7 8 8 9 9 10 10
REMARK H PARENT 10 11
REMARK Flexibility Score: inf
ROOT
ATOM      1  C   UNL     1      -0.142  -4.066   1.681  1.00  0.00    -0.027 C 
ATOM      2  C   UNL     1      -0.935  -3.093   2.134  1.00  0.00    -0.005 C 
ENDROOT
BRANCH   1   3
ATOM      3  C   UNL     1       1.319  -3.833   1.420  1.00  0.00     0.027 C 
BRANCH   3   4
ATOM      4  C   UNL     1       1.972  -5.070   0.783  1.00  0.00     0.004 C 
BRANCH   4   5
ATOM      5  C   UNL     1       2.435  -4.814  -0.659  1.00  0.00    -0.003 C 
ATOM      6  C   UNL     1       1.291  -4.889  -1.669  1.00  0.00     0.004 C 
ENDBRANCH   4   5
ENDBRANCH   3   4
ENDBRANCH   1   3
BRANCH   2   7
ATOM      7  C   UNL     1      -2.369  -3.332   2.371  1.00  0.00    -0.002 C 
ATOM      8  C   UNL     1      -2.863  -4.572   2.395  1.00  0.00     0.001 C 
BRANCH   8   9
ATOM      9  C   UNL     1      -4.324  -4.821   2.629  1.00  0.00     0.183 C 
BRANCH   9  10
ATOM     10  O   UNL     1      -4.865  -5.580   1.582  1.00  0.00    -0.392 OA
ATOM     11  H   UNL     1      -4.285  -5.426   0.791  1.00  0.00     0.210 HD
ENDBRANCH   9  10
ENDBRANCH   8   9
ENDBRANCH   2   7
TORSDOF 6
ENDMDL
MODEL 2
REMARK VINA RESULT:    -5.385      1.866      1.947
REMARK INTER + INTRA:          -7.369
REMARK INTER:                  -7.011
REMARK INTRA:                  -0.357
REMARK UNBOUND:                -0.252
REMARK SMILES CCCCC=CC=CCO
REMARK SMILES IDX 5 1 6 2 4 3 3 4 2 5 1 6 7 7 8 8 9 9 10 10
REMARK H PARENT 10 11
REMARK Flexibility Score: inf
ROOT
ATOM      1  C   UNL     1       0.984  -3.517   2.412  1.00  0.00    -0.027 C 
ATOM      2  C   UNL     1      -0.142  -3.433   1.701  1.00  0.00    -0.005 C 
ENDROOT
BRANCH   1   3
ATOM      3  C   UNL     1       2.212  -4.188   1.866  1.00  0.00     0.027 C 
BRANCH   3   4
ATOM      4  C   UNL     1       1.846  -5.229   0.797  1.00  0.00     0.004 C 
BRANCH   4   5
ATOM      5  C   UNL     1       2.402  -4.870  -0.589  1.00  0.00    -0.003 C 
ATOM      6  C   UNL     1       1.316  -4.801  -1.662  1.00  0.00     0.004 C 
ENDBRANCH   4   5
ENDBRANCH   3   4
ENDBRANCH   1   3
BRANCH   2   7
ATOM      7  C   UNL     1      -1.343  -2.786   2.256  1.00  0.00    -0.002 C 
ATOM      8  C   UNL     1      -2.133  -3.429   3.118  1.00  0.00     0.001 C 
BRANCH   8   9
ATOM      9  C   UNL     1      -3.362  -2.777   3.681  1.00  0.00     0.183 C 
BRANCH   9  10
ATOM     10  O   UNL     1      -3.299  -1.388   3.514  1.00  0.00    -0.392 OA
ATOM     11  H   UNL     1      -2.339  -1.157   3.412  1.00  0.00     0.210 HD
ENDBRANCH   9  10
ENDBRANCH   8   9
ENDBRANCH   2   7
TORSDOF 6
ENDMDL
MODEL 3
REMARK VINA RESULT:    -5.366      2.781      3.160
REMARK INTER + INTRA:          -7.344
REMARK INTER:                  -7.171
REMARK INTRA:                  -0.173
REMARK UNBOUND:                -0.252
REMARK SMILES CCCCC=CC=CCO
REMARK SMILES IDX 5 1 6 2 4 3 3 4 2 5 1 6 7 7 8 8 9 9 10 10
REMARK H PARENT 10 11
REMARK Flexibility Score: inf
ROOT
ATOM      1  C   UNL     1      -0.165  -3.158   2.168  1.00  0.00    -0.027 C 
ATOM      2  C   UNL     1      -1.430  -2.730   2.165  1.00  0.00    -0.005 C 
ENDROOT
BRANCH   1   3
ATOM      3  C   UNL     1       0.335  -4.143   1.150  1.00  0.00     0.027 C 
BRANCH   3   4
ATOM      4  C   UNL     1       1.870  -4.212   1.153  1.00  0.00     0.004 C 
BRANCH   4   5
ATOM      5  C   UNL     1       2.440  -4.719  -0.181  1.00  0.00    -0.003 C 
ATOM      6  C   UNL     1       1.398  -4.739  -1.299  1.00  0.00     0.004 C 
ENDBRANCH   4   5
ENDBRANCH   3   4
ENDBRANCH   1   3
BRANCH   2   7
ATOM      7  C   UNL     1      -1.910  -1.776   3.178  1.00  0.00    -0.002 C 
ATOM      8  C   UNL     1      -2.636  -0.711   2.829  1.00  0.00     0.001 C 
BRANCH   8   9
ATOM      9  C   UNL     1      -3.121   0.268   3.857  1.00  0.00     0.183 C 
BRANCH   9  10
ATOM     10  O   UNL     1      -4.064   1.140   3.296  1.00  0.00    -0.392 OA
ATOM     11  H   UNL     1      -4.821   1.191   3.937  1.00  0.00     0.210 HD
ENDBRANCH   9  10
ENDBRANCH   8   9
ENDBRANCH   2   7
TORSDOF 6
ENDMDL
MODEL 4
REMARK VINA RESULT:    -5.315      2.841      5.552
REMARK INTER + INTRA:          -7.276
REMARK INTER:                  -7.014
REMARK INTRA:                  -0.262
REMARK UNBOUND:                -0.252
REMARK SMILES CCCCC=CC=CCO
REMARK SMILES IDX 5 1 6 2 4 3 3 4 2 5 1 6 7 7 8 8 9 9 10 10
REMARK H PARENT 10 11
REMARK Flexibility Score: inf
ROOT
ATOM      1  C   UNL     1       0.429  -3.133   2.774  1.00  0.00    -0.027 C 
ATOM      2  C   UNL     1       1.637  -3.685   2.647  1.00  0.00    -0.005 C 
ENDROOT
BRANCH   1   3
ATOM      3  C   UNL     1      -0.027  -2.526   4.071  1.00  0.00     0.027 C 
BRANCH   3   4
ATOM      4  C   UNL     1      -1.436  -1.927   3.937  1.00  0.00     0.004 C 
BRANCH   4   5
ATOM      5  C   UNL     1      -2.431  -2.902   3.289  1.00  0.00    -0.003 C 
ATOM      6  C   UNL     1      -3.753  -2.991   4.050  1.00  0.00     0.004 C 
ENDBRANCH   4   5
ENDBRANCH   3   4
ENDBRANCH   1   3
BRANCH   2   7
ATOM      7  C   UNL     1       2.064  -4.289   1.374  1.00  0.00    -0.002 C 
ATOM      8  C   UNL     1       1.308  -4.188   0.278  1.00  0.00     0.001 C 
BRANCH   8   9
ATOM      9  C   UNL     1       1.734  -4.808  -1.020  1.00  0.00     0.183 C 
BRANCH   9  10
ATOM     10  O   UNL     1       2.383  -6.028  -0.791  1.00  0.00    -0.392 OA
ATOM     11  H   UNL     1       2.782  -6.305  -1.657  1.00  0.00     0.210 HD
ENDBRANCH   9  10
ENDBRANCH   8   9
ENDBRANCH   2   7
TORSDOF 6
ENDMDL
MODEL 5
REMARK VINA RESULT:    -5.248      2.762      5.241
REMARK INTER + INTRA:          -7.187
REMARK INTER:                  -6.849
REMARK INTRA:                  -0.338
REMARK UNBOUND:                -0.252
REMARK SMILES CCCCC=CC=CCO
REMARK SMILES IDX 5 1 6 2 4 3 3 4 2 5 1 6 7 7 8 8 9 9 10 10
REMARK H PARENT 10 11
REMARK Flexibility Score: inf
ROOT
ATOM      1  C   UNL     1       1.239  -3.703   1.919  1.00  0.00    -0.027 C 
ATOM      2  C   UNL     1       2.274  -4.356   1.385  1.00  0.00    -0.005 C 
ENDROOT
BRANCH   1   3
ATOM      3  C   UNL     1       1.209  -3.331   3.374  1.00  0.00     0.027 C 
BRANCH   3   4
ATOM      4  C   UNL     1      -0.135  -2.689   3.754  1.00  0.00     0.004 C 
BRANCH   4   5
ATOM      5  C   UNL     1      -1.104  -2.605   2.565  1.00  0.00    -0.003 C 
ATOM      6  C   UNL     1      -2.394  -3.391   2.798  1.00  0.00     0.004 C 
ENDBRANCH   4   5
ENDBRANCH   3   4
ENDBRANCH   1   3
BRANCH   2   7
ATOM      7  C   UNL     1       2.282  -4.727  -0.040  1.00  0.00    -0.002 C 
ATOM      8  C   UNL     1       1.168  -4.666  -0.772  1.00  0.00     0.001 C 
BRANCH   8   9
ATOM      9  C   UNL     1       1.169  -5.049  -2.223  1.00  0.00     0.183 C 
BRANCH   9  10
ATOM     10  O   UNL     1       1.473  -3.940  -3.023  1.00  0.00    -0.392 OA
ATOM     11  H   UNL     1       1.999  -3.317  -2.456  1.00  0.00     0.210 HD
ENDBRANCH   9  10
ENDBRANCH   8   9
ENDBRANCH   2   7
TORSDOF 6
ENDMDL
MODEL 6
REMARK VINA RESULT:    -5.247      2.566      5.451
REMARK INTER + INTRA:          -7.186
REMARK INTER:                  -6.890
REMARK INTRA:                  -0.297
REMARK UNBOUND:                -0.252
REMARK SMILES CCCCC=CC=CCO
REMARK SMILES IDX 5 1 6 2 4 3 3 4 2 5 1 6 7 7 8 8 9 9 10 10
REMARK H PARENT 10 11
REMARK Flexibility Score: inf
ROOT
ATOM      1  C   UNL     1      -0.721  -3.029   1.979  1.00  0.00    -0.027 C 
ATOM      2  C   UNL     1       0.426  -3.455   2.513  1.00  0.00    -0.005 C 
ENDROOT
BRANCH   1   3
ATOM      3  C   UNL     1      -1.861  -2.556   2.836  1.00  0.00     0.027 C 
BRANCH   3   4
ATOM      4  C   UNL     1      -2.439  -3.707   3.673  1.00  0.00     0.004 C 
BRANCH   4   5
ATOM      5  C   UNL     1      -3.898  -4.024   3.310  1.00  0.00    -0.003 C 
ATOM      6  C   UNL     1      -4.017  -5.063   2.196  1.00  0.00     0.004 C 
ENDBRANCH   4   5
ENDBRANCH   3   4
ENDBRANCH   1   3
BRANCH   2   7
ATOM      7  C   UNL     1       1.528  -3.930   1.660  1.00  0.00    -0.002 C 
ATOM      8  C   UNL     1       1.321  -4.238   0.378  1.00  0.00     0.001 C 
BRANCH   8   9
ATOM      9  C   UNL     1       2.439  -4.729  -0.494  1.00  0.00     0.183 C 
BRANCH   9  10
ATOM     10  O   UNL     1       2.325  -6.109  -0.706  1.00  0.00    -0.392 OA
ATOM     11  H   UNL     1       1.356  -6.324  -0.664  1.00  0.00     0.210 HD
ENDBRANCH   9  10
ENDBRANCH   8   9
ENDBRANCH   2   7
TORSDOF 6
ENDMDL
MODEL 7
REMARK VINA RESULT:    -5.209      1.042      1.200
REMARK INTER + INTRA:          -7.136
REMARK INTER:                  -6.864
REMARK INTRA:                  -0.272
REMARK UNBOUND:                -0.252
REMARK SMILES CCCCC=CC=CCO
REMARK SMILES IDX 5 1 6 2 4 3 3 4 2 5 1 6 7 7 8 8 9 9 10 10
REMARK H PARENT 10 11
REMARK Flexibility Score: inf
ROOT
ATOM      1  C   UNL     1      -0.123  -3.552   2.302  1.00  0.00    -0.027 C 
ATOM      2  C   UNL     1      -0.999  -4.185   3.085  1.00  0.00    -0.005 C 
ENDROOT
BRANCH   1   3
ATOM      3  C   UNL     1       1.337  -3.482   2.650  1.00  0.00     0.027 C 
BRANCH   3   4
ATOM      4  C   UNL     1       2.195  -4.188   1.589  1.00  0.00     0.004 C 
BRANCH   4   5
ATOM      5  C   UNL     1       1.499  -4.256   0.220  1.00  0.00    -0.003 C 
ATOM      6  C   UNL     1       2.320  -5.015  -0.822  1.00  0.00     0.004 C 
ENDBRANCH   4   5
ENDBRANCH   3   4
ENDBRANCH   1   3
BRANCH   2   7
ATOM      7  C   UNL     1      -2.429  -4.232   2.737  1.00  0.00    -0.002 C 
ATOM      8  C   UNL     1      -2.972  -5.332   2.211  1.00  0.00     0.001 C 
BRANCH   8   9
ATOM      9  C   UNL     1      -4.427  -5.384   1.848  1.00  0.00     0.183 C 
BRANCH   9  10
ATOM     10  O   UNL     1      -5.221  -5.087   2.963  1.00  0.00    -0.392 OA
ATOM     11  H   UNL     1      -5.116  -5.845   3.597  1.00  0.00     0.210 HD
ENDBRANCH   9  10
ENDBRANCH   8   9
ENDBRANCH   2   7
TORSDOF 6
ENDMDL
MODEL 8
REMARK VINA RESULT:    -5.025      3.327      4.465
REMARK INTER + INTRA:          -6.892
REMARK INTER:                  -6.503
REMARK INTRA:                  -0.389
REMARK UNBOUND:                -0.252
REMARK SMILES CCCCC=CC=CCO
REMARK SMILES IDX 5 1 6 2 4 3 3 4 2 5 1 6 7 7 8 8 9 9 10 10
REMARK H PARENT 10 11
REMARK Flexibility Score: inf
ROOT
ATOM      1  C   UNL     1      -3.820  -3.740   3.631  1.00  0.00    -0.027 C 
ATOM      2  C   UNL     1      -3.451  -4.042   2.384  1.00  0.00    -0.005 C 
ENDROOT
BRANCH   1   3
ATOM      3  C   UNL     1      -3.372  -2.471   4.299  1.00  0.00     0.027 C 
BRANCH   3   4
ATOM      4  C   UNL     1      -2.331  -1.732   3.443  1.00  0.00     0.004 C 
BRANCH   4   5
ATOM      5  C   UNL     1      -0.963  -1.632   4.136  1.00  0.00    -0.003 C 
ATOM      6  C   UNL     1      -0.040  -2.800   3.792  1.00  0.00     0.004 C 
ENDBRANCH   4   5
ENDBRANCH   3   4
ENDBRANCH   1   3
BRANCH   2   7
ATOM      7  C   UNL     1      -3.886  -5.297   1.748  1.00  0.00    -0.002 C 
ATOM      8  C   UNL     1      -4.491  -6.253   2.457  1.00  0.00     0.001 C 
BRANCH   8   9
ATOM      9  C   UNL     1      -4.930  -7.536   1.816  1.00  0.00     0.183 C 
BRANCH   9  10
ATOM     10  O   UNL     1      -6.022  -7.312   0.968  1.00  0.00    -0.392 OA
ATOM     11  H   UNL     1      -5.960  -6.367   0.670  1.00  0.00     0.210 HD
ENDBRANCH   9  10
ENDBRANCH   8   9
ENDBRANCH   2   7
TORSDOF 6
ENDMDL
MODEL 9
REMARK VINA RESULT:    -5.008      3.255      3.601
REMARK INTER + INTRA:          -6.870
REMARK INTER:                  -6.573
REMARK INTRA:                  -0.297
REMARK UNBOUND:                -0.252
REMARK SMILES CCCCC=CC=CCO
REMARK SMILES IDX 5 1 6 2 4 3 3 4 2 5 1 6 7 7 8 8 9 9 10 10
REMARK H PARENT 10 11
REMARK Flexibility Score: inf
ROOT
ATOM      1  C   UNL     1       1.143  -5.471   2.002  1.00  0.00    -0.027 C 
ATOM      2  C   UNL     1       1.611  -6.651   2.414  1.00  0.00    -0.005 C 
ENDROOT
BRANCH   1   3
ATOM      3  C   UNL     1       2.049  -4.422   1.422  1.00  0.00     0.027 C 
BRANCH   3   4
ATOM      4  C   UNL     1       2.366  -4.718  -0.053  1.00  0.00     0.004 C 
BRANCH   4   5
ATOM      5  C   UNL     1       1.118  -5.121  -0.853  1.00  0.00    -0.003 C 
ATOM      6  C   UNL     1       1.196  -4.700  -2.320  1.00  0.00     0.004 C 
ENDBRANCH   4   5
ENDBRANCH   3   4
ENDBRANCH   1   3
BRANCH   2   7
ATOM      7  C   UNL     1       0.713  -7.662   2.994  1.00  0.00    -0.002 C 
ATOM      8  C   UNL     1      -0.612  -7.503   2.962  1.00  0.00     0.001 C 
BRANCH   8   9
ATOM      9  C   UNL     1      -1.533  -8.527   3.558  1.00  0.00     0.183 C 
BRANCH   9  10
ATOM     10  O   UNL     1      -0.941  -9.124   4.679  1.00  0.00    -0.392 OA
ATOM     11  H   UNL     1      -1.570  -8.993   5.436  1.00  0.00     0.210 HD
ENDBRANCH   9  10
ENDBRANCH   8   9
ENDBRANCH   2   7
TORSDOF 6
ENDMDL
