MODEL 1
REMARK VINA RESULT:    -4.271      0.000      0.000
REMARK INTER + INTRA:          -4.634
REMARK INTER:                  -5.269
REMARK INTRA:                   0.636
REMARK UNBOUND:                 0.636
REMARK SMILES C=C1[C@H]2CC[C@@H]3[C@H]2C(C)(C)CCC[C@]13C
REMARK SMILES IDX 14 1 6 2 7 3 3 4 2 5 1 6 4 7 5 8 15 9 8 10 9 11 10 12 11 13
REMARK SMILES IDX 13 15 12 16
REMARK H PARENT
REMARK Flexibility Score: 80.00
ROOT
ATOM      1  C   UNL     1      30.203   9.897  33.182  1.00  0.00    -0.008 C 
ATOM      2  C   UNL     1      30.369   8.849  32.012  1.00  0.00     0.003 C 
ATOM      3  C   UNL     1      31.615   9.324  31.236  1.00  0.00     0.006 C 
ATOM      4  C   UNL     1      32.490   9.393  32.489  1.00  0.00     0.019 C 
ATOM      5  C   UNL     1      31.655  10.237  33.410  1.00  0.00    -0.068 C 
ATOM      6  C   UNL     1      32.138  11.075  34.336  1.00  0.00     0.009 C 
ATOM      7  C   UNL     1      32.380   7.938  33.004  1.00  0.00     0.008 C 
ATOM      8  C   UNL     1      30.949   7.524  32.581  1.00  0.00     0.005 C 
ATOM      9  C   UNL     1      29.573   9.295  34.468  1.00  0.00     0.016 C 
ENDROOT
BRANCH   3  10
ATOM     10  C   UNL     1      31.516  10.583  30.272  1.00  0.00    -0.032 C 
ATOM     11  C   UNL     1      32.759  11.500  30.403  1.00  0.00     0.011 C 
ATOM     12  C   UNL     1      31.516  10.062  28.807  1.00  0.00     0.011 C 
BRANCH  10  13
ATOM     13  C   UNL     1      30.208  11.414  30.410  1.00  0.00     0.007 CG0
ATOM     14  G   UNL     1      29.983  12.081  31.763  1.00  0.00     0.000 G0
ENDBRANCH  10  13
ENDBRANCH   3  10
BRANCH   1  15
ATOM     15  C   UNL     1      29.343  11.122  32.774  1.00  0.00     0.011 C 
BRANCH  15  16
ATOM     16  C   UNL     1      29.974  12.074  31.762  1.00  0.00     0.001 CG0
ATOM     17  G   UNL     1      30.213  11.410  30.409  1.00  0.00     0.000 G0
ENDBRANCH  15  16
ENDBRANCH   1  15
TORSDOF 0
ENDMDL
MODEL 2
REMARK VINA RESULT:    -4.057      1.656      2.831
REMARK INTER + INTRA:          -4.369
REMARK INTER:                  -5.001
REMARK INTRA:                   0.632
REMARK UNBOUND:                 0.636
REMARK SMILES C=C1[C@H]2CC[C@@H]3[C@H]2C(C)(C)CCC[C@]13C
REMARK SMILES IDX 14 1 6 2 7 3 3 4 2 5 1 6 4 7 5 8 15 9 8 10 9 11 10 12 11 13
REMARK SMILES IDX 13 15 12 16
REMARK H PARENT
REMARK Flexibility Score: 80.00
ROOT
ATOM      1  C   UNL     1      31.079   9.094  32.606  1.00  0.00    -0.008 C 
ATOM      2  C   UNL     1      32.398   9.656  31.943  1.00  0.00     0.003 C 
ATOM      3  C   UNL     1      31.907  10.712  30.931  1.00  0.00     0.006 C 
ATOM      4  C   UNL     1      31.056  11.451  31.965  1.00  0.00     0.019 C 
ATOM      5  C   UNL     1      30.228  10.339  32.544  1.00  0.00    -0.068 C 
ATOM      6  C   UNL     1      28.979  10.471  33.008  1.00  0.00     0.009 C 
ATOM      7  C   UNL     1      32.126  11.803  33.027  1.00  0.00     0.008 C 
ATOM      8  C   UNL     1      33.112  10.612  32.939  1.00  0.00     0.005 C 
ATOM      9  C   UNL     1      31.271   8.636  34.078  1.00  0.00     0.016 C 
ENDROOT
BRANCH   3  10
ATOM     10  C   UNL     1      31.256  10.250  29.557  1.00  0.00    -0.032 C 
ATOM     11  C   UNL     1      30.021  11.113  29.193  1.00  0.00     0.011 C 
ATOM     12  C   UNL     1      32.299  10.493  28.431  1.00  0.00     0.011 C 
BRANCH  10  13
ATOM     13  C   UNL     1      30.908   8.736  29.472  1.00  0.00     0.007 CG0
ATOM     14  G   UNL     1      29.874   8.233  30.476  1.00  0.00     0.000 G0
ENDBRANCH  10  13
ENDBRANCH   3  10
BRANCH   1  15
ATOM     15  C   UNL     1      30.474   7.899  31.824  1.00  0.00     0.011 C 
BRANCH  15  16
ATOM     16  C   UNL     1      29.873   8.229  30.460  1.00  0.00     0.001 CG0
ATOM     17  G   UNL     1      30.918   8.740  29.472  1.00  0.00     0.000 G0
ENDBRANCH  15  16
ENDBRANCH   1  15
TORSDOF 0
ENDMDL
MODEL 3
REMARK VINA RESULT:    -4.031      2.001      3.648
REMARK INTER + INTRA:          -4.338
REMARK INTER:                  -4.968
REMARK INTRA:                   0.630
REMARK UNBOUND:                 0.636
REMARK SMILES C=C1[C@H]2CC[C@@H]3[C@H]2C(C)(C)CCC[C@]13C
REMARK SMILES IDX 14 1 6 2 7 3 3 4 2 5 1 6 4 7 5 8 15 9 8 10 9 11 10 12 11 13
REMARK SMILES IDX 13 15 12 16
REMARK H PARENT
REMARK Flexibility Score: 80.00
ROOT
ATOM      1  C   UNL     1      31.271   9.853  30.764  1.00  0.00    -0.008 C 
ATOM      2  C   UNL     1      32.421  10.808  30.253  1.00  0.00     0.003 C 
ATOM      3  C   UNL     1      31.682  11.975  29.566  1.00  0.00     0.006 C 
ATOM      4  C   UNL     1      30.782  12.247  30.772  1.00  0.00     0.019 C 
ATOM      5  C   UNL     1      30.208  10.885  31.049  1.00  0.00    -0.068 C 
ATOM      6  C   UNL     1      28.989  10.651  31.551  1.00  0.00     0.009 C 
ATOM      7  C   UNL     1      31.839  12.510  31.872  1.00  0.00     0.008 C 
ATOM      8  C   UNL     1      33.015  11.594  31.455  1.00  0.00     0.005 C 
ATOM      9  C   UNL     1      31.640   9.076  32.058  1.00  0.00     0.016 C 
ENDROOT
BRANCH   3  10
ATOM     10  C   UNL     1      31.036  11.767  28.128  1.00  0.00    -0.032 C 
ATOM     11  C   UNL     1      29.644  12.442  28.027  1.00  0.00     0.011 C 
ATOM     12  C   UNL     1      31.941  12.487  27.091  1.00  0.00     0.011 C 
BRANCH  10  13
ATOM     13  C   UNL     1      30.961  10.288  27.650  1.00  0.00     0.007 CG0
ATOM     14  G   UNL     1      30.098   9.358  28.497  1.00  0.00     0.000 G0
ENDBRANCH  10  13
ENDBRANCH   3  10
BRANCH   1  15
ATOM     15  C   UNL     1      30.842   8.807  29.702  1.00  0.00     0.011 C 
BRANCH  15  16
ATOM     16  C   UNL     1      30.095   9.355  28.489  1.00  0.00     0.001 CG0
ATOM     17  G   UNL     1      30.960  10.286  27.645  1.00  0.00     0.000 G0
ENDBRANCH  15  16
ENDBRANCH   1  15
TORSDOF 0
ENDMDL
MODEL 4
REMARK VINA RESULT:    -4.027      2.233      4.940
REMARK INTER + INTRA:          -4.333
REMARK INTER:                  -4.973
REMARK INTRA:                   0.640
REMARK UNBOUND:                 0.636
REMARK SMILES C=C1[C@H]2CC[C@@H]3[C@H]2C(C)(C)CCC[C@]13C
REMARK SMILES IDX 14 1 6 2 7 3 3 4 2 5 1 6 4 7 5 8 15 9 8 10 9 11 10 12 11 13
REMARK SMILES IDX 13 15 12 16
REMARK H PARENT
REMARK Flexibility Score: 80.00
ROOT
ATOM      1  C   UNL     1      30.017  10.348  27.612  1.00  0.00    -0.008 C 
ATOM      2  C   UNL     1      30.208  11.853  28.050  1.00  0.00     0.003 C 
ATOM      3  C   UNL     1      31.329  11.813  29.108  1.00  0.00     0.006 C 
ATOM      4  C   UNL     1      32.286  11.029  28.208  1.00  0.00     0.019 C 
ATOM      5  C   UNL     1      31.436   9.864  27.786  1.00  0.00    -0.068 C 
ATOM      6  C   UNL     1      31.893   8.633  27.522  1.00  0.00     0.009 C 
ATOM      7  C   UNL     1      32.378  11.974  26.986  1.00  0.00     0.008 C 
ATOM      8  C   UNL     1      30.973  12.624  26.938  1.00  0.00     0.005 C 
ATOM      9  C   UNL     1      29.560  10.184  26.137  1.00  0.00     0.016 C 
ENDROOT
BRANCH   3  10
ATOM     10  C   UNL     1      31.016  11.289  30.576  1.00  0.00    -0.032 C 
ATOM     11  C   UNL     1      32.154  10.383  31.111  1.00  0.00     0.011 C 
ATOM     12  C   UNL     1      30.965  12.522  31.521  1.00  0.00     0.011 C 
BRANCH  10  13
ATOM     13  C   UNL     1      29.637  10.589  30.741  1.00  0.00     0.007 CG0
ATOM     14  G   UNL     1      29.440   9.307  29.938  1.00  0.00     0.000 G0
ENDBRANCH  10  13
ENDBRANCH   3  10
BRANCH   1  15
ATOM     15  C   UNL     1      28.997   9.588  28.500  1.00  0.00     0.011 C 
BRANCH  15  16
ATOM     16  C   UNL     1      29.438   9.310  29.935  1.00  0.00     0.001 CG0
ATOM     17  G   UNL     1      29.642  10.590  30.740  1.00  0.00     0.000 G0
ENDBRANCH  15  16
ENDBRANCH   1  15
TORSDOF 0
ENDMDL
MODEL 5
REMARK VINA RESULT:    -4.021      1.600      3.894
REMARK INTER + INTRA:          -4.326
REMARK INTER:                  -4.961
REMARK INTRA:                   0.635
REMARK UNBOUND:                 0.636
REMARK SMILES C=C1[C@H]2CC[C@@H]3[C@H]2C(C)(C)CCC[C@]13C
REMARK SMILES IDX 14 1 6 2 7 3 3 4 2 5 1 6 4 7 5 8 15 9 8 10 9 11 10 12 11 13
REMARK SMILES IDX 13 15 12 16
REMARK H PARENT
REMARK Flexibility Score: 80.00
ROOT
ATOM      1  C   UNL     1      31.551  11.362  30.062  1.00  0.00    -0.008 C 
ATOM      2  C   UNL     1      31.624   9.795  29.883  1.00  0.00     0.003 C 
ATOM      3  C   UNL     1      30.868   9.227  31.103  1.00  0.00     0.006 C 
ATOM      4  C   UNL     1      29.627  10.086  30.859  1.00  0.00     0.019 C 
ATOM      5  C   UNL     1      30.214  11.465  30.754  1.00  0.00    -0.068 C 
ATOM      6  C   UNL     1      29.600  12.594  31.130  1.00  0.00     0.009 C 
ATOM      7  C   UNL     1      29.252   9.656  29.420  1.00  0.00     0.008 C 
ATOM      8  C   UNL     1      30.627   9.353  28.776  1.00  0.00     0.005 C 
ATOM      9  C   UNL     1      31.534  12.139  28.718  1.00  0.00     0.016 C 
ENDROOT
BRANCH   3  10
ATOM     10  C   UNL     1      31.560   9.227  32.534  1.00  0.00    -0.032 C 
ATOM     11  C   UNL     1      30.563   9.636  33.648  1.00  0.00     0.011 C 
ATOM     12  C   UNL     1      31.992   7.769  32.854  1.00  0.00     0.011 C 
BRANCH  10  13
ATOM     13  C   UNL     1      32.864  10.071  32.632  1.00  0.00     0.007 CG0
ATOM     14  G   UNL     1      32.704  11.571  32.408  1.00  0.00     0.000 G0
ENDBRANCH  10  13
ENDBRANCH   3  10
BRANCH   1  15
ATOM     15  C   UNL     1      32.724  11.925  30.908  1.00  0.00     0.011 C 
BRANCH  15  16
ATOM     16  C   UNL     1      32.708  11.570  32.392  1.00  0.00     0.001 CG0
ATOM     17  G   UNL     1      32.864  10.071  32.634  1.00  0.00     0.000 G0
ENDBRANCH  15  16
ENDBRANCH   1  15
TORSDOF 0
ENDMDL
MODEL 6
REMARK VINA RESULT:    -3.955      2.097      4.336
REMARK INTER + INTRA:          -4.244
REMARK INTER:                  -4.874
REMARK INTRA:                   0.630
REMARK UNBOUND:                 0.636
REMARK SMILES C=C1[C@H]2CC[C@@H]3[C@H]2C(C)(C)CCC[C@]13C
REMARK SMILES IDX 14 1 6 2 7 3 3 4 2 5 1 6 4 7 5 8 15 9 8 10 9 11 10 12 11 13
REMARK SMILES IDX 13 15 12 16
REMARK H PARENT
REMARK Flexibility Score: 80.00
ROOT
ATOM      1  C   UNL     1      30.065  10.672  32.747  1.00  0.00    -0.008 C 
ATOM      2  C   UNL     1      31.056  11.287  33.812  1.00  0.00     0.003 C 
ATOM      3  C   UNL     1      31.731  10.064  34.468  1.00  0.00     0.006 C 
ATOM      4  C   UNL     1      32.146   9.451  33.130  1.00  0.00     0.019 C 
ATOM      5  C   UNL     1      30.846   9.436  32.375  1.00  0.00    -0.068 C 
ATOM      6  C   UNL     1      30.498   8.522  31.461  1.00  0.00     0.009 C 
ATOM      7  C   UNL     1      32.991  10.600  32.530  1.00  0.00     0.008 C 
ATOM      8  C   UNL     1      32.301  11.870  33.088  1.00  0.00     0.005 C 
ATOM      9  C   UNL     1      29.852  11.579  31.504  1.00  0.00     0.016 C 
ENDROOT
BRANCH   3  10
ATOM     10  C   UNL     1      30.929   9.188  35.525  1.00  0.00    -0.032 C 
ATOM     11  C   UNL     1      31.180   7.673  35.315  1.00  0.00     0.011 C 
ATOM     12  C   UNL     1      31.480   9.526  36.939  1.00  0.00     0.011 C 
BRANCH  10  13
ATOM     13  C   UNL     1      29.403   9.483  35.599  1.00  0.00     0.007 CG0
ATOM     14  G   UNL     1      28.608   9.197  34.329  1.00  0.00     0.000 G0
ENDBRANCH  10  13
ENDBRANCH   3  10
BRANCH   1  15
ATOM     15  C   UNL     1      28.666  10.358  33.337  1.00  0.00     0.011 C 
BRANCH  15  16
ATOM     16  C   UNL     1      28.604   9.202  34.332  1.00  0.00     0.001 CG0
ATOM     17  G   UNL     1      29.409   9.479  35.598  1.00  0.00     0.000 G0
ENDBRANCH  15  16
ENDBRANCH   1  15
TORSDOF 0
ENDMDL
MODEL 7
REMARK VINA RESULT:    -3.947      1.499      3.849
REMARK INTER + INTRA:          -4.235
REMARK INTER:                  -4.859
REMARK INTRA:                   0.624
REMARK UNBOUND:                 0.636
REMARK SMILES C=C1[C@H]2CC[C@@H]3[C@H]2C(C)(C)CCC[C@]13C
REMARK SMILES IDX 14 1 6 2 7 3 3 4 2 5 1 6 4 7 5 8 15 9 8 10 9 11 10 12 11 13
REMARK SMILES IDX 13 15 12 16
REMARK H PARENT
REMARK Flexibility Score: 80.00
ROOT
ATOM      1  C   UNL     1      29.668  10.999  30.009  1.00  0.00    -0.008 C 
ATOM      2  C   UNL     1      31.080  11.691  30.157  1.00  0.00     0.003 C 
ATOM      3  C   UNL     1      32.000  10.586  30.717  1.00  0.00     0.006 C 
ATOM      4  C   UNL     1      31.620   9.580  29.628  1.00  0.00     0.019 C 
ATOM      5  C   UNL     1      30.119   9.593  29.699  1.00  0.00    -0.068 C 
ATOM      6  C   UNL     1      29.327   8.545  29.437  1.00  0.00     0.009 C 
ATOM      7  C   UNL     1      32.007  10.368  28.354  1.00  0.00     0.008 C 
ATOM      8  C   UNL     1      31.734  11.839  28.755  1.00  0.00     0.005 C 
ATOM      9  C   UNL     1      28.816  11.570  28.843  1.00  0.00     0.016 C 
ENDROOT
BRANCH   3  10
ATOM     10  C   UNL     1      31.898  10.170  32.247  1.00  0.00    -0.032 C 
ATOM     11  C   UNL     1      31.997   8.633  32.428  1.00  0.00     0.011 C 
ATOM     12  C   UNL     1      33.125  10.772  32.987  1.00  0.00     0.011 C 
BRANCH  10  13
ATOM     13  C   UNL     1      30.653  10.727  32.997  1.00  0.00     0.007 CG0
ATOM     14  G   UNL     1      29.297  10.268  32.470  1.00  0.00     0.000 G0
ENDBRANCH  10  13
ENDBRANCH   3  10
BRANCH   1  15
ATOM     15  C   UNL     1      28.812  11.098  31.300  1.00  0.00     0.011 C 
BRANCH  15  16
ATOM     16  C   UNL     1      29.290  10.261  32.484  1.00  0.00     0.001 CG0
ATOM     17  G   UNL     1      30.646  10.721  33.012  1.00  0.00     0.000 G0
ENDBRANCH  15  16
ENDBRANCH   1  15
TORSDOF 0
ENDMDL
MODEL 8
REMARK VINA RESULT:    -3.859      2.379      3.372
REMARK INTER + INTRA:          -4.126
REMARK INTER:                  -4.764
REMARK INTRA:                   0.638
REMARK UNBOUND:                 0.636
REMARK SMILES C=C1[C@H]2CC[C@@H]3[C@H]2C(C)(C)CCC[C@]13C
REMARK SMILES IDX 14 1 6 2 7 3 3 4 2 5 1 6 4 7 5 8 15 9 8 10 9 11 10 12 11 13
REMARK SMILES IDX 13 15 12 16
REMARK H PARENT
REMARK Flexibility Score: 80.00
ROOT
ATOM      1  C   UNL     1      29.494   8.685  35.905  1.00  0.00    -0.008 C 
ATOM      2  C   UNL     1      29.458   7.344  35.072  1.00  0.00     0.003 C 
ATOM      3  C   UNL     1      30.789   7.333  34.293  1.00  0.00     0.006 C 
ATOM      4  C   UNL     1      31.637   7.571  35.543  1.00  0.00     0.019 C 
ATOM      5  C   UNL     1      30.981   8.783  36.142  1.00  0.00    -0.068 C 
ATOM      6  C   UNL     1      31.612   9.732  36.844  1.00  0.00     0.009 C 
ATOM      7  C   UNL     1      31.216   6.365  36.417  1.00  0.00     0.008 C 
ATOM      8  C   UNL     1      29.737   6.140  36.014  1.00  0.00     0.005 C 
ATOM      9  C   UNL     1      28.730   8.597  37.255  1.00  0.00     0.016 C 
ENDROOT
BRANCH   3  10
ATOM     10  C   UNL     1      30.973   8.271  33.023  1.00  0.00    -0.032 C 
ATOM     11  C   UNL     1      32.377   8.927  32.998  1.00  0.00     0.011 C 
ATOM     12  C   UNL     1      30.891   7.377  31.754  1.00  0.00     0.011 C 
BRANCH  10  13
ATOM     13  C   UNL     1      29.864   9.347  32.837  1.00  0.00     0.007 CG0
ATOM     14  G   UNL     1      29.757  10.390  33.945  1.00  0.00     0.000 G0
ENDBRANCH  10  13
ENDBRANCH   3  10
BRANCH   1  15
ATOM     15  C   UNL     1      28.917   9.895  35.124  1.00  0.00     0.011 C 
BRANCH  15  16
ATOM     16  C   UNL     1      29.754  10.392  33.949  1.00  0.00     0.001 CG0
ATOM     17  G   UNL     1      29.874   9.353  32.838  1.00  0.00     0.000 G0
ENDBRANCH  15  16
ENDBRANCH   1  15
TORSDOF 0
ENDMDL
MODEL 9
REMARK VINA RESULT:    -3.791      3.617      5.343
REMARK INTER + INTRA:          -4.042
REMARK INTER:                  -4.680
REMARK INTRA:                   0.638
REMARK UNBOUND:                 0.636
REMARK SMILES C=C1[C@H]2CC[C@@H]3[C@H]2C(C)(C)CCC[C@]13C
REMARK SMILES IDX 14 1 6 2 7 3 3 4 2 5 1 6 4 7 5 8 15 9 8 10 9 11 10 12 11 13
REMARK SMILES IDX 13 15 12 16
REMARK H PARENT
REMARK Flexibility Score: 80.00
ROOT
ATOM      1  C   UNL     1      30.255   8.567  26.754  1.00  0.00    -0.008 C 
ATOM      2  C   UNL     1      31.269   8.382  27.950  1.00  0.00     0.003 C 
ATOM      3  C   UNL     1      30.975   9.564  28.898  1.00  0.00     0.006 C 
ATOM      4  C   UNL     1      29.475   9.269  28.960  1.00  0.00     0.019 C 
ATOM      5  C   UNL     1      29.108   9.198  27.504  1.00  0.00    -0.068 C 
ATOM      6  C   UNL     1      27.924   9.554  26.991  1.00  0.00     0.009 C 
ATOM      7  C   UNL     1      29.485   7.812  29.483  1.00  0.00     0.008 C 
ATOM      8  C   UNL     1      30.782   7.228  28.870  1.00  0.00     0.005 C 
ATOM      9  C   UNL     1      29.812   7.227  26.104  1.00  0.00     0.016 C 
ENDROOT
BRANCH   3  10
ATOM     10  C   UNL     1      31.478  11.024  28.524  1.00  0.00    -0.032 C 
ATOM     11  C   UNL     1      30.403  12.095  28.838  1.00  0.00     0.011 C 
ATOM     12  C   UNL     1      32.696  11.355  29.431  1.00  0.00     0.011 C 
BRANCH  10  13
ATOM     13  C   UNL     1      31.999  11.185  27.066  1.00  0.00     0.007 CG0
ATOM     14  G   UNL     1      30.974  10.941  25.963  1.00  0.00     0.000 G0
ENDBRANCH  10  13
ENDBRANCH   3  10
BRANCH   1  15
ATOM     15  C   UNL     1      30.817   9.467  25.622  1.00  0.00     0.011 C 
BRANCH  15  16
ATOM     16  C   UNL     1      30.979  10.946  25.964  1.00  0.00     0.001 CG0
ATOM     17  G   UNL     1      32.002  11.179  27.071  1.00  0.00     0.000 G0
ENDBRANCH  15  16
ENDBRANCH   1  15
TORSDOF 0
ENDMDL
