MODEL 1
REMARK VINA RESULT:     7.665      0.000      0.000
REMARK INTER + INTRA:           7.889
REMARK INTER:                   7.889
REMARK INTRA:                   0.000
REMARK UNBOUND:                 0.000
REMARK SMILES C=C1[C@H](O)C[C@@]23C[C@@H]1C(C)(C)[C@@H]2CC[C@@H]3C
REMARK SMILES IDX 16 1 15 2 14 3 13 4 12 5 6 6 7 7 8 8 9 9 10 10 11 11 2 12
REMARK SMILES IDX 1 13 3 14 5 15 4 16
REMARK H PARENT 4 17
REMARK Flexibility Score: inf
ROOT
ATOM      1  C   UNL     1     -41.864  20.741   8.421  1.00  0.00     0.008 C 
ATOM      2  C   UNL     1     -41.008  21.937   8.866  1.00  0.00    -0.008 C 
ATOM      3  C   UNL     1     -39.556  21.557   9.125  1.00  0.00     0.004 C 
ATOM      4  C   UNL     1     -38.792  22.873   9.079  1.00  0.00     0.005 C 
ATOM      5  C   UNL     1     -39.580  23.810   8.136  1.00  0.00     0.002 C 
ATOM      6  C   UNL     1     -40.938  23.112   7.865  1.00  0.00    -0.020 C 
ATOM      7  C   UNL     1     -40.875  22.694   6.391  1.00  0.00     0.016 C 
ATOM      8  C   UNL     1     -40.189  23.894   5.771  1.00  0.00     0.023 C 
ATOM      9  C   UNL     1     -38.979  24.134   6.722  1.00  0.00    -0.025 C 
ATOM     10  C   UNL     1     -38.445  25.586   6.655  1.00  0.00     0.012 C 
ATOM     11  C   UNL     1     -37.810  23.203   6.293  1.00  0.00     0.012 C 
ATOM     12  C   UNL     1     -41.193  25.048   5.789  1.00  0.00    -0.045 C 
ATOM     13  C   UNL     1     -41.246  25.901   4.754  1.00  0.00     0.011 C 
ATOM     14  C   UNL     1     -42.091  25.287   7.004  1.00  0.00     0.140 C 
ATOM     15  C   UNL     1     -42.125  24.100   8.019  1.00  0.00     0.044 C 
ENDROOT
BRANCH  14  16
ATOM     16  O   UNL     1     -41.675  26.461   7.653  1.00  0.00    -0.389 OA
ATOM     17  H   UNL     1     -40.915  26.828   7.129  1.00  0.00     0.211 HD
ENDBRANCH  14  16
TORSDOF 1
ENDMDL
MODEL 2
REMARK VINA RESULT:     7.911      1.655      4.206
REMARK INTER + INTRA:           8.143
REMARK INTER:                   8.143
REMARK INTRA:                   0.000
REMARK UNBOUND:                 0.000
REMARK SMILES C=C1[C@H](O)C[C@@]23C[C@@H]1C(C)(C)[C@@H]2CC[C@@H]3C
REMARK SMILES IDX 16 1 15 2 14 3 13 4 12 5 6 6 7 7 8 8 9 9 10 10 11 11 2 12
REMARK SMILES IDX 1 13 3 14 5 15 4 16
REMARK H PARENT 4 17
REMARK Flexibility Score: inf
ROOT
ATOM      1  C   UNL     1     -41.587  27.595   7.064  1.00  0.00     0.008 C 
ATOM      2  C   UNL     1     -42.122  26.266   6.510  1.00  0.00    -0.008 C 
ATOM      3  C   UNL     1     -42.008  26.172   4.995  1.00  0.00     0.004 C 
ATOM      4  C   UNL     1     -42.120  24.685   4.684  1.00  0.00     0.005 C 
ATOM      5  C   UNL     1     -41.582  23.933   5.922  1.00  0.00     0.002 C 
ATOM      6  C   UNL     1     -41.422  24.995   7.040  1.00  0.00    -0.020 C 
ATOM      7  C   UNL     1     -39.907  25.133   7.234  1.00  0.00     0.016 C 
ATOM      8  C   UNL     1     -39.459  23.691   7.106  1.00  0.00     0.023 C 
ATOM      9  C   UNL     1     -40.192  23.210   5.819  1.00  0.00    -0.025 C 
ATOM     10  C   UNL     1     -40.358  21.672   5.766  1.00  0.00     0.012 C 
ATOM     11  C   UNL     1     -39.348  23.616   4.578  1.00  0.00     0.012 C 
ATOM     12  C   UNL     1     -39.929  22.959   8.364  1.00  0.00    -0.045 C 
ATOM     13  C   UNL     1     -39.145  22.024   8.922  1.00  0.00     0.011 C 
ATOM     14  C   UNL     1     -41.314  23.228   8.955  1.00  0.00     0.140 C 
ATOM     15  C   UNL     1     -42.019  24.499   8.384  1.00  0.00     0.044 C 
ENDROOT
BRANCH  14  16
ATOM     16  O   UNL     1     -42.123  22.098   8.749  1.00  0.00    -0.389 OA
ATOM     17  H   UNL     1     -41.532  21.302   8.816  1.00  0.00     0.211 HD
ENDBRANCH  14  16
TORSDOF 1
ENDMDL
MODEL 3
REMARK VINA RESULT:     9.201      1.819      3.590
REMARK INTER + INTRA:           9.470
REMARK INTER:                   9.470
REMARK INTRA:                   0.000
REMARK UNBOUND:                 0.000
REMARK SMILES C=C1[C@H](O)C[C@@]23C[C@@H]1C(C)(C)[C@@H]2CC[C@@H]3C
REMARK SMILES IDX 16 1 15 2 14 3 13 4 12 5 6 6 7 7 8 8 9 9 10 10 11 11 2 12
REMARK SMILES IDX 1 13 3 14 5 15 4 16
REMARK H PARENT 4 17
REMARK Flexibility Score: inf
ROOT
ATOM      1  C   UNL     1     -36.715  25.292   7.945  1.00  0.00     0.008 C 
ATOM      2  C   UNL     1     -37.446  23.951   7.784  1.00  0.00    -0.008 C 
ATOM      3  C   UNL     1     -37.842  23.334   9.119  1.00  0.00     0.004 C 
ATOM      4  C   UNL     1     -38.925  22.319   8.775  1.00  0.00     0.005 C 
ATOM      5  C   UNL     1     -39.626  22.835   7.499  1.00  0.00     0.002 C 
ATOM      6  C   UNL     1     -38.755  24.002   6.966  1.00  0.00    -0.020 C 
ATOM      7  C   UNL     1     -39.604  25.258   7.195  1.00  0.00     0.016 C 
ATOM      8  C   UNL     1     -40.986  24.752   6.836  1.00  0.00     0.023 C 
ATOM      9  C   UNL     1     -41.082  23.410   7.619  1.00  0.00    -0.025 C 
ATOM     10  C   UNL     1     -42.124  22.438   7.014  1.00  0.00     0.012 C 
ATOM     11  C   UNL     1     -41.535  23.709   9.076  1.00  0.00     0.012 C 
ATOM     12  C   UNL     1     -41.014  24.556   5.319  1.00  0.00    -0.045 C 
ATOM     13  C   UNL     1     -42.125  24.861   4.629  1.00  0.00     0.011 C 
ATOM     14  C   UNL     1     -39.818  23.949   4.585  1.00  0.00     0.140 C 
ATOM     15  C   UNL     1     -38.512  23.877   5.438  1.00  0.00     0.044 C 
ENDROOT
BRANCH  14  16
ATOM     16  O   UNL     1     -40.165  22.665   4.133  1.00  0.00    -0.389 OA
ATOM     17  H   UNL     1     -40.551  22.180   4.909  1.00  0.00     0.211 HD
ENDBRANCH  14  16
TORSDOF 1
ENDMDL
