MODEL 1
REMARK VINA RESULT:    -4.262      0.000      0.000
REMARK INTER + INTRA:          -4.386
REMARK INTER:                  -4.386
REMARK INTRA:                   0.000
REMARK UNBOUND:                 0.000
REMARK SMILES Nc1ncnc2nc[nH]c12
REMARK SMILES IDX 8 1 7 2 6 3 5 4 4 5 3 6 2 7 10 8 9 9 1 11
REMARK H PARENT 9 10 1 12 1 13
REMARK Flexibility Score: inf
ROOT
ATOM      1  C   UNL     1      45.522  68.038  52.949  1.00  0.00     0.199 A 
ATOM      2  N   UNL     1      46.536  68.491  53.738  1.00  0.00    -0.217 NA
ATOM      3  C   UNL     1      47.233  69.265  52.891  1.00  0.00     0.182 A 
ATOM      4  N   UNL     1      48.359  69.963  53.174  1.00  0.00    -0.215 NA
ATOM      5  C   UNL     1      48.931  70.700  52.173  1.00  0.00     0.226 A 
ATOM      6  N   UNL     1      48.372  70.724  50.920  1.00  0.00    -0.217 NA
ATOM      7  C   UNL     1      47.237  70.021  50.633  1.00  0.00     0.152 A 
ATOM      8  C   UNL     1      46.667  69.275  51.662  1.00  0.00     0.127 A 
ATOM      9  N   UNL     1      45.575  68.501  51.675  1.00  0.00    -0.340 N 
ATOM     10  H   UNL     1      44.912  68.294  50.895  1.00  0.00     0.168 HD
ENDROOT
BRANCH   7  11
ATOM     11  N   UNL     1      46.673  70.060  49.321  1.00  0.00    -0.382 N 
ATOM     12  H   UNL     1      47.015  70.762  48.627  1.00  0.00     0.158 HD
ATOM     13  H   UNL     1      45.919  69.399  49.033  1.00  0.00     0.158 HD
ENDBRANCH   7  11
TORSDOF 1
ENDMDL
MODEL 2
REMARK VINA RESULT:    -4.249     10.597     12.084
REMARK INTER + INTRA:          -4.373
REMARK INTER:                  -4.373
REMARK INTRA:                   0.000
REMARK UNBOUND:                 0.000
REMARK SMILES Nc1ncnc2nc[nH]c12
REMARK SMILES IDX 8 1 7 2 6 3 5 4 4 5 3 6 2 7 10 8 9 9 1 11
REMARK H PARENT 9 10 1 12 1 13
REMARK Flexibility Score: inf
ROOT
ATOM      1  C   UNL     1      48.755  69.959  62.207  1.00  0.00     0.199 A 
ATOM      2  N   UNL     1      48.315  70.914  63.073  1.00  0.00    -0.217 NA
ATOM      3  C   UNL     1      47.280  70.302  63.672  1.00  0.00     0.182 A 
ATOM      4  N   UNL     1      46.480  70.821  64.634  1.00  0.00    -0.215 NA
ATOM      5  C   UNL     1      45.471  70.040  65.125  1.00  0.00     0.226 A 
ATOM      6  N   UNL     1      45.281  68.767  64.650  1.00  0.00    -0.217 NA
ATOM      7  C   UNL     1      46.087  68.241  63.680  1.00  0.00     0.152 A 
ATOM      8  C   UNL     1      47.111  69.049  63.190  1.00  0.00     0.127 A 
ATOM      9  N   UNL     1      48.038  68.808  62.256  1.00  0.00    -0.340 N 
ATOM     10  H   UNL     1      48.187  67.942  61.691  1.00  0.00     0.168 HD
ENDROOT
BRANCH   7  11
ATOM     11  N   UNL     1      45.872  66.913  63.200  1.00  0.00    -0.382 N 
ATOM     12  H   UNL     1      46.492  66.136  63.520  1.00  0.00     0.158 HD
ATOM     13  H   UNL     1      45.102  66.694  62.531  1.00  0.00     0.158 HD
ENDBRANCH   7  11
TORSDOF 1
ENDMDL
MODEL 3
REMARK VINA RESULT:    -4.144      1.294      3.248
REMARK INTER + INTRA:          -4.266
REMARK INTER:                  -4.266
REMARK INTRA:                   0.000
REMARK UNBOUND:                 0.000
REMARK SMILES Nc1ncnc2nc[nH]c12
REMARK SMILES IDX 8 1 7 2 6 3 5 4 4 5 3 6 2 7 10 8 9 9 1 11
REMARK H PARENT 9 10 1 12 1 13
REMARK Flexibility Score: inf
ROOT
ATOM      1  C   UNL     1      47.715  69.871  50.836  1.00  0.00     0.199 A 
ATOM      2  N   UNL     1      47.830  70.421  52.076  1.00  0.00    -0.217 NA
ATOM      3  C   UNL     1      47.007  69.653  52.808  1.00  0.00     0.182 A 
ATOM      4  N   UNL     1      46.751  69.775  54.132  1.00  0.00    -0.215 NA
ATOM      5  C   UNL     1      45.878  68.892  54.705  1.00  0.00     0.226 A 
ATOM      6  N   UNL     1      45.283  67.912  53.951  1.00  0.00    -0.217 NA
ATOM      7  C   UNL     1      45.541  67.787  52.616  1.00  0.00     0.152 A 
ATOM      8  C   UNL     1      46.432  68.693  52.046  1.00  0.00     0.127 A 
ATOM      9  N   UNL     1      46.866  68.812  50.786  1.00  0.00    -0.340 N 
ATOM     10  H   UNL     1      46.620  68.233  49.953  1.00  0.00     0.168 HD
ENDROOT
BRANCH   7  11
ATOM     11  N   UNL     1      44.910  66.759  51.850  1.00  0.00    -0.382 N 
ATOM     12  H   UNL     1      44.076  66.261  52.232  1.00  0.00     0.158 HD
ATOM     13  H   UNL     1      45.263  66.489  50.906  1.00  0.00     0.158 HD
ENDBRANCH   7  11
TORSDOF 1
ENDMDL
MODEL 4
REMARK VINA RESULT:    -4.096     16.956     17.997
REMARK INTER + INTRA:          -4.216
REMARK INTER:                  -4.216
REMARK INTRA:                   0.000
REMARK UNBOUND:                 0.000
REMARK SMILES Nc1ncnc2nc[nH]c12
REMARK SMILES IDX 8 1 7 2 6 3 5 4 4 5 3 6 2 7 10 8 9 9 1 11
REMARK H PARENT 9 10 1 12 1 13
REMARK Flexibility Score: inf
ROOT
ATOM      1  C   UNL     1      58.415  59.632  57.988  1.00  0.00     0.199 A 
ATOM      2  N   UNL     1      59.524  58.915  58.320  1.00  0.00    -0.217 NA
ATOM      3  C   UNL     1      59.254  58.537  59.579  1.00  0.00     0.182 A 
ATOM      4  N   UNL     1      60.045  57.790  60.388  1.00  0.00    -0.215 NA
ATOM      5  C   UNL     1      59.595  57.506  61.647  1.00  0.00     0.226 A 
ATOM      6  N   UNL     1      58.375  57.967  62.072  1.00  0.00    -0.217 NA
ATOM      7  C   UNL     1      57.575  58.720  61.259  1.00  0.00     0.152 A 
ATOM      8  C   UNL     1      58.047  59.002  59.979  1.00  0.00     0.127 A 
ATOM      9  N   UNL     1      57.494  59.702  58.982  1.00  0.00    -0.340 N 
ATOM     10  H   UNL     1      56.572  60.192  58.961  1.00  0.00     0.168 HD
ENDROOT
BRANCH   7  11
ATOM     11  N   UNL     1      56.309  59.190  61.722  1.00  0.00    -0.382 N 
ATOM     12  H   UNL     1      56.144  59.324  62.744  1.00  0.00     0.158 HD
ATOM     13  H   UNL     1      55.533  59.407  61.059  1.00  0.00     0.158 HD
ENDBRANCH   7  11
TORSDOF 1
ENDMDL
MODEL 5
REMARK VINA RESULT:    -3.801      9.068     10.763
REMARK INTER + INTRA:          -3.912
REMARK INTER:                  -3.912
REMARK INTRA:                   0.000
REMARK UNBOUND:                 0.000
REMARK SMILES Nc1ncnc2nc[nH]c12
REMARK SMILES IDX 8 1 7 2 6 3 5 4 4 5 3 6 2 7 10 8 9 9 1 11
REMARK H PARENT 9 10 1 12 1 13
REMARK Flexibility Score: inf
ROOT
ATOM      1  C   UNL     1      59.014  68.622  48.265  1.00  0.00     0.199 A 
ATOM      2  N   UNL     1      58.198  69.710  48.190  1.00  0.00    -0.217 NA
ATOM      3  C   UNL     1      57.158  69.340  48.955  1.00  0.00     0.182 A 
ATOM      4  N   UNL     1      56.049  70.071  49.219  1.00  0.00    -0.215 NA
ATOM      5  C   UNL     1      55.091  69.522  50.027  1.00  0.00     0.226 A 
ATOM      6  N   UNL     1      55.258  68.264  50.549  1.00  0.00    -0.217 NA
ATOM      7  C   UNL     1      56.376  67.526  50.284  1.00  0.00     0.152 A 
ATOM      8  C   UNL     1      57.342  68.099  49.460  1.00  0.00     0.127 A 
ATOM      9  N   UNL     1      58.518  67.621  49.035  1.00  0.00    -0.340 N 
ATOM     10  H   UNL     1      58.960  66.697  49.239  1.00  0.00     0.168 HD
ENDROOT
BRANCH   7  11
ATOM     11  N   UNL     1      56.529  66.218  50.838  1.00  0.00    -0.382 N 
ATOM     12  H   UNL     1      57.233  66.050  51.591  1.00  0.00     0.158 HD
ATOM     13  H   UNL     1      55.949  65.416  50.508  1.00  0.00     0.158 HD
ENDBRANCH   7  11
TORSDOF 1
ENDMDL
MODEL 6
REMARK VINA RESULT:    -3.773      1.045      2.573
REMARK INTER + INTRA:          -3.883
REMARK INTER:                  -3.883
REMARK INTRA:                   0.000
REMARK UNBOUND:                 0.000
REMARK SMILES Nc1ncnc2nc[nH]c12
REMARK SMILES IDX 8 1 7 2 6 3 5 4 4 5 3 6 2 7 10 8 9 9 1 11
REMARK H PARENT 9 10 1 12 1 13
REMARK Flexibility Score: inf
ROOT
ATOM      1  C   UNL     1      45.566  68.366  53.791  1.00  0.00     0.199 A 
ATOM      2  N   UNL     1      45.484  68.445  52.434  1.00  0.00    -0.217 NA
ATOM      3  C   UNL     1      46.572  69.168  52.123  1.00  0.00     0.182 A 
ATOM      4  N   UNL     1      46.968  69.541  50.882  1.00  0.00    -0.215 NA
ATOM      5  C   UNL     1      48.112  70.282  50.765  1.00  0.00     0.226 A 
ATOM      6  N   UNL     1      48.831  70.633  51.879  1.00  0.00    -0.217 NA
ATOM      7  C   UNL     1      48.434  70.258  53.131  1.00  0.00     0.152 A 
ATOM      8  C   UNL     1      47.267  69.504  53.234  1.00  0.00     0.127 A 
ATOM      9  N   UNL     1      46.646  69.005  54.309  1.00  0.00    -0.340 N 
ATOM     10  H   UNL     1      46.918  69.080  55.315  1.00  0.00     0.168 HD
ENDROOT
BRANCH   7  11
ATOM     11  N   UNL     1      49.198  70.635  54.277  1.00  0.00    -0.382 N 
ATOM     12  H   UNL     1      50.190  70.322  54.369  1.00  0.00     0.158 HD
ATOM     13  H   UNL     1      48.788  71.223  55.035  1.00  0.00     0.158 HD
ENDBRANCH   7  11
TORSDOF 1
ENDMDL
MODEL 7
REMARK VINA RESULT:    -3.757     11.205     12.139
REMARK INTER + INTRA:          -3.867
REMARK INTER:                  -3.867
REMARK INTRA:                   0.000
REMARK UNBOUND:                 0.000
REMARK SMILES Nc1ncnc2nc[nH]c12
REMARK SMILES IDX 8 1 7 2 6 3 5 4 4 5 3 6 2 7 10 8 9 9 1 11
REMARK H PARENT 9 10 1 12 1 13
REMARK Flexibility Score: inf
ROOT
ATOM      1  C   UNL     1      45.335  68.053  63.929  1.00  0.00     0.199 A 
ATOM      2  N   UNL     1      45.159  69.125  64.751  1.00  0.00    -0.217 NA
ATOM      3  C   UNL     1      46.281  69.832  64.542  1.00  0.00     0.182 A 
ATOM      4  N   UNL     1      46.615  71.008  65.125  1.00  0.00    -0.215 NA
ATOM      5  C   UNL     1      47.809  71.581  64.783  1.00  0.00     0.226 A 
ATOM      6  N   UNL     1      48.639  70.974  63.875  1.00  0.00    -0.217 NA
ATOM      7  C   UNL     1      48.304  69.788  63.286  1.00  0.00     0.152 A 
ATOM      8  C   UNL     1      47.085  69.217  63.644  1.00  0.00     0.127 A 
ATOM      9  N   UNL     1      46.503  68.081  63.239  1.00  0.00    -0.340 N 
ATOM     10  H   UNL     1      46.855  67.375  62.555  1.00  0.00     0.168 HD
ENDROOT
BRANCH   7  11
ATOM     11  N   UNL     1      49.183  69.173  62.343  1.00  0.00    -0.382 N 
ATOM     12  H   UNL     1      49.317  68.138  62.353  1.00  0.00     0.158 HD
ATOM     13  H   UNL     1      49.702  69.737  61.635  1.00  0.00     0.158 HD
ENDBRANCH   7  11
TORSDOF 1
ENDMDL
MODEL 8
REMARK VINA RESULT:    -3.406     15.725     15.951
REMARK INTER + INTRA:          -3.506
REMARK INTER:                  -3.506
REMARK INTRA:                   0.000
REMARK UNBOUND:                 0.000
REMARK SMILES Nc1ncnc2nc[nH]c12
REMARK SMILES IDX 8 1 7 2 6 3 5 4 4 5 3 6 2 7 10 8 9 9 1 11
REMARK H PARENT 9 10 1 12 1 13
REMARK Flexibility Score: inf
ROOT
ATOM      1  C   UNL     1      56.495  57.869  49.259  1.00  0.00     0.199 A 
ATOM      2  N   UNL     1      55.790  57.243  48.277  1.00  0.00    -0.217 NA
ATOM      3  C   UNL     1      56.370  57.716  47.162  1.00  0.00     0.182 A 
ATOM      4  N   UNL     1      56.040  57.407  45.885  1.00  0.00    -0.215 NA
ATOM      5  C   UNL     1      56.751  57.993  44.875  1.00  0.00     0.226 A 
ATOM      6  N   UNL     1      57.768  58.870  45.157  1.00  0.00    -0.217 NA
ATOM      7  C   UNL     1      58.102  59.183  46.444  1.00  0.00     0.152 A 
ATOM      8  C   UNL     1      57.369  58.578  47.462  1.00  0.00     0.127 A 
ATOM      9  N   UNL     1      57.468  58.692  48.792  1.00  0.00    -0.340 N 
ATOM     10  H   UNL     1      58.133  59.272  49.350  1.00  0.00     0.168 HD
ENDROOT
BRANCH   7  11
ATOM     11  N   UNL     1      59.165  60.099  46.714  1.00  0.00    -0.382 N 
ATOM     12  H   UNL     1      58.950  61.059  47.066  1.00  0.00     0.158 HD
ATOM     13  H   UNL     1      60.163  59.833  46.568  1.00  0.00     0.158 HD
ENDBRANCH   7  11
TORSDOF 1
ENDMDL
MODEL 9
REMARK VINA RESULT:    -3.288     16.528     16.789
REMARK INTER + INTRA:          -3.385
REMARK INTER:                  -3.385
REMARK INTRA:                   0.000
REMARK UNBOUND:                 0.000
REMARK SMILES Nc1ncnc2nc[nH]c12
REMARK SMILES IDX 8 1 7 2 6 3 5 4 4 5 3 6 2 7 10 8 9 9 1 11
REMARK H PARENT 9 10 1 12 1 13
REMARK Flexibility Score: inf
ROOT
ATOM      1  C   UNL     1      56.765  57.049  44.875  1.00  0.00     0.199 A 
ATOM      2  N   UNL     1      56.105  57.330  46.033  1.00  0.00    -0.217 NA
ATOM      3  C   UNL     1      57.055  57.933  46.765  1.00  0.00     0.182 A 
ATOM      4  N   UNL     1      56.921  58.419  48.022  1.00  0.00    -0.215 NA
ATOM      5  C   UNL     1      58.010  59.004  48.608  1.00  0.00     0.226 A 
ATOM      6  N   UNL     1      59.201  59.092  47.933  1.00  0.00    -0.217 NA
ATOM      7  C   UNL     1      59.338  58.603  46.665  1.00  0.00     0.152 A 
ATOM      8  C   UNL     1      58.221  58.010  46.082  1.00  0.00     0.127 A 
ATOM      9  N   UNL     1      58.061  57.453  44.875  1.00  0.00    -0.340 N 
ATOM     10  H   UNL     1      58.760  57.348  44.106  1.00  0.00     0.168 HD
ENDROOT
BRANCH   7  11
ATOM     11  N   UNL     1      60.588  58.704  45.981  1.00  0.00    -0.382 N 
ATOM     12  H   UNL     1      60.622  59.086  45.009  1.00  0.00     0.158 HD
ATOM     13  H   UNL     1      61.481  58.404  46.430  1.00  0.00     0.158 HD
ENDBRANCH   7  11
TORSDOF 1
ENDMDL
