MODEL 1
REMARK VINA RESULT:    -5.894      0.000      0.000
REMARK INTER + INTRA:          -6.646
REMARK INTER:                  -6.411
REMARK INTRA:                  -0.235
REMARK UNBOUND:                -0.235
REMARK SMILES CC1=C2C[C@@H](C(C)(C)O)CC[C@]2(C)CCC1
REMARK SMILES IDX 6 1 7 2 8 3 5 4 1 5 2 6 3 7 16 8 4 9 12 10 15 11 11 12 14 13
REMARK SMILES IDX 13 14 10 15 9 16
REMARK H PARENT 9 17
REMARK Flexibility Score: inf
ROOT
ATOM      1  C   UNL     1      -1.070  23.477  52.837  1.00  0.00     0.062 C 
ATOM      2  C   UNL     1       0.165  23.592  51.904  1.00  0.00     0.042 C 
ATOM      3  C   UNL     1      -0.771  24.272  54.122  1.00  0.00     0.042 C 
ENDROOT
BRANCH   1   4
ATOM      4  C   UNL     1      -2.397  23.996  52.167  1.00  0.00     0.024 C 
ATOM      5  C   UNL     1      -3.861  22.311  48.835  1.00  0.00     0.039 C 
ATOM      6  C   UNL     1      -4.404  23.642  49.305  1.00  0.00    -0.074 C 
ATOM      7  C   UNL     1      -3.654  24.510  50.055  1.00  0.00    -0.065 C 
ATOM      8  C   UNL     1      -5.809  23.992  48.868  1.00  0.00     0.031 C 
ATOM      9  C   UNL     1      -2.298  24.106  50.626  1.00  0.00     0.038 C 
ATOM     10  C   UNL     1      -4.217  25.847  50.577  1.00  0.00    -0.011 C 
ATOM     11  C   UNL     1      -6.494  24.899  49.879  1.00  0.00     0.005 C 
ATOM     12  C   UNL     1      -4.249  25.774  52.130  1.00  0.00     0.011 C 
ATOM     13  C   UNL     1      -5.654  26.157  50.056  1.00  0.00     0.011 C 
ATOM     14  C   UNL     1      -3.313  27.019  50.118  1.00  0.00     0.016 C 
ATOM     15  C   UNL     1      -2.911  25.335  52.759  1.00  0.00     0.008 C 
ENDBRANCH   1   4
BRANCH   1  16
ATOM     16  O   UNL     1      -1.249  22.135  53.238  1.00  0.00    -0.390 OA
ATOM     17  H   UNL     1      -1.882  21.690  52.616  1.00  0.00     0.211 HD
ENDBRANCH   1  16
TORSDOF 2
ENDMDL
MODEL 2
REMARK VINA RESULT:    -5.873      4.139      7.239
REMARK INTER + INTRA:          -6.623
REMARK INTER:                  -6.396
REMARK INTRA:                  -0.227
REMARK UNBOUND:                -0.235
REMARK SMILES CC1=C2C[C@@H](C(C)(C)O)CC[C@]2(C)CCC1
REMARK SMILES IDX 6 1 7 2 8 3 5 4 1 5 2 6 3 7 16 8 4 9 12 10 15 11 11 12 14 13
REMARK SMILES IDX 13 14 10 15 9 16
REMARK H PARENT 9 17
REMARK Flexibility Score: inf
ROOT
ATOM      1  C   UNL     1      -4.698  22.707  47.935  1.00  0.00     0.062 C 
ATOM      2  C   UNL     1      -4.758  23.396  49.324  1.00  0.00     0.042 C 
ATOM      3  C   UNL     1      -4.424  23.792  46.876  1.00  0.00     0.042 C 
ENDROOT
BRANCH   1   4
ATOM      4  C   UNL     1      -3.605  21.575  47.857  1.00  0.00     0.024 C 
ATOM      5  C   UNL     1      -0.018  22.238  46.191  1.00  0.00     0.039 C 
ATOM      6  C   UNL     1      -0.460  20.822  46.487  1.00  0.00    -0.074 C 
ATOM      7  C   UNL     1      -1.782  20.467  46.534  1.00  0.00    -0.065 C 
ATOM      8  C   UNL     1       0.637  19.799  46.687  1.00  0.00     0.031 C 
ATOM      9  C   UNL     1      -2.892  21.512  46.485  1.00  0.00     0.038 C 
ATOM     10  C   UNL     1      -2.240  19.036  46.882  1.00  0.00    -0.011 C 
ATOM     11  C   UNL     1       0.190  18.682  47.617  1.00  0.00     0.005 C 
ATOM     12  C   UNL     1      -3.025  19.102  48.223  1.00  0.00     0.011 C 
ATOM     13  C   UNL     1      -1.058  18.030  47.036  1.00  0.00     0.011 C 
ATOM     14  C   UNL     1      -3.153  18.483  45.759  1.00  0.00     0.016 C 
ATOM     15  C   UNL     1      -4.137  20.168  48.240  1.00  0.00     0.008 C 
ENDBRANCH   1   4
BRANCH   1  16
ATOM     16  O   UNL     1      -5.958  22.155  47.615  1.00  0.00    -0.390 OA
ATOM     17  H   UNL     1      -6.645  22.871  47.649  1.00  0.00     0.211 HD
ENDBRANCH   1  16
TORSDOF 2
ENDMDL
MODEL 3
REMARK VINA RESULT:    -5.852      2.602      5.051
REMARK INTER + INTRA:          -6.600
REMARK INTER:                  -6.383
REMARK INTRA:                  -0.217
REMARK UNBOUND:                -0.235
REMARK SMILES CC1=C2C[C@@H](C(C)(C)O)CC[C@]2(C)CCC1
REMARK SMILES IDX 6 1 7 2 8 3 5 4 1 5 2 6 3 7 16 8 4 9 12 10 15 11 11 12 14 13
REMARK SMILES IDX 13 14 10 15 9 16
REMARK H PARENT 9 17
REMARK Flexibility Score: inf
ROOT
ATOM      1  C   UNL     1      -6.473  27.455  49.471  1.00  0.00     0.062 C 
ATOM      2  C   UNL     1      -5.993  28.903  49.192  1.00  0.00     0.042 C 
ATOM      3  C   UNL     1      -7.481  27.066  48.373  1.00  0.00     0.042 C 
ENDROOT
BRANCH   1   4
ATOM      4  C   UNL     1      -5.290  26.415  49.522  1.00  0.00     0.024 C 
ATOM      5  C   UNL     1      -5.697  22.705  48.055  1.00  0.00     0.039 C 
ATOM      6  C   UNL     1      -4.513  23.040  48.934  1.00  0.00    -0.074 C 
ATOM      7  C   UNL     1      -4.561  24.038  49.871  1.00  0.00    -0.065 C 
ATOM      8  C   UNL     1      -3.277  22.187  48.757  1.00  0.00     0.031 C 
ATOM      9  C   UNL     1      -5.743  25.000  49.954  1.00  0.00     0.038 C 
ATOM     10  C   UNL     1      -3.343  24.416  50.737  1.00  0.00    -0.011 C 
ATOM     11  C   UNL     1      -2.013  22.963  49.096  1.00  0.00     0.005 C 
ATOM     12  C   UNL     1      -2.927  25.868  50.363  1.00  0.00     0.011 C 
ATOM     13  C   UNL     1      -2.120  23.471  50.528  1.00  0.00     0.011 C 
ATOM     14  C   UNL     1      -3.714  24.341  52.240  1.00  0.00     0.016 C 
ATOM     15  C   UNL     1      -4.093  26.875  50.396  1.00  0.00     0.008 C 
ENDBRANCH   1   4
BRANCH   1  16
ATOM     16  O   UNL     1      -7.183  27.407  50.691  1.00  0.00    -0.390 OA
ATOM     17  H   UNL     1      -7.760  26.599  50.700  1.00  0.00     0.211 HD
ENDBRANCH   1  16
TORSDOF 2
ENDMDL
MODEL 4
REMARK VINA RESULT:    -5.743      2.506      4.034
REMARK INTER + INTRA:          -6.482
REMARK INTER:                  -6.258
REMARK INTRA:                  -0.224
REMARK UNBOUND:                -0.235
REMARK SMILES CC1=C2C[C@@H](C(C)(C)O)CC[C@]2(C)CCC1
REMARK SMILES IDX 6 1 7 2 8 3 5 4 1 5 2 6 3 7 16 8 4 9 12 10 15 11 11 12 14 13
REMARK SMILES IDX 13 14 10 15 9 16
REMARK H PARENT 9 17
REMARK Flexibility Score: inf
ROOT
ATOM      1  C   UNL     1      -4.250  26.578  51.545  1.00  0.00     0.062 C 
ATOM      2  C   UNL     1      -3.942  26.214  53.021  1.00  0.00     0.042 C 
ATOM      3  C   UNL     1      -3.072  27.411  51.004  1.00  0.00     0.042 C 
ENDROOT
BRANCH   1   4
ATOM      4  C   UNL     1      -4.489  25.313  50.637  1.00  0.00     0.024 C 
ATOM      5  C   UNL     1      -1.527  22.739  49.809  1.00  0.00     0.039 C 
ATOM      6  C   UNL     1      -2.815  22.682  49.018  1.00  0.00    -0.074 C 
ATOM      7  C   UNL     1      -3.614  23.782  48.849  1.00  0.00    -0.065 C 
ATOM      8  C   UNL     1      -3.161  21.354  48.382  1.00  0.00     0.031 C 
ATOM      9  C   UNL     1      -3.357  25.081  49.607  1.00  0.00     0.038 C 
ATOM     10  C   UNL     1      -4.952  23.720  48.085  1.00  0.00    -0.011 C 
ATOM     11  C   UNL     1      -4.666  21.178  48.248  1.00  0.00     0.005 C 
ATOM     12  C   UNL     1      -6.092  24.028  49.098  1.00  0.00     0.011 C 
ATOM     13  C   UNL     1      -5.223  22.332  47.426  1.00  0.00     0.011 C 
ATOM     14  C   UNL     1      -4.961  24.767  46.942  1.00  0.00     0.016 C 
ATOM     15  C   UNL     1      -5.864  25.313  49.918  1.00  0.00     0.008 C 
ENDBRANCH   1   4
BRANCH   1  16
ATOM     16  O   UNL     1      -5.385  27.414  51.479  1.00  0.00    -0.390 OA
ATOM     17  H   UNL     1      -5.704  27.458  50.540  1.00  0.00     0.211 HD
ENDBRANCH   1  16
TORSDOF 2
ENDMDL
MODEL 5
REMARK VINA RESULT:    -5.703      3.818      5.552
REMARK INTER + INTRA:          -6.438
REMARK INTER:                  -6.175
REMARK INTRA:                  -0.264
REMARK UNBOUND:                -0.235
REMARK SMILES CC1=C2C[C@@H](C(C)(C)O)CC[C@]2(C)CCC1
REMARK SMILES IDX 6 1 7 2 8 3 5 4 1 5 2 6 3 7 16 8 4 9 12 10 15 11 11 12 14 13
REMARK SMILES IDX 13 14 10 15 9 16
REMARK H PARENT 9 17
REMARK Flexibility Score: inf
ROOT
ATOM      1  C   UNL     1      -2.821  19.199  46.972  1.00  0.00     0.062 C 
ATOM      2  C   UNL     1      -1.311  19.237  46.618  1.00  0.00     0.042 C 
ATOM      3  C   UNL     1      -2.968  18.557  48.365  1.00  0.00     0.042 C 
ENDROOT
BRANCH   1   4
ATOM      4  C   UNL     1      -3.493  20.624  46.951  1.00  0.00     0.024 C 
ATOM      5  C   UNL     1      -1.672  23.775  45.266  1.00  0.00     0.039 C 
ATOM      6  C   UNL     1      -2.876  23.989  46.154  1.00  0.00    -0.074 C 
ATOM      7  C   UNL     1      -3.212  23.111  47.151  1.00  0.00    -0.065 C 
ATOM      8  C   UNL     1      -3.676  25.251  45.917  1.00  0.00     0.031 C 
ATOM      9  C   UNL     1      -2.508  21.766  47.300  1.00  0.00     0.038 C 
ATOM     10  C   UNL     1      -4.466  23.299  48.028  1.00  0.00    -0.011 C 
ATOM     11  C   UNL     1      -5.138  25.062  46.293  1.00  0.00     0.005 C 
ATOM     12  C   UNL     1      -5.430  22.113  47.740  1.00  0.00     0.011 C 
ATOM     13  C   UNL     1      -5.217  24.638  47.753  1.00  0.00     0.011 C 
ATOM     14  C   UNL     1      -4.069  23.308  49.526  1.00  0.00     0.016 C 
ATOM     15  C   UNL     1      -4.759  20.729  47.842  1.00  0.00     0.008 C 
ENDBRANCH   1   4
BRANCH   1  16
ATOM     16  O   UNL     1      -3.507  18.352  46.075  1.00  0.00    -0.390 OA
ATOM     17  H   UNL     1      -4.179  17.821  46.578  1.00  0.00     0.211 HD
ENDBRANCH   1  16
TORSDOF 2
ENDMDL
MODEL 6
REMARK VINA RESULT:    -5.654      2.522      4.581
REMARK INTER + INTRA:          -6.385
REMARK INTER:                  -6.139
REMARK INTRA:                  -0.246
REMARK UNBOUND:                -0.235
REMARK SMILES CC1=C2C[C@@H](C(C)(C)O)CC[C@]2(C)CCC1
REMARK SMILES IDX 6 1 7 2 8 3 5 4 1 5 2 6 3 7 16 8 4 9 12 10 15 11 11 12 14 13
REMARK SMILES IDX 13 14 10 15 9 16
REMARK H PARENT 9 17
REMARK Flexibility Score: inf
ROOT
ATOM      1  C   UNL     1      -3.783  22.476  47.627  1.00  0.00     0.062 C 
ATOM      2  C   UNL     1      -2.571  21.713  48.223  1.00  0.00     0.042 C 
ATOM      3  C   UNL     1      -5.009  21.545  47.686  1.00  0.00     0.042 C 
ENDROOT
BRANCH   1   4
ATOM      4  C   UNL     1      -4.085  23.829  48.376  1.00  0.00     0.024 C 
ATOM      5  C   UNL     1      -3.356  24.264  52.295  1.00  0.00     0.039 C 
ATOM      6  C   UNL     1      -4.201  25.287  51.570  1.00  0.00    -0.074 C 
ATOM      7  C   UNL     1      -4.923  24.972  50.448  1.00  0.00    -0.065 C 
ATOM      8  C   UNL     1      -4.247  26.675  52.170  1.00  0.00     0.031 C 
ATOM      9  C   UNL     1      -4.767  23.624  49.750  1.00  0.00     0.038 C 
ATOM     10  C   UNL     1      -5.748  26.021  49.677  1.00  0.00    -0.011 C 
ATOM     11  C   UNL     1      -4.480  27.733  51.102  1.00  0.00     0.005 C 
ATOM     12  C   UNL     1      -5.116  26.178  48.265  1.00  0.00     0.011 C 
ATOM     13  C   UNL     1      -5.780  27.416  50.374  1.00  0.00     0.011 C 
ATOM     14  C   UNL     1      -7.220  25.551  49.551  1.00  0.00     0.016 C 
ATOM     15  C   UNL     1      -4.902  24.841  47.528  1.00  0.00     0.008 C 
ENDBRANCH   1   4
BRANCH   1  16
ATOM     16  O   UNL     1      -3.560  22.745  46.259  1.00  0.00    -0.390 OA
ATOM     17  H   UNL     1      -3.464  21.887  45.769  1.00  0.00     0.211 HD
ENDBRANCH   1  16
TORSDOF 2
ENDMDL
MODEL 7
REMARK VINA RESULT:    -5.591      3.299      4.401
REMARK INTER + INTRA:          -6.316
REMARK INTER:                  -6.089
REMARK INTRA:                  -0.227
REMARK UNBOUND:                -0.235
REMARK SMILES CC1=C2C[C@@H](C(C)(C)O)CC[C@]2(C)CCC1
REMARK SMILES IDX 6 1 7 2 8 3 5 4 1 5 2 6 3 7 16 8 4 9 12 10 15 11 11 12 14 13
REMARK SMILES IDX 13 14 10 15 9 16
REMARK H PARENT 9 17
REMARK Flexibility Score: inf
ROOT
ATOM      1  C   UNL     1      -3.913  22.385  47.747  1.00  0.00     0.062 C 
ATOM      2  C   UNL     1      -2.391  22.639  47.909  1.00  0.00     0.042 C 
ATOM      3  C   UNL     1      -4.262  21.086  48.500  1.00  0.00     0.042 C 
ENDROOT
BRANCH   1   4
ATOM      4  C   UNL     1      -4.795  23.578  48.276  1.00  0.00     0.024 C 
ATOM      5  C   UNL     1      -5.978  26.545  45.849  1.00  0.00     0.039 C 
ATOM      6  C   UNL     1      -6.115  26.699  47.347  1.00  0.00    -0.074 C 
ATOM      7  C   UNL     1      -5.296  26.038  48.226  1.00  0.00    -0.065 C 
ATOM      8  C   UNL     1      -7.178  27.658  47.834  1.00  0.00     0.031 C 
ATOM      9  C   UNL     1      -4.326  24.958  47.755  1.00  0.00     0.038 C 
ATOM     10  C   UNL     1      -5.462  26.153  49.754  1.00  0.00    -0.011 C 
ATOM     11  C   UNL     1      -7.712  27.249  49.199  1.00  0.00     0.005 C 
ATOM     12  C   UNL     1      -5.859  24.751  50.296  1.00  0.00     0.011 C 
ATOM     13  C   UNL     1      -6.549  27.187  50.181  1.00  0.00     0.011 C 
ATOM     14  C   UNL     1      -4.130  26.614  50.399  1.00  0.00     0.016 C 
ATOM     15  C   UNL     1      -4.931  23.616  49.821  1.00  0.00     0.008 C 
ENDBRANCH   1   4
BRANCH   1  16
ATOM     16  O   UNL     1      -4.223  22.147  46.390  1.00  0.00    -0.390 OA
ATOM     17  H   UNL     1      -5.058  21.613  46.335  1.00  0.00     0.211 HD
ENDBRANCH   1  16
TORSDOF 2
ENDMDL
MODEL 8
REMARK VINA RESULT:    -5.497      1.174      1.725
REMARK INTER + INTRA:          -6.214
REMARK INTER:                  -5.955
REMARK INTRA:                  -0.259
REMARK UNBOUND:                -0.235
REMARK SMILES CC1=C2C[C@@H](C(C)(C)O)CC[C@]2(C)CCC1
REMARK SMILES IDX 6 1 7 2 8 3 5 4 1 5 2 6 3 7 16 8 4 9 12 10 15 11 11 12 14 13
REMARK SMILES IDX 13 14 10 15 9 16
REMARK H PARENT 9 17
REMARK Flexibility Score: inf
ROOT
ATOM      1  C   UNL     1      -1.467  23.672  52.736  1.00  0.00     0.062 C 
ATOM      2  C   UNL     1      -0.037  23.726  52.137  1.00  0.00     0.042 C 
ATOM      3  C   UNL     1      -1.670  24.932  53.600  1.00  0.00     0.042 C 
ENDROOT
BRANCH   1   4
ATOM      4  C   UNL     1      -2.590  23.573  51.637  1.00  0.00     0.024 C 
ATOM      5  C   UNL     1      -1.897  21.856  48.079  1.00  0.00     0.039 C 
ATOM      6  C   UNL     1      -3.145  22.686  48.284  1.00  0.00    -0.074 C 
ATOM      7  C   UNL     1      -3.204  23.697  49.205  1.00  0.00    -0.065 C 
ATOM      8  C   UNL     1      -4.320  22.372  47.385  1.00  0.00     0.031 C 
ATOM      9  C   UNL     1      -2.084  23.923  50.217  1.00  0.00     0.038 C 
ATOM     10  C   UNL     1      -4.487  24.515  49.452  1.00  0.00    -0.011 C 
ATOM     11  C   UNL     1      -5.642  22.693  48.066  1.00  0.00     0.005 C 
ATOM     12  C   UNL     1      -4.962  24.229  50.905  1.00  0.00     0.011 C 
ATOM     13  C   UNL     1      -5.643  24.163  48.464  1.00  0.00     0.011 C 
ATOM     14  C   UNL     1      -4.196  26.027  49.277  1.00  0.00     0.016 C 
ATOM     15  C   UNL     1      -3.857  24.407  51.965  1.00  0.00     0.008 C 
ENDBRANCH   1   4
BRANCH   1  16
ATOM     16  O   UNL     1      -1.582  22.572  53.614  1.00  0.00    -0.390 OA
ATOM     17  H   UNL     1      -1.029  21.822  53.272  1.00  0.00     0.211 HD
ENDBRANCH   1  16
TORSDOF 2
ENDMDL
MODEL 9
REMARK VINA RESULT:    -5.334      2.902      3.814
REMARK INTER + INTRA:          -6.037
REMARK INTER:                  -5.833
REMARK INTRA:                  -0.204
REMARK UNBOUND:                -0.235
REMARK SMILES CC1=C2C[C@@H](C(C)(C)O)CC[C@]2(C)CCC1
REMARK SMILES IDX 6 1 7 2 8 3 5 4 1 5 2 6 3 7 16 8 4 9 12 10 15 11 11 12 14 13
REMARK SMILES IDX 13 14 10 15 9 16
REMARK H PARENT 9 17
REMARK Flexibility Score: inf
ROOT
ATOM      1  C   UNL     1      -3.405  27.454  52.501  1.00  0.00     0.062 C 
ATOM      2  C   UNL     1      -3.680  26.980  53.953  1.00  0.00     0.042 C 
ATOM      3  C   UNL     1      -1.930  27.892  52.415  1.00  0.00     0.042 C 
ENDROOT
BRANCH   1   4
ATOM      4  C   UNL     1      -3.712  26.346  51.424  1.00  0.00     0.024 C 
ATOM      5  C   UNL     1      -2.754  26.855  47.563  1.00  0.00     0.039 C 
ATOM      6  C   UNL     1      -3.682  25.732  47.966  1.00  0.00    -0.074 C 
ATOM      7  C   UNL     1      -4.460  25.797  49.091  1.00  0.00    -0.065 C 
ATOM      8  C   UNL     1      -3.744  24.539  47.037  1.00  0.00     0.031 C 
ATOM      9  C   UNL     1      -4.296  26.920  50.111  1.00  0.00     0.038 C 
ATOM     10  C   UNL     1      -5.373  24.636  49.533  1.00  0.00    -0.011 C 
ATOM     11  C   UNL     1      -4.085  23.264  47.792  1.00  0.00     0.005 C 
ATOM     12  C   UNL     1      -4.838  24.101  50.892  1.00  0.00     0.011 C 
ATOM     13  C   UNL     1      -5.415  23.460  48.508  1.00  0.00     0.011 C 
ATOM     14  C   UNL     1      -6.830  25.137  49.697  1.00  0.00     0.016 C 
ATOM     15  C   UNL     1      -4.619  25.202  51.949  1.00  0.00     0.008 C 
ENDBRANCH   1   4
BRANCH   1  16
ATOM     16  O   UNL     1      -4.172  28.603  52.214  1.00  0.00    -0.390 OA
ATOM     17  H   UNL     1      -5.007  28.331  51.751  1.00  0.00     0.211 HD
ENDBRANCH   1  16
TORSDOF 2
ENDMDL
