MODEL 1
REMARK VINA RESULT:    -5.929      0.000      0.000
REMARK INTER + INTRA:         -11.778
REMARK INTER:                 -10.435
REMARK INTRA:                  -1.343
REMARK UNBOUND:                -1.343
REMARK SMILES CCCCCCCCCCCCCCC(=O)[O-]
REMARK SMILES IDX 9 1 10 2 11 3 12 4 13 5 14 6 15 7 16 8 17 9 8 10 7 11 6 12
REMARK SMILES IDX 5 13 4 14 3 15 2 16 1 17
REMARK H PARENT
REMARK Flexibility Score: inf
ROOT
ATOM      1  C   UNL     1      25.044  -0.026  62.033  1.00  0.00     0.000 C 
ENDROOT
BRANCH   1   2
ATOM      2  C   UNL     1      25.869   1.083  62.703  1.00  0.00     0.000 C 
BRANCH   2   3
ATOM      3  C   UNL     1      25.509   2.484  62.185  1.00  0.00     0.000 C 
BRANCH   3   4
ATOM      4  C   UNL     1      23.991   2.705  62.083  1.00  0.00     0.000 C 
BRANCH   4   5
ATOM      5  C   UNL     1      23.464   3.690  63.140  1.00  0.00     0.006 C 
BRANCH   5   6
ATOM      6  C   UNL     1      22.823   2.979  64.340  1.00  0.00     0.053 C 
BRANCH   6   7
ATOM      7  C   UNL     1      23.721   3.057  65.533  1.00  0.00     0.041 C 
ATOM      8  O   UNL     1      24.921   3.416  65.402  1.00  0.00    -0.550 OA
ATOM      9  O   UNL     1      23.247   2.684  66.785  1.00  0.00    -0.550 OA
ENDBRANCH   6   7
ENDBRANCH   5   6
ENDBRANCH   4   5
ENDBRANCH   3   4
ENDBRANCH   2   3
ENDBRANCH   1   2
BRANCH   1  10
ATOM     10  C   UNL     1      25.953  -1.155  61.525  1.00  0.00     0.000 C 
BRANCH  10  11
ATOM     11  C   UNL     1      25.540  -2.536  62.057  1.00  0.00    -0.000 C 
BRANCH  11  12
ATOM     12  C   UNL     1      25.425  -3.589  60.941  1.00  0.00    -0.000 C 
BRANCH  12  13
ATOM     13  C   UNL     1      25.360  -2.959  59.540  1.00  0.00    -0.000 C 
BRANCH  13  14
ATOM     14  C   UNL     1      23.965  -3.072  58.901  1.00  0.00    -0.000 C 
BRANCH  14  15
ATOM     15  C   UNL     1      22.925  -3.703  59.845  1.00  0.00    -0.000 C 
BRANCH  15  16
ATOM     16  C   UNL     1      21.695  -2.823  60.128  1.00  0.00    -0.003 C 
ATOM     17  C   UNL     1      21.904  -1.862  61.297  1.00  0.00     0.004 C 
ENDBRANCH  15  16
ENDBRANCH  14  15
ENDBRANCH  13  14
ENDBRANCH  12  13
ENDBRANCH  11  12
ENDBRANCH  10  11
ENDBRANCH   1  10
TORSDOF 13
ENDMDL
MODEL 2
REMARK VINA RESULT:    -5.905      3.520      6.718
REMARK INTER + INTRA:         -11.735
REMARK INTER:                 -10.347
REMARK INTRA:                  -1.388
REMARK UNBOUND:                -1.343
REMARK SMILES CCCCCCCCCCCCCCC(=O)[O-]
REMARK SMILES IDX 9 1 10 2 11 3 12 4 13 5 14 6 15 7 16 8 17 9 8 10 7 11 6 12
REMARK SMILES IDX 5 13 4 14 3 15 2 16 1 17
REMARK H PARENT
REMARK Flexibility Score: inf
ROOT
ATOM      1  C   UNL     1      25.927   1.188  62.745  1.00  0.00     0.000 C 
ENDROOT
BRANCH   1   2
ATOM      2  C   UNL     1      25.084   0.139  62.003  1.00  0.00     0.000 C 
BRANCH   2   3
ATOM      3  C   UNL     1      25.880  -1.132  61.670  1.00  0.00     0.000 C 
BRANCH   3   4
ATOM      4  C   UNL     1      25.120  -2.419  62.034  1.00  0.00     0.000 C 
BRANCH   4   5
ATOM      5  C   UNL     1      23.742  -2.503  61.357  1.00  0.00     0.006 C 
BRANCH   5   6
ATOM      6  C   UNL     1      23.662  -3.635  60.323  1.00  0.00     0.053 C 
BRANCH   6   7
ATOM      7  C   UNL     1      24.037  -3.129  58.967  1.00  0.00     0.041 C 
ATOM      8  O   UNL     1      25.248  -3.068  58.624  1.00  0.00    -0.550 OA
ATOM      9  O   UNL     1      23.053  -2.676  58.097  1.00  0.00    -0.550 OA
ENDBRANCH   6   7
ENDBRANCH   5   6
ENDBRANCH   4   5
ENDBRANCH   3   4
ENDBRANCH   2   3
ENDBRANCH   1   2
BRANCH   1  10
ATOM     10  C   UNL     1      25.513   2.610  62.340  1.00  0.00     0.000 C 
BRANCH  10  11
ATOM     11  C   UNL     1      25.408   3.563  63.541  1.00  0.00    -0.000 C 
BRANCH  11  12
ATOM     12  C   UNL     1      25.142   2.820  64.862  1.00  0.00    -0.000 C 
BRANCH  12  13
ATOM     13  C   UNL     1      23.740   3.102  65.425  1.00  0.00    -0.000 C 
BRANCH  13  14
ATOM     14  C   UNL     1      22.713   3.430  64.327  1.00  0.00    -0.000 C 
BRANCH  14  15
ATOM     15  C   UNL     1      21.770   2.252  64.020  1.00  0.00    -0.000 C 
BRANCH  15  16
ATOM     16  C   UNL     1      21.892   1.684  62.595  1.00  0.00    -0.003 C 
ATOM     17  C   UNL     1      21.249   0.306  62.443  1.00  0.00     0.004 C 
ENDBRANCH  15  16
ENDBRANCH  14  15
ENDBRANCH  13  14
ENDBRANCH  12  13
ENDBRANCH  11  12
ENDBRANCH  10  11
ENDBRANCH   1  10
TORSDOF 13
ENDMDL
MODEL 3
REMARK VINA RESULT:    -5.895      3.508      6.995
REMARK INTER + INTRA:         -11.718
REMARK INTER:                 -10.373
REMARK INTRA:                  -1.345
REMARK UNBOUND:                -1.343
REMARK SMILES CCCCCCCCCCCCCCC(=O)[O-]
REMARK SMILES IDX 9 1 10 2 11 3 12 4 13 5 14 6 15 7 16 8 17 9 8 10 7 11 6 12
REMARK SMILES IDX 5 13 4 14 3 15 2 16 1 17
REMARK H PARENT
REMARK Flexibility Score: inf
ROOT
ATOM      1  C   UNL     1      25.015  -0.076  62.197  1.00  0.00     0.000 C 
ENDROOT
BRANCH   1   2
ATOM      2  C   UNL     1      25.895  -1.169  61.572  1.00  0.00     0.000 C 
BRANCH   2   3
ATOM      3  C   UNL     1      25.544  -2.576  62.082  1.00  0.00     0.000 C 
BRANCH   3   4
ATOM      4  C   UNL     1      24.027  -2.819  62.151  1.00  0.00     0.000 C 
BRANCH   4   5
ATOM      5  C   UNL     1      23.530  -3.772  61.051  1.00  0.00     0.006 C 
BRANCH   5   6
ATOM      6  C   UNL     1      22.857  -3.031  59.889  1.00  0.00     0.053 C 
BRANCH   6   7
ATOM      7  C   UNL     1      23.743  -3.033  58.685  1.00  0.00     0.041 C 
ATOM      8  O   UNL     1      24.965  -3.316  58.797  1.00  0.00    -0.550 OA
ATOM      9  O   UNL     1      23.232  -2.673  57.444  1.00  0.00    -0.550 OA
ENDBRANCH   6   7
ENDBRANCH   5   6
ENDBRANCH   4   5
ENDBRANCH   3   4
ENDBRANCH   2   3
ENDBRANCH   1   2
BRANCH   1  10
ATOM     10  C   UNL     1      25.877   1.063  62.763  1.00  0.00     0.000 C 
BRANCH  10  11
ATOM     11  C   UNL     1      25.496   2.437  62.189  1.00  0.00    -0.000 C 
BRANCH  11  12
ATOM     12  C   UNL     1      25.459   3.537  63.265  1.00  0.00    -0.000 C 
BRANCH  12  13
ATOM     13  C   UNL     1      25.477   2.966  64.693  1.00  0.00    -0.000 C 
BRANCH  13  14
ATOM     14  C   UNL     1      24.129   3.130  65.415  1.00  0.00    -0.000 C 
BRANCH  14  15
ATOM     15  C   UNL     1      22.979   3.495  64.458  1.00  0.00    -0.000 C 
BRANCH  15  16
ATOM     16  C   UNL     1      21.891   2.415  64.317  1.00  0.00    -0.003 C 
ATOM     17  C   UNL     1      21.790   1.849  62.902  1.00  0.00     0.004 C 
ENDBRANCH  15  16
ENDBRANCH  14  15
ENDBRANCH  13  14
ENDBRANCH  12  13
ENDBRANCH  11  12
ENDBRANCH  10  11
ENDBRANCH   1  10
TORSDOF 13
ENDMDL
MODEL 4
REMARK VINA RESULT:    -5.826      0.920      1.632
REMARK INTER + INTRA:         -11.596
REMARK INTER:                 -10.026
REMARK INTRA:                  -1.570
REMARK UNBOUND:                -1.343
REMARK SMILES CCCCCCCCCCCCCCC(=O)[O-]
REMARK SMILES IDX 9 1 10 2 11 3 12 4 13 5 14 6 15 7 16 8 17 9 8 10 7 11 6 12
REMARK SMILES IDX 5 13 4 14 3 15 2 16 1 17
REMARK H PARENT
REMARK Flexibility Score: inf
ROOT
ATOM      1  C   UNL     1      25.140   0.007  61.976  1.00  0.00     0.000 C 
ENDROOT
BRANCH   1   2
ATOM      2  C   UNL     1      25.861   1.136  62.727  1.00  0.00     0.000 C 
BRANCH   2   3
ATOM      3  C   UNL     1      25.481   2.531  62.207  1.00  0.00     0.000 C 
BRANCH   3   4
ATOM      4  C   UNL     1      23.959   2.731  62.110  1.00  0.00     0.000 C 
BRANCH   4   5
ATOM      5  C   UNL     1      23.422   3.709  63.167  1.00  0.00     0.006 C 
BRANCH   5   6
ATOM      6  C   UNL     1      22.730   2.993  64.335  1.00  0.00     0.053 C 
BRANCH   6   7
ATOM      7  C   UNL     1      23.600   3.017  65.551  1.00  0.00     0.041 C 
ATOM      8  O   UNL     1      23.136   2.673  66.670  1.00  0.00    -0.550 OA
ATOM      9  O   UNL     1      24.911   3.466  65.459  1.00  0.00    -0.550 OA
ENDBRANCH   6   7
ENDBRANCH   5   6
ENDBRANCH   4   5
ENDBRANCH   3   4
ENDBRANCH   2   3
ENDBRANCH   1   2
BRANCH   1  10
ATOM     10  C   UNL     1      26.130  -1.084  61.542  1.00  0.00     0.000 C 
BRANCH  10  11
ATOM     11  C   UNL     1      25.436  -2.400  61.161  1.00  0.00    -0.000 C 
BRANCH  11  12
ATOM     12  C   UNL     1      24.799  -3.103  62.374  1.00  0.00    -0.000 C 
BRANCH  12  13
ATOM     13  C   UNL     1      23.371  -3.596  62.087  1.00  0.00    -0.000 C 
BRANCH  13  14
ATOM     14  C   UNL     1      22.858  -3.158  60.704  1.00  0.00    -0.000 C 
BRANCH  14  15
ATOM     15  C   UNL     1      21.720  -2.124  60.789  1.00  0.00    -0.000 C 
BRANCH  15  16
ATOM     16  C   UNL     1      21.739  -1.249  62.054  1.00  0.00    -0.003 C 
ATOM     17  C   UNL     1      21.244   0.175  61.804  1.00  0.00     0.004 C 
ENDBRANCH  15  16
ENDBRANCH  14  15
ENDBRANCH  13  14
ENDBRANCH  12  13
ENDBRANCH  11  12
ENDBRANCH  10  11
ENDBRANCH   1  10
TORSDOF 13
ENDMDL
MODEL 5
REMARK VINA RESULT:    -5.820      1.393      1.614
REMARK INTER + INTRA:         -11.586
REMARK INTER:                 -10.222
REMARK INTRA:                  -1.365
REMARK UNBOUND:                -1.343
REMARK SMILES CCCCCCCCCCCCCCC(=O)[O-]
REMARK SMILES IDX 9 1 10 2 11 3 12 4 13 5 14 6 15 7 16 8 17 9 8 10 7 11 6 12
REMARK SMILES IDX 5 13 4 14 3 15 2 16 1 17
REMARK H PARENT
REMARK Flexibility Score: inf
ROOT
ATOM      1  C   UNL     1      25.043   0.006  62.071  1.00  0.00     0.000 C 
ENDROOT
BRANCH   1   2
ATOM      2  C   UNL     1      25.897   1.106  62.720  1.00  0.00     0.000 C 
BRANCH   2   3
ATOM      3  C   UNL     1      25.470   2.518  62.289  1.00  0.00     0.000 C 
BRANCH   3   4
ATOM      4  C   UNL     1      25.468   3.518  63.458  1.00  0.00     0.000 C 
BRANCH   4   5
ATOM      5  C   UNL     1      24.049   3.849  63.949  1.00  0.00     0.006 C 
BRANCH   5   6
ATOM      6  C   UNL     1      22.971   3.500  62.915  1.00  0.00     0.053 C 
BRANCH   6   7
ATOM      7  C   UNL     1      22.008   2.505  63.481  1.00  0.00     0.041 C 
ATOM      8  O   UNL     1      21.509   1.614  62.744  1.00  0.00    -0.550 OA
ATOM      9  O   UNL     1      21.621   2.592  64.812  1.00  0.00    -0.550 OA
ENDBRANCH   6   7
ENDBRANCH   5   6
ENDBRANCH   4   5
ENDBRANCH   3   4
ENDBRANCH   2   3
ENDBRANCH   1   2
BRANCH   1  10
ATOM     10  C   UNL     1      25.929  -1.122  61.520  1.00  0.00     0.000 C 
BRANCH  10  11
ATOM     11  C   UNL     1      25.547  -2.502  62.076  1.00  0.00    -0.000 C 
BRANCH  11  12
ATOM     12  C   UNL     1      25.405  -3.565  60.972  1.00  0.00    -0.000 C 
BRANCH  12  13
ATOM     13  C   UNL     1      25.357  -2.950  59.564  1.00  0.00    -0.000 C 
BRANCH  13  14
ATOM     14  C   UNL     1      23.966  -3.057  58.916  1.00  0.00    -0.000 C 
BRANCH  14  15
ATOM     15  C   UNL     1      22.877  -3.501  59.910  1.00  0.00    -0.000 C 
BRANCH  15  16
ATOM     16  C   UNL     1      21.767  -2.463  60.155  1.00  0.00    -0.003 C 
ATOM     17  C   UNL     1      21.873  -1.784  61.520  1.00  0.00     0.004 C 
ENDBRANCH  15  16
ENDBRANCH  14  15
ENDBRANCH  13  14
ENDBRANCH  12  13
ENDBRANCH  11  12
ENDBRANCH  10  11
ENDBRANCH   1  10
TORSDOF 13
ENDMDL
MODEL 6
REMARK VINA RESULT:    -5.758      2.897      6.583
REMARK INTER + INTRA:         -11.477
REMARK INTER:                 -10.036
REMARK INTRA:                  -1.440
REMARK UNBOUND:                -1.343
REMARK SMILES CCCCCCCCCCCCCCC(=O)[O-]
REMARK SMILES IDX 9 1 10 2 11 3 12 4 13 5 14 6 15 7 16 8 17 9 8 10 7 11 6 12
REMARK SMILES IDX 5 13 4 14 3 15 2 16 1 17
REMARK H PARENT
REMARK Flexibility Score: inf
ROOT
ATOM      1  C   UNL     1      25.022  -0.003  62.241  1.00  0.00     0.000 C 
ENDROOT
BRANCH   1   2
ATOM      2  C   UNL     1      25.914  -1.091  61.625  1.00  0.00     0.000 C 
BRANCH   2   3
ATOM      3  C   UNL     1      25.465  -2.511  62.007  1.00  0.00     0.000 C 
BRANCH   3   4
ATOM      4  C   UNL     1      25.475  -3.477  60.810  1.00  0.00     0.000 C 
BRANCH   4   5
ATOM      5  C   UNL     1      24.219  -3.343  59.932  1.00  0.00     0.006 C 
BRANCH   5   6
ATOM      6  C   UNL     1      22.926  -3.626  60.708  1.00  0.00     0.053 C 
BRANCH   6   7
ATOM      7  C   UNL     1      22.007  -2.449  60.636  1.00  0.00     0.041 C 
ATOM      8  O   UNL     1      21.787  -1.752  61.662  1.00  0.00    -0.550 OA
ATOM      9  O   UNL     1      21.352  -2.149  59.448  1.00  0.00    -0.550 OA
ENDBRANCH   6   7
ENDBRANCH   5   6
ENDBRANCH   4   5
ENDBRANCH   3   4
ENDBRANCH   2   3
ENDBRANCH   1   2
BRANCH   1  10
ATOM     10  C   UNL     1      25.867   1.176  62.748  1.00  0.00     0.000 C 
BRANCH  10  11
ATOM     11  C   UNL     1      25.444   2.518  62.132  1.00  0.00    -0.000 C 
BRANCH  11  12
ATOM     12  C   UNL     1      25.163   3.594  63.197  1.00  0.00    -0.000 C 
BRANCH  12  13
ATOM     13  C   UNL     1      25.258   3.044  64.630  1.00  0.00    -0.000 C 
BRANCH  13  14
ATOM     14  C   UNL     1      23.895   3.004  65.342  1.00  0.00    -0.000 C 
BRANCH  14  15
ATOM     15  C   UNL     1      22.726   3.395  64.419  1.00  0.00    -0.000 C 
BRANCH  15  16
ATOM     16  C   UNL     1      21.704   2.274  64.164  1.00  0.00    -0.003 C 
ATOM     17  C   UNL     1      21.782   1.703  62.749  1.00  0.00     0.004 C 
ENDBRANCH  15  16
ENDBRANCH  14  15
ENDBRANCH  13  14
ENDBRANCH  12  13
ENDBRANCH  11  12
ENDBRANCH  10  11
ENDBRANCH   1  10
TORSDOF 13
ENDMDL
MODEL 7
REMARK VINA RESULT:    -5.722      1.329      3.309
REMARK INTER + INTRA:         -11.413
REMARK INTER:                  -9.896
REMARK INTRA:                  -1.517
REMARK UNBOUND:                -1.343
REMARK SMILES CCCCCCCCCCCCCCC(=O)[O-]
REMARK SMILES IDX 9 1 10 2 11 3 12 4 13 5 14 6 15 7 16 8 17 9 8 10 7 11 6 12
REMARK SMILES IDX 5 13 4 14 3 15 2 16 1 17
REMARK H PARENT
REMARK Flexibility Score: inf
ROOT
ATOM      1  C   UNL     1      21.860  -1.296  61.842  1.00  0.00     0.000 C 
ENDROOT
BRANCH   1   2
ATOM      2  C   UNL     1      21.081   0.004  62.089  1.00  0.00     0.000 C 
BRANCH   2   3
ATOM      3  C   UNL     1      22.002   1.217  62.295  1.00  0.00     0.000 C 
BRANCH   3   4
ATOM      4  C   UNL     1      21.701   1.974  63.600  1.00  0.00     0.000 C 
BRANCH   4   5
ATOM      5  C   UNL     1      22.336   3.373  63.633  1.00  0.00     0.006 C 
BRANCH   5   6
ATOM      6  C   UNL     1      23.460   3.534  62.600  1.00  0.00     0.053 C 
BRANCH   6   7
ATOM      7  C   UNL     1      24.784   3.654  63.284  1.00  0.00     0.041 C 
ATOM      8  O   UNL     1      25.851   3.595  62.617  1.00  0.00    -0.550 OA
ATOM      9  O   UNL     1      24.844   3.783  64.666  1.00  0.00    -0.550 OA
ENDBRANCH   6   7
ENDBRANCH   5   6
ENDBRANCH   4   5
ENDBRANCH   3   4
ENDBRANCH   2   3
ENDBRANCH   1   2
BRANCH   1  10
ATOM     10  C   UNL     1      21.556  -1.861  60.447  1.00  0.00     0.000 C 
BRANCH  10  11
ATOM     11  C   UNL     1      22.268  -3.196  60.178  1.00  0.00    -0.000 C 
BRANCH  11  12
ATOM     12  C   UNL     1      23.398  -3.065  59.141  1.00  0.00    -0.000 C 
BRANCH  12  13
ATOM     13  C   UNL     1      24.780  -3.390  59.730  1.00  0.00    -0.000 C 
BRANCH  13  14
ATOM     14  C   UNL     1      24.714  -3.792  61.214  1.00  0.00    -0.000 C 
BRANCH  14  15
ATOM     15  C   UNL     1      25.300  -2.718  62.150  1.00  0.00    -0.000 C 
BRANCH  15  16
ATOM     16  C   UNL     1      25.838  -1.466  61.436  1.00  0.00    -0.003 C 
ATOM     17  C   UNL     1      25.459  -0.165  62.142  1.00  0.00     0.004 C 
ENDBRANCH  15  16
ENDBRANCH  14  15
ENDBRANCH  13  14
ENDBRANCH  12  13
ENDBRANCH  11  12
ENDBRANCH  10  11
ENDBRANCH   1  10
TORSDOF 13
ENDMDL
MODEL 8
REMARK VINA RESULT:    -5.596      1.377      3.230
REMARK INTER + INTRA:         -11.191
REMARK INTER:                  -9.916
REMARK INTRA:                  -1.275
REMARK UNBOUND:                -1.343
REMARK SMILES CCCCCCCCCCCCCCC(=O)[O-]
REMARK SMILES IDX 9 1 10 2 11 3 12 4 13 5 14 6 15 7 16 8 17 9 8 10 7 11 6 12
REMARK SMILES IDX 5 13 4 14 3 15 2 16 1 17
REMARK H PARENT
REMARK Flexibility Score: inf
ROOT
ATOM      1  C   UNL     1      22.423   0.982  62.022  1.00  0.00     0.000 C 
ENDROOT
BRANCH   1   2
ATOM      2  C   UNL     1      22.032   2.055  63.050  1.00  0.00     0.000 C 
BRANCH   2   3
ATOM      3  C   UNL     1      22.938   3.294  62.986  1.00  0.00     0.000 C 
BRANCH   3   4
ATOM      4  C   UNL     1      23.980   3.208  61.858  1.00  0.00     0.000 C 
BRANCH   4   5
ATOM      5  C   UNL     1      25.421   3.138  62.389  1.00  0.00     0.006 C 
BRANCH   5   6
ATOM      6  C   UNL     1      25.669   1.897  63.257  1.00  0.00     0.053 C 
BRANCH   6   7
ATOM      7  C   UNL     1      26.190   2.296  64.601  1.00  0.00     0.041 C 
ATOM      8  O   UNL     1      25.492   3.014  65.365  1.00  0.00    -0.550 OA
ATOM      9  O   UNL     1      27.469   1.918  64.991  1.00  0.00    -0.550 OA
ENDBRANCH   6   7
ENDBRANCH   5   6
ENDBRANCH   4   5
ENDBRANCH   3   4
ENDBRANCH   2   3
ENDBRANCH   1   2
BRANCH   1  10
ATOM     10  C   UNL     1      21.337  -0.099  61.918  1.00  0.00     0.000 C 
BRANCH  10  11
ATOM     11  C   UNL     1      21.913  -1.524  61.945  1.00  0.00    -0.000 C 
BRANCH  11  12
ATOM     12  C   UNL     1      21.695  -2.274  60.619  1.00  0.00    -0.000 C 
BRANCH  12  13
ATOM     13  C   UNL     1      22.565  -3.536  60.505  1.00  0.00    -0.000 C 
BRANCH  13  14
ATOM     14  C   UNL     1      23.956  -3.249  59.915  1.00  0.00    -0.000 C 
BRANCH  14  15
ATOM     15  C   UNL     1      25.102  -3.704  60.838  1.00  0.00    -0.000 C 
BRANCH  15  16
ATOM     16  C   UNL     1      25.399  -2.755  62.012  1.00  0.00    -0.003 C 
ATOM     17  C   UNL     1      25.740  -1.335  61.563  1.00  0.00     0.004 C 
ENDBRANCH  15  16
ENDBRANCH  14  15
ENDBRANCH  13  14
ENDBRANCH  12  13
ENDBRANCH  11  12
ENDBRANCH  10  11
ENDBRANCH   1  10
TORSDOF 13
ENDMDL
MODEL 9
REMARK VINA RESULT:    -5.559      3.151      6.912
REMARK INTER + INTRA:         -11.126
REMARK INTER:                  -9.538
REMARK INTRA:                  -1.588
REMARK UNBOUND:                -1.343
REMARK SMILES CCCCCCCCCCCCCCC(=O)[O-]
REMARK SMILES IDX 9 1 10 2 11 3 12 4 13 5 14 6 15 7 16 8 17 9 8 10 7 11 6 12
REMARK SMILES IDX 5 13 4 14 3 15 2 16 1 17
REMARK H PARENT
REMARK Flexibility Score: inf
ROOT
ATOM      1  C   UNL     1      21.897   1.118  62.402  1.00  0.00     0.000 C 
ENDROOT
BRANCH   1   2
ATOM      2  C   UNL     1      21.270  -0.282  62.323  1.00  0.00     0.000 C 
BRANCH   2   3
ATOM      3  C   UNL     1      22.003  -1.204  61.336  1.00  0.00     0.000 C 
BRANCH   3   4
ATOM      4  C   UNL     1      22.680  -2.397  62.033  1.00  0.00     0.000 C 
BRANCH   4   5
ATOM      5  C   UNL     1      23.084  -3.506  61.048  1.00  0.00     0.006 C 
BRANCH   5   6
ATOM      6  C   UNL     1      23.878  -2.969  59.850  1.00  0.00     0.053 C 
BRANCH   6   7
ATOM      7  C   UNL     1      25.347  -3.035  60.126  1.00  0.00     0.041 C 
ATOM      8  O   UNL     1      25.784  -3.749  61.066  1.00  0.00    -0.550 OA
ATOM      9  O   UNL     1      26.230  -2.268  59.376  1.00  0.00    -0.550 OA
ENDBRANCH   6   7
ENDBRANCH   5   6
ENDBRANCH   4   5
ENDBRANCH   3   4
ENDBRANCH   2   3
ENDBRANCH   1   2
BRANCH   1  10
ATOM     10  C   UNL     1      21.370   1.885  63.624  1.00  0.00     0.000 C 
BRANCH  10  11
ATOM     11  C   UNL     1      22.146   3.185  63.889  1.00  0.00    -0.000 C 
BRANCH  11  12
ATOM     12  C   UNL     1      23.277   2.999  64.916  1.00  0.00    -0.000 C 
BRANCH  12  13
ATOM     13  C   UNL     1      24.648   3.428  64.369  1.00  0.00    -0.000 C 
BRANCH  13  14
ATOM     14  C   UNL     1      24.613   3.751  62.865  1.00  0.00    -0.000 C 
BRANCH  14  15
ATOM     15  C   UNL     1      25.217   2.630  62.000  1.00  0.00    -0.000 C 
BRANCH  15  16
ATOM     16  C   UNL     1      25.736   1.415  62.790  1.00  0.00    -0.003 C 
ATOM     17  C   UNL     1      25.500   0.088  62.070  1.00  0.00     0.004 C 
ENDBRANCH  15  16
ENDBRANCH  14  15
ENDBRANCH  13  14
ENDBRANCH  12  13
ENDBRANCH  11  12
ENDBRANCH  10  11
ENDBRANCH   1  10
TORSDOF 13
ENDMDL
