MODEL 1
REMARK VINA RESULT:    -6.515      0.000      0.000
REMARK INTER + INTRA:          -8.132
REMARK INTER:                  -7.848
REMARK INTRA:                  -0.284
REMARK UNBOUND:                -0.284
REMARK SMILES Oc1cc(O)c2cc(O)c(-c3ccc(O)c(O)c3)[o+]c2c1.[Cl-]
REMARK SMILES IDX 10 1 19 2 20 3 21 4 2 5 3 6 4 7 6 8 7 9 8 10 11 11 12 12
REMARK SMILES IDX 13 13 14 14 18 15 16 16 15 17 17 19 9 21 1 23 5 25
REMARK H PARENT 15 18 17 20 9 22 1 24 5 26
REMARK Flexibility Score: inf
ROOT
ATOM      1  C   UNL     1    -118.469  -2.264  77.214  1.00  0.00     0.402 A 
ATOM      2  O   UNL     1    -117.229  -2.744  77.277  1.00  0.00    -0.202 OA
ATOM      3  C   UNL     1    -116.221  -2.089  77.842  1.00  0.00     0.368 A 
ATOM      4  C   UNL     1    -114.953  -2.676  77.855  1.00  0.00     0.162 A 
ATOM      5  C   UNL     1    -113.874  -2.011  78.439  1.00  0.00     0.128 A 
ATOM      6  C   UNL     1    -114.063  -0.749  79.015  1.00  0.00     0.093 A 
ATOM      7  C   UNL     1    -115.324  -0.140  79.014  1.00  0.00     0.136 A 
ATOM      8  C   UNL     1    -116.424  -0.814  78.424  1.00  0.00     0.125 A 
ATOM      9  C   UNL     1    -117.725  -0.288  78.388  1.00  0.00     0.078 A 
ATOM     10  C   UNL     1    -118.760  -1.014  77.792  1.00  0.00     0.223 A 
ENDROOT
BRANCH   1  11
ATOM     11  C   UNL     1    -119.506  -3.085  76.549  1.00  0.00     0.087 A 
ATOM     12  C   UNL     1    -120.483  -3.772  77.290  1.00  0.00     0.022 A 
ATOM     13  C   UNL     1    -121.467  -4.521  76.640  1.00  0.00     0.051 A 
ATOM     14  C   UNL     1    -121.498  -4.583  75.239  1.00  0.00     0.157 A 
ATOM     15  C   UNL     1    -119.555  -3.133  75.146  1.00  0.00     0.068 A 
ATOM     16  C   UNL     1    -120.538  -3.882  74.490  1.00  0.00     0.158 A 
BRANCH  14  17
ATOM     17  O   UNL     1    -122.479  -5.333  74.594  1.00  0.00    -0.504 OA
ATOM     18  H   UNL     1    -122.374  -5.628  73.630  1.00  0.00     0.293 HD
ENDBRANCH  14  17
BRANCH  16  19
ATOM     19  O   UNL     1    -120.546  -3.917  73.097  1.00  0.00    -0.504 OA
ATOM     20  H   UNL     1    -121.403  -3.847  72.561  1.00  0.00     0.293 HD
ENDBRANCH  16  19
ENDBRANCH   1  11
BRANCH  10  21
ATOM     21  O   UNL     1    -120.061  -0.513  77.802  1.00  0.00    -0.500 OA
ATOM     22  H   UNL     1    -120.252   0.475  77.919  1.00  0.00     0.294 HD
ENDBRANCH  10  21
BRANCH   5  23
ATOM     23  O   UNL     1    -112.618  -2.611  78.443  1.00  0.00    -0.507 OA
ATOM     24  H   UNL     1    -111.930  -2.399  79.157  1.00  0.00     0.293 HD
ENDBRANCH   5  23
BRANCH   7  25
ATOM     25  O   UNL     1    -115.430   1.122  79.606  1.00  0.00    -0.507 OA
ATOM     26  H   UNL     1    -115.700   1.281  80.565  1.00  0.00     0.293 HD
ENDBRANCH   7  25
TORSDOF 6
ENDMDL
MODEL 2
REMARK VINA RESULT:    -6.276      7.210     10.496
REMARK INTER + INTRA:          -7.844
REMARK INTER:                  -7.692
REMARK INTRA:                  -0.152
REMARK UNBOUND:                -0.284
REMARK SMILES Oc1cc(O)c2cc(O)c(-c3ccc(O)c(O)c3)[o+]c2c1.[Cl-]
REMARK SMILES IDX 10 1 19 2 20 3 21 4 2 5 3 6 4 7 6 8 7 9 8 10 11 11 12 12
REMARK SMILES IDX 13 13 14 14 18 15 16 16 15 17 17 19 9 21 1 23 5 25
REMARK H PARENT 15 18 17 20 9 22 1 24 5 26
REMARK Flexibility Score: inf
ROOT
ATOM      1  C   UNL     1    -108.840  -1.233  74.729  1.00  0.00     0.402 A 
ATOM      2  O   UNL     1    -108.469  -2.493  74.519  1.00  0.00    -0.202 OA
ATOM      3  C   UNL     1    -107.237  -2.842  74.165  1.00  0.00     0.368 A 
ATOM      4  C   UNL     1    -106.945  -4.194  73.964  1.00  0.00     0.162 A 
ATOM      5  C   UNL     1    -105.661  -4.589  73.589  1.00  0.00     0.128 A 
ATOM      6  C   UNL     1    -104.660  -3.627  73.411  1.00  0.00     0.093 A 
ATOM      7  C   UNL     1    -104.928  -2.267  73.605  1.00  0.00     0.136 A 
ATOM      8  C   UNL     1    -106.232  -1.861  73.990  1.00  0.00     0.125 A 
ATOM      9  C   UNL     1    -106.588  -0.522  74.220  1.00  0.00     0.078 A 
ATOM     10  C   UNL     1    -107.893  -0.199  74.602  1.00  0.00     0.223 A 
ENDROOT
BRANCH   1  11
ATOM     11  C   UNL     1    -110.246  -0.970  75.112  1.00  0.00     0.087 A 
ATOM     12  C   UNL     1    -111.313  -1.316  74.265  1.00  0.00     0.022 A 
ATOM     13  C   UNL     1    -112.633  -1.081  74.657  1.00  0.00     0.051 A 
ATOM     14  C   UNL     1    -112.908  -0.509  75.908  1.00  0.00     0.157 A 
ATOM     15  C   UNL     1    -110.528  -0.417  76.372  1.00  0.00     0.068 A 
ATOM     16  C   UNL     1    -111.848  -0.179  76.770  1.00  0.00     0.158 A 
BRANCH  14  17
ATOM     17  O   UNL     1    -114.225  -0.274  76.296  1.00  0.00    -0.504 OA
ATOM     18  H   UNL     1    -114.578  -0.583  77.194  1.00  0.00     0.293 HD
ENDBRANCH  14  17
BRANCH  16  19
ATOM     19  O   UNL     1    -112.088   0.384  78.022  1.00  0.00    -0.504 OA
ATOM     20  H   UNL     1    -111.952   1.372  78.202  1.00  0.00     0.293 HD
ENDBRANCH  16  19
ENDBRANCH   1  11
BRANCH  10  21
ATOM     21  O   UNL     1    -108.233   1.125  74.879  1.00  0.00    -0.500 OA
ATOM     22  H   UNL     1    -108.251   1.484  75.826  1.00  0.00     0.294 HD
ENDBRANCH  10  21
BRANCH   5  23
ATOM     23  O   UNL     1    -105.389  -5.941  73.394  1.00  0.00    -0.507 OA
ATOM     24  H   UNL     1    -105.846  -6.659  73.944  1.00  0.00     0.293 HD
ENDBRANCH   5  23
BRANCH   7  25
ATOM     25  O   UNL     1    -103.875  -1.368  73.405  1.00  0.00    -0.507 OA
ATOM     26  H   UNL     1    -103.656  -0.935  72.521  1.00  0.00     0.293 HD
ENDBRANCH   7  25
TORSDOF 6
ENDMDL
MODEL 3
REMARK VINA RESULT:    -6.018      8.332      9.556
REMARK INTER + INTRA:          -7.534
REMARK INTER:                  -7.272
REMARK INTRA:                  -0.262
REMARK UNBOUND:                -0.284
REMARK SMILES Oc1cc(O)c2cc(O)c(-c3ccc(O)c(O)c3)[o+]c2c1.[Cl-]
REMARK SMILES IDX 10 1 19 2 20 3 21 4 2 5 3 6 4 7 6 8 7 9 8 10 11 11 12 12
REMARK SMILES IDX 13 13 14 14 18 15 16 16 15 17 17 19 9 21 1 23 5 25
REMARK H PARENT 15 18 17 20 9 22 1 24 5 26
REMARK Flexibility Score: inf
ROOT
ATOM      1  C   UNL     1    -115.765  -9.995  80.505  1.00  0.00     0.402 A 
ATOM      2  O   UNL     1    -115.516 -10.498  79.298  1.00  0.00    -0.202 OA
ATOM      3  C   UNL     1    -114.769  -9.881  78.390  1.00  0.00     0.368 A 
ATOM      4  C   UNL     1    -114.568 -10.489  77.148  1.00  0.00     0.162 A 
ATOM      5  C   UNL     1    -113.789  -9.862  76.174  1.00  0.00     0.128 A 
ATOM      6  C   UNL     1    -113.208  -8.617  76.441  1.00  0.00     0.093 A 
ATOM      7  C   UNL     1    -113.395  -7.987  77.678  1.00  0.00     0.136 A 
ATOM      8  C   UNL     1    -114.183  -8.623  78.672  1.00  0.00     0.125 A 
ATOM      9  C   UNL     1    -114.413  -8.073  79.943  1.00  0.00     0.078 A 
ATOM     10  C   UNL     1    -115.198  -8.761  80.874  1.00  0.00     0.223 A 
ENDROOT
BRANCH   1  11
ATOM     11  C   UNL     1    -116.621 -10.775  81.427  1.00  0.00     0.087 A 
ATOM     12  C   UNL     1    -116.152 -11.946  82.049  1.00  0.00     0.022 A 
ATOM     13  C   UNL     1    -116.970 -12.653  82.934  1.00  0.00     0.051 A 
ATOM     14  C   UNL     1    -118.263 -12.193  83.223  1.00  0.00     0.157 A 
ATOM     15  C   UNL     1    -117.909 -10.308  81.736  1.00  0.00     0.068 A 
ATOM     16  C   UNL     1    -118.732 -11.013  82.622  1.00  0.00     0.158 A 
BRANCH  14  17
ATOM     17  O   UNL     1    -119.077 -12.901  84.104  1.00  0.00    -0.504 OA
ATOM     18  H   UNL     1    -118.730 -13.234  84.997  1.00  0.00     0.293 HD
ENDBRANCH  14  17
BRANCH  16  19
ATOM     19  O   UNL     1    -120.010 -10.526  82.893  1.00  0.00    -0.504 OA
ATOM     20  H   UNL     1    -120.710 -10.419  82.168  1.00  0.00     0.293 HD
ENDBRANCH  16  19
ENDBRANCH   1  11
BRANCH  10  21
ATOM     21  O   UNL     1    -115.385  -8.238  82.153  1.00  0.00    -0.500 OA
ATOM     22  H   UNL     1    -115.627  -8.828  82.940  1.00  0.00     0.294 HD
ENDBRANCH  10  21
BRANCH   5  23
ATOM     23  O   UNL     1    -113.600 -10.484  74.943  1.00  0.00    -0.507 OA
ATOM     24  H   UNL     1    -114.333 -11.032  74.506  1.00  0.00     0.293 HD
ENDBRANCH   5  23
BRANCH   7  25
ATOM     25  O   UNL     1    -112.783  -6.744  77.866  1.00  0.00    -0.507 OA
ATOM     26  H   UNL     1    -113.278  -5.893  78.087  1.00  0.00     0.293 HD
ENDBRANCH   7  25
TORSDOF 6
ENDMDL
MODEL 4
REMARK VINA RESULT:    -5.902      7.503     10.124
REMARK INTER + INTRA:          -7.394
REMARK INTER:                  -7.108
REMARK INTRA:                  -0.285
REMARK UNBOUND:                -0.284
REMARK SMILES Oc1cc(O)c2cc(O)c(-c3ccc(O)c(O)c3)[o+]c2c1.[Cl-]
REMARK SMILES IDX 10 1 19 2 20 3 21 4 2 5 3 6 4 7 6 8 7 9 8 10 11 11 12 12
REMARK SMILES IDX 13 13 14 14 18 15 16 16 15 17 17 19 9 21 1 23 5 25
REMARK H PARENT 15 18 17 20 9 22 1 24 5 26
REMARK Flexibility Score: inf
ROOT
ATOM      1  C   UNL     1    -108.945  -1.832  74.355  1.00  0.00     0.402 A 
ATOM      2  O   UNL     1    -108.121  -2.831  74.046  1.00  0.00    -0.202 OA
ATOM      3  C   UNL     1    -106.805  -2.685  73.943  1.00  0.00     0.368 A 
ATOM      4  C   UNL     1    -106.023  -3.794  73.610  1.00  0.00     0.162 A 
ATOM      5  C   UNL     1    -104.638  -3.671  73.492  1.00  0.00     0.128 A 
ATOM      6  C   UNL     1    -104.028  -2.429  73.707  1.00  0.00     0.093 A 
ATOM      7  C   UNL     1    -104.790  -1.303  74.040  1.00  0.00     0.136 A 
ATOM      8  C   UNL     1    -106.198  -1.425  74.165  1.00  0.00     0.125 A 
ATOM      9  C   UNL     1    -107.039  -0.355  74.509  1.00  0.00     0.078 A 
ATOM     10  C   UNL     1    -108.419  -0.553  74.617  1.00  0.00     0.223 A 
ENDROOT
BRANCH   1  11
ATOM     11  C   UNL     1    -110.396  -2.118  74.431  1.00  0.00     0.087 A 
ATOM     12  C   UNL     1    -110.951  -2.807  75.525  1.00  0.00     0.022 A 
ATOM     13  C   UNL     1    -112.326  -3.044  75.586  1.00  0.00     0.051 A 
ATOM     14  C   UNL     1    -113.169  -2.585  74.565  1.00  0.00     0.157 A 
ATOM     15  C   UNL     1    -111.248  -1.642  73.422  1.00  0.00     0.068 A 
ATOM     16  C   UNL     1    -112.626  -1.877  73.479  1.00  0.00     0.158 A 
BRANCH  14  17
ATOM     17  O   UNL     1    -114.540  -2.825  74.628  1.00  0.00    -0.504 OA
ATOM     18  H   UNL     1    -115.020  -2.932  75.514  1.00  0.00     0.293 HD
ENDBRANCH  14  17
BRANCH  16  19
ATOM     19  O   UNL     1    -113.438  -1.402  72.451  1.00  0.00    -0.504 OA
ATOM     20  H   UNL     1    -114.223  -1.934  72.095  1.00  0.00     0.293 HD
ENDBRANCH  16  19
ENDBRANCH   1  11
BRANCH  10  21
ATOM     21  O   UNL     1    -109.248   0.498  75.008  1.00  0.00    -0.500 OA
ATOM     22  H   UNL     1    -108.920   1.456  75.031  1.00  0.00     0.294 HD
ENDBRANCH  10  21
BRANCH   5  23
ATOM     23  O   UNL     1    -103.875  -4.787  73.160  1.00  0.00    -0.507 OA
ATOM     24  H   UNL     1    -103.854  -5.154  72.215  1.00  0.00     0.293 HD
ENDBRANCH   5  23
BRANCH   7  25
ATOM     25  O   UNL     1    -104.107  -0.098  74.236  1.00  0.00    -0.507 OA
ATOM     26  H   UNL     1    -103.102  -0.006  74.236  1.00  0.00     0.293 HD
ENDBRANCH   7  25
TORSDOF 6
ENDMDL
MODEL 5
REMARK VINA RESULT:    -5.896      7.313     10.224
REMARK INTER + INTRA:          -7.386
REMARK INTER:                  -7.034
REMARK INTRA:                  -0.352
REMARK UNBOUND:                -0.284
REMARK SMILES Oc1cc(O)c2cc(O)c(-c3ccc(O)c(O)c3)[o+]c2c1.[Cl-]
REMARK SMILES IDX 10 1 19 2 20 3 21 4 2 5 3 6 4 7 6 8 7 9 8 10 11 11 12 12
REMARK SMILES IDX 13 13 14 14 18 15 16 16 15 17 17 19 9 21 1 23 5 25
REMARK H PARENT 15 18 17 20 9 22 1 24 5 26
REMARK Flexibility Score: inf
ROOT
ATOM      1  C   UNL     1    -109.035  -2.769  74.299  1.00  0.00     0.402 A 
ATOM      2  O   UNL     1    -108.182  -1.971  74.937  1.00  0.00    -0.202 OA
ATOM      3  C   UNL     1    -106.869  -2.001  74.740  1.00  0.00     0.368 A 
ATOM      4  C   UNL     1    -106.054  -1.124  75.461  1.00  0.00     0.162 A 
ATOM      5  C   UNL     1    -104.671  -1.134  75.277  1.00  0.00     0.128 A 
ATOM      6  C   UNL     1    -104.096  -2.029  74.366  1.00  0.00     0.093 A 
ATOM      7  C   UNL     1    -104.891  -2.918  73.633  1.00  0.00     0.136 A 
ATOM      8  C   UNL     1    -106.298  -2.908  73.814  1.00  0.00     0.125 A 
ATOM      9  C   UNL     1    -107.174  -3.752  73.114  1.00  0.00     0.078 A 
ATOM     10  C   UNL     1    -108.551  -3.682  73.343  1.00  0.00     0.223 A 
ENDROOT
BRANCH   1  11
ATOM     11  C   UNL     1    -110.477  -2.648  74.612  1.00  0.00     0.087 A 
ATOM     12  C   UNL     1    -111.071  -3.403  75.639  1.00  0.00     0.022 A 
ATOM     13  C   UNL     1    -112.428  -3.253  75.933  1.00  0.00     0.051 A 
ATOM     14  C   UNL     1    -113.210  -2.337  75.215  1.00  0.00     0.157 A 
ATOM     15  C   UNL     1    -111.261  -1.717  73.911  1.00  0.00     0.068 A 
ATOM     16  C   UNL     1    -112.621  -1.563  74.201  1.00  0.00     0.158 A 
BRANCH  14  17
ATOM     17  O   UNL     1    -114.565  -2.192  75.509  1.00  0.00    -0.504 OA
ATOM     18  H   UNL     1    -115.203  -1.745  74.862  1.00  0.00     0.293 HD
ENDBRANCH  14  17
BRANCH  16  19
ATOM     19  O   UNL     1    -113.369  -0.640  73.473  1.00  0.00    -0.504 OA
ATOM     20  H   UNL     1    -113.542   0.299  73.812  1.00  0.00     0.293 HD
ENDBRANCH  16  19
ENDBRANCH   1  11
BRANCH  10  21
ATOM     21  O   UNL     1    -109.424  -4.486  72.611  1.00  0.00    -0.500 OA
ATOM     22  H   UNL     1    -109.166  -5.418  72.310  1.00  0.00     0.294 HD
ENDBRANCH  10  21
BRANCH   5  23
ATOM     23  O   UNL     1    -103.875  -0.253  76.004  1.00  0.00    -0.507 OA
ATOM     24  H   UNL     1    -104.071   0.742  76.029  1.00  0.00     0.293 HD
ENDBRANCH   5  23
BRANCH   7  25
ATOM     25  O   UNL     1    -104.241  -3.781  72.745  1.00  0.00    -0.507 OA
ATOM     26  H   UNL     1    -104.327  -3.737  71.741  1.00  0.00     0.293 HD
ENDBRANCH   7  25
TORSDOF 6
ENDMDL
MODEL 6
REMARK VINA RESULT:    -5.881      7.040     11.116
REMARK INTER + INTRA:          -7.369
REMARK INTER:                  -7.016
REMARK INTRA:                  -0.353
REMARK UNBOUND:                -0.284
REMARK SMILES Oc1cc(O)c2cc(O)c(-c3ccc(O)c(O)c3)[o+]c2c1.[Cl-]
REMARK SMILES IDX 10 1 19 2 20 3 21 4 2 5 3 6 4 7 6 8 7 9 8 10 11 11 12 12
REMARK SMILES IDX 13 13 14 14 18 15 16 16 15 17 17 19 9 21 1 23 5 25
REMARK H PARENT 15 18 17 20 9 22 1 24 5 26
REMARK Flexibility Score: inf
ROOT
ATOM      1  C   UNL     1    -108.882  -2.515  74.603  1.00  0.00     0.402 A 
ATOM      2  O   UNL     1    -109.754  -2.311  73.619  1.00  0.00    -0.202 OA
ATOM      3  C   UNL     1    -110.953  -1.770  73.807  1.00  0.00     0.368 A 
ATOM      4  C   UNL     1    -111.801  -1.600  72.709  1.00  0.00     0.162 A 
ATOM      5  C   UNL     1    -113.067  -1.037  72.876  1.00  0.00     0.128 A 
ATOM      6  C   UNL     1    -113.491  -0.643  74.150  1.00  0.00     0.093 A 
ATOM      7  C   UNL     1    -112.661  -0.805  75.266  1.00  0.00     0.136 A 
ATOM      8  C   UNL     1    -111.371  -1.373  75.100  1.00  0.00     0.125 A 
ATOM      9  C   UNL     1    -110.467  -1.560  76.157  1.00  0.00     0.078 A 
ATOM     10  C   UNL     1    -109.210  -2.124  75.915  1.00  0.00     0.223 A 
ENDROOT
BRANCH   1  11
ATOM     11  C   UNL     1    -107.580  -3.135  74.269  1.00  0.00     0.087 A 
ATOM     12  C   UNL     1    -107.404  -4.529  74.295  1.00  0.00     0.022 A 
ATOM     13  C   UNL     1    -106.172  -5.093  73.952  1.00  0.00     0.051 A 
ATOM     14  C   UNL     1    -105.103  -4.273  73.565  1.00  0.00     0.157 A 
ATOM     15  C   UNL     1    -106.511  -2.320  73.860  1.00  0.00     0.068 A 
ATOM     16  C   UNL     1    -105.276  -2.880  73.516  1.00  0.00     0.158 A 
BRANCH  14  17
ATOM     17  O   UNL     1    -103.875  -4.838  73.226  1.00  0.00    -0.504 OA
ATOM     18  H   UNL     1    -103.657  -5.102  72.272  1.00  0.00     0.293 HD
ENDBRANCH  14  17
BRANCH  16  19
ATOM     19  O   UNL     1    -104.235  -2.038  73.129  1.00  0.00    -0.504 OA
ATOM     20  H   UNL     1    -103.281  -2.367  73.040  1.00  0.00     0.293 HD
ENDBRANCH  16  19
ENDBRANCH   1  11
BRANCH  10  21
ATOM     21  O   UNL     1    -108.294  -2.263  76.957  1.00  0.00    -0.500 OA
ATOM     22  H   UNL     1    -107.297  -2.171  76.805  1.00  0.00     0.294 HD
ENDBRANCH  10  21
BRANCH   5  23
ATOM     23  O   UNL     1    -113.897  -0.874  71.770  1.00  0.00    -0.507 OA
ATOM     24  H   UNL     1    -114.717  -0.280  71.805  1.00  0.00     0.293 HD
ENDBRANCH   5  23
BRANCH   7  25
ATOM     25  O   UNL     1    -113.159  -0.388  76.505  1.00  0.00    -0.507 OA
ATOM     26  H   UNL     1    -112.860   0.445  76.989  1.00  0.00     0.293 HD
ENDBRANCH   7  25
TORSDOF 6
ENDMDL
MODEL 7
REMARK VINA RESULT:    -5.837     16.251     17.502
REMARK INTER + INTRA:          -7.316
REMARK INTER:                  -7.004
REMARK INTRA:                  -0.311
REMARK UNBOUND:                -0.284
REMARK SMILES Oc1cc(O)c2cc(O)c(-c3ccc(O)c(O)c3)[o+]c2c1.[Cl-]
REMARK SMILES IDX 10 1 19 2 20 3 21 4 2 5 3 6 4 7 6 8 7 9 8 10 11 11 12 12
REMARK SMILES IDX 13 13 14 14 18 15 16 16 15 17 17 19 9 21 1 23 5 25
REMARK H PARENT 15 18 17 20 9 22 1 24 5 26
REMARK Flexibility Score: inf
ROOT
ATOM      1  C   UNL     1    -117.991 -14.075  88.423  1.00  0.00     0.402 A 
ATOM      2  O   UNL     1    -116.962 -14.911  88.541  1.00  0.00    -0.202 OA
ATOM      3  C   UNL     1    -117.059 -16.113  89.097  1.00  0.00     0.368 A 
ATOM      4  C   UNL     1    -115.919 -16.918  89.178  1.00  0.00     0.162 A 
ATOM      5  C   UNL     1    -115.990 -18.184  89.759  1.00  0.00     0.128 A 
ATOM      6  C   UNL     1    -117.208 -18.652  90.265  1.00  0.00     0.093 A 
ATOM      7  C   UNL     1    -118.364 -17.864  90.197  1.00  0.00     0.136 A 
ATOM      8  C   UNL     1    -118.297 -16.577  89.603  1.00  0.00     0.125 A 
ATOM      9  C   UNL     1    -119.406 -15.725  89.479  1.00  0.00     0.078 A 
ATOM     10  C   UNL     1    -119.263 -14.470  88.878  1.00  0.00     0.223 A 
ENDROOT
BRANCH   1  11
ATOM     11  C   UNL     1    -117.755 -12.756  87.792  1.00  0.00     0.087 A 
ATOM     12  C   UNL     1    -118.119 -12.507  86.457  1.00  0.00     0.022 A 
ATOM     13  C   UNL     1    -117.909 -11.248  85.891  1.00  0.00     0.051 A 
ATOM     14  C   UNL     1    -117.346 -10.215  86.653  1.00  0.00     0.157 A 
ATOM     15  C   UNL     1    -117.211 -11.712  88.557  1.00  0.00     0.068 A 
ATOM     16  C   UNL     1    -116.999 -10.449  87.994  1.00  0.00     0.158 A 
BRANCH  14  17
ATOM     17  O   UNL     1    -117.135  -8.960  86.083  1.00  0.00    -0.504 OA
ATOM     18  H   UNL     1    -117.609  -8.676  85.234  1.00  0.00     0.293 HD
ENDBRANCH  14  17
BRANCH  16  19
ATOM     19  O   UNL     1    -116.443  -9.441  88.780  1.00  0.00    -0.504 OA
ATOM     20  H   UNL     1    -115.702  -8.839  88.440  1.00  0.00     0.293 HD
ENDBRANCH  16  19
ENDBRANCH   1  11
BRANCH  10  21
ATOM     21  O   UNL     1    -120.375 -13.645  88.710  1.00  0.00    -0.500 OA
ATOM     22  H   UNL     1    -120.349 -12.833  88.105  1.00  0.00     0.294 HD
ENDBRANCH  10  21
BRANCH   5  23
ATOM     23  O   UNL     1    -114.843 -18.972  89.829  1.00  0.00    -0.507 OA
ATOM     24  H   UNL     1    -114.397 -19.335  88.995  1.00  0.00     0.293 HD
ENDBRANCH   5  23
BRANCH   7  25
ATOM     25  O   UNL     1    -119.541 -18.401  90.727  1.00  0.00    -0.507 OA
ATOM     26  H   UNL     1    -119.574 -19.172  91.377  1.00  0.00     0.293 HD
ENDBRANCH   7  25
TORSDOF 6
ENDMDL
MODEL 8
REMARK VINA RESULT:    -5.782      6.982     10.453
REMARK INTER + INTRA:          -7.249
REMARK INTER:                  -6.898
REMARK INTRA:                  -0.350
REMARK UNBOUND:                -0.284
REMARK SMILES Oc1cc(O)c2cc(O)c(-c3ccc(O)c(O)c3)[o+]c2c1.[Cl-]
REMARK SMILES IDX 10 1 19 2 20 3 21 4 2 5 3 6 4 7 6 8 7 9 8 10 11 11 12 12
REMARK SMILES IDX 13 13 14 14 18 15 16 16 15 17 17 19 9 21 1 23 5 25
REMARK H PARENT 15 18 17 20 9 22 1 24 5 26
REMARK Flexibility Score: inf
ROOT
ATOM      1  C   UNL     1    -109.015  -2.283  75.371  1.00  0.00     0.402 A 
ATOM      2  O   UNL     1    -108.079  -1.449  74.924  1.00  0.00    -0.202 OA
ATOM      3  C   UNL     1    -106.976  -1.854  74.304  1.00  0.00     0.368 A 
ATOM      4  C   UNL     1    -106.050  -0.901  73.873  1.00  0.00     0.162 A 
ATOM      5  C   UNL     1    -104.882  -1.297  73.221  1.00  0.00     0.128 A 
ATOM      6  C   UNL     1    -104.635  -2.657  72.999  1.00  0.00     0.093 A 
ATOM      7  C   UNL     1    -105.547  -3.632  73.422  1.00  0.00     0.136 A 
ATOM      8  C   UNL     1    -106.738  -3.233  74.082  1.00  0.00     0.125 A 
ATOM      9  C   UNL     1    -107.715  -4.137  74.528  1.00  0.00     0.078 A 
ATOM     10  C   UNL     1    -108.866  -3.668  75.167  1.00  0.00     0.223 A 
ENDROOT
BRANCH   1  11
ATOM     11  C   UNL     1    -110.196  -1.710  76.056  1.00  0.00     0.087 A 
ATOM     12  C   UNL     1    -110.262  -1.626  77.458  1.00  0.00     0.022 A 
ATOM     13  C   UNL     1    -111.376  -1.059  78.080  1.00  0.00     0.051 A 
ATOM     14  C   UNL     1    -112.435  -0.555  77.312  1.00  0.00     0.157 A 
ATOM     15  C   UNL     1    -111.250  -1.184  75.291  1.00  0.00     0.068 A 
ATOM     16  C   UNL     1    -112.369  -0.616  75.910  1.00  0.00     0.158 A 
BRANCH  14  17
ATOM     17  O   UNL     1    -113.546   0.008  77.937  1.00  0.00    -0.504 OA
ATOM     18  H   UNL     1    -114.317   0.394  77.403  1.00  0.00     0.293 HD
ENDBRANCH  14  17
BRANCH  16  19
ATOM     19  O   UNL     1    -113.402  -0.118  75.118  1.00  0.00    -0.504 OA
ATOM     20  H   UNL     1    -113.331  -0.070  74.109  1.00  0.00     0.293 HD
ENDBRANCH  16  19
ENDBRANCH   1  11
BRANCH  10  21
ATOM     21  O   UNL     1    -109.859  -4.563  75.565  1.00  0.00    -0.500 OA
ATOM     22  H   UNL     1    -110.533  -4.327  76.284  1.00  0.00     0.294 HD
ENDBRANCH  10  21
BRANCH   5  23
ATOM     23  O   UNL     1    -103.970  -0.333  72.799  1.00  0.00    -0.507 OA
ATOM     24  H   UNL     1    -102.986  -0.546  72.685  1.00  0.00     0.293 HD
ENDBRANCH   5  23
BRANCH   7  25
ATOM     25  O   UNL     1    -105.227  -4.968  73.165  1.00  0.00    -0.507 OA
ATOM     26  H   UNL     1    -104.377  -5.420  73.469  1.00  0.00     0.293 HD
ENDBRANCH   7  25
TORSDOF 6
ENDMDL
MODEL 9
REMARK VINA RESULT:    -5.697     14.358     15.502
REMARK INTER + INTRA:          -7.147
REMARK INTER:                  -6.800
REMARK INTRA:                  -0.347
REMARK UNBOUND:                -0.284
REMARK SMILES Oc1cc(O)c2cc(O)c(-c3ccc(O)c(O)c3)[o+]c2c1.[Cl-]
REMARK SMILES IDX 10 1 19 2 20 3 21 4 2 5 3 6 4 7 6 8 7 9 8 10 11 11 12 12
REMARK SMILES IDX 13 13 14 14 18 15 16 16 15 17 17 19 9 21 1 23 5 25
REMARK H PARENT 15 18 17 20 9 22 1 24 5 26
REMARK Flexibility Score: inf
ROOT
ATOM      1  C   UNL     1    -118.449 -13.593  87.136  1.00  0.00     0.402 A 
ATOM      2  O   UNL     1    -118.811 -13.620  85.855  1.00  0.00    -0.202 OA
ATOM      3  C   UNL     1    -118.519 -12.653  84.993  1.00  0.00     0.368 A 
ATOM      4  C   UNL     1    -118.947 -12.771  83.669  1.00  0.00     0.162 A 
ATOM      5  C   UNL     1    -118.657 -11.770  82.741  1.00  0.00     0.128 A 
ATOM      6  C   UNL     1    -117.933 -10.640  83.140  1.00  0.00     0.093 A 
ATOM      7  C   UNL     1    -117.494 -10.497  84.462  1.00  0.00     0.136 A 
ATOM      8  C   UNL     1    -117.784 -11.515  85.407  1.00  0.00     0.125 A 
ATOM      9  C   UNL     1    -117.373 -11.464  86.748  1.00  0.00     0.078 A 
ATOM     10  C   UNL     1    -117.693 -12.509  87.621  1.00  0.00     0.223 A 
ENDROOT
BRANCH   1  11
ATOM     11  C   UNL     1    -118.843 -14.728  88.001  1.00  0.00     0.087 A 
ATOM     12  C   UNL     1    -119.979 -14.659  88.827  1.00  0.00     0.022 A 
ATOM     13  C   UNL     1    -120.345 -15.752  89.617  1.00  0.00     0.051 A 
ATOM     14  C   UNL     1    -119.592 -16.934  89.582  1.00  0.00     0.157 A 
ATOM     15  C   UNL     1    -118.104 -15.921  87.955  1.00  0.00     0.068 A 
ATOM     16  C   UNL     1    -118.468 -17.018  88.744  1.00  0.00     0.158 A 
BRANCH  14  17
ATOM     17  O   UNL     1    -119.959 -18.021  90.373  1.00  0.00    -0.504 OA
ATOM     18  H   UNL     1    -120.718 -18.638  90.109  1.00  0.00     0.293 HD
ENDBRANCH  14  17
BRANCH  16  19
ATOM     19  O   UNL     1    -117.701 -18.181  88.682  1.00  0.00    -0.504 OA
ATOM     20  H   UNL     1    -117.294 -18.602  89.508  1.00  0.00     0.293 HD
ENDBRANCH  16  19
ENDBRANCH   1  11
BRANCH  10  21
ATOM     21  O   UNL     1    -117.241 -12.482  88.940  1.00  0.00    -0.500 OA
ATOM     22  H   UNL     1    -117.621 -13.100  89.646  1.00  0.00     0.294 HD
ENDBRANCH  10  21
BRANCH   5  23
ATOM     23  O   UNL     1    -119.092 -11.906  81.425  1.00  0.00    -0.507 OA
ATOM     24  H   UNL     1    -119.635 -12.708  81.126  1.00  0.00     0.293 HD
ENDBRANCH   5  23
BRANCH   7  25
ATOM     25  O   UNL     1    -116.780  -9.338  84.782  1.00  0.00    -0.507 OA
ATOM     26  H   UNL     1    -116.799  -8.887  85.684  1.00  0.00     0.293 HD
ENDBRANCH   7  25
TORSDOF 6
ENDMDL
