MODEL 1
REMARK VINA RESULT:    -1.962      0.000      0.000
REMARK INTER + INTRA:          -2.331
REMARK INTER:                  -2.134
REMARK INTRA:                  -0.196
REMARK UNBOUND:                -0.196
REMARK SMILES CC1=CC[C@@H](C(C)(C)O)CC1
REMARK SMILES IDX 6 1 7 2 8 3 5 4 1 5 2 6 3 7 11 8 4 9 10 10 9 11
REMARK H PARENT 9 12
REMARK Flexibility Score: inf
ROOT
ATOM      1  C   UNL     1     -37.979  33.159 -11.544  1.00  0.00     0.062 C 
ATOM      2  C   UNL     1     -37.934  31.728 -12.123  1.00  0.00     0.042 C 
ATOM      3  C   UNL     1     -38.179  33.060 -10.017  1.00  0.00     0.042 C 
ENDROOT
BRANCH   1   4
ATOM      4  C   UNL     1     -36.680  33.960 -11.919  1.00  0.00     0.024 C 
ATOM      5  C   UNL     1     -32.952  36.124 -11.906  1.00  0.00     0.039 C 
ATOM      6  C   UNL     1     -34.095  35.212 -11.558  1.00  0.00    -0.077 C 
ATOM      7  C   UNL     1     -34.188  33.998 -12.125  1.00  0.00    -0.028 C 
ATOM      8  C   UNL     1     -35.178  35.643 -10.597  1.00  0.00     0.031 C 
ATOM      9  C   UNL     1     -35.374  33.127 -11.812  1.00  0.00     0.034 C 
ATOM     10  C   UNL     1     -36.577  35.333 -11.164  1.00  0.00     0.011 C 
ENDBRANCH   1   4
BRANCH   1  11
ATOM     11  O   UNL     1     -39.107  33.816 -12.075  1.00  0.00    -0.390 OA
ATOM     12  H   UNL     1     -39.509  34.368 -11.352  1.00  0.00     0.211 HD
ENDBRANCH   1  11
TORSDOF 2
ENDMDL
