MODEL 1
REMARK VINA RESULT:    -3.080      0.000      0.000
REMARK INTER + INTRA:          -3.654
REMARK INTER:                  -4.340
REMARK INTRA:                   0.687
REMARK UNBOUND:                 0.687
REMARK SMILES CC1=CCCC(C)=CCC(C)(C)C=CC1
REMARK SMILES IDX 2 1 3 2 1 3 4 4 5 5 6 6 7 7 8 8 15 10 14 11 13 12 10 13
REMARK SMILES IDX 11 14 12 15 9 16
REMARK H PARENT
REMARK Flexibility Score: 60.00
ROOT
ATOM      1  C   UNL     1      -7.476  83.989  -9.252  1.00  0.00    -0.074 C 
ATOM      2  C   UNL     1      -7.726  85.330  -9.186  1.00  0.00    -0.027 C 
ATOM      3  C   UNL     1      -8.663  83.080  -9.466  1.00  0.00     0.039 C 
ENDROOT
BRANCH   2   4
ATOM      4  C   UNL     1      -6.764  86.512  -9.093  1.00  0.00     0.032 C 
BRANCH   4   5
ATOM      5  C   UNL     1      -6.035  86.700  -7.743  1.00  0.00     0.034 C 
BRANCH   5   6
ATOM      6  C   UNL     1      -4.526  86.977  -7.825  1.00  0.00    -0.077 C 
ATOM      7  C   UNL     1      -4.063  88.381  -7.503  1.00  0.00     0.039 C 
ATOM      8  C   UNL     1      -3.537  86.069  -8.075  1.00  0.00    -0.027 CG0
ATOM      9  G   UNL     1      -3.669  84.631  -8.542  1.00  0.00     0.000 G0
ENDBRANCH   5   6
ENDBRANCH   4   5
ENDBRANCH   2   4
BRANCH   1  10
ATOM     10  C   UNL     1      -6.133  83.319  -9.018  1.00  0.00     0.057 C 
BRANCH  10  11
ATOM     11  C   UNL     1      -5.913  82.911  -7.581  1.00  0.00    -0.026 C 
ATOM     12  C   UNL     1      -4.757  83.057  -6.888  1.00  0.00    -0.024 C 
BRANCH  12  13
ATOM     13  C   UNL     1      -3.402  83.523  -7.446  1.00  0.00    -0.014 C 
ATOM     14  C   UNL     1      -2.470  83.967  -6.287  1.00  0.00     0.016 C 
ATOM     15  C   UNL     1      -2.723  82.305  -8.117  1.00  0.00     0.016 C 
BRANCH  13  16
ATOM     16  C   UNL     1      -3.639  84.620  -8.542  1.00  0.00     0.038 CG0
ATOM     17  G   UNL     1      -3.547  86.060  -8.077  1.00  0.00     0.000 G0
ENDBRANCH  13  16
ENDBRANCH  12  13
ENDBRANCH  10  11
ENDBRANCH   1  10
TORSDOF 0
ENDMDL
MODEL 2
REMARK VINA RESULT:    -3.049      1.261      3.701
REMARK INTER + INTRA:          -3.610
REMARK INTER:                  -4.427
REMARK INTRA:                   0.817
REMARK UNBOUND:                 0.687
REMARK SMILES CC1=CCCC(C)=CCC(C)(C)C=CC1
REMARK SMILES IDX 2 1 3 2 1 3 4 4 5 5 6 6 7 7 8 8 15 10 14 11 13 12 10 13
REMARK SMILES IDX 11 14 12 15 9 16
REMARK H PARENT
REMARK Flexibility Score: 60.00
ROOT
ATOM      1  C   UNL     1      -4.557  87.004  -7.523  1.00  0.00    -0.074 C 
ATOM      2  C   UNL     1      -5.364  87.350  -8.569  1.00  0.00    -0.027 C 
ATOM      3  C   UNL     1      -3.495  87.998  -7.117  1.00  0.00     0.039 C 
ENDROOT
BRANCH   2   4
ATOM      4  C   UNL     1      -6.585  86.643  -9.152  1.00  0.00     0.032 C 
BRANCH   4   5
ATOM      5  C   UNL     1      -6.304  85.496 -10.147  1.00  0.00     0.034 C 
BRANCH   5   6
ATOM      6  C   UNL     1      -6.578  84.074  -9.632  1.00  0.00    -0.077 C 
ATOM      7  C   UNL     1      -8.019  83.612  -9.612  1.00  0.00     0.039 C 
ATOM      8  C   UNL     1      -5.650  83.141  -9.266  1.00  0.00    -0.027 CG0
ATOM      9  G   UNL     1      -4.157  83.319  -9.067  1.00  0.00     0.000 G0
ENDBRANCH   5   6
ENDBRANCH   4   5
ENDBRANCH   2   4
BRANCH   1  10
ATOM     10  C   UNL     1      -4.555  85.667  -6.801  1.00  0.00     0.057 C 
BRANCH  10  11
ATOM     11  C   UNL     1      -3.169  85.104  -6.595  1.00  0.00    -0.026 C 
ATOM     12  C   UNL     1      -2.739  83.892  -7.025  1.00  0.00    -0.024 C 
BRANCH  12  13
ATOM     13  C   UNL     1      -3.594  82.788  -7.671  1.00  0.00    -0.014 C 
ATOM     14  C   UNL     1      -2.782  81.467  -7.761  1.00  0.00     0.016 C 
ATOM     15  C   UNL     1      -4.791  82.507  -6.732  1.00  0.00     0.016 C 
BRANCH  13  16
ATOM     16  C   UNL     1      -4.154  83.299  -9.044  1.00  0.00     0.038 CG0
ATOM     17  G   UNL     1      -5.649  83.145  -9.253  1.00  0.00     0.000 G0
ENDBRANCH  13  16
ENDBRANCH  12  13
ENDBRANCH  10  11
ENDBRANCH   1  10
TORSDOF 0
ENDMDL
MODEL 3
REMARK VINA RESULT:    -3.013      7.315      8.936
REMARK INTER + INTRA:          -3.559
REMARK INTER:                  -4.171
REMARK INTRA:                   0.612
REMARK UNBOUND:                 0.687
REMARK SMILES CC1=CCCC(C)=CCC(C)(C)C=CC1
REMARK SMILES IDX 2 1 3 2 1 3 4 4 5 5 6 6 7 7 8 8 15 10 14 11 13 12 10 13
REMARK SMILES IDX 11 14 12 15 9 16
REMARK H PARENT
REMARK Flexibility Score: 60.00
ROOT
ATOM      1  C   UNL     1      -7.140  89.515 -13.447  1.00  0.00    -0.074 C 
ATOM      2  C   UNL     1      -6.044  89.124 -14.161  1.00  0.00    -0.027 C 
ATOM      3  C   UNL     1      -8.442  88.812 -13.749  1.00  0.00     0.039 C 
ENDROOT
BRANCH   2   4
ATOM      4  C   UNL     1      -4.579  89.538 -14.032  1.00  0.00     0.032 C 
BRANCH   4   5
ATOM      5  C   UNL     1      -4.086  90.629 -15.008  1.00  0.00     0.034 C 
BRANCH   5   6
ATOM      6  C   UNL     1      -4.871  91.951 -14.995  1.00  0.00    -0.077 C 
ATOM      7  C   UNL     1      -5.642  92.307 -16.247  1.00  0.00     0.039 C 
ATOM      8  C   UNL     1      -5.021  92.805 -13.941  1.00  0.00    -0.027 CG0
ATOM      9  G   UNL     1      -4.301  92.797 -12.606  1.00  0.00     0.000 G0
ENDBRANCH   5   6
ENDBRANCH   4   5
ENDBRANCH   2   4
BRANCH   1  10
ATOM     10  C   UNL     1      -7.197  90.666 -12.458  1.00  0.00     0.057 C 
BRANCH  10  11
ATOM     11  C   UNL     1      -6.263  90.489 -11.284  1.00  0.00    -0.026 C 
ATOM     12  C   UNL     1      -5.467  91.452 -10.758  1.00  0.00    -0.024 C 
BRANCH  12  13
ATOM     13  C   UNL     1      -5.234  92.864 -11.322  1.00  0.00    -0.014 C 
ATOM     14  C   UNL     1      -6.594  93.571 -11.572  1.00  0.00     0.016 C 
ATOM     15  C   UNL     1      -4.500  93.690 -10.240  1.00  0.00     0.016 C 
BRANCH  13  16
ATOM     16  C   UNL     1      -4.309  92.775 -12.585  1.00  0.00     0.038 CG0
ATOM     17  G   UNL     1      -5.011  92.796 -13.929  1.00  0.00     0.000 G0
ENDBRANCH  13  16
ENDBRANCH  12  13
ENDBRANCH  10  11
ENDBRANCH   1  10
TORSDOF 0
ENDMDL
MODEL 4
REMARK VINA RESULT:    -2.978      7.298      9.216
REMARK INTER + INTRA:          -3.509
REMARK INTER:                  -4.281
REMARK INTRA:                   0.772
REMARK UNBOUND:                 0.687
REMARK SMILES CC1=CCCC(C)=CCC(C)(C)C=CC1
REMARK SMILES IDX 2 1 3 2 1 3 4 4 5 5 6 6 7 7 8 8 15 10 14 11 13 12 10 13
REMARK SMILES IDX 11 14 12 15 9 16
REMARK H PARENT
REMARK Flexibility Score: 60.00
ROOT
ATOM      1  C   UNL     1      -7.965  91.834 -14.162  1.00  0.00    -0.074 C 
ATOM      2  C   UNL     1      -8.131  90.684 -13.444  1.00  0.00    -0.027 C 
ATOM      3  C   UNL     1      -8.907  92.974 -13.857  1.00  0.00     0.039 C 
ENDROOT
BRANCH   2   4
ATOM      4  C   UNL     1      -7.297  89.405 -13.420  1.00  0.00     0.032 C 
BRANCH   4   5
ATOM      5  C   UNL     1      -6.229  89.302 -12.308  1.00  0.00     0.034 C 
BRANCH   5   6
ATOM      6  C   UNL     1      -5.299  90.516 -12.153  1.00  0.00    -0.077 C 
ATOM      7  C   UNL     1      -5.497  91.385 -10.930  1.00  0.00     0.039 C 
ATOM      8  C   UNL     1      -4.248  90.853 -12.957  1.00  0.00    -0.027 CG0
ATOM      9  G   UNL     1      -3.859  90.267 -14.301  1.00  0.00     0.000 G0
ENDBRANCH   5   6
ENDBRANCH   4   5
ENDBRANCH   2   4
BRANCH   1  10
ATOM     10  C   UNL     1      -6.996  92.035 -15.314  1.00  0.00     0.057 C 
BRANCH  10  11
ATOM     11  C   UNL     1      -5.816  92.906 -14.954  1.00  0.00    -0.026 C 
ATOM     12  C   UNL     1      -4.511  92.571 -15.113  1.00  0.00    -0.024 C 
BRANCH  12  13
ATOM     13  C   UNL     1      -3.959  91.202 -15.546  1.00  0.00    -0.014 C 
ATOM     14  C   UNL     1      -4.811  90.624 -16.708  1.00  0.00     0.016 C 
ATOM     15  C   UNL     1      -2.535  91.424 -16.110  1.00  0.00     0.016 C 
BRANCH  13  16
ATOM     16  C   UNL     1      -3.850  90.264 -14.294  1.00  0.00     0.038 CG0
ATOM     17  G   UNL     1      -4.249  90.877 -12.964  1.00  0.00     0.000 G0
ENDBRANCH  13  16
ENDBRANCH  12  13
ENDBRANCH  10  11
ENDBRANCH   1  10
TORSDOF 0
ENDMDL
MODEL 5
REMARK VINA RESULT:    -2.939      6.380      8.557
REMARK INTER + INTRA:          -3.455
REMARK INTER:                  -4.274
REMARK INTRA:                   0.818
REMARK UNBOUND:                 0.687
REMARK SMILES CC1=CCCC(C)=CCC(C)(C)C=CC1
REMARK SMILES IDX 2 1 3 2 1 3 4 4 5 5 6 6 7 7 8 8 15 10 14 11 13 12 10 13
REMARK SMILES IDX 11 14 12 15 9 16
REMARK H PARENT
REMARK Flexibility Score: 60.00
ROOT
ATOM      1  C   UNL     1      -4.493  91.089 -14.697  1.00  0.00    -0.074 C 
ATOM      2  C   UNL     1      -4.179  92.315 -14.185  1.00  0.00    -0.027 C 
ATOM      3  C   UNL     1      -4.392  90.924 -16.194  1.00  0.00     0.039 C 
ENDROOT
BRANCH   2   4
ATOM      4  C   UNL     1      -4.068  92.783 -12.735  1.00  0.00     0.032 C 
BRANCH   4   5
ATOM      5  C   UNL     1      -5.384  93.212 -12.049  1.00  0.00     0.034 C 
BRANCH   5   6
ATOM      6  C   UNL     1      -5.945  92.238 -11.001  1.00  0.00    -0.077 C 
ATOM      7  C   UNL     1      -5.362  92.312  -9.607  1.00  0.00     0.039 C 
ATOM      8  C   UNL     1      -6.981  91.363 -11.166  1.00  0.00    -0.027 CG0
ATOM      9  G   UNL     1      -7.693  90.970 -12.446  1.00  0.00     0.000 G0
ENDBRANCH   5   6
ENDBRANCH   4   5
ENDBRANCH   2   4
BRANCH   1  10
ATOM     10  C   UNL     1      -5.041  89.908 -13.913  1.00  0.00     0.057 C 
BRANCH  10  11
ATOM     11  C   UNL     1      -6.184  89.210 -14.610  1.00  0.00    -0.026 C 
ATOM     12  C   UNL     1      -7.438  89.064 -14.115  1.00  0.00    -0.024 C 
BRANCH  12  13
ATOM     13  C   UNL     1      -7.920  89.438 -12.703  1.00  0.00    -0.014 C 
ATOM     14  C   UNL     1      -9.388  88.977 -12.499  1.00  0.00     0.016 C 
ATOM     15  C   UNL     1      -7.063  88.646 -11.687  1.00  0.00     0.016 C 
BRANCH  13  16
ATOM     16  C   UNL     1      -7.682  90.969 -12.460  1.00  0.00     0.038 CG0
ATOM     17  G   UNL     1      -6.986  91.338 -11.164  1.00  0.00     0.000 G0
ENDBRANCH  13  16
ENDBRANCH  12  13
ENDBRANCH  10  11
ENDBRANCH   1  10
TORSDOF 0
ENDMDL
MODEL 6
REMARK VINA RESULT:    -2.924      6.559      9.011
REMARK INTER + INTRA:          -3.433
REMARK INTER:                  -4.168
REMARK INTRA:                   0.735
REMARK UNBOUND:                 0.687
REMARK SMILES CC1=CCCC(C)=CCC(C)(C)C=CC1
REMARK SMILES IDX 2 1 3 2 1 3 4 4 5 5 6 6 7 7 8 8 15 10 14 11 13 12 10 13
REMARK SMILES IDX 11 14 12 15 9 16
REMARK H PARENT
REMARK Flexibility Score: 60.00
ROOT
ATOM      1  C   UNL     1      -5.718  90.987 -15.544  1.00  0.00    -0.074 C 
ATOM      2  C   UNL     1      -5.625  89.694 -15.112  1.00  0.00    -0.027 C 
ATOM      3  C   UNL     1      -5.839  91.206 -17.033  1.00  0.00     0.039 C 
ENDROOT
BRANCH   2   4
ATOM      4  C   UNL     1      -5.606  89.124 -13.696  1.00  0.00     0.032 C 
BRANCH   4   5
ATOM      5  C   UNL     1      -6.942  89.164 -12.921  1.00  0.00     0.034 C 
BRANCH   5   6
ATOM      6  C   UNL     1      -6.863  89.647 -11.464  1.00  0.00    -0.077 C 
ATOM      7  C   UNL     1      -7.011  88.601 -10.381  1.00  0.00     0.039 C 
ATOM      8  C   UNL     1      -6.585  90.912 -11.034  1.00  0.00    -0.027 CG0
ATOM      9  G   UNL     1      -6.498  92.191 -11.845  1.00  0.00     0.000 G0
ENDBRANCH   5   6
ENDBRANCH   4   5
ENDBRANCH   2   4
BRANCH   1  10
ATOM     10  C   UNL     1      -5.600  92.228 -14.676  1.00  0.00     0.057 C 
BRANCH  10  11
ATOM     11  C   UNL     1      -4.281  92.323 -13.948  1.00  0.00    -0.026 C 
ATOM     12  C   UNL     1      -4.125  92.627 -12.636  1.00  0.00    -0.024 C 
BRANCH  12  13
ATOM     13  C   UNL     1      -5.223  93.079 -11.659  1.00  0.00    -0.014 C 
ATOM     14  C   UNL     1      -4.675  93.091 -10.206  1.00  0.00     0.016 C 
ATOM     15  C   UNL     1      -5.589  94.543 -12.005  1.00  0.00     0.016 C 
BRANCH  13  16
ATOM     16  C   UNL     1      -6.500  92.192 -11.863  1.00  0.00     0.038 CG0
ATOM     17  G   UNL     1      -6.567  90.921 -11.039  1.00  0.00     0.000 G0
ENDBRANCH  13  16
ENDBRANCH  12  13
ENDBRANCH  10  11
ENDBRANCH   1  10
TORSDOF 0
ENDMDL
MODEL 7
REMARK VINA RESULT:    -2.918      1.682      4.051
REMARK INTER + INTRA:          -3.425
REMARK INTER:                  -3.993
REMARK INTRA:                   0.568
REMARK UNBOUND:                 0.687
REMARK SMILES CC1=CCCC(C)=CCC(C)(C)C=CC1
REMARK SMILES IDX 2 1 3 2 1 3 4 4 5 5 6 6 7 7 8 8 15 10 14 11 13 12 10 13
REMARK SMILES IDX 11 14 12 15 9 16
REMARK H PARENT
REMARK Flexibility Score: 60.00
ROOT
ATOM      1  C   UNL     1      -4.042  83.152  -8.866  1.00  0.00    -0.074 C 
ATOM      2  C   UNL     1      -3.223  84.029  -8.214  1.00  0.00    -0.027 C 
ATOM      3  C   UNL     1      -3.378  82.037  -9.639  1.00  0.00     0.039 C 
ENDROOT
BRANCH   2   4
ATOM      4  C   UNL     1      -3.559  85.179  -7.268  1.00  0.00     0.032 C 
BRANCH   4   5
ATOM      5  C   UNL     1      -4.018  86.499  -7.927  1.00  0.00     0.034 C 
BRANCH   5   6
ATOM      6  C   UNL     1      -5.146  87.255  -7.206  1.00  0.00    -0.077 C 
ATOM      7  C   UNL     1      -4.831  88.647  -6.704  1.00  0.00     0.039 C 
ATOM      8  C   UNL     1      -6.437  86.842  -7.043  1.00  0.00    -0.027 CG0
ATOM      9  G   UNL     1      -7.037  85.478  -7.325  1.00  0.00     0.000 G0
ENDBRANCH   5   6
ENDBRANCH   4   5
ENDBRANCH   2   4
BRANCH   1  10
ATOM     10  C   UNL     1      -5.554  83.257  -8.978  1.00  0.00     0.057 C 
BRANCH  10  11
ATOM     11  C   UNL     1      -6.006  84.251 -10.021  1.00  0.00    -0.026 C 
ATOM     12  C   UNL     1      -6.970  85.189  -9.850  1.00  0.00    -0.024 C 
BRANCH  12  13
ATOM     13  C   UNL     1      -7.899  85.343  -8.634  1.00  0.00    -0.014 C 
ATOM     14  C   UNL     1      -8.896  86.510  -8.867  1.00  0.00     0.016 C 
ATOM     15  C   UNL     1      -8.747  84.054  -8.521  1.00  0.00     0.016 C 
BRANCH  13  16
ATOM     16  C   UNL     1      -7.035  85.479  -7.332  1.00  0.00     0.038 CG0
ATOM     17  G   UNL     1      -6.453  86.852  -7.058  1.00  0.00     0.000 G0
ENDBRANCH  13  16
ENDBRANCH  12  13
ENDBRANCH  10  11
ENDBRANCH   1  10
TORSDOF 0
ENDMDL
MODEL 8
REMARK VINA RESULT:    -2.907      7.650      8.935
REMARK INTER + INTRA:          -3.410
REMARK INTER:                  -4.061
REMARK INTRA:                   0.651
REMARK UNBOUND:                 0.687
REMARK SMILES CC1=CCCC(C)=CCC(C)(C)C=CC1
REMARK SMILES IDX 2 1 3 2 1 3 4 4 5 5 6 6 7 7 8 8 15 10 14 11 13 12 10 13
REMARK SMILES IDX 11 14 12 15 9 16
REMARK H PARENT
REMARK Flexibility Score: 60.00
ROOT
ATOM      1  C   UNL     1      -7.954  89.668 -13.280  1.00  0.00    -0.074 C 
ATOM      2  C   UNL     1      -7.676  90.047 -11.997  1.00  0.00    -0.027 C 
ATOM      3  C   UNL     1      -9.208  88.856 -13.499  1.00  0.00     0.039 C 
ENDROOT
BRANCH   2   4
ATOM      4  C   UNL     1      -6.573  90.951 -11.450  1.00  0.00     0.032 C 
BRANCH   4   5
ATOM      5  C   UNL     1      -6.548  92.401 -11.981  1.00  0.00     0.034 C 
BRANCH   5   6
ATOM      6  C   UNL     1      -5.171  92.939 -12.405  1.00  0.00    -0.077 C 
ATOM      7  C   UNL     1      -4.340  93.623 -11.342  1.00  0.00     0.039 C 
ATOM      8  C   UNL     1      -4.573  92.792 -13.624  1.00  0.00    -0.027 CG0
ATOM      9  G   UNL     1      -5.171  92.267 -14.915  1.00  0.00     0.000 G0
ENDBRANCH   5   6
ENDBRANCH   4   5
ENDBRANCH   2   4
BRANCH   1  10
ATOM     10  C   UNL     1      -7.063  89.892 -14.490  1.00  0.00     0.057 C 
BRANCH  10  11
ATOM     11  C   UNL     1      -5.697  89.264 -14.347  1.00  0.00    -0.026 C 
ATOM     12  C   UNL     1      -4.531  89.808 -14.775  1.00  0.00    -0.024 C 
BRANCH  12  13
ATOM     13  C   UNL     1      -4.365  91.086 -15.614  1.00  0.00    -0.014 C 
ATOM     14  C   UNL     1      -2.859  91.376 -15.856  1.00  0.00     0.016 C 
ATOM     15  C   UNL     1      -4.993  90.824 -17.004  1.00  0.00     0.016 C 
BRANCH  13  16
ATOM     16  C   UNL     1      -5.150  92.262 -14.934  1.00  0.00     0.038 CG0
ATOM     17  G   UNL     1      -4.571  92.786 -13.634  1.00  0.00     0.000 G0
ENDBRANCH  13  16
ENDBRANCH  12  13
ENDBRANCH  10  11
ENDBRANCH   1  10
TORSDOF 0
ENDMDL
MODEL 9
REMARK VINA RESULT:    -2.824      1.525      3.678
REMARK INTER + INTRA:          -3.293
REMARK INTER:                  -4.023
REMARK INTRA:                   0.730
REMARK UNBOUND:                 0.687
REMARK SMILES CC1=CCCC(C)=CCC(C)(C)C=CC1
REMARK SMILES IDX 2 1 3 2 1 3 4 4 5 5 6 6 7 7 8 8 15 10 14 11 13 12 10 13
REMARK SMILES IDX 11 14 12 15 9 16
REMARK H PARENT
REMARK Flexibility Score: 60.00
ROOT
ATOM      1  C   UNL     1      -4.158  83.389  -9.040  1.00  0.00    -0.074 C 
ATOM      2  C   UNL     1      -5.394  83.319  -9.616  1.00  0.00    -0.027 C 
ATOM      3  C   UNL     1      -3.390  82.096  -8.904  1.00  0.00     0.039 C 
ENDROOT
BRANCH   2   4
ATOM      4  C   UNL     1      -6.370  84.428 -10.002  1.00  0.00     0.032 C 
BRANCH   4   5
ATOM      5  C   UNL     1      -7.242  85.003  -8.863  1.00  0.00     0.034 C 
BRANCH   5   6
ATOM      6  C   UNL     1      -7.354  86.535  -8.807  1.00  0.00    -0.077 C 
ATOM      7  C   UNL     1      -8.723  87.136  -9.039  1.00  0.00     0.039 C 
ATOM      8  C   UNL     1      -6.364  87.418  -8.483  1.00  0.00    -0.027 CG0
ATOM      9  G   UNL     1      -4.880  87.155  -8.311  1.00  0.00     0.000 G0
ENDBRANCH   5   6
ENDBRANCH   4   5
ENDBRANCH   2   4
BRANCH   1  10
ATOM     10  C   UNL     1      -3.529  84.628  -8.425  1.00  0.00     0.057 C 
BRANCH  10  11
ATOM     11  C   UNL     1      -3.755  84.731  -6.935  1.00  0.00    -0.026 C 
ATOM     12  C   UNL     1      -4.145  85.848  -6.273  1.00  0.00    -0.024 C 
BRANCH  12  13
ATOM     13  C   UNL     1      -4.296  87.261  -6.861  1.00  0.00    -0.014 C 
ATOM     14  C   UNL     1      -5.134  88.152  -5.904  1.00  0.00     0.016 C 
ATOM     15  C   UNL     1      -2.886  87.896  -6.933  1.00  0.00     0.016 C 
BRANCH  13  16
ATOM     16  C   UNL     1      -4.866  87.162  -8.318  1.00  0.00     0.038 CG0
ATOM     17  G   UNL     1      -6.355  87.408  -8.471  1.00  0.00     0.000 G0
ENDBRANCH  13  16
ENDBRANCH  12  13
ENDBRANCH  10  11
ENDBRANCH   1  10
TORSDOF 0
ENDMDL
