MODEL 1
REMARK VINA RESULT:    -3.941      0.000      0.000
REMARK INTER + INTRA:          -8.495
REMARK INTER:                  -6.706
REMARK INTRA:                  -1.789
REMARK UNBOUND:                -1.789
REMARK SMILES CCCCCCCCCCCCCC(=O)[O-]
REMARK SMILES IDX 8 1 9 2 10 3 11 4 12 5 13 6 14 7 15 8 16 9 7 10 6 11 5 12
REMARK SMILES IDX 4 13 3 14 2 15 1 16
REMARK H PARENT
REMARK Flexibility Score: inf
ROOT
ATOM      1  C   UNL     1      11.969  31.189  30.689  1.00  0.00     0.000 C 
ENDROOT
BRANCH   1   2
ATOM      2  C   UNL     1      11.130  32.449  30.418  1.00  0.00     0.000 C 
BRANCH   2   3
ATOM      3  C   UNL     1       9.787  32.139  29.742  1.00  0.00     0.000 C 
BRANCH   3   4
ATOM      4  C   UNL     1       8.838  31.423  30.709  1.00  0.00     0.000 C 
BRANCH   4   5
ATOM      5  C   UNL     1       7.989  30.376  29.973  1.00  0.00     0.006 C 
BRANCH   5   6
ATOM      6  C   UNL     1       8.617  29.952  28.638  1.00  0.00     0.053 C 
BRANCH   6   7
ATOM      7  C   UNL     1       7.602  29.898  27.538  1.00  0.00     0.041 C 
ATOM      8  O   UNL     1       6.461  29.411  27.753  1.00  0.00    -0.550 OA
ATOM      9  O   UNL     1       7.928  30.353  26.267  1.00  0.00    -0.550 OA
ENDBRANCH   6   7
ENDBRANCH   5   6
ENDBRANCH   4   5
ENDBRANCH   3   4
ENDBRANCH   2   3
ENDBRANCH   1   2
BRANCH   1  10
ATOM     10  C   UNL     1      12.294  30.377  29.417  1.00  0.00     0.000 C 
BRANCH  10  11
ATOM     11  C   UNL     1      13.464  30.986  28.624  1.00  0.00    -0.000 C 
BRANCH  11  12
ATOM     12  C   UNL     1      13.150  31.135  27.128  1.00  0.00    -0.000 C 
BRANCH  12  13
ATOM     13  C   UNL     1      11.675  30.842  26.802  1.00  0.00    -0.000 C 
BRANCH  13  14
ATOM     14  C   UNL     1      11.008  31.967  25.990  1.00  0.00    -0.000 C 
BRANCH  14  15
ATOM     15  C   UNL     1      11.247  33.385  26.539  1.00  0.00    -0.003 C 
ATOM     16  C   UNL     1      11.282  34.451  25.445  1.00  0.00     0.004 C 
ENDBRANCH  14  15
ENDBRANCH  13  14
ENDBRANCH  12  13
ENDBRANCH  11  12
ENDBRANCH  10  11
ENDBRANCH   1  10
TORSDOF 12
ENDMDL
MODEL 2
REMARK VINA RESULT:    -3.837      2.548      5.179
REMARK INTER + INTRA:          -8.317
REMARK INTER:                  -7.375
REMARK INTRA:                  -0.943
REMARK UNBOUND:                -1.789
REMARK SMILES CCCCCCCCCCCCCC(=O)[O-]
REMARK SMILES IDX 8 1 9 2 10 3 11 4 12 5 13 6 14 7 15 8 16 9 7 10 6 11 5 12
REMARK SMILES IDX 4 13 3 14 2 15 1 16
REMARK H PARENT
REMARK Flexibility Score: inf
ROOT
ATOM      1  C   UNL     1      13.409  31.025  29.190  1.00  0.00     0.000 C 
ENDROOT
BRANCH   1   2
ATOM      2  C   UNL     1      13.336  31.454  27.714  1.00  0.00     0.000 C 
BRANCH   2   3
ATOM      3  C   UNL     1      11.897  31.678  27.228  1.00  0.00     0.000 C 
BRANCH   3   4
ATOM      4  C   UNL     1      11.520  30.665  26.141  1.00  0.00     0.000 C 
BRANCH   4   5
ATOM      5  C   UNL     1      10.292  31.138  25.350  1.00  0.00     0.006 C 
BRANCH   5   6
ATOM      6  C   UNL     1      10.029  32.640  25.528  1.00  0.00     0.053 C 
BRANCH   6   7
ATOM      7  C   UNL     1      10.801  33.461  24.539  1.00  0.00     0.041 C 
ATOM      8  O   UNL     1      11.123  32.970  23.425  1.00  0.00    -0.550 OA
ATOM      9  O   UNL     1      11.193  34.753  24.862  1.00  0.00    -0.550 OA
ENDBRANCH   6   7
ENDBRANCH   5   6
ENDBRANCH   4   5
ENDBRANCH   3   4
ENDBRANCH   2   3
ENDBRANCH   1   2
BRANCH   1  10
ATOM     10  C   UNL     1      12.041  30.630  29.786  1.00  0.00     0.000 C 
BRANCH  10  11
ATOM     11  C   UNL     1      11.604  31.580  30.915  1.00  0.00    -0.000 C 
BRANCH  11  12
ATOM     12  C   UNL     1      10.100  31.892  30.876  1.00  0.00    -0.000 C 
BRANCH  12  13
ATOM     13  C   UNL     1       9.318  30.917  29.979  1.00  0.00    -0.000 C 
BRANCH  13  14
ATOM     14  C   UNL     1       7.950  30.529  30.569  1.00  0.00    -0.000 C 
BRANCH  14  15
ATOM     15  C   UNL     1       7.760  30.900  32.051  1.00  0.00    -0.003 C 
ATOM     16  C   UNL     1       6.434  31.608  32.325  1.00  0.00     0.004 C 
ENDBRANCH  14  15
ENDBRANCH  13  14
ENDBRANCH  12  13
ENDBRANCH  11  12
ENDBRANCH  10  11
ENDBRANCH   1  10
TORSDOF 12
ENDMDL
MODEL 3
REMARK VINA RESULT:    -3.806      9.178     11.392
REMARK INTER + INTRA:          -8.265
REMARK INTER:                  -6.985
REMARK INTRA:                  -1.279
REMARK UNBOUND:                -1.789
REMARK SMILES CCCCCCCCCCCCCC(=O)[O-]
REMARK SMILES IDX 8 1 9 2 10 3 11 4 12 5 13 6 14 7 15 8 16 9 7 10 6 11 5 12
REMARK SMILES IDX 4 13 3 14 2 15 1 16
REMARK H PARENT
REMARK Flexibility Score: inf
ROOT
ATOM      1  C   UNL     1       5.844  29.946  17.280  1.00  0.00     0.000 C 
ENDROOT
BRANCH   1   2
ATOM      2  C   UNL     1       6.859  30.348  18.364  1.00  0.00     0.000 C 
BRANCH   2   3
ATOM      3  C   UNL     1       7.810  29.205  18.744  1.00  0.00     0.000 C 
BRANCH   3   4
ATOM      4  C   UNL     1       7.047  28.052  19.407  1.00  0.00     0.000 C 
BRANCH   4   5
ATOM      5  C   UNL     1       6.735  28.372  20.875  1.00  0.00     0.006 C 
BRANCH   5   6
ATOM      6  C   UNL     1       5.305  27.974  21.267  1.00  0.00     0.053 C 
BRANCH   6   7
ATOM      7  C   UNL     1       4.281  28.766  20.513  1.00  0.00     0.041 C 
ATOM      8  O   UNL     1       4.171  30.006  20.708  1.00  0.00    -0.550 OA
ATOM      9  O   UNL     1       3.425  28.131  19.623  1.00  0.00    -0.550 OA
ENDBRANCH   6   7
ENDBRANCH   5   6
ENDBRANCH   4   5
ENDBRANCH   3   4
ENDBRANCH   2   3
ENDBRANCH   1   2
BRANCH   1  10
ATOM     10  C   UNL     1       4.872  31.082  16.892  1.00  0.00     0.000 C 
BRANCH  10  11
ATOM     11  C   UNL     1       3.412  30.739  17.240  1.00  0.00    -0.000 C 
BRANCH  11  12
ATOM     12  C   UNL     1       2.625  31.957  17.748  1.00  0.00    -0.000 C 
BRANCH  12  13
ATOM     13  C   UNL     1       3.390  32.749  18.823  1.00  0.00    -0.000 C 
BRANCH  13  14
ATOM     14  C   UNL     1       3.153  34.267  18.728  1.00  0.00    -0.000 C 
BRANCH  14  15
ATOM     15  C   UNL     1       4.378  35.131  19.075  1.00  0.00    -0.003 C 
ATOM     16  C   UNL     1       5.491  34.343  19.764  1.00  0.00     0.004 C 
ENDBRANCH  14  15
ENDBRANCH  13  14
ENDBRANCH  12  13
ENDBRANCH  11  12
ENDBRANCH  10  11
ENDBRANCH   1  10
TORSDOF 12
ENDMDL
MODEL 4
REMARK VINA RESULT:    -3.784      1.190      2.050
REMARK INTER + INTRA:          -8.228
REMARK INTER:                  -6.560
REMARK INTRA:                  -1.668
REMARK UNBOUND:                -1.789
REMARK SMILES CCCCCCCCCCCCCC(=O)[O-]
REMARK SMILES IDX 8 1 9 2 10 3 11 4 12 5 13 6 14 7 15 8 16 9 7 10 6 11 5 12
REMARK SMILES IDX 4 13 3 14 2 15 1 16
REMARK H PARENT
REMARK Flexibility Score: inf
ROOT
ATOM      1  C   UNL     1      10.288  31.790  31.169  1.00  0.00     0.000 C 
ENDROOT
BRANCH   1   2
ATOM      2  C   UNL     1       9.323  31.776  29.970  1.00  0.00     0.000 C 
BRANCH   2   3
ATOM      3  C   UNL     1       8.411  30.543  29.953  1.00  0.00     0.000 C 
BRANCH   3   4
ATOM      4  C   UNL     1       8.570  29.759  28.645  1.00  0.00     0.000 C 
BRANCH   4   5
ATOM      5  C   UNL     1       7.294  29.843  27.795  1.00  0.00     0.006 C 
BRANCH   5   6
ATOM      6  C   UNL     1       7.559  30.429  26.402  1.00  0.00     0.053 C 
BRANCH   6   7
ATOM      7  C   UNL     1       8.158  29.414  25.476  1.00  0.00     0.041 C 
ATOM      8  O   UNL     1       7.632  28.275  25.362  1.00  0.00    -0.550 OA
ATOM      9  O   UNL     1       9.314  29.713  24.767  1.00  0.00    -0.550 OA
ENDBRANCH   6   7
ENDBRANCH   5   6
ENDBRANCH   4   5
ENDBRANCH   3   4
ENDBRANCH   2   3
ENDBRANCH   1   2
BRANCH   1  10
ATOM     10  C   UNL     1      11.778  31.773  30.762  1.00  0.00     0.000 C 
BRANCH  10  11
ATOM     11  C   UNL     1      12.082  30.683  29.720  1.00  0.00    -0.000 C 
BRANCH  11  12
ATOM     12  C   UNL     1      13.308  31.017  28.857  1.00  0.00    -0.000 C 
BRANCH  12  13
ATOM     13  C   UNL     1      12.929  31.685  27.525  1.00  0.00    -0.000 C 
BRANCH  13  14
ATOM     14  C   UNL     1      11.520  31.298  27.041  1.00  0.00    -0.000 C 
BRANCH  14  15
ATOM     15  C   UNL     1      10.618  32.487  26.669  1.00  0.00    -0.003 C 
ATOM     16  C   UNL     1      10.783  32.932  25.217  1.00  0.00     0.004 C 
ENDBRANCH  14  15
ENDBRANCH  13  14
ENDBRANCH  12  13
ENDBRANCH  11  12
ENDBRANCH  10  11
ENDBRANCH   1  10
TORSDOF 12
ENDMDL
MODEL 5
REMARK VINA RESULT:    -3.777     10.076     12.286
REMARK INTER + INTRA:          -8.215
REMARK INTER:                  -6.984
REMARK INTRA:                  -1.231
REMARK UNBOUND:                -1.789
REMARK SMILES CCCCCCCCCCCCCC(=O)[O-]
REMARK SMILES IDX 8 1 9 2 10 3 11 4 12 5 13 6 14 7 15 8 16 9 7 10 6 11 5 12
REMARK SMILES IDX 4 13 3 14 2 15 1 16
REMARK H PARENT
REMARK Flexibility Score: inf
ROOT
ATOM      1  C   UNL     1       4.279  28.932  18.250  1.00  0.00     0.000 C 
ENDROOT
BRANCH   1   2
ATOM      2  C   UNL     1       4.968  28.902  16.875  1.00  0.00     0.000 C 
BRANCH   2   3
ATOM      3  C   UNL     1       6.494  29.040  16.968  1.00  0.00     0.000 C 
BRANCH   3   4
ATOM      4  C   UNL     1       6.896  29.900  18.172  1.00  0.00     0.000 C 
BRANCH   4   5
ATOM      5  C   UNL     1       8.128  29.316  18.878  1.00  0.00     0.006 C 
BRANCH   5   6
ATOM      6  C   UNL     1       8.539  27.955  18.300  1.00  0.00     0.053 C 
BRANCH   6   7
ATOM      7  C   UNL     1       8.985  27.007  19.372  1.00  0.00     0.041 C 
ATOM      8  O   UNL     1       8.815  27.300  20.585  1.00  0.00    -0.550 OA
ATOM      9  O   UNL     1       9.617  25.818  19.032  1.00  0.00    -0.550 OA
ENDBRANCH   6   7
ENDBRANCH   5   6
ENDBRANCH   4   5
ENDBRANCH   3   4
ENDBRANCH   2   3
ENDBRANCH   1   2
BRANCH   1  10
ATOM     10  C   UNL     1       2.893  29.613  18.232  1.00  0.00     0.000 C 
BRANCH  10  11
ATOM     11  C   UNL     1       2.732  30.568  17.037  1.00  0.00    -0.000 C 
BRANCH  11  12
ATOM     12  C   UNL     1       1.747  31.712  17.324  1.00  0.00    -0.000 C 
BRANCH  12  13
ATOM     13  C   UNL     1       2.459  33.042  17.629  1.00  0.00    -0.000 C 
BRANCH  13  14
ATOM     14  C   UNL     1       3.991  32.938  17.521  1.00  0.00    -0.000 C 
BRANCH  14  15
ATOM     15  C   UNL     1       4.738  33.016  18.864  1.00  0.00    -0.003 C 
ATOM     16  C   UNL     1       4.724  34.417  19.475  1.00  0.00     0.004 C 
ENDBRANCH  14  15
ENDBRANCH  13  14
ENDBRANCH  12  13
ENDBRANCH  11  12
ENDBRANCH  10  11
ENDBRANCH   1  10
TORSDOF 12
ENDMDL
MODEL 6
REMARK VINA RESULT:    -3.764      2.352      5.182
REMARK INTER + INTRA:          -8.194
REMARK INTER:                  -6.783
REMARK INTRA:                  -1.411
REMARK UNBOUND:                -1.789
REMARK SMILES CCCCCCCCCCCCCC(=O)[O-]
REMARK SMILES IDX 8 1 9 2 10 3 11 4 12 5 13 6 14 7 15 8 16 9 7 10 6 11 5 12
REMARK SMILES IDX 4 13 3 14 2 15 1 16
REMARK H PARENT
REMARK Flexibility Score: inf
ROOT
ATOM      1  C   UNL     1       8.214  28.753  27.886  1.00  0.00     0.000 C 
ENDROOT
BRANCH   1   2
ATOM      2  C   UNL     1       7.556  28.621  26.502  1.00  0.00     0.000 C 
BRANCH   2   3
ATOM      3  C   UNL     1       8.267  29.449  25.422  1.00  0.00     0.000 C 
BRANCH   3   4
ATOM      4  C   UNL     1       9.457  30.215  26.011  1.00  0.00     0.000 C 
BRANCH   4   5
ATOM      5  C   UNL     1       9.315  31.724  25.768  1.00  0.00     0.006 C 
BRANCH   5   6
ATOM      6  C   UNL     1      10.498  32.519  26.338  1.00  0.00     0.053 C 
BRANCH   6   7
ATOM      7  C   UNL     1      10.948  33.596  25.399  1.00  0.00     0.041 C 
ATOM      8  O   UNL     1      10.899  33.412  24.154  1.00  0.00    -0.550 OA
ATOM      9  O   UNL     1      11.454  34.789  25.898  1.00  0.00    -0.550 OA
ENDBRANCH   6   7
ENDBRANCH   5   6
ENDBRANCH   4   5
ENDBRANCH   3   4
ENDBRANCH   2   3
ENDBRANCH   1   2
BRANCH   1  10
ATOM     10  C   UNL     1       7.248  29.249  28.984  1.00  0.00     0.000 C 
BRANCH  10  11
ATOM     11  C   UNL     1       7.945  30.180  29.992  1.00  0.00    -0.000 C 
BRANCH  11  12
ATOM     12  C   UNL     1       9.289  30.713  29.472  1.00  0.00    -0.000 C 
BRANCH  12  13
ATOM     13  C   UNL     1      10.047  31.535  30.527  1.00  0.00    -0.000 C 
BRANCH  13  14
ATOM     14  C   UNL     1      11.557  31.627  30.242  1.00  0.00    -0.000 C 
BRANCH  14  15
ATOM     15  C   UNL     1      12.114  30.498  29.357  1.00  0.00    -0.003 C 
ATOM     16  C   UNL     1      13.377  30.901  28.597  1.00  0.00     0.004 C 
ENDBRANCH  14  15
ENDBRANCH  13  14
ENDBRANCH  12  13
ENDBRANCH  11  12
ENDBRANCH  10  11
ENDBRANCH   1  10
TORSDOF 12
ENDMDL
MODEL 7
REMARK VINA RESULT:    -3.739      3.680      6.360
REMARK INTER + INTRA:          -8.151
REMARK INTER:                  -6.413
REMARK INTRA:                  -1.739
REMARK UNBOUND:                -1.789
REMARK SMILES CCCCCCCCCCCCCC(=O)[O-]
REMARK SMILES IDX 8 1 9 2 10 3 11 4 12 5 13 6 14 7 15 8 16 9 7 10 6 11 5 12
REMARK SMILES IDX 4 13 3 14 2 15 1 16
REMARK H PARENT
REMARK Flexibility Score: inf
ROOT
ATOM      1  C   UNL     1       7.914  27.260  27.544  1.00  0.00     0.000 C 
ENDROOT
BRANCH   1   2
ATOM      2  C   UNL     1       8.576  28.641  27.395  1.00  0.00     0.000 C 
BRANCH   2   3
ATOM      3  C   UNL     1       8.426  29.225  25.984  1.00  0.00     0.000 C 
BRANCH   3   4
ATOM      4  C   UNL     1       8.575  30.751  26.002  1.00  0.00     0.000 C 
BRANCH   4   5
ATOM      5  C   UNL     1       9.769  31.197  25.147  1.00  0.00     0.006 C 
BRANCH   5   6
ATOM      6  C   UNL     1       9.815  32.720  24.960  1.00  0.00     0.053 C 
BRANCH   6   7
ATOM      7  C   UNL     1      10.950  33.340  25.718  1.00  0.00     0.041 C 
ATOM      8  O   UNL     1      11.251  34.547  25.528  1.00  0.00    -0.550 OA
ATOM      9  O   UNL     1      11.695  32.575  26.606  1.00  0.00    -0.550 OA
ENDBRANCH   6   7
ENDBRANCH   5   6
ENDBRANCH   4   5
ENDBRANCH   3   4
ENDBRANCH   2   3
ENDBRANCH   1   2
BRANCH   1  10
ATOM     10  C   UNL     1       6.760  27.236  28.570  1.00  0.00     0.000 C 
BRANCH  10  11
ATOM     11  C   UNL     1       6.676  28.543  29.379  1.00  0.00    -0.000 C 
BRANCH  11  12
ATOM     12  C   UNL     1       5.356  29.294  29.150  1.00  0.00    -0.000 C 
BRANCH  12  13
ATOM     13  C   UNL     1       5.562  30.655  28.463  1.00  0.00    -0.000 C 
BRANCH  13  14
ATOM     14  C   UNL     1       5.059  30.673  27.008  1.00  0.00    -0.000 C 
BRANCH  14  15
ATOM     15  C   UNL     1       4.277  29.418  26.583  1.00  0.00    -0.003 C 
ATOM     16  C   UNL     1       4.879  28.722  25.364  1.00  0.00     0.004 C 
ENDBRANCH  14  15
ENDBRANCH  13  14
ENDBRANCH  12  13
ENDBRANCH  11  12
ENDBRANCH  10  11
ENDBRANCH   1  10
TORSDOF 12
ENDMDL
MODEL 8
REMARK VINA RESULT:    -3.727      3.239      6.171
REMARK INTER + INTRA:          -8.130
REMARK INTER:                  -5.884
REMARK INTRA:                  -2.245
REMARK UNBOUND:                -1.789
REMARK SMILES CCCCCCCCCCCCCC(=O)[O-]
REMARK SMILES IDX 8 1 9 2 10 3 11 4 12 5 13 6 14 7 15 8 16 9 7 10 6 11 5 12
REMARK SMILES IDX 4 13 3 14 2 15 1 16
REMARK H PARENT
REMARK Flexibility Score: inf
ROOT
ATOM      1  C   UNL     1       7.803  26.165  27.681  1.00  0.00     0.000 C 
ENDROOT
BRANCH   1   2
ATOM      2  C   UNL     1       8.728  27.366  27.416  1.00  0.00     0.000 C 
BRANCH   2   3
ATOM      3  C   UNL     1       8.076  28.439  26.534  1.00  0.00     0.000 C 
BRANCH   3   4
ATOM      4  C   UNL     1       8.430  29.846  27.027  1.00  0.00     0.000 C 
BRANCH   4   5
ATOM      5  C   UNL     1       9.182  29.787  28.365  1.00  0.00     0.006 C 
BRANCH   5   6
ATOM      6  C   UNL     1       8.606  30.762  29.400  1.00  0.00     0.053 C 
BRANCH   6   7
ATOM      7  C   UNL     1       9.615  31.785  29.824  1.00  0.00     0.041 C 
ATOM      8  O   UNL     1      10.184  32.506  28.963  1.00  0.00    -0.550 OA
ATOM      9  O   UNL     1       9.952  31.918  31.164  1.00  0.00    -0.550 OA
ENDBRANCH   6   7
ENDBRANCH   5   6
ENDBRANCH   4   5
ENDBRANCH   3   4
ENDBRANCH   2   3
ENDBRANCH   1   2
BRANCH   1  10
ATOM     10  C   UNL     1       6.453  26.555  28.319  1.00  0.00     0.000 C 
BRANCH  10  11
ATOM     11  C   UNL     1       6.619  27.065  29.761  1.00  0.00    -0.000 C 
BRANCH  11  12
ATOM     12  C   UNL     1       5.903  28.404  30.000  1.00  0.00    -0.000 C 
BRANCH  12  13
ATOM     13  C   UNL     1       4.981  28.797  28.833  1.00  0.00    -0.000 C 
BRANCH  13  14
ATOM     14  C   UNL     1       5.073  30.291  28.476  1.00  0.00    -0.000 C 
BRANCH  14  15
ATOM     15  C   UNL     1       4.799  30.617  26.997  1.00  0.00    -0.003 C 
ATOM     16  C   UNL     1       4.548  29.373  26.146  1.00  0.00     0.004 C 
ENDBRANCH  14  15
ENDBRANCH  13  14
ENDBRANCH  12  13
ENDBRANCH  11  12
ENDBRANCH  10  11
ENDBRANCH   1  10
TORSDOF 12
ENDMDL
MODEL 9
REMARK VINA RESULT:    -3.707      2.881      5.514
REMARK INTER + INTRA:          -8.097
REMARK INTER:                  -6.362
REMARK INTRA:                  -1.735
REMARK UNBOUND:                -1.789
REMARK SMILES CCCCCCCCCCCCCC(=O)[O-]
REMARK SMILES IDX 8 1 9 2 10 3 11 4 12 5 13 6 14 7 15 8 16 9 7 10 6 11 5 12
REMARK SMILES IDX 4 13 3 14 2 15 1 16
REMARK H PARENT
REMARK Flexibility Score: inf
ROOT
ATOM      1  C   UNL     1      10.579  30.940  25.559  1.00  0.00     0.000 C 
ENDROOT
BRANCH   1   2
ATOM      2  C   UNL     1      11.500  31.518  26.647  1.00  0.00     0.000 C 
BRANCH   2   3
ATOM      3  C   UNL     1      10.912  32.761  27.329  1.00  0.00     0.000 C 
BRANCH   3   4
ATOM      4  C   UNL     1      10.462  32.443  28.759  1.00  0.00     0.000 C 
BRANCH   4   5
ATOM      5  C   UNL     1      11.059  31.113  29.240  1.00  0.00     0.006 C 
BRANCH   5   6
ATOM      6  C   UNL     1      11.952  31.289  30.476  1.00  0.00     0.053 C 
BRANCH   6   7
ATOM      7  C   UNL     1      13.322  31.773  30.109  1.00  0.00     0.041 C 
ATOM      8  O   UNL     1      13.868  32.691  30.776  1.00  0.00    -0.550 OA
ATOM      9  O   UNL     1      13.979  31.237  29.010  1.00  0.00    -0.550 OA
ENDBRANCH   6   7
ENDBRANCH   5   6
ENDBRANCH   4   5
ENDBRANCH   3   4
ENDBRANCH   2   3
ENDBRANCH   1   2
BRANCH   1  10
ATOM     10  C   UNL     1       9.193  31.617  25.500  1.00  0.00     0.000 C 
BRANCH  10  11
ATOM     11  C   UNL     1       8.121  30.812  26.257  1.00  0.00    -0.000 C 
BRANCH  11  12
ATOM     12  C   UNL     1       8.599  29.401  26.631  1.00  0.00    -0.000 C 
BRANCH  12  13
ATOM     13  C   UNL     1       8.266  29.030  28.086  1.00  0.00    -0.000 C 
BRANCH  13  14
ATOM     14  C   UNL     1       7.259  29.998  28.734  1.00  0.00    -0.000 C 
BRANCH  14  15
ATOM     15  C   UNL     1       7.600  30.410  30.177  1.00  0.00    -0.003 C 
ATOM     16  C   UNL     1       6.960  29.502  31.225  1.00  0.00     0.004 C 
ENDBRANCH  14  15
ENDBRANCH  13  14
ENDBRANCH  12  13
ENDBRANCH  11  12
ENDBRANCH  10  11
ENDBRANCH   1  10
TORSDOF 12
ENDMDL
