MODEL 1
REMARK VINA RESULT:    -3.606      0.000      0.000
REMARK INTER + INTRA:          -4.580
REMARK INTER:                  -4.450
REMARK INTRA:                  -0.131
REMARK UNBOUND:                -0.131
REMARK SMILES CCCCCC(=O)[O-]
REMARK SMILES IDX 4 1 5 2 6 3 7 4 8 5 3 6 2 7 1 8
REMARK H PARENT
REMARK Flexibility Score: inf
ROOT
ATOM      1  C   UNL     1     -10.830  -3.469  -3.551  1.00  0.00     0.006 C 
ENDROOT
BRANCH   1   2
ATOM      2  C   UNL     1     -10.454  -3.324  -2.071  1.00  0.00     0.053 C 
BRANCH   2   3
ATOM      3  C   UNL     1      -8.985  -3.518  -1.847  1.00  0.00     0.041 C 
ATOM      4  O   UNL     1      -8.528  -4.664  -1.598  1.00  0.00    -0.550 OA
ATOM      5  O   UNL     1      -8.117  -2.438  -1.950  1.00  0.00    -0.550 OA
ENDBRANCH   2   3
ENDBRANCH   1   2
BRANCH   1   6
ATOM      6  C   UNL     1     -11.124  -4.926  -3.938  1.00  0.00     0.000 C 
BRANCH   6   7
ATOM      7  C   UNL     1     -10.049  -5.469  -4.886  1.00  0.00    -0.003 C 
ATOM      8  C   UNL     1     -10.436  -6.842  -5.428  1.00  0.00     0.004 C 
ENDBRANCH   6   7
ENDBRANCH   1   6
TORSDOF 4
ENDMDL
MODEL 2
REMARK VINA RESULT:    -3.488      0.819      1.413
REMARK INTER + INTRA:          -4.435
REMARK INTER:                  -4.238
REMARK INTRA:                  -0.196
REMARK UNBOUND:                -0.131
REMARK SMILES CCCCCC(=O)[O-]
REMARK SMILES IDX 4 1 5 2 6 3 7 4 8 5 3 6 2 7 1 8
REMARK H PARENT
REMARK Flexibility Score: inf
ROOT
ATOM      1  C   UNL     1     -11.035  -4.437  -2.974  1.00  0.00     0.006 C 
ENDROOT
BRANCH   1   2
ATOM      2  C   UNL     1     -10.434  -3.391  -2.026  1.00  0.00     0.053 C 
BRANCH   2   3
ATOM      3  C   UNL     1      -8.949  -3.545  -1.897  1.00  0.00     0.041 C 
ATOM      4  O   UNL     1      -8.198  -2.538  -1.986  1.00  0.00    -0.550 OA
ATOM      5  O   UNL     1      -8.397  -4.794  -1.643  1.00  0.00    -0.550 OA
ENDBRANCH   2   3
ENDBRANCH   1   2
BRANCH   1   6
ATOM      6  C   UNL     1     -10.862  -4.051  -4.451  1.00  0.00     0.000 C 
BRANCH   6   7
ATOM      7  C   UNL     1     -10.681  -5.297  -5.325  1.00  0.00    -0.003 C 
ATOM      8  C   UNL     1      -9.259  -5.842  -5.219  1.00  0.00     0.004 C 
ENDBRANCH   6   7
ENDBRANCH   1   6
TORSDOF 4
ENDMDL
MODEL 3
REMARK VINA RESULT:    -3.396      2.300      4.067
REMARK INTER + INTRA:          -4.321
REMARK INTER:                  -4.216
REMARK INTRA:                  -0.105
REMARK UNBOUND:                -0.131
REMARK SMILES CCCCCC(=O)[O-]
REMARK SMILES IDX 4 1 5 2 6 3 7 4 8 5 3 6 2 7 1 8
REMARK H PARENT
REMARK Flexibility Score: inf
ROOT
ATOM      1  C   UNL     1     -11.105  -4.769  -3.324  1.00  0.00     0.006 C 
ENDROOT
BRANCH   1   2
ATOM      2  C   UNL     1     -10.755  -4.771  -4.817  1.00  0.00     0.053 C 
BRANCH   2   3
ATOM      3  C   UNL     1      -9.622  -5.704  -5.122  1.00  0.00     0.041 C 
ATOM      4  O   UNL     1      -8.563  -5.656  -4.443  1.00  0.00    -0.550 OA
ATOM      5  O   UNL     1      -9.750  -6.648  -6.132  1.00  0.00    -0.550 OA
ENDBRANCH   2   3
ENDBRANCH   1   2
BRANCH   1   6
ATOM      6  C   UNL     1     -10.714  -3.453  -2.635  1.00  0.00     0.000 C 
BRANCH   6   7
ATOM      7  C   UNL     1     -10.072  -3.719  -1.269  1.00  0.00    -0.003 C 
ATOM      8  C   UNL     1     -11.124  -3.759  -0.164  1.00  0.00     0.004 C 
ENDBRANCH   6   7
ENDBRANCH   1   6
TORSDOF 4
ENDMDL
MODEL 4
REMARK VINA RESULT:    -3.253      2.619      4.329
REMARK INTER + INTRA:          -4.144
REMARK INTER:                  -4.098
REMARK INTRA:                  -0.047
REMARK UNBOUND:                -0.131
REMARK SMILES CCCCCC(=O)[O-]
REMARK SMILES IDX 4 1 5 2 6 3 7 4 8 5 3 6 2 7 1 8
REMARK H PARENT
REMARK Flexibility Score: inf
ROOT
ATOM      1  C   UNL     1      -9.959  -4.541  -3.796  1.00  0.00     0.006 C 
ENDROOT
BRANCH   1   2
ATOM      2  C   UNL     1     -10.516  -5.492  -4.862  1.00  0.00     0.053 C 
BRANCH   2   3
ATOM      3  C   UNL     1      -9.425  -6.232  -5.573  1.00  0.00     0.041 C 
ATOM      4  O   UNL     1      -9.282  -6.107  -6.818  1.00  0.00    -0.550 OA
ATOM      5  O   UNL     1      -8.543  -7.032  -4.857  1.00  0.00    -0.550 OA
ENDBRANCH   2   3
ENDBRANCH   1   2
BRANCH   1   6
ATOM      6  C   UNL     1     -10.984  -4.236  -2.693  1.00  0.00     0.000 C 
BRANCH   6   7
ATOM      7  C   UNL     1     -10.339  -3.451  -1.546  1.00  0.00    -0.003 C 
ATOM      8  C   UNL     1     -11.023  -3.757  -0.216  1.00  0.00     0.004 C 
ENDBRANCH   6   7
ENDBRANCH   1   6
TORSDOF 4
ENDMDL
MODEL 5
REMARK VINA RESULT:    -3.177      1.571      1.980
REMARK INTER + INTRA:          -4.050
REMARK INTER:                  -3.905
REMARK INTRA:                  -0.145
REMARK UNBOUND:                -0.131
REMARK SMILES CCCCCC(=O)[O-]
REMARK SMILES IDX 4 1 5 2 6 3 7 4 8 5 3 6 2 7 1 8
REMARK H PARENT
REMARK Flexibility Score: inf
ROOT
ATOM      1  C   UNL     1     -10.354  -4.779  -4.835  1.00  0.00     0.006 C 
ENDROOT
BRANCH   1   2
ATOM      2  C   UNL     1     -10.776  -4.833  -3.361  1.00  0.00     0.053 C 
BRANCH   2   3
ATOM      3  C   UNL     1      -9.882  -3.999  -2.495  1.00  0.00     0.041 C 
ATOM      4  O   UNL     1      -8.858  -4.507  -1.967  1.00  0.00    -0.550 OA
ATOM      5  O   UNL     1     -10.160  -2.652  -2.300  1.00  0.00    -0.550 OA
ENDBRANCH   2   3
ENDBRANCH   1   2
BRANCH   1   6
ATOM      6  C   UNL     1      -9.730  -6.099  -5.311  1.00  0.00     0.000 C 
BRANCH   6   7
ATOM      7  C   UNL     1      -8.200  -6.008  -5.327  1.00  0.00    -0.003 C 
ATOM      8  C   UNL     1      -7.566  -7.396  -5.388  1.00  0.00     0.004 C 
ENDBRANCH   6   7
ENDBRANCH   1   6
TORSDOF 4
ENDMDL
MODEL 6
REMARK VINA RESULT:    -3.083      2.638      4.311
REMARK INTER + INTRA:          -3.935
REMARK INTER:                  -3.873
REMARK INTRA:                  -0.062
REMARK UNBOUND:                -0.131
REMARK SMILES CCCCCC(=O)[O-]
REMARK SMILES IDX 4 1 5 2 6 3 7 4 8 5 3 6 2 7 1 8
REMARK H PARENT
REMARK Flexibility Score: inf
ROOT
ATOM      1  C   UNL     1     -10.083  -5.316  -5.179  1.00  0.00     0.006 C 
ENDROOT
BRANCH   1   2
ATOM      2  C   UNL     1      -9.705  -6.770  -5.487  1.00  0.00     0.053 C 
BRANCH   2   3
ATOM      3  C   UNL     1      -8.231  -6.928  -5.705  1.00  0.00     0.041 C 
ATOM      4  O   UNL     1      -7.752  -6.859  -6.866  1.00  0.00    -0.550 OA
ATOM      5  O   UNL     1      -7.382  -7.115  -4.621  1.00  0.00    -0.550 OA
ENDBRANCH   2   3
ENDBRANCH   1   2
BRANCH   1   6
ATOM      6  C   UNL     1     -10.895  -5.187  -3.881  1.00  0.00     0.000 C 
BRANCH   6   7
ATOM      7  C   UNL     1     -10.841  -3.754  -3.341  1.00  0.00    -0.003 C 
ATOM      8  C   UNL     1     -10.294  -3.723  -1.915  1.00  0.00     0.004 C 
ENDBRANCH   6   7
ENDBRANCH   1   6
TORSDOF 4
ENDMDL
MODEL 7
REMARK VINA RESULT:    -2.841     15.859     16.522
REMARK INTER + INTRA:          -3.635
REMARK INTER:                  -3.579
REMARK INTRA:                  -0.056
REMARK UNBOUND:                -0.131
REMARK SMILES CCCCCC(=O)[O-]
REMARK SMILES IDX 4 1 5 2 6 3 7 4 8 5 3 6 2 7 1 8
REMARK H PARENT
REMARK Flexibility Score: inf
ROOT
ATOM      1  C   UNL     1      -7.099   6.831   7.877  1.00  0.00     0.006 C 
ENDROOT
BRANCH   1   2
ATOM      2  C   UNL     1      -5.952   7.739   8.338  1.00  0.00     0.053 C 
BRANCH   2   3
ATOM      3  C   UNL     1      -4.692   7.479   7.569  1.00  0.00     0.041 C 
ATOM      4  O   UNL     1      -4.464   8.102   6.500  1.00  0.00    -0.550 OA
ATOM      5  O   UNL     1      -3.755   6.574   8.052  1.00  0.00    -0.550 OA
ENDBRANCH   2   3
ENDBRANCH   1   2
BRANCH   1   6
ATOM      6  C   UNL     1      -8.445   7.232   8.500  1.00  0.00     0.000 C 
BRANCH   6   7
ATOM      7  C   UNL     1      -9.599   6.974   7.525  1.00  0.00    -0.003 C 
ATOM      8  C   UNL     1     -10.453   8.225   7.338  1.00  0.00     0.004 C 
ENDBRANCH   6   7
ENDBRANCH   1   6
TORSDOF 4
ENDMDL
MODEL 8
REMARK VINA RESULT:    -2.757      3.383      4.664
REMARK INTER + INTRA:          -3.532
REMARK INTER:                  -3.301
REMARK INTRA:                  -0.231
REMARK UNBOUND:                -0.131
REMARK SMILES CCCCCC(=O)[O-]
REMARK SMILES IDX 4 1 5 2 6 3 7 4 8 5 3 6 2 7 1 8
REMARK H PARENT
REMARK Flexibility Score: inf
ROOT
ATOM      1  C   UNL     1     -10.099  -6.554  -7.518  1.00  0.00     0.006 C 
ENDROOT
BRANCH   1   2
ATOM      2  C   UNL     1     -10.403  -6.707  -6.022  1.00  0.00     0.053 C 
BRANCH   2   3
ATOM      3  C   UNL     1      -9.180  -6.499  -5.182  1.00  0.00     0.041 C 
ATOM      4  O   UNL     1      -9.089  -5.489  -4.436  1.00  0.00    -0.550 OA
ATOM      5  O   UNL     1      -8.157  -7.438  -5.196  1.00  0.00    -0.550 OA
ENDBRANCH   2   3
ENDBRANCH   1   2
BRANCH   1   6
ATOM      6  C   UNL     1      -9.699  -5.118  -7.887  1.00  0.00     0.000 C 
BRANCH   6   7
ATOM      7  C   UNL     1      -8.570  -5.113  -8.924  1.00  0.00    -0.003 C 
ATOM      8  C   UNL     1      -7.237  -5.499  -8.290  1.00  0.00     0.004 C 
ENDBRANCH   6   7
ENDBRANCH   1   6
TORSDOF 4
ENDMDL
MODEL 9
REMARK VINA RESULT:    -2.726      2.593      4.247
REMARK INTER + INTRA:          -3.494
REMARK INTER:                  -3.362
REMARK INTRA:                  -0.132
REMARK UNBOUND:                -0.131
REMARK SMILES CCCCCC(=O)[O-]
REMARK SMILES IDX 4 1 5 2 6 3 7 4 8 5 3 6 2 7 1 8
REMARK H PARENT
REMARK Flexibility Score: inf
ROOT
ATOM      1  C   UNL     1     -10.750  -3.934  -3.271  1.00  0.00     0.006 C 
ENDROOT
BRANCH   1   2
ATOM      2  C   UNL     1     -11.125  -5.339  -3.760  1.00  0.00     0.053 C 
BRANCH   2   3
ATOM      3  C   UNL     1     -10.562  -5.625  -5.119  1.00  0.00     0.041 C 
ATOM      4  O   UNL     1     -10.444  -4.698  -5.963  1.00  0.00    -0.550 OA
ATOM      5  O   UNL     1     -10.135  -6.907  -5.441  1.00  0.00    -0.550 OA
ENDBRANCH   2   3
ENDBRANCH   1   2
BRANCH   1   6
ATOM      6  C   UNL     1      -9.306  -3.865  -2.752  1.00  0.00     0.000 C 
BRANCH   6   7
ATOM      7  C   UNL     1      -9.230  -3.059  -1.450  1.00  0.00    -0.003 C 
ATOM      8  C   UNL     1     -10.385  -3.411  -0.516  1.00  0.00     0.004 C 
ENDBRANCH   6   7
ENDBRANCH   1   6
TORSDOF 4
ENDMDL
