MODEL 1
REMARK VINA RESULT:    -6.288      0.000      0.000
REMARK INTER + INTRA:         -10.427
REMARK INTER:                  -8.310
REMARK INTRA:                  -2.117
REMARK UNBOUND:                -2.117
REMARK SMILES CC[C@@H](C=C[C@H](C)[C@@H]1CC[C@H]2[C@H]3CC=C4C[C@H](O)CC[C@@]4(C)[C@H]3CC[C@]21C)C(C)C
REMARK SMILES IDX 6 1 7 2 5 3 4 4 3 5 2 6 1 7 28 8 29 9 30 10 8 11 9 12 26 13
REMARK SMILES IDX 10 14 11 15 25 16 27 17 12 18 24 19 23 20 13 21 21 22 14 23
REMARK SMILES IDX 15 24 20 25 22 26 16 27 19 28 17 29 18 30
REMARK H PARENT 18 31
REMARK Flexibility Score: inf
ROOT
ATOM      1  C   UNL     1      70.014  41.132   6.741  1.00  0.00     0.012 C 
ATOM      2  C   UNL     1      68.755  40.781   7.571  1.00  0.00     0.012 C 
ENDROOT
BRANCH   1   3
ATOM      3  C   UNL     1      69.868  40.492   5.365  1.00  0.00    -0.028 C 
ATOM      4  C   UNL     1      70.801  39.724   4.768  1.00  0.00    -0.027 C 
BRANCH   4   5
ATOM      5  C   UNL     1      72.162  39.375   5.351  1.00  0.00     0.014 C 
BRANCH   5   6
ATOM      6  C   UNL     1      73.224  40.410   4.873  1.00  0.00     0.004 C 
ATOM      7  C   UNL     1      74.290  40.679   5.935  1.00  0.00     0.004 C 
ENDBRANCH   5   6
BRANCH   5   8
ATOM      8  C   UNL     1      72.528  37.887   5.051  1.00  0.00    -0.011 C 
ATOM      9  C   UNL     1      73.274  37.742   3.716  1.00  0.00     0.008 C 
ATOM     10  C   UNL     1      71.340  36.907   5.102  1.00  0.00     0.008 C 
ENDBRANCH   5   8
ENDBRANCH   4   5
ENDBRANCH   1   3
BRANCH   1  11
ATOM     11  C   UNL     1      70.234  42.683   6.609  1.00  0.00     0.002 C 
ATOM     12  C   UNL     1      70.513  43.083   5.136  1.00  0.00     0.005 C 
ATOM     13  C   UNL     1      71.399  43.356   7.449  1.00  0.00    -0.026 C 
ATOM     14  C   UNL     1      71.656  44.078   5.139  1.00  0.00     0.005 C 
ATOM     15  C   UNL     1      72.455  43.731   6.382  1.00  0.00    -0.001 C 
ATOM     16  C   UNL     1      70.832  44.637   8.137  1.00  0.00     0.007 C 
ATOM     17  C   UNL     1      72.044  42.449   8.529  1.00  0.00     0.012 C 
ATOM     18  C   UNL     1      73.507  44.784   6.843  1.00  0.00     0.000 C 
ATOM     19  C   UNL     1      71.899  45.633   8.628  1.00  0.00     0.005 C 
ATOM     20  C   UNL     1      72.946  46.039   7.559  1.00  0.00     0.003 C 
ATOM     21  C   UNL     1      74.523  45.172   5.766  1.00  0.00     0.031 C 
ATOM     22  C   UNL     1      72.652  47.324   6.637  1.00  0.00    -0.008 C 
ATOM     23  C   UNL     1      73.962  46.164   4.802  1.00  0.00    -0.027 C 
ATOM     24  C   UNL     1      73.107  47.135   5.174  1.00  0.00    -0.065 C 
ATOM     25  C   UNL     1      71.140  47.733   6.626  1.00  0.00     0.014 C 
ATOM     26  C   UNL     1      73.466  48.514   7.215  1.00  0.00     0.016 C 
ATOM     27  C   UNL     1      72.690  48.156   4.131  1.00  0.00     0.063 C 
ATOM     28  C   UNL     1      70.783  48.839   5.619  1.00  0.00     0.033 C 
ATOM     29  C   UNL     1      71.188  48.434   4.198  1.00  0.00     0.118 C 
BRANCH  29  30
ATOM     30  O   UNL     1      70.871  49.465   3.300  1.00  0.00    -0.393 OA
ATOM     31  H   UNL     1      71.198  49.179   2.408  1.00  0.00     0.210 HD
ENDBRANCH  29  30
ENDBRANCH   1  11
TORSDOF 6
ENDMDL
MODEL 2
REMARK VINA RESULT:    -6.130      2.974      7.469
REMARK INTER + INTRA:         -10.218
REMARK INTER:                  -7.936
REMARK INTRA:                  -2.282
REMARK UNBOUND:                -2.117
REMARK SMILES CC[C@@H](C=C[C@H](C)[C@@H]1CC[C@H]2[C@H]3CC=C4C[C@H](O)CC[C@@]4(C)[C@H]3CC[C@]21C)C(C)C
REMARK SMILES IDX 6 1 7 2 5 3 4 4 3 5 2 6 1 7 28 8 29 9 30 10 8 11 9 12 26 13
REMARK SMILES IDX 10 14 11 15 25 16 27 17 12 18 24 19 23 20 13 21 21 22 14 23
REMARK SMILES IDX 15 24 20 25 22 26 16 27 19 28 17 29 18 30
REMARK H PARENT 18 31
REMARK Flexibility Score: inf
ROOT
ATOM      1  C   UNL     1      72.625  48.097   7.433  1.00  0.00     0.012 C 
ATOM      2  C   UNL     1      73.195  49.048   8.513  1.00  0.00     0.012 C 
ENDROOT
BRANCH   1   3
ATOM      3  C   UNL     1      73.577  48.107   6.243  1.00  0.00    -0.028 C 
ATOM      4  C   UNL     1      73.203  48.005   4.952  1.00  0.00    -0.027 C 
BRANCH   4   5
ATOM      5  C   UNL     1      71.772  47.847   4.459  1.00  0.00     0.014 C 
BRANCH   5   6
ATOM      6  C   UNL     1      71.731  46.848   3.265  1.00  0.00     0.004 C 
ATOM      7  C   UNL     1      72.476  45.548   3.570  1.00  0.00     0.004 C 
ENDBRANCH   5   6
BRANCH   5   8
ATOM      8  C   UNL     1      71.133  49.240   4.159  1.00  0.00    -0.011 C 
ATOM      9  C   UNL     1      70.005  49.573   5.148  1.00  0.00     0.008 C 
ATOM     10  C   UNL     1      70.640  49.426   2.711  1.00  0.00     0.008 C 
ENDBRANCH   5   8
ENDBRANCH   4   5
ENDBRANCH   1   3
BRANCH   1  11
ATOM     11  C   UNL     1      72.422  46.632   7.967  1.00  0.00     0.002 C 
ATOM     12  C   UNL     1      73.357  45.636   7.232  1.00  0.00     0.005 C 
ATOM     13  C   UNL     1      70.976  45.988   7.875  1.00  0.00    -0.026 C 
ATOM     14  C   UNL     1      72.543  44.403   6.898  1.00  0.00     0.005 C 
ATOM     15  C   UNL     1      71.119  44.913   6.772  1.00  0.00    -0.001 C 
ATOM     16  C   UNL     1      70.645  45.325   9.250  1.00  0.00     0.007 C 
ATOM     17  C   UNL     1      69.836  46.972   7.505  1.00  0.00     0.012 C 
ATOM     18  C   UNL     1      69.996  43.833   6.759  1.00  0.00     0.000 C 
ATOM     19  C   UNL     1      69.496  44.301   9.214  1.00  0.00     0.005 C 
ATOM     20  C   UNL     1      69.643  43.201   8.129  1.00  0.00     0.003 C 
ATOM     21  C   UNL     1      70.171  42.756   5.684  1.00  0.00     0.031 C 
ATOM     22  C   UNL     1      70.403  41.835   8.511  1.00  0.00    -0.008 C 
ATOM     23  C   UNL     1      71.160  41.715   6.094  1.00  0.00    -0.027 C 
ATOM     24  C   UNL     1      71.287  41.296   7.367  1.00  0.00    -0.065 C 
ATOM     25  C   UNL     1      71.295  41.971   9.791  1.00  0.00     0.014 C 
ATOM     26  C   UNL     1      69.320  40.758   8.795  1.00  0.00     0.016 C 
ATOM     27  C   UNL     1      72.245  40.152   7.648  1.00  0.00     0.063 C 
ATOM     28  C   UNL     1      72.179  40.749  10.088  1.00  0.00     0.033 C 
ATOM     29  C   UNL     1      73.086  40.428   8.895  1.00  0.00     0.118 C 
BRANCH  29  30
ATOM     30  O   UNL     1      73.868  39.299   9.181  1.00  0.00    -0.393 OA
ATOM     31  H   UNL     1      74.480  39.553   9.921  1.00  0.00     0.210 HD
ENDBRANCH  29  30
ENDBRANCH   1  11
TORSDOF 6
ENDMDL
MODEL 3
REMARK VINA RESULT:    -6.019      0.636      1.553
REMARK INTER + INTRA:         -10.072
REMARK INTER:                  -8.047
REMARK INTRA:                  -2.025
REMARK UNBOUND:                -2.117
REMARK SMILES CC[C@@H](C=C[C@H](C)[C@@H]1CC[C@H]2[C@H]3CC=C4C[C@H](O)CC[C@@]4(C)[C@H]3CC[C@]21C)C(C)C
REMARK SMILES IDX 6 1 7 2 5 3 4 4 3 5 2 6 1 7 28 8 29 9 30 10 8 11 9 12 26 13
REMARK SMILES IDX 10 14 11 15 25 16 27 17 12 18 24 19 23 20 13 21 21 22 14 23
REMARK SMILES IDX 15 24 20 25 22 26 16 27 19 28 17 29 18 30
REMARK H PARENT 18 31
REMARK Flexibility Score: inf
ROOT
ATOM      1  C   UNL     1      70.025  41.031   6.412  1.00  0.00     0.012 C 
ATOM      2  C   UNL     1      68.780  40.650   7.249  1.00  0.00     0.012 C 
ENDROOT
BRANCH   1   3
ATOM      3  C   UNL     1      69.861  40.431   5.020  1.00  0.00    -0.028 C 
ATOM      4  C   UNL     1      70.675  39.504   4.477  1.00  0.00    -0.027 C 
BRANCH   4   5
ATOM      5  C   UNL     1      71.905  38.908   5.148  1.00  0.00     0.014 C 
BRANCH   5   6
ATOM      6  C   UNL     1      71.469  37.900   6.252  1.00  0.00     0.004 C 
ATOM      7  C   UNL     1      70.454  36.879   5.738  1.00  0.00     0.004 C 
ENDBRANCH   5   6
BRANCH   5   8
ATOM      8  C   UNL     1      72.867  40.034   5.642  1.00  0.00    -0.011 C 
ATOM      9  C   UNL     1      73.744  40.574   4.503  1.00  0.00     0.008 C 
ATOM     10  C   UNL     1      73.744  39.650   6.849  1.00  0.00     0.008 C 
ENDBRANCH   5   8
ENDBRANCH   4   5
ENDBRANCH   1   3
BRANCH   1  11
ATOM     11  C   UNL     1      70.238  42.586   6.322  1.00  0.00     0.002 C 
ATOM     12  C   UNL     1      70.632  43.012   4.884  1.00  0.00     0.005 C 
ATOM     13  C   UNL     1      71.322  43.256   7.266  1.00  0.00    -0.026 C 
ATOM     14  C   UNL     1      71.760  44.018   4.997  1.00  0.00     0.005 C 
ATOM     15  C   UNL     1      72.458  43.660   6.296  1.00  0.00    -0.001 C 
ATOM     16  C   UNL     1      70.686  44.520   7.925  1.00  0.00     0.007 C 
ATOM     17  C   UNL     1      71.887  42.338   8.381  1.00  0.00     0.012 C 
ATOM     18  C   UNL     1      73.457  44.715   6.859  1.00  0.00     0.000 C 
ATOM     19  C   UNL     1      71.697  45.518   8.518  1.00  0.00     0.005 C 
ATOM     20  C   UNL     1      72.825  45.952   7.545  1.00  0.00     0.003 C 
ATOM     21  C   UNL     1      74.554  45.131   5.874  1.00  0.00     0.031 C 
ATOM     22  C   UNL     1      72.593  47.249   6.621  1.00  0.00    -0.008 C 
ATOM     23  C   UNL     1      74.062  46.132   4.883  1.00  0.00    -0.027 C 
ATOM     24  C   UNL     1      73.169  47.089   5.199  1.00  0.00    -0.065 C 
ATOM     25  C   UNL     1      71.083  47.644   6.493  1.00  0.00     0.014 C 
ATOM     26  C   UNL     1      73.343  48.438   7.283  1.00  0.00     0.016 C 
ATOM     27  C   UNL     1      72.828  48.123   4.141  1.00  0.00     0.063 C 
ATOM     28  C   UNL     1      70.797  48.762   5.477  1.00  0.00     0.033 C 
ATOM     29  C   UNL     1      71.322  48.384   4.088  1.00  0.00     0.118 C 
BRANCH  29  30
ATOM     30  O   UNL     1      71.069  49.427   3.183  1.00  0.00    -0.393 OA
ATOM     31  H   UNL     1      70.778  49.005   2.333  1.00  0.00     0.210 HD
ENDBRANCH  29  30
ENDBRANCH   1  11
TORSDOF 6
ENDMDL
MODEL 4
REMARK VINA RESULT:    -5.909      4.097      6.732
REMARK INTER + INTRA:          -9.927
REMARK INTER:                  -8.698
REMARK INTRA:                  -1.229
REMARK UNBOUND:                -2.117
REMARK SMILES CC[C@@H](C=C[C@H](C)[C@@H]1CC[C@H]2[C@H]3CC=C4C[C@H](O)CC[C@@]4(C)[C@H]3CC[C@]21C)C(C)C
REMARK SMILES IDX 6 1 7 2 5 3 4 4 3 5 2 6 1 7 28 8 29 9 30 10 8 11 9 12 26 13
REMARK SMILES IDX 10 14 11 15 25 16 27 17 12 18 24 19 23 20 13 21 21 22 14 23
REMARK SMILES IDX 15 24 20 25 22 26 16 27 19 28 17 29 18 30
REMARK H PARENT 18 31
REMARK Flexibility Score: inf
ROOT
ATOM      1  C   UNL     1      65.872  47.147   8.607  1.00  0.00     0.012 C 
ATOM      2  C   UNL     1      65.280  48.526   8.985  1.00  0.00     0.012 C 
ENDROOT
BRANCH   1   3
ATOM      3  C   UNL     1      64.819  46.382   7.813  1.00  0.00    -0.028 C 
ATOM      4  C   UNL     1      64.209  45.253   8.226  1.00  0.00    -0.027 C 
BRANCH   4   5
ATOM      5  C   UNL     1      64.473  44.539   9.544  1.00  0.00     0.014 C 
BRANCH   5   6
ATOM      6  C   UNL     1      65.642  43.524   9.371  1.00  0.00     0.004 C 
ATOM      7  C   UNL     1      66.902  43.957  10.122  1.00  0.00     0.004 C 
ENDBRANCH   5   6
BRANCH   5   8
ATOM      8  C   UNL     1      63.157  43.920  10.112  1.00  0.00    -0.011 C 
ATOM      9  C   UNL     1      62.934  42.489   9.600  1.00  0.00     0.008 C 
ATOM     10  C   UNL     1      61.892  44.769   9.879  1.00  0.00     0.008 C 
ENDBRANCH   5   8
ENDBRANCH   4   5
ENDBRANCH   1   3
BRANCH   1  11
ATOM     11  C   UNL     1      67.205  47.270   7.783  1.00  0.00     0.002 C 
ATOM     12  C   UNL     1      67.656  45.887   7.244  1.00  0.00     0.005 C 
ATOM     13  C   UNL     1      68.484  47.872   8.500  1.00  0.00    -0.026 C 
ATOM     14  C   UNL     1      69.150  45.772   7.468  1.00  0.00     0.005 C 
ATOM     15  C   UNL     1      69.420  46.653   8.674  1.00  0.00    -0.001 C 
ATOM     16  C   UNL     1      69.128  48.931   7.550  1.00  0.00     0.007 C 
ATOM     17  C   UNL     1      68.220  48.531   9.880  1.00  0.00     0.012 C 
ATOM     18  C   UNL     1      70.912  47.006   8.952  1.00  0.00     0.000 C 
ATOM     19  C   UNL     1      70.586  49.296   7.883  1.00  0.00     0.005 C 
ATOM     20  C   UNL     1      71.540  48.083   8.032  1.00  0.00     0.003 C 
ATOM     21  C   UNL     1      71.833  45.789   9.085  1.00  0.00     0.031 C 
ATOM     22  C   UNL     1      72.323  47.551   6.730  1.00  0.00    -0.008 C 
ATOM     23  C   UNL     1      72.218  45.234   7.755  1.00  0.00    -0.027 C 
ATOM     24  C   UNL     1      72.432  46.012   6.677  1.00  0.00    -0.065 C 
ATOM     25  C   UNL     1      71.677  48.038   5.389  1.00  0.00     0.014 C 
ATOM     26  C   UNL     1      73.772  48.107   6.793  1.00  0.00     0.016 C 
ATOM     27  C   UNL     1      72.930  45.348   5.406  1.00  0.00     0.063 C 
ATOM     28  C   UNL     1      72.279  47.408   4.122  1.00  0.00     0.033 C 
ATOM     29  C   UNL     1      72.191  45.880   4.178  1.00  0.00     0.118 C 
BRANCH  29  30
ATOM     30  O   UNL     1      72.764  45.327   3.022  1.00  0.00    -0.393 OA
ATOM     31  H   UNL     1      73.192  44.473   3.294  1.00  0.00     0.210 HD
ENDBRANCH  29  30
ENDBRANCH   1  11
TORSDOF 6
ENDMDL
MODEL 5
REMARK VINA RESULT:    -5.853      2.437      7.651
REMARK INTER + INTRA:          -9.853
REMARK INTER:                  -7.454
REMARK INTRA:                  -2.399
REMARK UNBOUND:                -2.117
REMARK SMILES CC[C@@H](C=C[C@H](C)[C@@H]1CC[C@H]2[C@H]3CC=C4C[C@H](O)CC[C@@]4(C)[C@H]3CC[C@]21C)C(C)C
REMARK SMILES IDX 6 1 7 2 5 3 4 4 3 5 2 6 1 7 28 8 29 9 30 10 8 11 9 12 26 13
REMARK SMILES IDX 10 14 11 15 25 16 27 17 12 18 24 19 23 20 13 21 21 22 14 23
REMARK SMILES IDX 15 24 20 25 22 26 16 27 19 28 17 29 18 30
REMARK H PARENT 18 31
REMARK Flexibility Score: inf
ROOT
ATOM      1  C   UNL     1      73.300  47.512   5.859  1.00  0.00     0.012 C 
ATOM      2  C   UNL     1      74.375  48.036   4.876  1.00  0.00     0.012 C 
ENDROOT
BRANCH   1   3
ATOM      3  C   UNL     1      71.998  48.252   5.575  1.00  0.00    -0.028 C 
ATOM      4  C   UNL     1      71.073  48.574   6.502  1.00  0.00    -0.027 C 
BRANCH   4   5
ATOM      5  C   UNL     1      71.158  48.243   7.984  1.00  0.00     0.014 C 
BRANCH   5   6
ATOM      6  C   UNL     1      69.769  47.765   8.501  1.00  0.00     0.004 C 
ATOM      7  C   UNL     1      69.890  46.774   9.659  1.00  0.00     0.004 C 
ENDBRANCH   5   6
BRANCH   5   8
ATOM      8  C   UNL     1      71.771  49.437   8.784  1.00  0.00    -0.011 C 
ATOM      9  C   UNL     1      71.528  50.779   8.078  1.00  0.00     0.008 C 
ATOM     10  C   UNL     1      73.265  49.283   9.129  1.00  0.00     0.008 C 
ENDBRANCH   5   8
ENDBRANCH   4   5
ENDBRANCH   1   3
BRANCH   1  11
ATOM     11  C   UNL     1      73.088  45.958   5.748  1.00  0.00     0.002 C 
ATOM     12  C   UNL     1      71.644  45.623   5.293  1.00  0.00     0.005 C 
ATOM     13  C   UNL     1      73.334  45.068   7.037  1.00  0.00    -0.026 C 
ATOM     14  C   UNL     1      71.148  44.475   6.148  1.00  0.00     0.005 C 
ATOM     15  C   UNL     1      71.914  44.616   7.451  1.00  0.00    -0.001 C 
ATOM     16  C   UNL     1      74.205  43.838   6.626  1.00  0.00     0.007 C 
ATOM     17  C   UNL     1      74.019  45.796   8.223  1.00  0.00     0.012 C 
ATOM     18  C   UNL     1      71.869  43.393   8.415  1.00  0.00     0.000 C 
ATOM     19  C   UNL     1      74.181  42.667   7.625  1.00  0.00     0.005 C 
ATOM     20  C   UNL     1      72.762  42.187   8.026  1.00  0.00     0.003 C 
ATOM     21  C   UNL     1      70.456  42.935   8.787  1.00  0.00     0.031 C 
ATOM     22  C   UNL     1      72.066  41.024   7.159  1.00  0.00    -0.008 C 
ATOM     23  C   UNL     1      69.839  42.103   7.712  1.00  0.00    -0.027 C 
ATOM     24  C   UNL     1      70.551  41.244   6.959  1.00  0.00    -0.065 C 
ATOM     25  C   UNL     1      72.720  40.841   5.748  1.00  0.00     0.014 C 
ATOM     26  C   UNL     1      72.231  39.691   7.940  1.00  0.00     0.016 C 
ATOM     27  C   UNL     1      69.799  40.368   5.973  1.00  0.00     0.063 C 
ATOM     28  C   UNL     1      71.975  39.870   4.817  1.00  0.00     0.033 C 
ATOM     29  C   UNL     1      70.519  40.308   4.626  1.00  0.00     0.118 C 
BRANCH  29  30
ATOM     30  O   UNL     1      69.854  39.397   3.790  1.00  0.00    -0.393 OA
ATOM     31  H   UNL     1      70.501  38.674   3.581  1.00  0.00     0.210 HD
ENDBRANCH  29  30
ENDBRANCH   1  11
TORSDOF 6
ENDMDL
MODEL 6
REMARK VINA RESULT:    -5.775      2.013      3.030
REMARK INTER + INTRA:          -9.749
REMARK INTER:                  -8.453
REMARK INTRA:                  -1.296
REMARK UNBOUND:                -2.117
REMARK SMILES CC[C@@H](C=C[C@H](C)[C@@H]1CC[C@H]2[C@H]3CC=C4C[C@H](O)CC[C@@]4(C)[C@H]3CC[C@]21C)C(C)C
REMARK SMILES IDX 6 1 7 2 5 3 4 4 3 5 2 6 1 7 28 8 29 9 30 10 8 11 9 12 26 13
REMARK SMILES IDX 10 14 11 15 25 16 27 17 12 18 24 19 23 20 13 21 21 22 14 23
REMARK SMILES IDX 15 24 20 25 22 26 16 27 19 28 17 29 18 30
REMARK H PARENT 18 31
REMARK Flexibility Score: inf
ROOT
ATOM      1  C   UNL     1      72.890  42.082   7.238  1.00  0.00     0.012 C 
ATOM      2  C   UNL     1      72.947  41.050   8.391  1.00  0.00     0.012 C 
ENDROOT
BRANCH   1   3
ATOM      3  C   UNL     1      71.912  41.567   6.190  1.00  0.00    -0.028 C 
ATOM      4  C   UNL     1      72.186  40.610   5.281  1.00  0.00    -0.027 C 
BRANCH   4   5
ATOM      5  C   UNL     1      73.518  39.890   5.132  1.00  0.00     0.014 C 
BRANCH   5   6
ATOM      6  C   UNL     1      74.429  40.663   4.134  1.00  0.00     0.004 C 
ATOM      7  C   UNL     1      74.689  39.870   2.853  1.00  0.00     0.004 C 
ENDBRANCH   5   6
BRANCH   5   8
ATOM      8  C   UNL     1      73.297  38.385   4.777  1.00  0.00    -0.011 C 
ATOM      9  C   UNL     1      71.810  38.062   4.567  1.00  0.00     0.008 C 
ATOM     10  C   UNL     1      73.920  37.389   5.773  1.00  0.00     0.008 C 
ENDBRANCH   5   8
ENDBRANCH   4   5
ENDBRANCH   1   3
BRANCH   1  11
ATOM     11  C   UNL     1      72.469  43.514   7.733  1.00  0.00     0.002 C 
ATOM     12  C   UNL     1      71.162  43.980   7.039  1.00  0.00     0.005 C 
ATOM     13  C   UNL     1      73.491  44.711   7.540  1.00  0.00    -0.026 C 
ATOM     14  C   UNL     1      71.350  45.428   6.634  1.00  0.00     0.005 C 
ATOM     15  C   UNL     1      72.847  45.573   6.429  1.00  0.00    -0.001 C 
ATOM     16  C   UNL     1      73.570  45.510   8.880  1.00  0.00     0.007 C 
ATOM     17  C   UNL     1      74.924  44.295   7.117  1.00  0.00     0.012 C 
ATOM     18  C   UNL     1      73.394  47.028   6.327  1.00  0.00     0.000 C 
ATOM     19  C   UNL     1      74.164  46.924   8.754  1.00  0.00     0.005 C 
ATOM     20  C   UNL     1      73.506  47.808   7.661  1.00  0.00     0.003 C 
ATOM     21  C   UNL     1      72.721  47.879   5.246  1.00  0.00     0.031 C 
ATOM     22  C   UNL     1      72.252  48.731   8.065  1.00  0.00    -0.008 C 
ATOM     23  C   UNL     1      71.402  48.412   5.698  1.00  0.00    -0.027 C 
ATOM     24  C   UNL     1      71.168  48.791   6.969  1.00  0.00    -0.065 C 
ATOM     25  C   UNL     1      71.568  48.281   9.401  1.00  0.00     0.014 C 
ATOM     26  C   UNL     1      72.779  50.180   8.262  1.00  0.00     0.016 C 
ATOM     27  C   UNL     1      69.826  49.424   7.288  1.00  0.00     0.063 C 
ATOM     28  C   UNL     1      70.260  49.018   9.730  1.00  0.00     0.033 C 
ATOM     29  C   UNL     1      69.247  48.869   8.590  1.00  0.00     0.118 C 
BRANCH  29  30
ATOM     30  O   UNL     1      68.070  49.565   8.904  1.00  0.00    -0.393 OA
ATOM     31  H   UNL     1      68.300  50.531   8.907  1.00  0.00     0.210 HD
ENDBRANCH  29  30
ENDBRANCH   1  11
TORSDOF 6
ENDMDL
MODEL 7
REMARK VINA RESULT:    -5.711      2.467      7.818
REMARK INTER + INTRA:          -9.664
REMARK INTER:                  -7.870
REMARK INTRA:                  -1.794
REMARK UNBOUND:                -2.117
REMARK SMILES CC[C@@H](C=C[C@H](C)[C@@H]1CC[C@H]2[C@H]3CC=C4C[C@H](O)CC[C@@]4(C)[C@H]3CC[C@]21C)C(C)C
REMARK SMILES IDX 6 1 7 2 5 3 4 4 3 5 2 6 1 7 28 8 29 9 30 10 8 11 9 12 26 13
REMARK SMILES IDX 10 14 11 15 25 16 27 17 12 18 24 19 23 20 13 21 21 22 14 23
REMARK SMILES IDX 15 24 20 25 22 26 16 27 19 28 17 29 18 30
REMARK H PARENT 18 31
REMARK Flexibility Score: inf
ROOT
ATOM      1  C   UNL     1      73.344  46.927   8.145  1.00  0.00     0.012 C 
ATOM      2  C   UNL     1      74.729  47.241   8.761  1.00  0.00     0.012 C 
ENDROOT
BRANCH   1   3
ATOM      3  C   UNL     1      73.198  47.744   6.867  1.00  0.00    -0.028 C 
ATOM      4  C   UNL     1      72.115  48.476   6.537  1.00  0.00    -0.027 C 
BRANCH   4   5
ATOM      5  C   UNL     1      70.848  48.602   7.370  1.00  0.00     0.014 C 
BRANCH   5   6
ATOM      6  C   UNL     1      69.618  48.803   6.436  1.00  0.00     0.004 C 
ATOM      7  C   UNL     1      69.968  49.599   5.179  1.00  0.00     0.004 C 
ENDBRANCH   5   6
BRANCH   5   8
ATOM      8  C   UNL     1      71.014  49.700   8.468  1.00  0.00    -0.011 C 
ATOM      9  C   UNL     1      72.130  50.694   8.115  1.00  0.00     0.008 C 
ATOM     10  C   UNL     1      71.220  49.158   9.896  1.00  0.00     0.008 C 
ENDBRANCH   5   8
ENDBRANCH   4   5
ENDBRANCH   1   3
BRANCH   1  11
ATOM     11  C   UNL     1      73.151  45.395   7.847  1.00  0.00     0.002 C 
ATOM     12  C   UNL     1      72.932  45.146   6.332  1.00  0.00     0.005 C 
ATOM     13  C   UNL     1      71.967  44.628   8.570  1.00  0.00    -0.026 C 
ATOM     14  C   UNL     1      71.804  44.144   6.190  1.00  0.00     0.005 C 
ATOM     15  C   UNL     1      70.956  44.352   7.432  1.00  0.00    -0.001 C 
ATOM     16  C   UNL     1      72.527  43.288   9.145  1.00  0.00     0.007 C 
ATOM     17  C   UNL     1      71.270  45.412   9.712  1.00  0.00     0.012 C 
ATOM     18  C   UNL     1      69.902  43.247   7.743  1.00  0.00     0.000 C 
ATOM     19  C   UNL     1      71.458  42.237   9.491  1.00  0.00     0.005 C 
ATOM     20  C   UNL     1      70.455  41.931   8.348  1.00  0.00     0.003 C 
ATOM     21  C   UNL     1      68.932  42.960   6.594  1.00  0.00     0.031 C 
ATOM     22  C   UNL     1      70.802  40.750   7.310  1.00  0.00    -0.008 C 
ATOM     23  C   UNL     1      69.543  42.078   5.556  1.00  0.00    -0.027 C 
ATOM     24  C   UNL     1      70.397  41.084   5.859  1.00  0.00    -0.065 C 
ATOM     25  C   UNL     1      72.319  40.360   7.315  1.00  0.00     0.014 C 
ATOM     26  C   UNL     1      69.985  39.498   7.733  1.00  0.00     0.016 C 
ATOM     27  C   UNL     1      70.867  40.179   4.733  1.00  0.00     0.063 C 
ATOM     28  C   UNL     1      72.728  39.368   6.215  1.00  0.00     0.033 C 
ATOM     29  C   UNL     1      72.369  39.912   4.828  1.00  0.00     0.118 C 
BRANCH  29  30
ATOM     30  O   UNL     1      72.733  38.982   3.842  1.00  0.00    -0.393 OA
ATOM     31  H   UNL     1      73.717  38.864   3.908  1.00  0.00     0.210 HD
ENDBRANCH  29  30
ENDBRANCH   1  11
TORSDOF 6
ENDMDL
MODEL 8
REMARK VINA RESULT:    -5.310      1.980      3.594
REMARK INTER + INTRA:          -9.135
REMARK INTER:                  -8.256
REMARK INTRA:                  -0.879
REMARK UNBOUND:                -2.117
REMARK SMILES CC[C@@H](C=C[C@H](C)[C@@H]1CC[C@H]2[C@H]3CC=C4C[C@H](O)CC[C@@]4(C)[C@H]3CC[C@]21C)C(C)C
REMARK SMILES IDX 6 1 7 2 5 3 4 4 3 5 2 6 1 7 28 8 29 9 30 10 8 11 9 12 26 13
REMARK SMILES IDX 10 14 11 15 25 16 27 17 12 18 24 19 23 20 13 21 21 22 14 23
REMARK SMILES IDX 15 24 20 25 22 26 16 27 19 28 17 29 18 30
REMARK H PARENT 18 31
REMARK Flexibility Score: inf
ROOT
ATOM      1  C   UNL     1      73.000  41.917   6.279  1.00  0.00     0.012 C 
ATOM      2  C   UNL     1      73.318  40.844   7.348  1.00  0.00     0.012 C 
ENDROOT
BRANCH   1   3
ATOM      3  C   UNL     1      71.912  41.366   5.365  1.00  0.00    -0.028 C 
ATOM      4  C   UNL     1      70.891  40.582   5.764  1.00  0.00    -0.027 C 
BRANCH   4   5
ATOM      5  C   UNL     1      70.655  40.098   7.187  1.00  0.00     0.014 C 
BRANCH   5   6
ATOM      6  C   UNL     1      70.506  38.547   7.202  1.00  0.00     0.004 C 
ATOM      7  C   UNL     1      69.078  38.098   6.893  1.00  0.00     0.004 C 
ENDBRANCH   5   6
BRANCH   5   8
ATOM      8  C   UNL     1      69.466  40.868   7.845  1.00  0.00    -0.011 C 
ATOM      9  C   UNL     1      68.627  41.620   6.800  1.00  0.00     0.008 C 
ATOM     10  C   UNL     1      69.868  41.822   8.986  1.00  0.00     0.008 C 
ENDBRANCH   5   8
ENDBRANCH   4   5
ENDBRANCH   1   3
BRANCH   1  11
ATOM     11  C   UNL     1      72.551  43.284   6.913  1.00  0.00     0.002 C 
ATOM     12  C   UNL     1      71.349  43.888   6.140  1.00  0.00     0.005 C 
ATOM     13  C   UNL     1      73.613  44.457   7.011  1.00  0.00    -0.026 C 
ATOM     14  C   UNL     1      71.615  45.369   5.964  1.00  0.00     0.005 C 
ATOM     15  C   UNL     1      73.128  45.484   5.961  1.00  0.00    -0.001 C 
ATOM     16  C   UNL     1      73.544  45.064   8.448  1.00  0.00     0.007 C 
ATOM     17  C   UNL     1      75.079  44.049   6.708  1.00  0.00     0.012 C 
ATOM     18  C   UNL     1      73.714  46.918   6.127  1.00  0.00     0.000 C 
ATOM     19  C   UNL     1      74.177  46.460   8.590  1.00  0.00     0.005 C 
ATOM     20  C   UNL     1      73.678  47.506   7.560  1.00  0.00     0.003 C 
ATOM     21  C   UNL     1      73.197  47.932   5.102  1.00  0.00     0.031 C 
ATOM     22  C   UNL     1      72.402  48.413   7.936  1.00  0.00    -0.008 C 
ATOM     23  C   UNL     1      71.843  48.448   5.463  1.00  0.00    -0.027 C 
ATOM     24  C   UNL     1      71.463  48.661   6.737  1.00  0.00    -0.065 C 
ATOM     25  C   UNL     1      71.551  47.813   9.105  1.00  0.00     0.014 C 
ATOM     26  C   UNL     1      72.931  49.801   8.392  1.00  0.00     0.016 C 
ATOM     27  C   UNL     1      70.105  49.295   6.979  1.00  0.00     0.063 C 
ATOM     28  C   UNL     1      70.227  48.547   9.375  1.00  0.00     0.033 C 
ATOM     29  C   UNL     1      69.360  48.591   8.113  1.00  0.00     0.118 C 
BRANCH  29  30
ATOM     30  O   UNL     1      68.167  49.283   8.378  1.00  0.00    -0.393 OA
ATOM     31  H   UNL     1      68.073  49.973   7.671  1.00  0.00     0.210 HD
ENDBRANCH  29  30
ENDBRANCH   1  11
TORSDOF 6
ENDMDL
MODEL 9
REMARK VINA RESULT:    -5.228      2.859      7.829
REMARK INTER + INTRA:          -9.026
REMARK INTER:                  -7.940
REMARK INTRA:                  -1.086
REMARK UNBOUND:                -2.117
REMARK SMILES CC[C@@H](C=C[C@H](C)[C@@H]1CC[C@H]2[C@H]3CC=C4C[C@H](O)CC[C@@]4(C)[C@H]3CC[C@]21C)C(C)C
REMARK SMILES IDX 6 1 7 2 5 3 4 4 3 5 2 6 1 7 28 8 29 9 30 10 8 11 9 12 26 13
REMARK SMILES IDX 10 14 11 15 25 16 27 17 12 18 24 19 23 20 13 21 21 22 14 23
REMARK SMILES IDX 15 24 20 25 22 26 16 27 19 28 17 29 18 30
REMARK H PARENT 18 31
REMARK Flexibility Score: inf
ROOT
ATOM      1  C   UNL     1      71.370  48.523   5.230  1.00  0.00     0.012 C 
ATOM      2  C   UNL     1      71.368  48.863   3.720  1.00  0.00     0.012 C 
ENDROOT
BRANCH   1   3
ATOM      3  C   UNL     1      70.010  48.907   5.803  1.00  0.00    -0.028 C 
ATOM      4  C   UNL     1      69.763  49.160   7.103  1.00  0.00    -0.027 C 
BRANCH   4   5
ATOM      5  C   UNL     1      70.788  49.092   8.226  1.00  0.00     0.014 C 
BRANCH   5   6
ATOM      6  C   UNL     1      70.113  49.452   9.582  1.00  0.00     0.004 C 
ATOM      7  C   UNL     1      68.593  49.295   9.534  1.00  0.00     0.004 C 
ENDBRANCH   5   6
BRANCH   5   8
ATOM      8  C   UNL     1      72.045  49.951   7.880  1.00  0.00    -0.011 C 
ATOM      9  C   UNL     1      73.235  49.611   8.790  1.00  0.00     0.008 C 
ATOM     10  C   UNL     1      71.804  51.473   7.871  1.00  0.00     0.008 C 
ENDBRANCH   5   8
ENDBRANCH   4   5
ENDBRANCH   1   3
BRANCH   1  11
ATOM     11  C   UNL     1      71.678  47.007   5.506  1.00  0.00     0.002 C 
ATOM     12  C   UNL     1      70.758  46.445   6.621  1.00  0.00     0.005 C 
ATOM     13  C   UNL     1      73.149  46.600   5.938  1.00  0.00    -0.026 C 
ATOM     14  C   UNL     1      71.617  45.604   7.545  1.00  0.00     0.005 C 
ATOM     15  C   UNL     1      73.003  46.211   7.428  1.00  0.00    -0.001 C 
ATOM     16  C   UNL     1      73.588  45.367   5.087  1.00  0.00     0.007 C 
ATOM     17  C   UNL     1      74.214  47.718   5.789  1.00  0.00     0.012 C 
ATOM     18  C   UNL     1      74.179  45.366   8.003  1.00  0.00     0.000 C 
ATOM     19  C   UNL     1      74.785  44.584   5.655  1.00  0.00     0.005 C 
ATOM     20  C   UNL     1      74.638  44.164   7.141  1.00  0.00     0.003 C 
ATOM     21  C   UNL     1      74.003  44.959   9.469  1.00  0.00     0.031 C 
ATOM     22  C   UNL     1      73.973  42.738   7.479  1.00  0.00    -0.008 C 
ATOM     23  C   UNL     1      73.094  43.784   9.615  1.00  0.00    -0.027 C 
ATOM     24  C   UNL     1      73.058  42.778   8.721  1.00  0.00    -0.065 C 
ATOM     25  C   UNL     1      73.146  42.152   6.285  1.00  0.00     0.014 C 
ATOM     26  C   UNL     1      75.125  41.744   7.795  1.00  0.00     0.016 C 
ATOM     27  C   UNL     1      72.178  41.580   9.031  1.00  0.00     0.063 C 
ATOM     28  C   UNL     1      72.344  40.884   6.621  1.00  0.00     0.033 C 
ATOM     29  C   UNL     1      71.393  41.136   7.796  1.00  0.00     0.118 C 
BRANCH  29  30
ATOM     30  O   UNL     1      70.688  39.961   8.098  1.00  0.00    -0.393 OA
ATOM     31  H   UNL     1      69.824  40.010   7.611  1.00  0.00     0.210 HD
ENDBRANCH  29  30
ENDBRANCH   1  11
TORSDOF 6
ENDMDL
