MODEL 1
REMARK VINA RESULT:    -4.183      0.000      0.000
REMARK INTER + INTRA:          -4.451
REMARK INTER:                  -4.428
REMARK INTRA:                  -0.023
REMARK UNBOUND:                -0.023
REMARK SMILES O=C([O-])c1cccnc1
REMARK SMILES IDX 4 1 5 2 9 3 6 4 8 5 7 6 2 7 1 8 3 9
REMARK H PARENT
REMARK Flexibility Score: inf
ROOT
ATOM      1  C   UNL     1      31.943  13.128  15.722  1.00  0.00     0.016 A 
ATOM      2  C   UNL     1      33.156  13.182  15.014  1.00  0.00     0.013 A 
ATOM      3  C   UNL     1      31.724  14.066  16.744  1.00  0.00     0.120 A 
ATOM      4  C   UNL     1      34.109  14.151  15.331  1.00  0.00     0.021 A 
ATOM      5  N   UNL     1      32.669  15.000  17.033  1.00  0.00    -0.264 NA
ATOM      6  C   UNL     1      33.845  15.062  16.355  1.00  0.00     0.111 A 
ENDROOT
BRANCH   1   7
ATOM      7  C   UNL     1      30.920  12.109  15.401  1.00  0.00     0.073 C 
ATOM      8  O   UNL     1      30.973  11.465  14.320  1.00  0.00    -0.545 OA
ATOM      9  O   UNL     1      29.884  11.847  16.292  1.00  0.00    -0.545 OA
ENDBRANCH   1   7
TORSDOF 1
ENDMDL
MODEL 2
REMARK VINA RESULT:    -4.058      8.204      9.185
REMARK INTER + INTRA:          -4.318
REMARK INTER:                  -4.298
REMARK INTRA:                  -0.021
REMARK UNBOUND:                -0.023
REMARK SMILES O=C([O-])c1cccnc1
REMARK SMILES IDX 4 1 5 2 9 3 6 4 8 5 7 6 2 7 1 8 3 9
REMARK H PARENT
REMARK Flexibility Score: inf
ROOT
ATOM      1  C   UNL     1      37.737  18.023  10.791  1.00  0.00     0.016 A 
ATOM      2  C   UNL     1      38.081  18.180  12.144  1.00  0.00     0.013 A 
ATOM      3  C   UNL     1      36.386  18.160  10.427  1.00  0.00     0.120 A 
ATOM      4  C   UNL     1      37.096  18.464  13.091  1.00  0.00     0.021 A 
ATOM      5  N   UNL     1      35.446  18.437  11.369  1.00  0.00    -0.264 NA
ATOM      6  C   UNL     1      35.768  18.591  12.680  1.00  0.00     0.111 A 
ENDROOT
BRANCH   1   7
ATOM      7  C   UNL     1      38.766  17.722   9.774  1.00  0.00     0.073 C 
ATOM      8  O   UNL     1      38.513  16.944   8.816  1.00  0.00    -0.545 OA
ATOM      9  O   UNL     1      40.030  18.296   9.860  1.00  0.00    -0.545 OA
ENDBRANCH   1   7
TORSDOF 1
ENDMDL
MODEL 3
REMARK VINA RESULT:    -4.037      2.599      3.531
REMARK INTER + INTRA:          -4.296
REMARK INTER:                  -4.272
REMARK INTRA:                  -0.024
REMARK UNBOUND:                -0.023
REMARK SMILES O=C([O-])c1cccnc1
REMARK SMILES IDX 4 1 5 2 9 3 6 4 8 5 7 6 2 7 1 8 3 9
REMARK H PARENT
REMARK Flexibility Score: inf
ROOT
ATOM      1  C   UNL     1      32.323  13.406  15.747  1.00  0.00     0.016 A 
ATOM      2  C   UNL     1      32.138  12.426  14.757  1.00  0.00     0.013 A 
ATOM      3  C   UNL     1      31.345  13.537  16.747  1.00  0.00     0.120 A 
ATOM      4  C   UNL     1      31.006  11.611  14.780  1.00  0.00     0.021 A 
ATOM      5  N   UNL     1      30.251  12.729  16.747  1.00  0.00    -0.264 NA
ATOM      6  C   UNL     1      30.063  11.778  15.795  1.00  0.00     0.111 A 
ENDROOT
BRANCH   1   7
ATOM      7  C   UNL     1      33.516  14.280  15.739  1.00  0.00     0.073 C 
ATOM      8  O   UNL     1      34.387  14.167  14.837  1.00  0.00    -0.545 OA
ATOM      9  O   UNL     1      33.691  15.240  16.731  1.00  0.00    -0.545 OA
ENDBRANCH   1   7
TORSDOF 1
ENDMDL
MODEL 4
REMARK VINA RESULT:    -4.032      7.224      7.957
REMARK INTER + INTRA:          -4.291
REMARK INTER:                  -4.275
REMARK INTRA:                  -0.016
REMARK UNBOUND:                -0.023
REMARK SMILES O=C([O-])c1cccnc1
REMARK SMILES IDX 4 1 5 2 9 3 6 4 8 5 7 6 2 7 1 8 3 9
REMARK H PARENT
REMARK Flexibility Score: inf
ROOT
ATOM      1  C   UNL     1      35.727  18.535  11.897  1.00  0.00     0.016 A 
ATOM      2  C   UNL     1      36.682  18.538  12.928  1.00  0.00     0.013 A 
ATOM      3  C   UNL     1      36.143  18.177  10.604  1.00  0.00     0.120 A 
ATOM      4  C   UNL     1      38.007  18.192  12.657  1.00  0.00     0.021 A 
ATOM      5  N   UNL     1      37.440  17.845  10.367  1.00  0.00    -0.264 NA
ATOM      6  C   UNL     1      38.371  17.844  11.356  1.00  0.00     0.111 A 
ENDROOT
BRANCH   1   7
ATOM      7  C   UNL     1      34.319  18.898  12.164  1.00  0.00     0.073 C 
ATOM      8  O   UNL     1      33.485  18.020  12.512  1.00  0.00    -0.545 OA
ATOM      9  O   UNL     1      33.895  20.216  12.033  1.00  0.00    -0.545 OA
ENDBRANCH   1   7
TORSDOF 1
ENDMDL
MODEL 5
REMARK VINA RESULT:    -4.029      8.471      9.527
REMARK INTER + INTRA:          -4.288
REMARK INTER:                  -4.269
REMARK INTRA:                  -0.019
REMARK UNBOUND:                -0.023
REMARK SMILES O=C([O-])c1cccnc1
REMARK SMILES IDX 4 1 5 2 9 3 6 4 8 5 7 6 2 7 1 8 3 9
REMARK H PARENT
REMARK Flexibility Score: inf
ROOT
ATOM      1  C   UNL     1      38.466  18.082  11.471  1.00  0.00     0.016 A 
ATOM      2  C   UNL     1      38.346  18.263  10.083  1.00  0.00     0.013 A 
ATOM      3  C   UNL     1      39.756  18.029  12.027  1.00  0.00     0.120 A 
ATOM      4  C   UNL     1      39.488  18.386   9.290  1.00  0.00     0.021 A 
ATOM      5  N   UNL     1      40.852  18.151  11.232  1.00  0.00    -0.264 NA
ATOM      6  C   UNL     1      40.747  18.327   9.889  1.00  0.00     0.111 A 
ENDROOT
BRANCH   1   7
ATOM      7  C   UNL     1      37.269  17.950  12.328  1.00  0.00     0.073 C 
ATOM      8  O   UNL     1      36.367  17.118  12.046  1.00  0.00    -0.545 OA
ATOM      9  O   UNL     1      37.123  18.746  13.460  1.00  0.00    -0.545 OA
ENDBRANCH   1   7
TORSDOF 1
ENDMDL
MODEL 6
REMARK VINA RESULT:    -3.956      8.237      9.364
REMARK INTER + INTRA:          -4.211
REMARK INTER:                  -4.193
REMARK INTRA:                  -0.019
REMARK UNBOUND:                -0.023
REMARK SMILES O=C([O-])c1cccnc1
REMARK SMILES IDX 4 1 5 2 9 3 6 4 8 5 7 6 2 7 1 8 3 9
REMARK H PARENT
REMARK Flexibility Score: inf
ROOT
ATOM      1  C   UNL     1      37.881  18.057  10.616  1.00  0.00     0.016 A 
ATOM      2  C   UNL     1      36.497  18.130  10.382  1.00  0.00     0.013 A 
ATOM      3  C   UNL     1      38.337  18.119  11.944  1.00  0.00     0.120 A 
ATOM      4  C   UNL     1      35.611  18.261  11.452  1.00  0.00     0.021 A 
ATOM      5  N   UNL     1      37.452  18.247  12.969  1.00  0.00    -0.264 NA
ATOM      6  C   UNL     1      36.112  18.318  12.753  1.00  0.00     0.111 A 
ENDROOT
BRANCH   1   7
ATOM      7  C   UNL     1      38.836  17.918   9.496  1.00  0.00     0.073 C 
ATOM      8  O   UNL     1      38.718  16.978   8.666  1.00  0.00    -0.545 OA
ATOM      9  O   UNL     1      39.879  18.826   9.344  1.00  0.00    -0.545 OA
ENDBRANCH   1   7
TORSDOF 1
ENDMDL
MODEL 7
REMARK VINA RESULT:    -3.875      8.101      8.870
REMARK INTER + INTRA:          -4.125
REMARK INTER:                  -4.101
REMARK INTRA:                  -0.024
REMARK UNBOUND:                -0.023
REMARK SMILES O=C([O-])c1cccnc1
REMARK SMILES IDX 4 1 5 2 9 3 6 4 8 5 7 6 2 7 1 8 3 9
REMARK H PARENT
REMARK Flexibility Score: inf
ROOT
ATOM      1  C   UNL     1      36.791  18.314  10.329  1.00  0.00     0.016 A 
ATOM      2  C   UNL     1      38.017  18.126  10.989  1.00  0.00     0.013 A 
ATOM      3  C   UNL     1      35.636  18.497  11.108  1.00  0.00     0.120 A 
ATOM      4  C   UNL     1      38.070  18.124  12.384  1.00  0.00     0.021 A 
ATOM      5  N   UNL     1      35.715  18.491  12.466  1.00  0.00    -0.264 NA
ATOM      6  C   UNL     1      36.896  18.311  13.114  1.00  0.00     0.111 A 
ENDROOT
BRANCH   1   7
ATOM      7  C   UNL     1      36.714  18.318   8.853  1.00  0.00     0.073 C 
ATOM      8  O   UNL     1      37.750  18.150   8.156  1.00  0.00    -0.545 OA
ATOM      9  O   UNL     1      35.494  18.509   8.212  1.00  0.00    -0.545 OA
ENDBRANCH   1   7
TORSDOF 1
ENDMDL
MODEL 8
REMARK VINA RESULT:    -3.860      6.442      7.414
REMARK INTER + INTRA:          -4.109
REMARK INTER:                  -4.092
REMARK INTRA:                  -0.017
REMARK UNBOUND:                -0.023
REMARK SMILES O=C([O-])c1cccnc1
REMARK SMILES IDX 4 1 5 2 9 3 6 4 8 5 7 6 2 7 1 8 3 9
REMARK H PARENT
REMARK Flexibility Score: inf
ROOT
ATOM      1  C   UNL     1      35.236  18.124  12.496  1.00  0.00     0.016 A 
ATOM      2  C   UNL     1      34.537  19.259  12.051  1.00  0.00     0.013 A 
ATOM      3  C   UNL     1      34.498  16.982  12.849  1.00  0.00     0.120 A 
ATOM      4  C   UNL     1      33.144  19.237  11.968  1.00  0.00     0.021 A 
ATOM      5  N   UNL     1      33.141  16.987  12.759  1.00  0.00    -0.264 NA
ATOM      6  C   UNL     1      32.455  18.078  12.330  1.00  0.00     0.111 A 
ENDROOT
BRANCH   1   7
ATOM      7  C   UNL     1      36.712  18.128  12.591  1.00  0.00     0.073 C 
ATOM      8  O   UNL     1      37.293  18.754  13.516  1.00  0.00    -0.545 OA
ATOM      9  O   UNL     1      37.479  17.438  11.658  1.00  0.00    -0.545 OA
ENDBRANCH   1   7
TORSDOF 1
ENDMDL
MODEL 9
REMARK VINA RESULT:    -3.819      6.963      7.891
REMARK INTER + INTRA:          -4.066
REMARK INTER:                  -4.050
REMARK INTRA:                  -0.016
REMARK UNBOUND:                -0.023
REMARK SMILES O=C([O-])c1cccnc1
REMARK SMILES IDX 4 1 5 2 9 3 6 4 8 5 7 6 2 7 1 8 3 9
REMARK H PARENT
REMARK Flexibility Score: inf
ROOT
ATOM      1  C   UNL     1      36.205  18.153  11.833  1.00  0.00     0.016 A 
ATOM      2  C   UNL     1      36.501  18.140  10.460  1.00  0.00     0.013 A 
ATOM      3  C   UNL     1      37.273  18.146  12.746  1.00  0.00     0.120 A 
ATOM      4  C   UNL     1      37.829  18.120  10.029  1.00  0.00     0.021 A 
ATOM      5  N   UNL     1      38.558  18.126  12.300  1.00  0.00    -0.264 NA
ATOM      6  C   UNL     1      38.855  18.114  10.974  1.00  0.00     0.111 A 
ENDROOT
BRANCH   1   7
ATOM      7  C   UNL     1      34.805  18.174  12.309  1.00  0.00     0.073 C 
ATOM      8  O   UNL     1      34.164  19.257  12.365  1.00  0.00    -0.545 OA
ATOM      9  O   UNL     1      34.177  16.997  12.701  1.00  0.00    -0.545 OA
ENDBRANCH   1   7
TORSDOF 1
ENDMDL
