MODEL 1
REMARK VINA RESULT:    30.024      0.000      0.000
REMARK INTER + INTRA:          36.682
REMARK INTER:                  37.044
REMARK INTRA:                  -0.362
REMARK UNBOUND:                -0.362
REMARK SMILES O=c1c(O)c(-c2cc(O)c(O)c(O)c2)oc2cc(O)cc(O)c12
REMARK SMILES IDX 5 1 3 2 2 3 1 4 23 5 21 6 20 7 18 8 17 9 16 10 15 11 6 12
REMARK SMILES IDX 7 13 8 14 14 15 10 16 12 17 9 18 11 20 13 22 4 24 22 26
REMARK SMILES IDX 19 28
REMARK H PARENT 9 19 11 21 13 23 4 25 22 27 19 29
REMARK Flexibility Score: inf
ROOT
ATOM      1  C   UNL     1      17.630  95.878   8.776  1.00  0.00     0.180 A 
ATOM      2  C   UNL     1      16.288  95.925   9.191  1.00  0.00     0.208 A 
ATOM      3  C   UNL     1      15.701  97.174   9.451  1.00  0.00     0.238 A 
ATOM      4  O   UNL     1      14.515  97.207   9.874  1.00  0.00    -0.285 OA
ATOM      5  C   UNL     1      16.455  98.358   9.277  1.00  0.00     0.111 A 
ATOM      6  C   UNL     1      15.949  99.679   9.472  1.00  0.00     0.134 A 
ATOM      7  C   UNL     1      16.821 100.772   9.398  1.00  0.00     0.093 A 
ATOM      8  C   UNL     1      18.165 100.598   9.072  1.00  0.00     0.123 A 
ATOM      9  C   UNL     1      18.658  99.317   8.821  1.00  0.00     0.094 A 
ATOM     10  C   UNL     1      17.821  98.204   8.923  1.00  0.00     0.146 A 
ATOM     11  O   UNL     1      18.331  97.001   8.685  1.00  0.00    -0.452 OA
ENDROOT
BRANCH   1  12
ATOM     12  C   UNL     1      18.312  94.601   8.460  1.00  0.00     0.029 A 
ATOM     13  C   UNL     1      19.125  93.994   9.430  1.00  0.00     0.062 A 
ATOM     14  C   UNL     1      19.799  92.797   9.149  1.00  0.00     0.162 A 
ATOM     15  C   UNL     1      18.209  94.013   7.188  1.00  0.00     0.062 A 
ATOM     16  C   UNL     1      19.673  92.205   7.881  1.00  0.00     0.200 A 
ATOM     17  C   UNL     1      18.882  92.818   6.901  1.00  0.00     0.162 A 
BRANCH  14  18
ATOM     18  O   UNL     1      20.592  92.196  10.125  1.00  0.00    -0.504 OA
ATOM     19  H   UNL     1      21.464  92.612  10.431  1.00  0.00     0.293 HD
ENDBRANCH  14  18
BRANCH  16  20
ATOM     20  O   UNL     1      20.332  91.013   7.579  1.00  0.00    -0.502 OA
ATOM     21  H   UNL     1      21.220  90.996   7.093  1.00  0.00     0.293 HD
ENDBRANCH  16  20
BRANCH  17  22
ATOM     22  O   UNL     1      18.772  92.234   5.640  1.00  0.00    -0.504 OA
ATOM     23  H   UNL     1      18.321  91.336   5.509  1.00  0.00     0.293 HD
ENDBRANCH  17  22
ENDBRANCH   1  12
BRANCH   2  24
ATOM     24  O   UNL     1      15.568  94.743   9.378  1.00  0.00    -0.502 OA
ATOM     25  H   UNL     1      14.672  94.720   9.850  1.00  0.00     0.293 HD
ENDBRANCH   2  24
BRANCH   6  26
ATOM     26  O   UNL     1      14.602  99.971   9.712  1.00  0.00    -0.507 OA
ATOM     27  H   UNL     1      14.248 100.881   9.965  1.00  0.00     0.293 HD
ENDBRANCH   6  26
BRANCH   8  28
ATOM     28  O   UNL     1      19.002 101.710   8.992  1.00  0.00    -0.508 OA
ATOM     29  H   UNL     1      18.853 102.436   8.301  1.00  0.00     0.293 HD
ENDBRANCH   8  28
TORSDOF 7
ENDMDL
MODEL 2
REMARK VINA RESULT:    30.526      0.063      1.750
REMARK INTER + INTRA:          37.301
REMARK INTER:                  37.651
REMARK INTRA:                  -0.349
REMARK UNBOUND:                -0.362
REMARK SMILES O=c1c(O)c(-c2cc(O)c(O)c(O)c2)oc2cc(O)cc(O)c12
REMARK SMILES IDX 5 1 3 2 2 3 1 4 23 5 21 6 20 7 18 8 17 9 16 10 15 11 6 12
REMARK SMILES IDX 7 13 8 14 14 15 10 16 12 17 9 18 11 20 13 22 4 24 22 26
REMARK SMILES IDX 19 28
REMARK H PARENT 9 19 11 21 13 23 4 25 22 27 19 29
REMARK Flexibility Score: inf
ROOT
ATOM      1  C   UNL     1      17.694  95.928   8.787  1.00  0.00     0.180 A 
ATOM      2  C   UNL     1      16.350  95.961   9.195  1.00  0.00     0.208 A 
ATOM      3  C   UNL     1      15.745  97.203   9.445  1.00  0.00     0.238 A 
ATOM      4  O   UNL     1      14.557  97.223   9.862  1.00  0.00    -0.285 OA
ATOM      5  C   UNL     1      16.486  98.396   9.269  1.00  0.00     0.111 A 
ATOM      6  C   UNL     1      15.962  99.711   9.455  1.00  0.00     0.134 A 
ATOM      7  C   UNL     1      16.821 100.814   9.380  1.00  0.00     0.093 A 
ATOM      8  C   UNL     1      18.169 100.656   9.062  1.00  0.00     0.123 A 
ATOM      9  C   UNL     1      18.679  99.380   8.819  1.00  0.00     0.094 A 
ATOM     10  C   UNL     1      17.855  98.257   8.923  1.00  0.00     0.146 A 
ATOM     11  O   UNL     1      18.382  97.060   8.694  1.00  0.00    -0.452 OA
ENDROOT
BRANCH   1  12
ATOM     12  C   UNL     1      18.394  94.658   8.481  1.00  0.00     0.029 A 
ATOM     13  C   UNL     1      18.252  94.080   7.210  1.00  0.00     0.062 A 
ATOM     14  C   UNL     1      18.886  92.868   6.903  1.00  0.00     0.162 A 
ATOM     15  C   UNL     1      19.151  93.988   9.457  1.00  0.00     0.062 A 
ATOM     16  C   UNL     1      19.658  92.215   7.879  1.00  0.00     0.200 A 
ATOM     17  C   UNL     1      19.784  92.775   9.156  1.00  0.00     0.162 A 
BRANCH  14  18
ATOM     18  O   UNL     1      18.749  92.310   5.633  1.00  0.00    -0.504 OA
ATOM     19  H   UNL     1      19.379  91.592   5.297  1.00  0.00     0.293 HD
ENDBRANCH  14  18
BRANCH  16  20
ATOM     20  O   UNL     1      20.300  91.009   7.595  1.00  0.00    -0.502 OA
ATOM     21  H   UNL     1      19.787  90.159   7.396  1.00  0.00     0.293 HD
ENDBRANCH  16  20
BRANCH  17  22
ATOM     22  O   UNL     1      20.541  92.116  10.125  1.00  0.00    -0.504 OA
ATOM     23  H   UNL     1      21.368  91.586   9.880  1.00  0.00     0.293 HD
ENDBRANCH  17  22
ENDBRANCH   1  12
BRANCH   2  24
ATOM     24  O   UNL     1      15.643  94.770   9.384  1.00  0.00    -0.502 OA
ATOM     25  H   UNL     1      15.816  93.941   8.829  1.00  0.00     0.293 HD
ENDBRANCH   2  24
BRANCH   6  26
ATOM     26  O   UNL     1      14.611  99.987   9.687  1.00  0.00    -0.507 OA
ATOM     27  H   UNL     1      14.056  99.569  10.419  1.00  0.00     0.293 HD
ENDBRANCH   6  26
BRANCH   8  28
ATOM     28  O   UNL     1      18.992 101.777   8.981  1.00  0.00    -0.508 OA
ATOM     29  H   UNL     1      19.673 101.882   8.237  1.00  0.00     0.293 HD
ENDBRANCH   8  28
TORSDOF 7
ENDMDL
