MODEL 1
REMARK VINA RESULT:    -2.468      0.000      0.000
REMARK INTER + INTRA:          -6.585
REMARK INTER:                  -4.344
REMARK INTRA:                  -2.241
REMARK UNBOUND:                -2.241
REMARK SMILES CCCCCCCCCCCCCCC(=O)[O-]
REMARK SMILES IDX 9 1 10 2 11 3 12 4 13 5 14 6 15 7 16 8 17 9 8 10 7 11 6 12
REMARK SMILES IDX 5 13 4 14 3 15 2 16 1 17
REMARK H PARENT
REMARK Flexibility Score: inf
ROOT
ATOM      1  C   UNL     1       5.253  24.537   4.685  1.00  0.00     0.000 C 
ENDROOT
BRANCH   1   2
ATOM      2  C   UNL     1       5.400  23.190   3.968  1.00  0.00     0.000 C 
BRANCH   2   3
ATOM      3  C   UNL     1       4.091  22.786   3.279  1.00  0.00     0.000 C 
BRANCH   3   4
ATOM      4  C   UNL     1       3.125  23.976   3.192  1.00  0.00     0.000 C 
BRANCH   4   5
ATOM      5  C   UNL     1       1.746  23.580   2.641  1.00  0.00     0.006 C 
BRANCH   5   6
ATOM      6  C   UNL     1       1.003  22.598   3.556  1.00  0.00     0.053 C 
BRANCH   6   7
ATOM      7  C   UNL     1      -0.172  23.267   4.196  1.00  0.00     0.041 C 
ATOM      8  O   UNL     1      -0.684  24.289   3.668  1.00  0.00    -0.550 OA
ATOM      9  O   UNL     1      -0.672  22.790   5.401  1.00  0.00    -0.550 OA
ENDBRANCH   6   7
ENDBRANCH   5   6
ENDBRANCH   4   5
ENDBRANCH   3   4
ENDBRANCH   2   3
ENDBRANCH   1   2
BRANCH   1  10
ATOM     10  C   UNL     1       6.432  24.784   5.638  1.00  0.00     0.000 C 
BRANCH  10  11
ATOM     11  C   UNL     1       6.106  24.421   7.098  1.00  0.00    -0.000 C 
BRANCH  11  12
ATOM     12  C   UNL     1       6.991  23.316   7.710  1.00  0.00    -0.000 C 
BRANCH  12  13
ATOM     13  C   UNL     1       6.460  21.882   7.539  1.00  0.00    -0.000 C 
BRANCH  13  14
ATOM     14  C   UNL     1       4.970  21.752   7.889  1.00  0.00    -0.000 C 
BRANCH  14  15
ATOM     15  C   UNL     1       4.178  21.168   6.713  1.00  0.00    -0.000 C 
BRANCH  15  16
ATOM     16  C   UNL     1       2.721  21.644   6.740  1.00  0.00    -0.003 C 
ATOM     17  C   UNL     1       2.640  23.167   6.793  1.00  0.00     0.004 C 
ENDBRANCH  15  16
ENDBRANCH  14  15
ENDBRANCH  13  14
ENDBRANCH  12  13
ENDBRANCH  11  12
ENDBRANCH  10  11
ENDBRANCH   1  10
TORSDOF 13
ENDMDL
MODEL 2
REMARK VINA RESULT:    -2.329      1.366      3.813
REMARK INTER + INTRA:          -6.340
REMARK INTER:                  -4.536
REMARK INTRA:                  -1.803
REMARK UNBOUND:                -2.241
REMARK SMILES CCCCCCCCCCCCCCC(=O)[O-]
REMARK SMILES IDX 9 1 10 2 11 3 12 4 13 5 14 6 15 7 16 8 17 9 8 10 7 11 6 12
REMARK SMILES IDX 5 13 4 14 3 15 2 16 1 17
REMARK H PARENT
REMARK Flexibility Score: inf
ROOT
ATOM      1  C   UNL     1       2.515  22.771   6.122  1.00  0.00     0.000 C 
ENDROOT
BRANCH   1   2
ATOM      2  C   UNL     1       1.786  21.759   7.014  1.00  0.00     0.000 C 
BRANCH   2   3
ATOM      3  C   UNL     1       0.270  21.991   6.987  1.00  0.00     0.000 C 
BRANCH   3   4
ATOM      4  C   UNL     1      -0.399  21.126   5.909  1.00  0.00     0.000 C 
BRANCH   4   5
ATOM      5  C   UNL     1      -1.086  21.965   4.819  1.00  0.00     0.006 C 
BRANCH   5   6
ATOM      6  C   UNL     1      -0.213  22.140   3.570  1.00  0.00     0.053 C 
BRANCH   6   7
ATOM      7  C   UNL     1       0.019  23.592   3.295  1.00  0.00     0.041 C 
ATOM      8  O   UNL     1       1.053  23.963   2.680  1.00  0.00    -0.550 OA
ATOM      9  O   UNL     1      -0.883  24.541   3.762  1.00  0.00    -0.550 OA
ENDBRANCH   6   7
ENDBRANCH   5   6
ENDBRANCH   4   5
ENDBRANCH   3   4
ENDBRANCH   2   3
ENDBRANCH   1   2
BRANCH   1  10
ATOM     10  C   UNL     1       3.220  22.066   4.954  1.00  0.00     0.000 C 
BRANCH  10  11
ATOM     11  C   UNL     1       4.127  23.013   4.145  1.00  0.00    -0.000 C 
BRANCH  11  12
ATOM     12  C   UNL     1       4.557  24.296   4.885  1.00  0.00    -0.000 C 
BRANCH  12  13
ATOM     13  C   UNL     1       6.023  24.713   4.671  1.00  0.00    -0.000 C 
BRANCH  13  14
ATOM     14  C   UNL     1       6.791  24.890   5.990  1.00  0.00    -0.000 C 
BRANCH  14  15
ATOM     15  C   UNL     1       6.014  24.282   7.163  1.00  0.00    -0.000 C 
BRANCH  15  16
ATOM     16  C   UNL     1       6.715  23.027   7.696  1.00  0.00    -0.003 C 
ATOM     17  C   UNL     1       5.762  21.835   7.729  1.00  0.00     0.004 C 
ENDBRANCH  15  16
ENDBRANCH  14  15
ENDBRANCH  13  14
ENDBRANCH  12  13
ENDBRANCH  11  12
ENDBRANCH  10  11
ENDBRANCH   1  10
TORSDOF 13
ENDMDL
MODEL 3
REMARK VINA RESULT:    -2.326      1.324      3.572
REMARK INTER + INTRA:          -6.335
REMARK INTER:                  -4.521
REMARK INTRA:                  -1.813
REMARK UNBOUND:                -2.241
REMARK SMILES CCCCCCCCCCCCCCC(=O)[O-]
REMARK SMILES IDX 9 1 10 2 11 3 12 4 13 5 14 6 15 7 16 8 17 9 8 10 7 11 6 12
REMARK SMILES IDX 5 13 4 14 3 15 2 16 1 17
REMARK H PARENT
REMARK Flexibility Score: inf
ROOT
ATOM      1  C   UNL     1       5.624  21.591   6.654  1.00  0.00     0.000 C 
ENDROOT
BRANCH   1   2
ATOM      2  C   UNL     1       4.564  21.312   7.727  1.00  0.00     0.000 C 
BRANCH   2   3
ATOM      3  C   UNL     1       3.186  21.079   7.095  1.00  0.00     0.000 C 
BRANCH   3   4
ATOM      4  C   UNL     1       2.786  22.261   6.199  1.00  0.00     0.000 C 
BRANCH   4   5
ATOM      5  C   UNL     1       1.609  23.065   6.773  1.00  0.00     0.006 C 
BRANCH   5   6
ATOM      6  C   UNL     1       0.345  22.216   6.957  1.00  0.00     0.053 C 
BRANCH   6   7
ATOM      7  C   UNL     1      -0.543  22.337   5.759  1.00  0.00     0.041 C 
ATOM      8  O   UNL     1      -0.427  23.319   4.980  1.00  0.00    -0.550 OA
ATOM      9  O   UNL     1      -1.532  21.388   5.529  1.00  0.00    -0.550 OA
ENDBRANCH   6   7
ENDBRANCH   5   6
ENDBRANCH   4   5
ENDBRANCH   3   4
ENDBRANCH   2   3
ENDBRANCH   1   2
BRANCH   1  10
ATOM     10  C   UNL     1       6.800  22.387   7.238  1.00  0.00     0.000 C 
BRANCH  10  11
ATOM     11  C   UNL     1       6.472  23.878   7.437  1.00  0.00    -0.000 C 
BRANCH  11  12
ATOM     12  C   UNL     1       5.804  24.567   6.231  1.00  0.00    -0.000 C 
BRANCH  12  13
ATOM     13  C   UNL     1       6.740  24.866   5.046  1.00  0.00    -0.000 C 
BRANCH  13  14
ATOM     14  C   UNL     1       6.011  24.861   3.694  1.00  0.00    -0.000 C 
BRANCH  14  15
ATOM     15  C   UNL     1       4.518  24.564   3.876  1.00  0.00    -0.000 C 
BRANCH  15  16
ATOM     16  C   UNL     1       4.056  23.456   2.922  1.00  0.00    -0.003 C 
ATOM     17  C   UNL     1       4.927  22.211   3.061  1.00  0.00     0.004 C 
ENDBRANCH  15  16
ENDBRANCH  14  15
ENDBRANCH  13  14
ENDBRANCH  12  13
ENDBRANCH  11  12
ENDBRANCH  10  11
ENDBRANCH   1  10
TORSDOF 13
ENDMDL
MODEL 4
REMARK VINA RESULT:    -2.323      1.126      3.044
REMARK INTER + INTRA:          -6.330
REMARK INTER:                  -4.313
REMARK INTRA:                  -2.017
REMARK UNBOUND:                -2.241
REMARK SMILES CCCCCCCCCCCCCCC(=O)[O-]
REMARK SMILES IDX 9 1 10 2 11 3 12 4 13 5 14 6 15 7 16 8 17 9 8 10 7 11 6 12
REMARK SMILES IDX 5 13 4 14 3 15 2 16 1 17
REMARK H PARENT
REMARK Flexibility Score: inf
ROOT
ATOM      1  C   UNL     1       3.752  23.230   6.745  1.00  0.00     0.000 C 
ENDROOT
BRANCH   1   2
ATOM      2  C   UNL     1       2.871  22.166   6.078  1.00  0.00     0.000 C 
BRANCH   2   3
ATOM      3  C   UNL     1       3.610  21.485   4.919  1.00  0.00     0.000 C 
BRANCH   3   4
ATOM      4  C   UNL     1       2.797  21.578   3.620  1.00  0.00     0.000 C 
BRANCH   4   5
ATOM      5  C   UNL     1       1.890  22.818   3.577  1.00  0.00     0.006 C 
BRANCH   5   6
ATOM      6  C   UNL     1       0.411  22.462   3.380  1.00  0.00     0.053 C 
BRANCH   6   7
ATOM      7  C   UNL     1      -0.447  23.271   4.301  1.00  0.00     0.041 C 
ATOM      8  O   UNL     1      -0.878  24.397   3.941  1.00  0.00    -0.550 OA
ATOM      9  O   UNL     1      -0.731  22.801   5.577  1.00  0.00    -0.550 OA
ENDBRANCH   6   7
ENDBRANCH   5   6
ENDBRANCH   4   5
ENDBRANCH   3   4
ENDBRANCH   2   3
ENDBRANCH   1   2
BRANCH   1  10
ATOM     10  C   UNL     1       4.886  22.579   7.549  1.00  0.00     0.000 C 
BRANCH  10  11
ATOM     11  C   UNL     1       6.269  23.167   7.214  1.00  0.00    -0.000 C 
BRANCH  11  12
ATOM     12  C   UNL     1       6.260  24.640   6.758  1.00  0.00    -0.000 C 
BRANCH  12  13
ATOM     13  C   UNL     1       6.810  24.890   5.342  1.00  0.00    -0.000 C 
BRANCH  13  14
ATOM     14  C   UNL     1       6.701  23.656   4.434  1.00  0.00    -0.000 C 
BRANCH  14  15
ATOM     15  C   UNL     1       5.803  23.942   3.224  1.00  0.00    -0.000 C 
BRANCH  15  16
ATOM     16  C   UNL     1       4.790  25.049   3.539  1.00  0.00    -0.003 C 
ATOM     17  C   UNL     1       4.050  25.493   2.281  1.00  0.00     0.004 C 
ENDBRANCH  15  16
ENDBRANCH  14  15
ENDBRANCH  13  14
ENDBRANCH  12  13
ENDBRANCH  11  12
ENDBRANCH  10  11
ENDBRANCH   1  10
TORSDOF 13
ENDMDL
MODEL 5
REMARK VINA RESULT:    -2.268      1.334      3.733
REMARK INTER + INTRA:          -6.233
REMARK INTER:                  -4.186
REMARK INTRA:                  -2.046
REMARK UNBOUND:                -2.241
REMARK SMILES CCCCCCCCCCCCCCC(=O)[O-]
REMARK SMILES IDX 9 1 10 2 11 3 12 4 13 5 14 6 15 7 16 8 17 9 8 10 7 11 6 12
REMARK SMILES IDX 5 13 4 14 3 15 2 16 1 17
REMARK H PARENT
REMARK Flexibility Score: inf
ROOT
ATOM      1  C   UNL     1       5.959  24.358   7.142  1.00  0.00     0.000 C 
ENDROOT
BRANCH   1   2
ATOM      2  C   UNL     1       5.101  23.127   7.456  1.00  0.00     0.000 C 
BRANCH   2   3
ATOM      3  C   UNL     1       3.772  23.170   6.691  1.00  0.00     0.000 C 
BRANCH   3   4
ATOM      4  C   UNL     1       3.472  21.816   6.033  1.00  0.00     0.000 C 
BRANCH   4   5
ATOM      5  C   UNL     1       1.993  21.414   6.154  1.00  0.00     0.006 C 
BRANCH   5   6
ATOM      6  C   UNL     1       1.099  22.577   6.602  1.00  0.00     0.053 C 
BRANCH   6   7
ATOM      7  C   UNL     1      -0.339  22.164   6.592  1.00  0.00     0.041 C 
ATOM      8  O   UNL     1      -1.006  22.217   5.526  1.00  0.00    -0.550 OA
ATOM      9  O   UNL     1      -0.956  21.767   7.772  1.00  0.00    -0.550 OA
ENDBRANCH   6   7
ENDBRANCH   5   6
ENDBRANCH   4   5
ENDBRANCH   3   4
ENDBRANCH   2   3
ENDBRANCH   1   2
BRANCH   1  10
ATOM     10  C   UNL     1       6.013  24.619   5.629  1.00  0.00     0.000 C 
BRANCH  10  11
ATOM     11  C   UNL     1       6.915  23.620   4.883  1.00  0.00    -0.000 C 
BRANCH  11  12
ATOM     12  C   UNL     1       6.231  22.852   3.733  1.00  0.00    -0.000 C 
BRANCH  12  13
ATOM     13  C   UNL     1       5.301  23.698   2.845  1.00  0.00    -0.000 C 
BRANCH  13  14
ATOM     14  C   UNL     1       3.939  23.032   2.602  1.00  0.00    -0.000 C 
BRANCH  14  15
ATOM     15  C   UNL     1       2.792  24.014   2.868  1.00  0.00    -0.000 C 
BRANCH  15  16
ATOM     16  C   UNL     1       1.449  23.280   2.958  1.00  0.00    -0.003 C 
ATOM     17  C   UNL     1       1.571  21.843   2.461  1.00  0.00     0.004 C 
ENDBRANCH  15  16
ENDBRANCH  14  15
ENDBRANCH  13  14
ENDBRANCH  12  13
ENDBRANCH  11  12
ENDBRANCH  10  11
ENDBRANCH   1  10
TORSDOF 13
ENDMDL
MODEL 6
REMARK VINA RESULT:    -2.257      1.188      1.887
REMARK INTER + INTRA:          -6.213
REMARK INTER:                  -4.342
REMARK INTRA:                  -1.871
REMARK UNBOUND:                -2.241
REMARK SMILES CCCCCCCCCCCCCCC(=O)[O-]
REMARK SMILES IDX 9 1 10 2 11 3 12 4 13 5 14 6 15 7 16 8 17 9 8 10 7 11 6 12
REMARK SMILES IDX 5 13 4 14 3 15 2 16 1 17
REMARK H PARENT
REMARK Flexibility Score: inf
ROOT
ATOM      1  C   UNL     1       4.102  24.396   3.478  1.00  0.00     0.000 C 
ENDROOT
BRANCH   1   2
ATOM      2  C   UNL     1       4.078  22.909   3.103  1.00  0.00     0.000 C 
BRANCH   2   3
ATOM      3  C   UNL     1       2.684  22.483   2.625  1.00  0.00     0.000 C 
BRANCH   3   4
ATOM      4  C   UNL     1       1.624  23.517   3.030  1.00  0.00     0.000 C 
BRANCH   4   5
ATOM      5  C   UNL     1       0.227  22.898   3.196  1.00  0.00     0.006 C 
BRANCH   5   6
ATOM      6  C   UNL     1       0.222  21.694   4.146  1.00  0.00     0.053 C 
BRANCH   6   7
ATOM      7  C   UNL     1      -0.943  21.772   5.081  1.00  0.00     0.041 C 
ATOM      8  O   UNL     1      -2.054  21.281   4.751  1.00  0.00    -0.550 OA
ATOM      9  O   UNL     1      -0.815  22.431   6.298  1.00  0.00    -0.550 OA
ENDBRANCH   6   7
ENDBRANCH   5   6
ENDBRANCH   4   5
ENDBRANCH   3   4
ENDBRANCH   2   3
ENDBRANCH   1   2
BRANCH   1  10
ATOM     10  C   UNL     1       5.544  24.911   3.588  1.00  0.00     0.000 C 
BRANCH  10  11
ATOM     11  C   UNL     1       6.366  24.163   4.653  1.00  0.00    -0.000 C 
BRANCH  11  12
ATOM     12  C   UNL     1       6.595  24.938   5.967  1.00  0.00    -0.000 C 
BRANCH  12  13
ATOM     13  C   UNL     1       6.056  24.251   7.234  1.00  0.00    -0.000 C 
BRANCH  13  14
ATOM     14  C   UNL     1       5.995  22.722   7.104  1.00  0.00    -0.000 C 
BRANCH  14  15
ATOM     15  C   UNL     1       4.688  22.173   7.689  1.00  0.00    -0.000 C 
BRANCH  15  16
ATOM     16  C   UNL     1       3.621  22.014   6.599  1.00  0.00    -0.003 C 
ATOM     17  C   UNL     1       2.623  23.168   6.634  1.00  0.00     0.004 C 
ENDBRANCH  15  16
ENDBRANCH  14  15
ENDBRANCH  13  14
ENDBRANCH  12  13
ENDBRANCH  11  12
ENDBRANCH  10  11
ENDBRANCH   1  10
TORSDOF 13
ENDMDL
MODEL 7
REMARK VINA RESULT:    -2.250      2.624      5.471
REMARK INTER + INTRA:          -6.201
REMARK INTER:                  -4.295
REMARK INTRA:                  -1.906
REMARK UNBOUND:                -2.241
REMARK SMILES CCCCCCCCCCCCCCC(=O)[O-]
REMARK SMILES IDX 9 1 10 2 11 3 12 4 13 5 14 6 15 7 16 8 17 9 8 10 7 11 6 12
REMARK SMILES IDX 5 13 4 14 3 15 2 16 1 17
REMARK H PARENT
REMARK Flexibility Score: inf
ROOT
ATOM      1  C   UNL     1       3.875  24.158   3.953  1.00  0.00     0.000 C 
ENDROOT
BRANCH   1   2
ATOM      2  C   UNL     1       5.262  24.798   3.822  1.00  0.00     0.000 C 
BRANCH   2   3
ATOM      3  C   UNL     1       6.265  24.142   4.780  1.00  0.00     0.000 C 
BRANCH   3   4
ATOM      4  C   UNL     1       6.325  24.898   6.115  1.00  0.00     0.000 C 
BRANCH   4   5
ATOM      5  C   UNL     1       6.231  23.961   7.329  1.00  0.00     0.006 C 
BRANCH   5   6
ATOM      6  C   UNL     1       4.891  23.218   7.401  1.00  0.00     0.053 C 
BRANCH   6   7
ATOM      7  C   UNL     1       5.115  21.739   7.429  1.00  0.00     0.041 C 
ATOM      8  O   UNL     1       5.463  21.131   6.384  1.00  0.00    -0.550 OA
ATOM      9  O   UNL     1       4.891  21.025   8.600  1.00  0.00    -0.550 OA
ENDBRANCH   6   7
ENDBRANCH   5   6
ENDBRANCH   4   5
ENDBRANCH   3   4
ENDBRANCH   2   3
ENDBRANCH   1   2
BRANCH   1  10
ATOM     10  C   UNL     1       3.924  22.664   3.604  1.00  0.00     0.000 C 
BRANCH  10  11
ATOM     11  C   UNL     1       2.742  21.873   4.194  1.00  0.00    -0.000 C 
BRANCH  11  12
ATOM     12  C   UNL     1       1.995  22.576   5.345  1.00  0.00    -0.000 C 
BRANCH  12  13
ATOM     13  C   UNL     1       0.472  22.699   5.159  1.00  0.00    -0.000 C 
BRANCH  13  14
ATOM     14  C   UNL     1       0.006  22.268   3.761  1.00  0.00    -0.000 C 
BRANCH  14  15
ATOM     15  C   UNL     1      -1.011  23.264   3.190  1.00  0.00    -0.000 C 
BRANCH  15  16
ATOM     16  C   UNL     1      -0.341  24.599   2.845  1.00  0.00    -0.003 C 
ATOM     17  C   UNL     1       0.820  24.399   1.876  1.00  0.00     0.004 C 
ENDBRANCH  15  16
ENDBRANCH  14  15
ENDBRANCH  13  14
ENDBRANCH  12  13
ENDBRANCH  11  12
ENDBRANCH  10  11
ENDBRANCH   1  10
TORSDOF 13
ENDMDL
MODEL 8
REMARK VINA RESULT:    -2.112      1.418      3.755
REMARK INTER + INTRA:          -5.958
REMARK INTER:                  -4.402
REMARK INTRA:                  -1.556
REMARK UNBOUND:                -2.241
REMARK SMILES CCCCCCCCCCCCCCC(=O)[O-]
REMARK SMILES IDX 9 1 10 2 11 3 12 4 13 5 14 6 15 7 16 8 17 9 8 10 7 11 6 12
REMARK SMILES IDX 5 13 4 14 3 15 2 16 1 17
REMARK H PARENT
REMARK Flexibility Score: inf
ROOT
ATOM      1  C   UNL     1       1.224  23.121   6.535  1.00  0.00     0.000 C 
ENDROOT
BRANCH   1   2
ATOM      2  C   UNL     1       0.599  21.847   7.117  1.00  0.00     0.000 C 
BRANCH   2   3
ATOM      3  C   UNL     1      -0.579  21.368   6.259  1.00  0.00     0.000 C 
BRANCH   3   4
ATOM      4  C   UNL     1      -0.134  21.106   4.813  1.00  0.00     0.000 C 
BRANCH   4   5
ATOM      5  C   UNL     1      -0.962  21.897   3.788  1.00  0.00     0.006 C 
BRANCH   5   6
ATOM      6  C   UNL     1      -0.095  22.545   2.701  1.00  0.00     0.053 C 
BRANCH   6   7
ATOM      7  C   UNL     1      -0.031  24.027   2.900  1.00  0.00     0.041 C 
ATOM      8  O   UNL     1       0.886  24.699   2.360  1.00  0.00    -0.550 OA
ATOM      9  O   UNL     1      -0.956  24.658   3.722  1.00  0.00    -0.550 OA
ENDBRANCH   6   7
ENDBRANCH   5   6
ENDBRANCH   4   5
ENDBRANCH   3   4
ENDBRANCH   2   3
ENDBRANCH   1   2
BRANCH   1  10
ATOM     10  C   UNL     1       2.748  23.120   6.718  1.00  0.00     0.000 C 
BRANCH  10  11
ATOM     11  C   UNL     1       3.418  21.861   6.137  1.00  0.00    -0.000 C 
BRANCH  11  12
ATOM     12  C   UNL     1       4.794  21.515   6.741  1.00  0.00    -0.000 C 
BRANCH  12  13
ATOM     13  C   UNL     1       5.282  22.469   7.846  1.00  0.00    -0.000 C 
BRANCH  13  14
ATOM     14  C   UNL     1       6.516  23.282   7.430  1.00  0.00    -0.000 C 
BRANCH  14  15
ATOM     15  C   UNL     1       6.106  24.572   6.709  1.00  0.00    -0.000 C 
BRANCH  15  16
ATOM     16  C   UNL     1       6.453  24.505   5.217  1.00  0.00    -0.003 C 
ATOM     17  C   UNL     1       5.214  24.718   4.353  1.00  0.00     0.004 C 
ENDBRANCH  15  16
ENDBRANCH  14  15
ENDBRANCH  13  14
ENDBRANCH  12  13
ENDBRANCH  11  12
ENDBRANCH  10  11
ENDBRANCH   1  10
TORSDOF 13
ENDMDL
