MODEL 1
REMARK VINA RESULT:    -4.515      0.000      0.000
REMARK INTER + INTRA:          -4.801
REMARK INTER:                  -4.779
REMARK INTRA:                  -0.021
REMARK UNBOUND:                -0.021
REMARK SMILES O=C([O-])c1cccnc1
REMARK SMILES IDX 4 1 5 2 9 3 6 4 8 5 7 6 2 7 1 8 3 9
REMARK H PARENT
REMARK Flexibility Score: inf
ROOT
ATOM      1  C   UNL     1      21.674   2.933   6.452  1.00  0.00     0.016 A 
ATOM      2  C   UNL     1      21.780   1.564   6.748  1.00  0.00     0.013 A 
ATOM      3  C   UNL     1      22.567   3.487   5.520  1.00  0.00     0.120 A 
ATOM      4  C   UNL     1      22.753   0.785   6.119  1.00  0.00     0.021 A 
ATOM      5  N   UNL     1      23.506   2.706   4.923  1.00  0.00    -0.264 NA
ATOM      6  C   UNL     1      23.617   1.380   5.199  1.00  0.00     0.111 A 
ENDROOT
BRANCH   1   7
ATOM      7  C   UNL     1      20.649   3.776   7.108  1.00  0.00     0.073 C 
ATOM      8  O   UNL     1      20.294   3.545   8.294  1.00  0.00    -0.545 OA
ATOM      9  O   UNL     1      20.064   4.834   6.421  1.00  0.00    -0.545 OA
ENDBRANCH   1   7
TORSDOF 1
ENDMDL
MODEL 2
REMARK VINA RESULT:    -4.250      0.903      1.601
REMARK INTER + INTRA:          -4.520
REMARK INTER:                  -4.499
REMARK INTRA:                  -0.021
REMARK UNBOUND:                -0.021
REMARK SMILES O=C([O-])c1cccnc1
REMARK SMILES IDX 4 1 5 2 9 3 6 4 8 5 7 6 2 7 1 8 3 9
REMARK H PARENT
REMARK Flexibility Score: inf
ROOT
ATOM      1  C   UNL     1      21.693   2.921   6.445  1.00  0.00     0.016 A 
ATOM      2  C   UNL     1      22.569   3.515   5.520  1.00  0.00     0.013 A 
ATOM      3  C   UNL     1      21.816   1.544   6.694  1.00  0.00     0.120 A 
ATOM      4  C   UNL     1      23.536   2.740   4.875  1.00  0.00     0.021 A 
ATOM      5  N   UNL     1      22.765   0.813   6.051  1.00  0.00    -0.264 NA
ATOM      6  C   UNL     1      23.619   1.376   5.156  1.00  0.00     0.111 A 
ENDROOT
BRANCH   1   7
ATOM      7  C   UNL     1      20.662   3.725   7.139  1.00  0.00     0.073 C 
ATOM      8  O   UNL     1      20.340   3.462   8.329  1.00  0.00    -0.545 OA
ATOM      9  O   UNL     1      20.035   4.780   6.487  1.00  0.00    -0.545 OA
ENDBRANCH   1   7
TORSDOF 1
ENDMDL
MODEL 3
REMARK VINA RESULT:    -3.896      2.676      3.705
REMARK INTER + INTRA:          -4.145
REMARK INTER:                  -4.122
REMARK INTRA:                  -0.023
REMARK UNBOUND:                -0.021
REMARK SMILES O=C([O-])c1cccnc1
REMARK SMILES IDX 4 1 5 2 9 3 6 4 8 5 7 6 2 7 1 8 3 9
REMARK H PARENT
REMARK Flexibility Score: inf
ROOT
ATOM      1  C   UNL     1      21.944   2.129   6.418  1.00  0.00     0.016 A 
ATOM      2  C   UNL     1      21.188   2.068   7.601  1.00  0.00     0.013 A 
ATOM      3  C   UNL     1      21.872   3.295   5.637  1.00  0.00     0.120 A 
ATOM      4  C   UNL     1      20.391   3.151   7.979  1.00  0.00     0.021 A 
ATOM      5  N   UNL     1      21.087   4.334   6.028  1.00  0.00    -0.264 NA
ATOM      6  C   UNL     1      20.352   4.287   7.170  1.00  0.00     0.111 A 
ENDROOT
BRANCH   1   7
ATOM      7  C   UNL     1      22.795   0.993   6.000  1.00  0.00     0.073 C 
ATOM      8  O   UNL     1      23.649   1.135   5.084  1.00  0.00    -0.545 OA
ATOM      9  O   UNL     1      22.664  -0.248   6.613  1.00  0.00    -0.545 OA
ENDBRANCH   1   7
TORSDOF 1
ENDMDL
MODEL 4
REMARK VINA RESULT:    -2.909      1.981      2.539
REMARK INTER + INTRA:          -3.101
REMARK INTER:                  -3.085
REMARK INTRA:                  -0.016
REMARK UNBOUND:                -0.021
REMARK SMILES O=C([O-])c1cccnc1
REMARK SMILES IDX 4 1 5 2 9 3 6 4 8 5 7 6 2 7 1 8 3 9
REMARK H PARENT
REMARK Flexibility Score: inf
ROOT
ATOM      1  C   UNL     1      20.709   4.206   6.730  1.00  0.00     0.016 A 
ATOM      2  C   UNL     1      21.470   3.779   5.629  1.00  0.00     0.013 A 
ATOM      3  C   UNL     1      20.491   3.301   7.783  1.00  0.00     0.120 A 
ATOM      4  C   UNL     1      21.993   2.485   5.598  1.00  0.00     0.021 A 
ATOM      5  N   UNL     1      21.010   2.046   7.727  1.00  0.00    -0.264 NA
ATOM      6  C   UNL     1      21.749   1.623   6.668  1.00  0.00     0.111 A 
ENDROOT
BRANCH   1   7
ATOM      7  C   UNL     1      20.147   5.574   6.782  1.00  0.00     0.073 C 
ATOM      8  O   UNL     1      20.754   6.492   7.395  1.00  0.00    -0.545 OA
ATOM      9  O   UNL     1      18.941   5.863   6.155  1.00  0.00    -0.545 OA
ENDBRANCH   1   7
TORSDOF 1
ENDMDL
MODEL 5
REMARK VINA RESULT:    -2.737      2.792      3.601
REMARK INTER + INTRA:          -2.918
REMARK INTER:                  -2.902
REMARK INTRA:                  -0.017
REMARK UNBOUND:                -0.021
REMARK SMILES O=C([O-])c1cccnc1
REMARK SMILES IDX 4 1 5 2 9 3 6 4 8 5 7 6 2 7 1 8 3 9
REMARK H PARENT
REMARK Flexibility Score: inf
ROOT
ATOM      1  C   UNL     1      22.229   1.289   6.601  1.00  0.00     0.016 A 
ATOM      2  C   UNL     1      21.128   1.943   7.179  1.00  0.00     0.013 A 
ATOM      3  C   UNL     1      23.064   2.019   5.738  1.00  0.00     0.120 A 
ATOM      4  C   UNL     1      20.885   3.289   6.895  1.00  0.00     0.021 A 
ATOM      5  N   UNL     1      22.803   3.328   5.478  1.00  0.00    -0.264 NA
ATOM      6  C   UNL     1      21.743   3.972   6.032  1.00  0.00     0.111 A 
ENDROOT
BRANCH   1   7
ATOM      7  C   UNL     1      22.504  -0.136   6.890  1.00  0.00     0.073 C 
ATOM      8  O   UNL     1      21.791  -1.042   6.382  1.00  0.00    -0.545 OA
ATOM      9  O   UNL     1      23.555  -0.494   7.727  1.00  0.00    -0.545 OA
ENDBRANCH   1   7
TORSDOF 1
ENDMDL
MODEL 6
REMARK VINA RESULT:    -2.424      6.322      7.951
REMARK INTER + INTRA:          -2.588
REMARK INTER:                  -2.567
REMARK INTRA:                  -0.020
REMARK UNBOUND:                -0.021
REMARK SMILES O=C([O-])c1cccnc1
REMARK SMILES IDX 4 1 5 2 9 3 6 4 8 5 7 6 2 7 1 8 3 9
REMARK H PARENT
REMARK Flexibility Score: inf
ROOT
ATOM      1  C   UNL     1      18.746   8.709   6.098  1.00  0.00     0.016 A 
ATOM      2  C   UNL     1      19.279   9.740   5.305  1.00  0.00     0.013 A 
ATOM      3  C   UNL     1      17.522   8.932   6.749  1.00  0.00     0.120 A 
ATOM      4  C   UNL     1      18.594  10.950   5.177  1.00  0.00     0.021 A 
ATOM      5  N   UNL     1      16.876  10.120   6.608  1.00  0.00    -0.264 NA
ATOM      6  C   UNL     1      17.381  11.123   5.844  1.00  0.00     0.111 A 
ENDROOT
BRANCH   1   7
ATOM      7  C   UNL     1      19.456   7.419   6.246  1.00  0.00     0.073 C 
ATOM      8  O   UNL     1      20.706   7.391   6.404  1.00  0.00    -0.545 OA
ATOM      9  O   UNL     1      18.753   6.221   6.212  1.00  0.00    -0.545 OA
ENDBRANCH   1   7
TORSDOF 1
ENDMDL
MODEL 7
REMARK VINA RESULT:    -2.255     21.958     22.685
REMARK INTER + INTRA:          -2.409
REMARK INTER:                  -2.387
REMARK INTRA:                  -0.022
REMARK UNBOUND:                -0.021
REMARK SMILES O=C([O-])c1cccnc1
REMARK SMILES IDX 4 1 5 2 9 3 6 4 8 5 7 6 2 7 1 8 3 9
REMARK H PARENT
REMARK Flexibility Score: inf
ROOT
ATOM      1  C   UNL     1      34.271  -5.095  23.167  1.00  0.00     0.016 A 
ATOM      2  C   UNL     1      35.149  -5.308  22.091  1.00  0.00     0.013 A 
ATOM      3  C   UNL     1      34.805  -5.047  24.466  1.00  0.00     0.120 A 
ATOM      4  C   UNL     1      36.517  -5.464  22.324  1.00  0.00     0.021 A 
ATOM      5  N   UNL     1      36.141  -5.203  24.665  1.00  0.00    -0.264 NA
ATOM      6  C   UNL     1      36.999  -5.408  23.632  1.00  0.00     0.111 A 
ENDROOT
BRANCH   1   7
ATOM      7  C   UNL     1      32.818  -4.927  22.942  1.00  0.00     0.073 C 
ATOM      8  O   UNL     1      32.393  -4.379  21.890  1.00  0.00    -0.545 OA
ATOM      9  O   UNL     1      31.903  -5.372  23.889  1.00  0.00    -0.545 OA
ENDBRANCH   1   7
TORSDOF 1
ENDMDL
