MODEL 1
REMARK VINA RESULT:    -4.055      0.000      0.000
REMARK INTER + INTRA:          -4.696
REMARK INTER:                  -4.647
REMARK INTRA:                  -0.049
REMARK UNBOUND:                -0.049
REMARK SMILES CC(C)[C@@H]([NH3+])C(=O)[O-]
REMARK SMILES IDX 4 1 5 2 6 6 7 7 8 8 2 9 1 10 3 11
REMARK H PARENT 5 3 5 4 5 5
REMARK Flexibility Score: inf
ROOT
ATOM      1  C   UNL     1     127.342 103.503 129.073  1.00  0.00     0.230 C 
ENDROOT
BRANCH   1   2
ATOM      2  N   UNL     1     127.710 102.768 127.852  1.00  0.00    -0.350 N 
ATOM      3  H   UNL     1     128.355 103.341 127.263  1.00  0.00     0.345 HD
ATOM      4  H   UNL     1     126.850 102.580 127.287  1.00  0.00     0.345 HD
ATOM      5  H   UNL     1     128.165 101.854 128.078  1.00  0.00     0.345 HD
ENDBRANCH   1   2
BRANCH   1   6
ATOM      6  C   UNL     1     128.368 104.563 129.388  1.00  0.00     0.099 C 
ATOM      7  O   UNL     1     128.847 104.646 130.551  1.00  0.00    -0.544 OA
ATOM      8  O   UNL     1     128.760 105.483 128.423  1.00  0.00    -0.544 OA
ENDBRANCH   1   6
BRANCH   1   9
ATOM      9  C   UNL     1     125.911 104.118 129.006  1.00  0.00     0.047 C 
ATOM     10  C   UNL     1     124.899 103.306 129.828  1.00  0.00     0.014 C 
ATOM     11  C   UNL     1     125.392 104.315 127.571  1.00  0.00     0.014 C 
ENDBRANCH   1   9
TORSDOF 3
ENDMDL
MODEL 2
REMARK VINA RESULT:    -4.029      2.754      3.223
REMARK INTER + INTRA:          -4.667
REMARK INTER:                  -4.623
REMARK INTRA:                  -0.044
REMARK UNBOUND:                -0.049
REMARK SMILES CC(C)[C@@H]([NH3+])C(=O)[O-]
REMARK SMILES IDX 4 1 5 2 6 6 7 7 8 8 2 9 1 10 3 11
REMARK H PARENT 5 3 5 4 5 5
REMARK Flexibility Score: inf
ROOT
ATOM      1  C   UNL     1     127.755 102.896 130.618  1.00  0.00     0.230 C 
ENDROOT
BRANCH   1   2
ATOM      2  N   UNL     1     129.192 102.743 130.900  1.00  0.00    -0.350 N 
ATOM      3  H   UNL     1     129.538 103.545 131.473  1.00  0.00     0.345 HD
ATOM      4  H   UNL     1     129.725 102.746 130.000  1.00  0.00     0.345 HD
ATOM      5  H   UNL     1     129.391 101.847 131.400  1.00  0.00     0.345 HD
ENDBRANCH   1   2
BRANCH   1   6
ATOM      6  C   UNL     1     126.994 103.208 131.883  1.00  0.00     0.099 C 
ATOM      7  O   UNL     1     127.614 103.339 132.972  1.00  0.00    -0.544 OA
ATOM      8  O   UNL     1     125.608 103.307 131.872  1.00  0.00    -0.544 OA
ENDBRANCH   1   6
BRANCH   1   9
ATOM      9  C   UNL     1     127.460 103.959 129.516  1.00  0.00     0.047 C 
ATOM     10  C   UNL     1     126.942 103.314 128.223  1.00  0.00     0.014 C 
ATOM     11  C   UNL     1     128.657 104.875 129.209  1.00  0.00     0.014 C 
ENDBRANCH   1   9
TORSDOF 3
ENDMDL
MODEL 3
REMARK VINA RESULT:    -4.002      2.459      2.968
REMARK INTER + INTRA:          -4.637
REMARK INTER:                  -4.567
REMARK INTRA:                  -0.069
REMARK UNBOUND:                -0.049
REMARK SMILES CC(C)[C@@H]([NH3+])C(=O)[O-]
REMARK SMILES IDX 4 1 5 2 6 6 7 7 8 8 2 9 1 10 3 11
REMARK H PARENT 5 3 5 4 5 5
REMARK Flexibility Score: inf
ROOT
ATOM      1  C   UNL     1     128.571 103.853 130.844  1.00  0.00     0.230 C 
ENDROOT
BRANCH   1   2
ATOM      2  N   UNL     1     129.304 102.577 130.854  1.00  0.00    -0.350 N 
ATOM      3  H   UNL     1     129.253 102.119 129.917  1.00  0.00     0.345 HD
ATOM      4  H   UNL     1     128.862 101.928 131.546  1.00  0.00     0.345 HD
ATOM      5  H   UNL     1     130.306 102.713 131.121  1.00  0.00     0.345 HD
ENDBRANCH   1   2
BRANCH   1   6
ATOM      6  C   UNL     1     128.178 104.231 129.437  1.00  0.00     0.099 C 
ATOM      7  O   UNL     1     128.273 103.382 128.510  1.00  0.00    -0.544 OA
ATOM      8  O   UNL     1     127.754 105.520 129.139  1.00  0.00    -0.544 OA
ENDBRANCH   1   6
BRANCH   1   9
ATOM      9  C   UNL     1     127.329 103.850 131.786  1.00  0.00     0.047 C 
ATOM     10  C   UNL     1     127.716 103.564 133.244  1.00  0.00     0.014 C 
ATOM     11  C   UNL     1     126.216 102.889 131.334  1.00  0.00     0.014 C 
ENDBRANCH   1   9
TORSDOF 3
ENDMDL
MODEL 4
REMARK VINA RESULT:    -3.985      1.477      2.034
REMARK INTER + INTRA:          -4.617
REMARK INTER:                  -4.568
REMARK INTRA:                  -0.049
REMARK UNBOUND:                -0.049
REMARK SMILES CC(C)[C@@H]([NH3+])C(=O)[O-]
REMARK SMILES IDX 4 1 5 2 6 6 7 7 8 8 2 9 1 10 3 11
REMARK H PARENT 5 3 5 4 5 5
REMARK Flexibility Score: inf
ROOT
ATOM      1  C   UNL     1     127.833 103.632 128.846  1.00  0.00     0.230 C 
ENDROOT
BRANCH   1   2
ATOM      2  N   UNL     1     127.564 102.588 127.845  1.00  0.00    -0.350 N 
ATOM      3  H   UNL     1     127.662 102.974 126.879  1.00  0.00     0.345 HD
ATOM      4  H   UNL     1     126.579 102.250 127.950  1.00  0.00     0.345 HD
ATOM      5  H   UNL     1     128.207 101.772 127.960  1.00  0.00     0.345 HD
ENDBRANCH   1   2
BRANCH   1   6
ATOM      6  C   UNL     1     127.761 105.003 128.219  1.00  0.00     0.099 C 
ATOM      7  O   UNL     1     128.447 105.946 128.696  1.00  0.00    -0.544 OA
ATOM      8  O   UNL     1     126.911 105.251 127.148  1.00  0.00    -0.544 OA
ENDBRANCH   1   6
BRANCH   1   9
ATOM      9  C   UNL     1     126.896 103.540 130.089  1.00  0.00     0.047 C 
ATOM     10  C   UNL     1     127.649 103.070 131.341  1.00  0.00     0.014 C 
ATOM     11  C   UNL     1     125.651 102.665 129.859  1.00  0.00     0.014 C 
ENDBRANCH   1   9
TORSDOF 3
ENDMDL
MODEL 5
REMARK VINA RESULT:    -3.966      2.403      3.551
REMARK INTER + INTRA:          -4.595
REMARK INTER:                  -4.550
REMARK INTRA:                  -0.044
REMARK UNBOUND:                -0.049
REMARK SMILES CC(C)[C@@H]([NH3+])C(=O)[O-]
REMARK SMILES IDX 4 1 5 2 6 6 7 7 8 8 2 9 1 10 3 11
REMARK H PARENT 5 3 5 4 5 5
REMARK Flexibility Score: inf
ROOT
ATOM      1  C   UNL     1     127.031 103.966 127.928  1.00  0.00     0.230 C 
ENDROOT
BRANCH   1   2
ATOM      2  N   UNL     1     127.605 102.612 127.899  1.00  0.00    -0.350 N 
ATOM      3  H   UNL     1     127.634 102.207 128.861  1.00  0.00     0.345 HD
ATOM      4  H   UNL     1     128.589 102.658 127.546  1.00  0.00     0.345 HD
ATOM      5  H   UNL     1     127.059 101.978 127.272  1.00  0.00     0.345 HD
ENDBRANCH   1   2
BRANCH   1   6
ATOM      6  C   UNL     1     125.525 103.907 127.989  1.00  0.00     0.099 C 
ATOM      7  O   UNL     1     124.838 104.479 127.101  1.00  0.00    -0.544 OA
ATOM      8  O   UNL     1     124.881 103.266 129.041  1.00  0.00    -0.544 OA
ENDBRANCH   1   6
BRANCH   1   9
ATOM      9  C   UNL     1     127.600 104.844 129.085  1.00  0.00     0.047 C 
ATOM     10  C   UNL     1     128.685 105.811 128.591  1.00  0.00     0.014 C 
ATOM     11  C   UNL     1     128.122 104.025 130.279  1.00  0.00     0.014 C 
ENDBRANCH   1   9
TORSDOF 3
ENDMDL
MODEL 6
REMARK VINA RESULT:    -3.928      1.197      2.171
REMARK INTER + INTRA:          -4.552
REMARK INTER:                  -4.560
REMARK INTRA:                   0.008
REMARK UNBOUND:                -0.049
REMARK SMILES CC(C)[C@@H]([NH3+])C(=O)[O-]
REMARK SMILES IDX 4 1 5 2 6 6 7 7 8 8 2 9 1 10 3 11
REMARK H PARENT 5 3 5 4 5 5
REMARK Flexibility Score: inf
ROOT
ATOM      1  C   UNL     1     126.711 102.733 129.065  1.00  0.00     0.230 C 
ENDROOT
BRANCH   1   2
ATOM      2  N   UNL     1     127.583 102.818 127.882  1.00  0.00    -0.350 N 
ATOM      3  H   UNL     1     127.912 103.800 127.741  1.00  0.00     0.345 HD
ATOM      4  H   UNL     1     127.041 102.542 127.031  1.00  0.00     0.345 HD
ATOM      5  H   UNL     1     128.409 102.184 127.969  1.00  0.00     0.345 HD
ENDBRANCH   1   2
BRANCH   1   6
ATOM      6  C   UNL     1     127.340 103.437 130.242  1.00  0.00     0.099 C 
ATOM      7  O   UNL     1     127.826 104.590 130.097  1.00  0.00    -0.544 OA
ATOM      8  O   UNL     1     127.432 102.809 131.479  1.00  0.00    -0.544 OA
ENDBRANCH   1   6
BRANCH   1   9
ATOM      9  C   UNL     1     125.271 103.272 128.801  1.00  0.00     0.047 C 
ATOM     10  C   UNL     1     125.263 104.397 127.756  1.00  0.00     0.014 C 
ATOM     11  C   UNL     1     124.541 103.726 130.076  1.00  0.00     0.014 C 
ENDBRANCH   1   9
TORSDOF 3
ENDMDL
MODEL 7
REMARK VINA RESULT:    -3.925      2.371      2.988
REMARK INTER + INTRA:          -4.548
REMARK INTER:                  -4.501
REMARK INTRA:                  -0.048
REMARK UNBOUND:                -0.049
REMARK SMILES CC(C)[C@@H]([NH3+])C(=O)[O-]
REMARK SMILES IDX 4 1 5 2 6 6 7 7 8 8 2 9 1 10 3 11
REMARK H PARENT 5 3 5 4 5 5
REMARK Flexibility Score: inf
ROOT
ATOM      1  C   UNL     1     127.692 102.883 131.117  1.00  0.00     0.230 C 
ENDROOT
BRANCH   1   2
ATOM      2  N   UNL     1     129.116 102.630 130.843  1.00  0.00    -0.350 N 
ATOM      3  H   UNL     1     129.292 102.613 129.813  1.00  0.00     0.345 HD
ATOM      4  H   UNL     1     129.382 101.692 131.223  1.00  0.00     0.345 HD
ATOM      5  H   UNL     1     129.726 103.352 131.288  1.00  0.00     0.345 HD
ENDBRANCH   1   2
BRANCH   1   6
ATOM      6  C   UNL     1     127.533 103.820 132.289  1.00  0.00     0.099 C 
ATOM      7  O   UNL     1     128.334 104.781 132.436  1.00  0.00    -0.544 OA
ATOM      8  O   UNL     1     126.540 103.608 133.238  1.00  0.00    -0.544 OA
ENDBRANCH   1   6
BRANCH   1   9
ATOM      9  C   UNL     1     126.917 103.414 129.872  1.00  0.00     0.047 C 
ATOM     10  C   UNL     1     125.618 102.634 129.631  1.00  0.00     0.014 C 
ATOM     11  C   UNL     1     127.764 103.446 128.588  1.00  0.00     0.014 C 
ENDBRANCH   1   9
TORSDOF 3
ENDMDL
MODEL 8
REMARK VINA RESULT:    -3.867      2.746      3.318
REMARK INTER + INTRA:          -4.482
REMARK INTER:                  -4.443
REMARK INTRA:                  -0.038
REMARK UNBOUND:                -0.049
REMARK SMILES CC(C)[C@@H]([NH3+])C(=O)[O-]
REMARK SMILES IDX 4 1 5 2 6 6 7 7 8 8 2 9 1 10 3 11
REMARK H PARENT 5 3 5 4 5 5
REMARK Flexibility Score: inf
ROOT
ATOM      1  C   UNL     1     126.372 102.637 130.516  1.00  0.00     0.230 C 
ENDROOT
BRANCH   1   2
ATOM      2  N   UNL     1     127.665 102.225 131.086  1.00  0.00    -0.350 N 
ATOM      3  H   UNL     1     128.128 101.520 130.469  1.00  0.00     0.345 HD
ATOM      4  H   UNL     1     127.506 101.774 132.016  1.00  0.00     0.345 HD
ATOM      5  H   UNL     1     128.303 103.042 131.219  1.00  0.00     0.345 HD
ENDBRANCH   1   2
BRANCH   1   6
ATOM      6  C   UNL     1     125.523 103.321 131.559  1.00  0.00     0.099 C 
ATOM      7  O   UNL     1     126.038 103.671 132.654  1.00  0.00    -0.544 OA
ATOM      8  O   UNL     1     124.166 103.528 131.346  1.00  0.00    -0.544 OA
ENDBRANCH   1   6
BRANCH   1   9
ATOM      9  C   UNL     1     126.523 103.533 129.248  1.00  0.00     0.047 C 
ATOM     10  C   UNL     1     125.545 103.124 128.138  1.00  0.00     0.014 C 
ATOM     11  C   UNL     1     127.959 103.583 128.697  1.00  0.00     0.014 C 
ENDBRANCH   1   9
TORSDOF 3
ENDMDL
MODEL 9
REMARK VINA RESULT:    -3.819      2.540      3.299
REMARK INTER + INTRA:          -4.426
REMARK INTER:                  -4.373
REMARK INTRA:                  -0.052
REMARK UNBOUND:                -0.049
REMARK SMILES CC(C)[C@@H]([NH3+])C(=O)[O-]
REMARK SMILES IDX 4 1 5 2 6 6 7 7 8 8 2 9 1 10 3 11
REMARK H PARENT 5 3 5 4 5 5
REMARK Flexibility Score: inf
ROOT
ATOM      1  C   UNL     1     126.731 104.625 129.646  1.00  0.00     0.230 C 
ENDROOT
BRANCH   1   2
ATOM      2  N   UNL     1     127.293 105.924 129.243  1.00  0.00    -0.350 N 
ATOM      3  H   UNL     1     128.292 105.996 129.538  1.00  0.00     0.345 HD
ATOM      4  H   UNL     1     126.767 106.693 129.720  1.00  0.00     0.345 HD
ATOM      5  H   UNL     1     127.224 106.067 128.210  1.00  0.00     0.345 HD
ENDBRANCH   1   2
BRANCH   1   6
ATOM      6  C   UNL     1     126.125 103.915 128.461  1.00  0.00     0.099 C 
ATOM      7  O   UNL     1     126.553 102.778 128.125  1.00  0.00    -0.544 OA
ATOM      8  O   UNL     1     125.129 104.520 127.703  1.00  0.00    -0.544 OA
ENDBRANCH   1   6
BRANCH   1   9
ATOM      9  C   UNL     1     127.767 103.711 130.370  1.00  0.00     0.047 C 
ATOM     10  C   UNL     1     127.151 102.994 131.580  1.00  0.00     0.014 C 
ATOM     11  C   UNL     1     129.052 104.448 130.788  1.00  0.00     0.014 C 
ENDBRANCH   1   9
TORSDOF 3
ENDMDL
