MODEL 1
REMARK VINA RESULT:    -4.257      0.000      0.000
REMARK INTER + INTRA:          -8.867
REMARK INTER:                  -7.493
REMARK INTRA:                  -1.375
REMARK UNBOUND:                -1.375
REMARK SMILES CCCCCCC=CCCCCCCCC(=O)[O-]
REMARK SMILES IDX 10 1 11 2 12 3 13 4 14 5 15 6 16 7 17 8 18 9 9 10 8 11 7 12
REMARK SMILES IDX 6 13 5 14 4 15 3 16 2 17 1 18
REMARK H PARENT
REMARK Flexibility Score: inf
ROOT
ATOM      1  C   UNL     1      -3.726  -8.356   3.295  1.00  0.00     0.004 C 
ENDROOT
BRANCH   1   2
ATOM      2  C   UNL     1      -2.221  -8.102   3.508  1.00  0.00     0.000 C 
BRANCH   2   3
ATOM      3  C   UNL     1      -1.866  -7.800   4.973  1.00  0.00     0.000 C 
BRANCH   3   4
ATOM      4  C   UNL     1      -2.569  -8.742   5.965  1.00  0.00     0.000 C 
BRANCH   4   5
ATOM      5  C   UNL     1      -2.012  -8.716   7.400  1.00  0.00     0.006 C 
BRANCH   5   6
ATOM      6  C   UNL     1      -0.663  -7.993   7.503  1.00  0.00     0.053 C 
BRANCH   6   7
ATOM      7  C   UNL     1      -0.733  -6.888   8.512  1.00  0.00     0.041 C 
ATOM      8  O   UNL     1      -1.844  -6.512   8.967  1.00  0.00    -0.550 OA
ATOM      9  O   UNL     1       0.432  -6.261   8.938  1.00  0.00    -0.550 OA
ENDBRANCH   6   7
ENDBRANCH   5   6
ENDBRANCH   4   5
ENDBRANCH   3   4
ENDBRANCH   2   3
ENDBRANCH   1   2
BRANCH   1  10
ATOM     10  C   UNL     1      -4.585  -7.081   3.194  1.00  0.00     0.027 C 
BRANCH  10  11
ATOM     11  C   UNL     1      -6.040  -7.357   3.452  1.00  0.00    -0.031 C 
ATOM     12  C   UNL     1      -6.447  -7.990   4.560  1.00  0.00    -0.031 C 
BRANCH  12  13
ATOM     13  C   UNL     1      -7.906  -8.138   4.892  1.00  0.00     0.027 C 
BRANCH  13  14
ATOM     14  C   UNL     1      -8.683  -6.836   4.639  1.00  0.00     0.004 C 
BRANCH  14  15
ATOM     15  C   UNL     1      -9.912  -7.068   3.747  1.00  0.00     0.000 C 
BRANCH  15  16
ATOM     16  C   UNL     1      -9.696  -8.246   2.792  1.00  0.00    -0.000 C 
BRANCH  16  17
ATOM     17  C   UNL     1      -9.259  -7.743   1.411  1.00  0.00    -0.003 C 
ATOM     18  C   UNL     1      -8.278  -8.708   0.749  1.00  0.00     0.004 C 
ENDBRANCH  16  17
ENDBRANCH  15  16
ENDBRANCH  14  15
ENDBRANCH  13  14
ENDBRANCH  12  13
ENDBRANCH  10  11
ENDBRANCH   1  10
TORSDOF 13
ENDMDL
MODEL 2
REMARK VINA RESULT:    -4.065      1.083      2.340
REMARK INTER + INTRA:          -8.529
REMARK INTER:                  -7.675
REMARK INTRA:                  -0.854
REMARK UNBOUND:                -1.375
REMARK SMILES CCCCCCC=CCCCCCCCC(=O)[O-]
REMARK SMILES IDX 10 1 11 2 12 3 13 4 14 5 15 6 16 7 17 8 18 9 9 10 8 11 7 12
REMARK SMILES IDX 6 13 5 14 4 15 3 16 2 17 1 18
REMARK H PARENT
REMARK Flexibility Score: inf
ROOT
ATOM      1  C   UNL     1      -3.129  -7.970   3.331  1.00  0.00     0.004 C 
ENDROOT
BRANCH   1   2
ATOM      2  C   UNL     1      -1.873  -7.856   4.216  1.00  0.00     0.000 C 
BRANCH   2   3
ATOM      3  C   UNL     1      -2.103  -8.356   5.651  1.00  0.00     0.000 C 
BRANCH   3   4
ATOM      4  C   UNL     1      -0.838  -8.276   6.523  1.00  0.00     0.000 C 
BRANCH   4   5
ATOM      5  C   UNL     1      -1.088  -8.291   8.043  1.00  0.00     0.006 C 
BRANCH   5   6
ATOM      6  C   UNL     1      -1.643  -6.962   8.569  1.00  0.00     0.053 C 
BRANCH   6   7
ATOM      7  C   UNL     1      -0.529  -6.002   8.853  1.00  0.00     0.041 C 
ATOM      8  O   UNL     1       0.661  -6.404   8.897  1.00  0.00    -0.550 OA
ATOM      9  O   UNL     1      -0.810  -4.661   9.087  1.00  0.00    -0.550 OA
ENDBRANCH   6   7
ENDBRANCH   5   6
ENDBRANCH   4   5
ENDBRANCH   3   4
ENDBRANCH   2   3
ENDBRANCH   1   2
BRANCH   1  10
ATOM     10  C   UNL     1      -4.121  -6.799   3.467  1.00  0.00     0.027 C 
BRANCH  10  11
ATOM     11  C   UNL     1      -5.499  -7.167   2.994  1.00  0.00    -0.031 C 
ATOM     12  C   UNL     1      -5.694  -7.799   1.829  1.00  0.00    -0.031 C 
BRANCH  12  13
ATOM     13  C   UNL     1      -7.054  -8.298   1.422  1.00  0.00     0.027 C 
BRANCH  13  14
ATOM     14  C   UNL     1      -7.945  -8.583   2.642  1.00  0.00     0.004 C 
BRANCH  14  15
ATOM     15  C   UNL     1      -9.391  -8.118   2.414  1.00  0.00     0.000 C 
BRANCH  15  16
ATOM     16  C   UNL     1      -9.788  -7.021   3.405  1.00  0.00    -0.000 C 
BRANCH  16  17
ATOM     17  C   UNL     1      -8.802  -6.976   4.579  1.00  0.00    -0.003 C 
ATOM     18  C   UNL     1      -9.527  -6.810   5.913  1.00  0.00     0.004 C 
ENDBRANCH  16  17
ENDBRANCH  15  16
ENDBRANCH  14  15
ENDBRANCH  13  14
ENDBRANCH  12  13
ENDBRANCH  10  11
ENDBRANCH   1  10
TORSDOF 13
ENDMDL
MODEL 3
REMARK VINA RESULT:    -4.021      2.274      4.278
REMARK INTER + INTRA:          -8.451
REMARK INTER:                  -6.409
REMARK INTRA:                  -2.042
REMARK UNBOUND:                -1.375
REMARK SMILES CCCCCCC=CCCCCCCCC(=O)[O-]
REMARK SMILES IDX 10 1 11 2 12 3 13 4 14 5 15 6 16 7 17 8 18 9 9 10 8 11 7 12
REMARK SMILES IDX 6 13 5 14 4 15 3 16 2 17 1 18
REMARK H PARENT
REMARK Flexibility Score: inf
ROOT
ATOM      1  C   UNL     1      -5.970  -8.402   4.143  1.00  0.00     0.004 C 
ENDROOT
BRANCH   1   2
ATOM      2  C   UNL     1      -5.588  -8.672   5.612  1.00  0.00     0.000 C 
BRANCH   2   3
ATOM      3  C   UNL     1      -5.003 -10.076   5.831  1.00  0.00     0.000 C 
BRANCH   3   4
ATOM      4  C   UNL     1      -3.555 -10.045   6.349  1.00  0.00     0.000 C 
BRANCH   4   5
ATOM      5  C   UNL     1      -3.077  -8.679   6.875  1.00  0.00     0.006 C 
BRANCH   5   6
ATOM      6  C   UNL     1      -1.687  -8.293   6.353  1.00  0.00     0.053 C 
BRANCH   6   7
ATOM      7  C   UNL     1      -0.648  -8.512   7.410  1.00  0.00     0.041 C 
ATOM      8  O   UNL     1      -0.171  -9.658   7.604  1.00  0.00    -0.550 OA
ATOM      9  O   UNL     1      -0.219  -7.447   8.193  1.00  0.00    -0.550 OA
ENDBRANCH   6   7
ENDBRANCH   5   6
ENDBRANCH   4   5
ENDBRANCH   3   4
ENDBRANCH   2   3
ENDBRANCH   1   2
BRANCH   1  10
ATOM     10  C   UNL     1      -5.434  -7.076   3.572  1.00  0.00     0.027 C 
BRANCH  10  11
ATOM     11  C   UNL     1      -3.960  -7.139   3.284  1.00  0.00    -0.031 C 
ATOM     12  C   UNL     1      -3.339  -8.306   3.063  1.00  0.00    -0.031 C 
BRANCH  12  13
ATOM     13  C   UNL     1      -1.899  -8.362   2.631  1.00  0.00     0.027 C 
BRANCH  13  14
ATOM     14  C   UNL     1      -1.755  -8.902   1.199  1.00  0.00     0.004 C 
BRANCH  14  15
ATOM     15  C   UNL     1      -2.972  -9.739   0.779  1.00  0.00     0.000 C 
BRANCH  15  16
ATOM     16  C   UNL     1      -3.705  -9.106  -0.406  1.00  0.00    -0.000 C 
BRANCH  16  17
ATOM     17  C   UNL     1      -5.157  -8.785  -0.030  1.00  0.00    -0.003 C 
ATOM     18  C   UNL     1      -5.467  -7.301  -0.210  1.00  0.00     0.004 C 
ENDBRANCH  16  17
ENDBRANCH  15  16
ENDBRANCH  14  15
ENDBRANCH  13  14
ENDBRANCH  12  13
ENDBRANCH  10  11
ENDBRANCH   1  10
TORSDOF 13
ENDMDL
MODEL 4
REMARK VINA RESULT:    -3.907     14.732     17.284
REMARK INTER + INTRA:          -8.252
REMARK INTER:                  -6.137
REMARK INTRA:                  -2.115
REMARK UNBOUND:                -1.375
REMARK SMILES CCCCCCC=CCCCCCCCC(=O)[O-]
REMARK SMILES IDX 10 1 11 2 12 3 13 4 14 5 15 6 16 7 17 8 18 9 9 10 8 11 7 12
REMARK SMILES IDX 6 13 5 14 4 15 3 16 2 17 1 18
REMARK H PARENT
REMARK Flexibility Score: inf
ROOT
ATOM      1  C   UNL     1       7.547  -5.519  -8.284  1.00  0.00     0.004 C 
ENDROOT
BRANCH   1   2
ATOM      2  C   UNL     1       6.963  -5.315  -9.696  1.00  0.00     0.000 C 
BRANCH   2   3
ATOM      3  C   UNL     1       6.186  -3.996  -9.837  1.00  0.00     0.000 C 
BRANCH   3   4
ATOM      4  C   UNL     1       4.680  -4.212 -10.066  1.00  0.00     0.000 C 
BRANCH   4   5
ATOM      5  C   UNL     1       3.864  -4.524  -8.798  1.00  0.00     0.006 C 
BRANCH   5   6
ATOM      6  C   UNL     1       2.353  -4.360  -9.007  1.00  0.00     0.053 C 
BRANCH   6   7
ATOM      7  C   UNL     1       1.621  -4.533  -7.711  1.00  0.00     0.041 C 
ATOM      8  O   UNL     1       1.126  -3.538  -7.123  1.00  0.00    -0.550 OA
ATOM      9  O   UNL     1       1.500  -5.797  -7.145  1.00  0.00    -0.550 OA
ENDBRANCH   6   7
ENDBRANCH   5   6
ENDBRANCH   4   5
ENDBRANCH   3   4
ENDBRANCH   2   3
ENDBRANCH   1   2
BRANCH   1  10
ATOM     10  C   UNL     1       8.668  -6.572  -8.198  1.00  0.00     0.027 C 
BRANCH  10  11
ATOM     11  C   UNL     1       8.264  -7.764  -7.375  1.00  0.00    -0.031 C 
ATOM     12  C   UNL     1       7.441  -7.642  -6.324  1.00  0.00    -0.031 C 
BRANCH  12  13
ATOM     13  C   UNL     1       6.919  -8.847  -5.590  1.00  0.00     0.027 C 
BRANCH  13  14
ATOM     14  C   UNL     1       5.384  -8.913  -5.624  1.00  0.00     0.004 C 
BRANCH  14  15
ATOM     15  C   UNL     1       4.782  -7.783  -6.473  1.00  0.00     0.000 C 
BRANCH  15  16
ATOM     16  C   UNL     1       3.988  -8.336  -7.659  1.00  0.00    -0.000 C 
BRANCH  16  17
ATOM     17  C   UNL     1       4.739  -8.085  -8.972  1.00  0.00    -0.003 C 
ATOM     18  C   UNL     1       5.577  -9.295  -9.378  1.00  0.00     0.004 C 
ENDBRANCH  16  17
ENDBRANCH  15  16
ENDBRANCH  14  15
ENDBRANCH  13  14
ENDBRANCH  12  13
ENDBRANCH  10  11
ENDBRANCH   1  10
TORSDOF 13
ENDMDL
MODEL 5
REMARK VINA RESULT:    -3.892      0.938      1.697
REMARK INTER + INTRA:          -8.225
REMARK INTER:                  -7.006
REMARK INTRA:                  -1.219
REMARK UNBOUND:                -1.375
REMARK SMILES CCCCCCC=CCCCCCCCC(=O)[O-]
REMARK SMILES IDX 10 1 11 2 12 3 13 4 14 5 15 6 16 7 17 8 18 9 9 10 8 11 7 12
REMARK SMILES IDX 6 13 5 14 4 15 3 16 2 17 1 18
REMARK H PARENT
REMARK Flexibility Score: inf
ROOT
ATOM      1  C   UNL     1      -3.373  -7.752   3.368  1.00  0.00     0.004 C 
ENDROOT
BRANCH   1   2
ATOM      2  C   UNL     1      -3.667  -9.180   3.869  1.00  0.00     0.000 C 
BRANCH   2   3
ATOM      3  C   UNL     1      -3.381  -9.360   5.368  1.00  0.00     0.000 C 
BRANCH   3   4
ATOM      4  C   UNL     1      -2.289  -8.408   5.886  1.00  0.00     0.000 C 
BRANCH   4   5
ATOM      5  C   UNL     1      -1.615  -8.840   7.202  1.00  0.00     0.006 C 
BRANCH   5   6
ATOM      6  C   UNL     1      -0.330  -8.055   7.499  1.00  0.00     0.053 C 
BRANCH   6   7
ATOM      7  C   UNL     1      -0.608  -6.934   8.453  1.00  0.00     0.041 C 
ATOM      8  O   UNL     1       0.336  -6.243   8.915  1.00  0.00    -0.550 OA
ATOM      9  O   UNL     1      -1.914  -6.663   8.845  1.00  0.00    -0.550 OA
ENDBRANCH   6   7
ENDBRANCH   5   6
ENDBRANCH   4   5
ENDBRANCH   3   4
ENDBRANCH   2   3
ENDBRANCH   1   2
BRANCH   1  10
ATOM     10  C   UNL     1      -4.610  -6.839   3.268  1.00  0.00     0.027 C 
BRANCH  10  11
ATOM     11  C   UNL     1      -5.893  -7.622   3.258  1.00  0.00    -0.031 C 
ATOM     12  C   UNL     1      -6.894  -7.337   4.102  1.00  0.00    -0.031 C 
BRANCH  12  13
ATOM     13  C   UNL     1      -8.230  -8.019   3.997  1.00  0.00     0.027 C 
BRANCH  13  14
ATOM     14  C   UNL     1      -9.058  -7.473   2.823  1.00  0.00     0.004 C 
BRANCH  14  15
ATOM     15  C   UNL     1      -9.157  -8.488   1.673  1.00  0.00     0.000 C 
BRANCH  15  16
ATOM     16  C   UNL     1      -8.795  -7.848   0.330  1.00  0.00    -0.000 C 
BRANCH  16  17
ATOM     17  C   UNL     1      -7.595  -8.566  -0.299  1.00  0.00    -0.003 C 
ATOM     18  C   UNL     1      -6.366  -7.660  -0.353  1.00  0.00     0.004 C 
ENDBRANCH  16  17
ENDBRANCH  15  16
ENDBRANCH  14  15
ENDBRANCH  13  14
ENDBRANCH  12  13
ENDBRANCH  10  11
ENDBRANCH   1  10
TORSDOF 13
ENDMDL
MODEL 6
REMARK VINA RESULT:    -3.891      3.412      7.239
REMARK INTER + INTRA:          -8.223
REMARK INTER:                  -6.628
REMARK INTRA:                  -1.596
REMARK UNBOUND:                -1.375
REMARK SMILES CCCCCCC=CCCCCCCCC(=O)[O-]
REMARK SMILES IDX 10 1 11 2 12 3 13 4 14 5 15 6 16 7 17 8 18 9 9 10 8 11 7 12
REMARK SMILES IDX 6 13 5 14 4 15 3 16 2 17 1 18
REMARK H PARENT
REMARK Flexibility Score: inf
ROOT
ATOM      1  C   UNL     1      -2.953  -8.480   4.582  1.00  0.00     0.004 C 
ENDROOT
BRANCH   1   2
ATOM      2  C   UNL     1      -3.389  -7.999   3.184  1.00  0.00     0.000 C 
BRANCH   2   3
ATOM      3  C   UNL     1      -4.522  -6.962   3.233  1.00  0.00     0.000 C 
BRANCH   3   4
ATOM      4  C   UNL     1      -5.730  -7.356   2.365  1.00  0.00     0.000 C 
BRANCH   4   5
ATOM      5  C   UNL     1      -6.863  -8.084   3.111  1.00  0.00     0.006 C 
BRANCH   5   6
ATOM      6  C   UNL     1      -7.234  -7.409   4.438  1.00  0.00     0.053 C 
BRANCH   6   7
ATOM      7  C   UNL     1      -8.670  -6.983   4.428  1.00  0.00     0.041 C 
ATOM      8  O   UNL     1      -9.289  -6.857   3.341  1.00  0.00    -0.550 OA
ATOM      9  O   UNL     1      -9.321  -6.710   5.625  1.00  0.00    -0.550 OA
ENDBRANCH   6   7
ENDBRANCH   5   6
ENDBRANCH   4   5
ENDBRANCH   3   4
ENDBRANCH   2   3
ENDBRANCH   1   2
BRANCH   1  10
ATOM     10  C   UNL     1      -3.785  -9.645   5.150  1.00  0.00     0.027 C 
BRANCH  10  11
ATOM     11  C   UNL     1      -4.646  -9.216   6.305  1.00  0.00    -0.031 C 
ATOM     12  C   UNL     1      -4.127  -8.987   7.519  1.00  0.00    -0.031 C 
BRANCH  12  13
ATOM     13  C   UNL     1      -4.958  -8.418   8.636  1.00  0.00     0.027 C 
BRANCH  13  14
ATOM     14  C   UNL     1      -4.130  -7.503   9.552  1.00  0.00     0.004 C 
BRANCH  14  15
ATOM     15  C   UNL     1      -2.628  -7.814   9.464  1.00  0.00     0.000 C 
BRANCH  15  16
ATOM     16  C   UNL     1      -1.789  -6.534   9.499  1.00  0.00    -0.000 C 
BRANCH  16  17
ATOM     17  C   UNL     1      -0.752  -6.541   8.368  1.00  0.00    -0.003 C 
ATOM     18  C   UNL     1      -0.596  -7.934   7.762  1.00  0.00     0.004 C 
ENDBRANCH  16  17
ENDBRANCH  15  16
ENDBRANCH  14  15
ENDBRANCH  13  14
ENDBRANCH  12  13
ENDBRANCH  10  11
ENDBRANCH   1  10
TORSDOF 13
ENDMDL
MODEL 7
REMARK VINA RESULT:    -3.854      3.669      7.352
REMARK INTER + INTRA:          -8.158
REMARK INTER:                  -6.282
REMARK INTRA:                  -1.876
REMARK UNBOUND:                -1.375
REMARK SMILES CCCCCCC=CCCCCCCCC(=O)[O-]
REMARK SMILES IDX 10 1 11 2 12 3 13 4 14 5 15 6 16 7 17 8 18 9 9 10 8 11 7 12
REMARK SMILES IDX 6 13 5 14 4 15 3 16 2 17 1 18
REMARK H PARENT
REMARK Flexibility Score: inf
ROOT
ATOM      1  C   UNL     1      -8.692  -6.967   4.581  1.00  0.00     0.004 C 
ENDROOT
BRANCH   1   2
ATOM      2  C   UNL     1      -9.863  -7.222   3.610  1.00  0.00     0.000 C 
BRANCH   2   3
ATOM      3  C   UNL     1      -9.581  -8.362   2.618  1.00  0.00     0.000 C 
BRANCH   3   4
ATOM      4  C   UNL     1      -9.092  -7.856   1.250  1.00  0.00     0.000 C 
BRANCH   4   5
ATOM      5  C   UNL     1      -7.849  -8.574   0.692  1.00  0.00     0.006 C 
BRANCH   5   6
ATOM      6  C   UNL     1      -7.742 -10.031   1.162  1.00  0.00     0.053 C 
BRANCH   6   7
ATOM      7  C   UNL     1      -6.346 -10.336   1.613  1.00  0.00     0.041 C 
ATOM      8  O   UNL     1      -5.360  -9.906   0.964  1.00  0.00    -0.550 OA
ATOM      9  O   UNL     1      -6.137 -11.113   2.747  1.00  0.00    -0.550 OA
ENDBRANCH   6   7
ENDBRANCH   5   6
ENDBRANCH   4   5
ENDBRANCH   3   4
ENDBRANCH   2   3
ENDBRANCH   1   2
BRANCH   1  10
ATOM     10  C   UNL     1      -7.849  -8.213   4.912  1.00  0.00     0.027 C 
BRANCH  10  11
ATOM     11  C   UNL     1      -6.420  -8.063   4.468  1.00  0.00    -0.031 C 
ATOM     12  C   UNL     1      -6.066  -7.167   3.537  1.00  0.00    -0.031 C 
BRANCH  12  13
ATOM     13  C   UNL     1      -4.623  -6.912   3.198  1.00  0.00     0.027 C 
BRANCH  13  14
ATOM     14  C   UNL     1      -3.738  -8.124   3.529  1.00  0.00     0.004 C 
BRANCH  14  15
ATOM     15  C   UNL     1      -2.334  -7.699   3.984  1.00  0.00     0.000 C 
BRANCH  15  16
ATOM     16  C   UNL     1      -1.276  -8.046   2.933  1.00  0.00    -0.000 C 
BRANCH  16  17
ATOM     17  C   UNL     1      -1.904  -8.840   1.781  1.00  0.00    -0.003 C 
ATOM     18  C   UNL     1      -1.075  -8.726   0.504  1.00  0.00     0.004 C 
ENDBRANCH  16  17
ENDBRANCH  15  16
ENDBRANCH  14  15
ENDBRANCH  13  14
ENDBRANCH  12  13
ENDBRANCH  10  11
ENDBRANCH   1  10
TORSDOF 13
ENDMDL
MODEL 8
REMARK VINA RESULT:    -3.848     14.509     17.394
REMARK INTER + INTRA:          -8.147
REMARK INTER:                  -6.493
REMARK INTRA:                  -1.653
REMARK UNBOUND:                -1.375
REMARK SMILES CCCCCCC=CCCCCCCCC(=O)[O-]
REMARK SMILES IDX 10 1 11 2 12 3 13 4 14 5 15 6 16 7 17 8 18 9 9 10 8 11 7 12
REMARK SMILES IDX 6 13 5 14 4 15 3 16 2 17 1 18
REMARK H PARENT
REMARK Flexibility Score: inf
ROOT
ATOM      1  C   UNL     1       4.409  -4.019  -9.346  1.00  0.00     0.004 C 
ENDROOT
BRANCH   1   2
ATOM      2  C   UNL     1       3.353  -4.828 -10.125  1.00  0.00     0.000 C 
BRANCH   2   3
ATOM      3  C   UNL     1       1.987  -4.865  -9.422  1.00  0.00     0.000 C 
BRANCH   3   4
ATOM      4  C   UNL     1       2.036  -4.300  -7.992  1.00  0.00     0.000 C 
BRANCH   4   5
ATOM      5  C   UNL     1       0.663  -4.022  -7.350  1.00  0.00     0.006 C 
BRANCH   5   6
ATOM      6  C   UNL     1       0.054  -5.262  -6.684  1.00  0.00     0.053 C 
BRANCH   6   7
ATOM      7  C   UNL     1      -1.186  -5.691  -7.406  1.00  0.00     0.041 C 
ATOM      8  O   UNL     1      -1.934  -6.574  -6.915  1.00  0.00    -0.550 OA
ATOM      9  O   UNL     1      -1.507  -5.123  -8.633  1.00  0.00    -0.550 OA
ENDBRANCH   6   7
ENDBRANCH   5   6
ENDBRANCH   4   5
ENDBRANCH   3   4
ENDBRANCH   2   3
ENDBRANCH   1   2
BRANCH   1  10
ATOM     10  C   UNL     1       5.802  -3.980 -10.002  1.00  0.00     0.027 C 
BRANCH  10  11
ATOM     11  C   UNL     1       6.765  -4.926  -9.341  1.00  0.00    -0.031 C 
ATOM     12  C   UNL     1       7.132  -6.074  -9.926  1.00  0.00    -0.031 C 
BRANCH  12  13
ATOM     13  C   UNL     1       8.204  -6.950  -9.338  1.00  0.00     0.027 C 
BRANCH  13  14
ATOM     14  C   UNL     1       8.531  -6.555  -7.889  1.00  0.00     0.004 C 
BRANCH  14  15
ATOM     15  C   UNL     1       7.908  -7.528  -6.877  1.00  0.00     0.000 C 
BRANCH  15  16
ATOM     16  C   UNL     1       6.616  -6.964  -6.280  1.00  0.00    -0.000 C 
BRANCH  16  17
ATOM     17  C   UNL     1       5.433  -7.890  -6.588  1.00  0.00    -0.003 C 
ATOM     18  C   UNL     1       4.385  -7.190  -7.450  1.00  0.00     0.004 C 
ENDBRANCH  16  17
ENDBRANCH  15  16
ENDBRANCH  14  15
ENDBRANCH  13  14
ENDBRANCH  12  13
ENDBRANCH  10  11
ENDBRANCH   1  10
TORSDOF 13
ENDMDL
MODEL 9
REMARK VINA RESULT:    -3.793      4.371      7.988
REMARK INTER + INTRA:          -8.050
REMARK INTER:                  -6.051
REMARK INTRA:                  -1.999
REMARK UNBOUND:                -1.375
REMARK SMILES CCCCCCC=CCCCCCCCC(=O)[O-]
REMARK SMILES IDX 10 1 11 2 12 3 13 4 14 5 15 6 16 7 17 8 18 9 9 10 8 11 7 12
REMARK SMILES IDX 6 13 5 14 4 15 3 16 2 17 1 18
REMARK H PARENT
REMARK Flexibility Score: inf
ROOT
ATOM      1  C   UNL     1      -8.861  -7.319   3.643  1.00  0.00     0.004 C 
ENDROOT
BRANCH   1   2
ATOM      2  C   UNL     1      -9.868  -8.337   3.070  1.00  0.00     0.000 C 
BRANCH   2   3
ATOM      3  C   UNL     1      -9.322  -9.098   1.851  1.00  0.00     0.000 C 
BRANCH   3   4
ATOM      4  C   UNL     1      -8.637  -8.175   0.829  1.00  0.00     0.000 C 
BRANCH   4   5
ATOM      5  C   UNL     1      -7.266  -8.663   0.323  1.00  0.00     0.006 C 
BRANCH   5   6
ATOM      6  C   UNL     1      -6.385  -7.523  -0.203  1.00  0.00     0.053 C 
BRANCH   6   7
ATOM      7  C   UNL     1      -6.810  -7.123  -1.583  1.00  0.00     0.041 C 
ATOM      8  O   UNL     1      -7.148  -7.996  -2.422  1.00  0.00    -0.550 OA
ATOM      9  O   UNL     1      -6.816  -5.782  -1.946  1.00  0.00    -0.550 OA
ENDBRANCH   6   7
ENDBRANCH   5   6
ENDBRANCH   4   5
ENDBRANCH   3   4
ENDBRANCH   2   3
ENDBRANCH   1   2
BRANCH   1  10
ATOM     10  C   UNL     1      -7.930  -7.879   4.734  1.00  0.00     0.027 C 
BRANCH  10  11
ATOM     11  C   UNL     1      -6.494  -7.912   4.289  1.00  0.00    -0.031 C 
ATOM     12  C   UNL     1      -5.983  -6.958   3.500  1.00  0.00    -0.031 C 
BRANCH  12  13
ATOM     13  C   UNL     1      -4.515  -6.908   3.174  1.00  0.00     0.027 C 
BRANCH  13  14
ATOM     14  C   UNL     1      -4.036  -8.208   2.509  1.00  0.00     0.004 C 
BRANCH  14  15
ATOM     15  C   UNL     1      -2.877  -8.852   3.284  1.00  0.00     0.000 C 
BRANCH  15  16
ATOM     16  C   UNL     1      -2.236  -7.860   4.258  1.00  0.00    -0.000 C 
BRANCH  16  17
ATOM     17  C   UNL     1      -2.235  -8.431   5.682  1.00  0.00    -0.003 C 
ATOM     18  C   UNL     1      -3.393  -9.403   5.895  1.00  0.00     0.004 C 
ENDBRANCH  16  17
ENDBRANCH  15  16
ENDBRANCH  14  15
ENDBRANCH  13  14
ENDBRANCH  12  13
ENDBRANCH  10  11
ENDBRANCH   1  10
TORSDOF 13
ENDMDL
