MODEL 1
REMARK VINA RESULT:    -4.373      0.000      0.000
REMARK INTER + INTRA:          -8.780
REMARK INTER:                  -7.696
REMARK INTRA:                  -1.085
REMARK UNBOUND:                -1.085
REMARK SMILES CCCCCCCCCCCCCCC(=O)[O-]
REMARK SMILES IDX 9 1 10 2 11 3 12 4 13 5 14 6 15 7 16 8 17 9 8 10 7 11 6 12
REMARK SMILES IDX 5 13 4 14 3 15 2 16 1 17
REMARK H PARENT
REMARK Flexibility Score: inf
ROOT
ATOM      1  C   UNL     1       5.620  -0.384  -5.245  1.00  0.00     0.000 C 
ENDROOT
BRANCH   1   2
ATOM      2  C   UNL     1       6.429  -0.115  -3.966  1.00  0.00     0.000 C 
BRANCH   2   3
ATOM      3  C   UNL     1       6.284  -1.243  -2.930  1.00  0.00     0.000 C 
BRANCH   3   4
ATOM      4  C   UNL     1       5.316  -0.886  -1.786  1.00  0.00     0.000 C 
BRANCH   4   5
ATOM      5  C   UNL     1       5.987  -0.584  -0.430  1.00  0.00     0.006 C 
BRANCH   5   6
ATOM      6  C   UNL     1       5.720   0.827   0.115  1.00  0.00     0.053 C 
BRANCH   6   7
ATOM      7  C   UNL     1       5.627   0.842   1.610  1.00  0.00     0.041 C 
ATOM      8  O   UNL     1       5.860   1.902   2.248  1.00  0.00    -0.550 OA
ATOM      9  O   UNL     1       5.248  -0.305   2.296  1.00  0.00    -0.550 OA
ENDBRANCH   6   7
ENDBRANCH   5   6
ENDBRANCH   4   5
ENDBRANCH   3   4
ENDBRANCH   2   3
ENDBRANCH   1   2
BRANCH   1  10
ATOM     10  C   UNL     1       5.234  -1.867  -5.398  1.00  0.00     0.000 C 
BRANCH  10  11
ATOM     11  C   UNL     1       3.746  -2.054  -5.737  1.00  0.00    -0.000 C 
BRANCH  11  12
ATOM     12  C   UNL     1       2.815  -1.407  -4.696  1.00  0.00    -0.000 C 
BRANCH  12  13
ATOM     13  C   UNL     1       2.068  -2.457  -3.844  1.00  0.00    -0.000 C 
BRANCH  13  14
ATOM     14  C   UNL     1       2.193  -3.896  -4.382  1.00  0.00    -0.000 C 
BRANCH  14  15
ATOM     15  C   UNL     1       1.093  -4.865  -3.911  1.00  0.00    -0.000 C 
BRANCH  15  16
ATOM     16  C   UNL     1       0.642  -4.671  -2.452  1.00  0.00    -0.003 C 
ATOM     17  C   UNL     1       0.911  -5.894  -1.577  1.00  0.00     0.004 C 
ENDBRANCH  15  16
ENDBRANCH  14  15
ENDBRANCH  13  14
ENDBRANCH  12  13
ENDBRANCH  11  12
ENDBRANCH  10  11
ENDBRANCH   1  10
TORSDOF 13
ENDMDL
MODEL 2
REMARK VINA RESULT:    -4.283      1.166      1.863
REMARK INTER + INTRA:          -8.623
REMARK INTER:                  -7.463
REMARK INTRA:                  -1.160
REMARK UNBOUND:                -1.085
REMARK SMILES CCCCCCCCCCCCCCC(=O)[O-]
REMARK SMILES IDX 9 1 10 2 11 3 12 4 13 5 14 6 15 7 16 8 17 9 8 10 7 11 6 12
REMARK SMILES IDX 5 13 4 14 3 15 2 16 1 17
REMARK H PARENT
REMARK Flexibility Score: inf
ROOT
ATOM      1  C   UNL     1       7.471  -1.631  -3.845  1.00  0.00     0.000 C 
ENDROOT
BRANCH   1   2
ATOM      2  C   UNL     1       7.203  -2.780  -2.860  1.00  0.00     0.000 C 
BRANCH   2   3
ATOM      3  C   UNL     1       7.968  -2.611  -1.536  1.00  0.00     0.000 C 
BRANCH   3   4
ATOM      4  C   UNL     1       7.057  -2.201  -0.365  1.00  0.00     0.000 C 
BRANCH   4   5
ATOM      5  C   UNL     1       7.148  -0.717   0.048  1.00  0.00     0.006 C 
BRANCH   5   6
ATOM      6  C   UNL     1       5.796   0.008   0.129  1.00  0.00     0.053 C 
BRANCH   6   7
ATOM      7  C   UNL     1       5.507   0.504   1.512  1.00  0.00     0.041 C 
ATOM      8  O   UNL     1       5.351   1.736   1.723  1.00  0.00    -0.550 OA
ATOM      9  O   UNL     1       5.378  -0.396   2.562  1.00  0.00    -0.550 OA
ENDBRANCH   6   7
ENDBRANCH   5   6
ENDBRANCH   4   5
ENDBRANCH   3   4
ENDBRANCH   2   3
ENDBRANCH   1   2
BRANCH   1  10
ATOM     10  C   UNL     1       6.337  -0.590  -3.860  1.00  0.00     0.000 C 
BRANCH  10  11
ATOM     11  C   UNL     1       4.971  -1.205  -3.511  1.00  0.00    -0.000 C 
BRANCH  11  12
ATOM     12  C   UNL     1       4.206  -1.691  -4.754  1.00  0.00    -0.000 C 
BRANCH  12  13
ATOM     13  C   UNL     1       2.685  -1.446  -4.640  1.00  0.00    -0.000 C 
BRANCH  13  14
ATOM     14  C   UNL     1       1.925  -2.584  -3.932  1.00  0.00    -0.000 C 
BRANCH  14  15
ATOM     15  C   UNL     1       2.159  -3.988  -4.519  1.00  0.00    -0.000 C 
BRANCH  15  16
ATOM     16  C   UNL     1       1.393  -5.120  -3.811  1.00  0.00    -0.003 C 
ATOM     17  C   UNL     1       0.400  -4.607  -2.769  1.00  0.00     0.004 C 
ENDBRANCH  15  16
ENDBRANCH  14  15
ENDBRANCH  13  14
ENDBRANCH  12  13
ENDBRANCH  11  12
ENDBRANCH  10  11
ENDBRANCH   1  10
TORSDOF 13
ENDMDL
MODEL 3
REMARK VINA RESULT:    -4.257      1.539      2.490
REMARK INTER + INTRA:          -8.577
REMARK INTER:                  -7.046
REMARK INTRA:                  -1.532
REMARK UNBOUND:                -1.085
REMARK SMILES CCCCCCCCCCCCCCC(=O)[O-]
REMARK SMILES IDX 9 1 10 2 11 3 12 4 13 5 14 6 15 7 16 8 17 9 8 10 7 11 6 12
REMARK SMILES IDX 5 13 4 14 3 15 2 16 1 17
REMARK H PARENT
REMARK Flexibility Score: inf
ROOT
ATOM      1  C   UNL     1       7.565  -2.515  -2.866  1.00  0.00     0.000 C 
ENDROOT
BRANCH   1   2
ATOM      2  C   UNL     1       7.734  -2.984  -1.411  1.00  0.00     0.000 C 
BRANCH   2   3
ATOM      3  C   UNL     1       7.125  -1.997  -0.401  1.00  0.00     0.000 C 
BRANCH   3   4
ATOM      4  C   UNL     1       6.679  -0.673  -1.050  1.00  0.00     0.000 C 
BRANCH   4   5
ATOM      5  C   UNL     1       5.393  -0.055  -0.462  1.00  0.00     0.006 C 
BRANCH   5   6
ATOM      6  C   UNL     1       5.623   1.182   0.419  1.00  0.00     0.053 C 
BRANCH   6   7
ATOM      7  C   UNL     1       5.817   0.816   1.859  1.00  0.00     0.041 C 
ATOM      8  O   UNL     1       6.455   1.584   2.626  1.00  0.00    -0.550 OA
ATOM      9  O   UNL     1       5.264  -0.354   2.362  1.00  0.00    -0.550 OA
ENDBRANCH   6   7
ENDBRANCH   5   6
ENDBRANCH   4   5
ENDBRANCH   3   4
ENDBRANCH   2   3
ENDBRANCH   1   2
BRANCH   1  10
ATOM     10  C   UNL     1       6.857  -3.563  -3.744  1.00  0.00     0.000 C 
BRANCH  10  11
ATOM     11  C   UNL     1       5.921  -2.923  -4.782  1.00  0.00    -0.000 C 
BRANCH  11  12
ATOM     12  C   UNL     1       5.418  -1.534  -4.351  1.00  0.00    -0.000 C 
BRANCH  12  13
ATOM     13  C   UNL     1       4.042  -1.599  -3.653  1.00  0.00    -0.000 C 
BRANCH  13  14
ATOM     14  C   UNL     1       2.855  -1.311  -4.592  1.00  0.00    -0.000 C 
BRANCH  14  15
ATOM     15  C   UNL     1       2.220  -2.555  -5.240  1.00  0.00    -0.000 C 
BRANCH  15  16
ATOM     16  C   UNL     1       2.103  -3.778  -4.312  1.00  0.00    -0.003 C 
ATOM     17  C   UNL     1       2.756  -5.032  -4.893  1.00  0.00     0.004 C 
ENDBRANCH  15  16
ENDBRANCH  14  15
ENDBRANCH  13  14
ENDBRANCH  12  13
ENDBRANCH  11  12
ENDBRANCH  10  11
ENDBRANCH   1  10
TORSDOF 13
ENDMDL
MODEL 4
REMARK VINA RESULT:    -4.246      1.266      1.664
REMARK INTER + INTRA:          -8.558
REMARK INTER:                  -7.512
REMARK INTRA:                  -1.046
REMARK UNBOUND:                -1.085
REMARK SMILES CCCCCCCCCCCCCCC(=O)[O-]
REMARK SMILES IDX 9 1 10 2 11 3 12 4 13 5 14 6 15 7 16 8 17 9 8 10 7 11 6 12
REMARK SMILES IDX 5 13 4 14 3 15 2 16 1 17
REMARK H PARENT
REMARK Flexibility Score: inf
ROOT
ATOM      1  C   UNL     1       4.807  -1.040  -3.631  1.00  0.00     0.000 C 
ENDROOT
BRANCH   1   2
ATOM      2  C   UNL     1       5.998  -1.982  -3.391  1.00  0.00     0.000 C 
BRANCH   2   3
ATOM      3  C   UNL     1       7.075  -1.351  -2.491  1.00  0.00     0.000 C 
BRANCH   3   4
ATOM      4  C   UNL     1       7.093  -1.947  -1.071  1.00  0.00     0.000 C 
BRANCH   4   5
ATOM      5  C   UNL     1       7.024  -0.914   0.073  1.00  0.00     0.006 C 
BRANCH   5   6
ATOM      6  C   UNL     1       5.633  -0.305   0.303  1.00  0.00     0.053 C 
BRANCH   6   7
ATOM      7  C   UNL     1       5.504   0.302   1.667  1.00  0.00     0.041 C 
ATOM      8  O   UNL     1       5.346  -0.436   2.675  1.00  0.00    -0.550 OA
ATOM      9  O   UNL     1       5.594   1.678   1.828  1.00  0.00    -0.550 OA
ENDBRANCH   6   7
ENDBRANCH   5   6
ENDBRANCH   4   5
ENDBRANCH   3   4
ENDBRANCH   2   3
ENDBRANCH   1   2
BRANCH   1  10
ATOM     10  C   UNL     1       3.474  -1.799  -3.769  1.00  0.00     0.000 C 
BRANCH  10  11
ATOM     11  C   UNL     1       2.524  -1.136  -4.779  1.00  0.00    -0.000 C 
BRANCH  11  12
ATOM     12  C   UNL     1       2.206  -2.045  -5.979  1.00  0.00    -0.000 C 
BRANCH  12  13
ATOM     13  C   UNL     1       2.768  -3.472  -5.799  1.00  0.00    -0.000 C 
BRANCH  13  14
ATOM     14  C   UNL     1       1.688  -4.532  -5.506  1.00  0.00    -0.000 C 
BRANCH  14  15
ATOM     15  C   UNL     1       1.701  -5.097  -4.074  1.00  0.00    -0.000 C 
BRANCH  15  16
ATOM     16  C   UNL     1       0.846  -4.312  -3.062  1.00  0.00    -0.003 C 
ATOM     17  C   UNL     1       0.511  -5.121  -1.810  1.00  0.00     0.004 C 
ENDBRANCH  15  16
ENDBRANCH  14  15
ENDBRANCH  13  14
ENDBRANCH  12  13
ENDBRANCH  11  12
ENDBRANCH  10  11
ENDBRANCH   1  10
TORSDOF 13
ENDMDL
MODEL 5
REMARK VINA RESULT:    -4.049      2.101      4.122
REMARK INTER + INTRA:          -8.211
REMARK INTER:                  -6.979
REMARK INTRA:                  -1.232
REMARK UNBOUND:                -1.085
REMARK SMILES CCCCCCCCCCCCCCC(=O)[O-]
REMARK SMILES IDX 9 1 10 2 11 3 12 4 13 5 14 6 15 7 16 8 17 9 8 10 7 11 6 12
REMARK SMILES IDX 5 13 4 14 3 15 2 16 1 17
REMARK H PARENT
REMARK Flexibility Score: inf
ROOT
ATOM      1  C   UNL     1       7.782  -1.602  -0.406  1.00  0.00     0.000 C 
ENDROOT
BRANCH   1   2
ATOM      2  C   UNL     1       6.532  -1.072   0.315  1.00  0.00     0.000 C 
BRANCH   2   3
ATOM      3  C   UNL     1       5.649  -0.205  -0.600  1.00  0.00     0.000 C 
BRANCH   3   4
ATOM      4  C   UNL     1       6.376   1.047  -1.124  1.00  0.00     0.000 C 
BRANCH   4   5
ATOM      5  C   UNL     1       6.049   2.357  -0.376  1.00  0.00     0.006 C 
BRANCH   5   6
ATOM      6  C   UNL     1       5.250   2.169   0.922  1.00  0.00     0.053 C 
BRANCH   6   7
ATOM      7  C   UNL     1       4.481   3.401   1.290  1.00  0.00     0.041 C 
ATOM      8  O   UNL     1       4.086   3.571   2.473  1.00  0.00    -0.550 OA
ATOM      9  O   UNL     1       4.230   4.378   0.334  1.00  0.00    -0.550 OA
ENDBRANCH   6   7
ENDBRANCH   5   6
ENDBRANCH   4   5
ENDBRANCH   3   4
ENDBRANCH   2   3
ENDBRANCH   1   2
BRANCH   1  10
ATOM     10  C   UNL     1       7.553  -2.985  -1.043  1.00  0.00     0.000 C 
BRANCH  10  11
ATOM     11  C   UNL     1       8.126  -3.078  -2.466  1.00  0.00    -0.000 C 
BRANCH  11  12
ATOM     12  C   UNL     1       7.481  -2.069  -3.432  1.00  0.00    -0.000 C 
BRANCH  12  13
ATOM     13  C   UNL     1       5.972  -2.330  -3.632  1.00  0.00    -0.000 C 
BRANCH  13  14
ATOM     14  C   UNL     1       5.187  -1.094  -4.112  1.00  0.00    -0.000 C 
BRANCH  14  15
ATOM     15  C   UNL     1       4.154  -1.369  -5.220  1.00  0.00    -0.000 C 
BRANCH  15  16
ATOM     16  C   UNL     1       2.684  -1.286  -4.768  1.00  0.00    -0.003 C 
ATOM     17  C   UNL     1       2.255  -2.481  -3.918  1.00  0.00     0.004 C 
ENDBRANCH  15  16
ENDBRANCH  14  15
ENDBRANCH  13  14
ENDBRANCH  12  13
ENDBRANCH  11  12
ENDBRANCH  10  11
ENDBRANCH   1  10
TORSDOF 13
ENDMDL
MODEL 6
REMARK VINA RESULT:    -4.016      2.088      3.076
REMARK INTER + INTRA:          -8.153
REMARK INTER:                  -6.753
REMARK INTRA:                  -1.400
REMARK UNBOUND:                -1.085
REMARK SMILES CCCCCCCCCCCCCCC(=O)[O-]
REMARK SMILES IDX 9 1 10 2 11 3 12 4 13 5 14 6 15 7 16 8 17 9 8 10 7 11 6 12
REMARK SMILES IDX 5 13 4 14 3 15 2 16 1 17
REMARK H PARENT
REMARK Flexibility Score: inf
ROOT
ATOM      1  C   UNL     1       7.617  -2.321  -2.819  1.00  0.00     0.000 C 
ENDROOT
BRANCH   1   2
ATOM      2  C   UNL     1       7.720  -2.842  -1.377  1.00  0.00     0.000 C 
BRANCH   2   3
ATOM      3  C   UNL     1       6.921  -1.984  -0.382  1.00  0.00     0.000 C 
BRANCH   3   4
ATOM      4  C   UNL     1       6.073  -0.899  -1.072  1.00  0.00     0.000 C 
BRANCH   4   5
ATOM      5  C   UNL     1       5.652   0.278  -0.168  1.00  0.00     0.006 C 
BRANCH   5   6
ATOM      6  C   UNL     1       6.549   0.494   1.060  1.00  0.00     0.053 C 
BRANCH   6   7
ATOM      7  C   UNL     1       5.963   1.490   2.014  1.00  0.00     0.041 C 
ATOM      8  O   UNL     1       4.996   2.213   1.659  1.00  0.00    -0.550 OA
ATOM      9  O   UNL     1       6.463   1.594   3.306  1.00  0.00    -0.550 OA
ENDBRANCH   6   7
ENDBRANCH   5   6
ENDBRANCH   4   5
ENDBRANCH   3   4
ENDBRANCH   2   3
ENDBRANCH   1   2
BRANCH   1  10
ATOM     10  C   UNL     1       7.278  -3.435  -3.826  1.00  0.00     0.000 C 
BRANCH  10  11
ATOM     11  C   UNL     1       5.932  -3.199  -4.531  1.00  0.00    -0.000 C 
BRANCH  11  12
ATOM     12  C   UNL     1       5.877  -1.849  -5.268  1.00  0.00    -0.000 C 
BRANCH  12  13
ATOM     13  C   UNL     1       4.738  -0.944  -4.750  1.00  0.00    -0.000 C 
BRANCH  13  14
ATOM     14  C   UNL     1       3.816  -1.631  -3.724  1.00  0.00    -0.000 C 
BRANCH  14  15
ATOM     15  C   UNL     1       2.421  -2.013  -4.253  1.00  0.00    -0.000 C 
BRANCH  15  16
ATOM     16  C   UNL     1       2.208  -1.754  -5.756  1.00  0.00    -0.003 C 
ATOM     17  C   UNL     1       2.308  -3.025  -6.599  1.00  0.00     0.004 C 
ENDBRANCH  15  16
ENDBRANCH  14  15
ENDBRANCH  13  14
ENDBRANCH  12  13
ENDBRANCH  11  12
ENDBRANCH  10  11
ENDBRANCH   1  10
TORSDOF 13
ENDMDL
MODEL 7
REMARK VINA RESULT:    -3.973      1.628      2.636
REMARK INTER + INTRA:          -8.077
REMARK INTER:                  -6.730
REMARK INTRA:                  -1.347
REMARK UNBOUND:                -1.085
REMARK SMILES CCCCCCCCCCCCCCC(=O)[O-]
REMARK SMILES IDX 9 1 10 2 11 3 12 4 13 5 14 6 15 7 16 8 17 9 8 10 7 11 6 12
REMARK SMILES IDX 5 13 4 14 3 15 2 16 1 17
REMARK H PARENT
REMARK Flexibility Score: inf
ROOT
ATOM      1  C   UNL     1       4.783  -1.354  -3.342  1.00  0.00     0.000 C 
ENDROOT
BRANCH   1   2
ATOM      2  C   UNL     1       6.317  -1.244  -3.331  1.00  0.00     0.000 C 
BRANCH   2   3
ATOM      3  C   UNL     1       6.969  -2.207  -2.324  1.00  0.00     0.000 C 
BRANCH   3   4
ATOM      4  C   UNL     1       7.525  -1.487  -1.081  1.00  0.00     0.000 C 
BRANCH   4   5
ATOM      5  C   UNL     1       6.492  -1.201   0.029  1.00  0.00     0.006 C 
BRANCH   5   6
ATOM      6  C   UNL     1       6.016   0.257   0.099  1.00  0.00     0.053 C 
BRANCH   6   7
ATOM      7  C   UNL     1       5.563   0.634   1.476  1.00  0.00     0.041 C 
ATOM      8  O   UNL     1       5.365   1.842   1.768  1.00  0.00    -0.550 OA
ATOM      9  O   UNL     1       5.325  -0.352   2.425  1.00  0.00    -0.550 OA
ENDBRANCH   6   7
ENDBRANCH   5   6
ENDBRANCH   4   5
ENDBRANCH   3   4
ENDBRANCH   2   3
ENDBRANCH   1   2
BRANCH   1  10
ATOM     10  C   UNL     1       4.191  -1.199  -4.755  1.00  0.00     0.000 C 
BRANCH  10  11
ATOM     11  C   UNL     1       2.658  -1.317  -4.765  1.00  0.00    -0.000 C 
BRANCH  11  12
ATOM     12  C   UNL     1       2.158  -2.604  -4.087  1.00  0.00    -0.000 C 
BRANCH  12  13
ATOM     13  C   UNL     1       2.075  -3.791  -5.072  1.00  0.00    -0.000 C 
BRANCH  13  14
ATOM     14  C   UNL     1       3.121  -4.892  -4.808  1.00  0.00    -0.000 C 
BRANCH  14  15
ATOM     15  C   UNL     1       4.305  -4.915  -5.793  1.00  0.00    -0.000 C 
BRANCH  15  16
ATOM     16  C   UNL     1       5.650  -4.463  -5.195  1.00  0.00    -0.003 C 
ATOM     17  C   UNL     1       6.585  -5.631  -4.881  1.00  0.00     0.004 C 
ENDBRANCH  15  16
ENDBRANCH  14  15
ENDBRANCH  13  14
ENDBRANCH  12  13
ENDBRANCH  11  12
ENDBRANCH  10  11
ENDBRANCH   1  10
TORSDOF 13
ENDMDL
MODEL 8
REMARK VINA RESULT:    -3.900      3.913      7.018
REMARK INTER + INTRA:          -7.949
REMARK INTER:                  -6.919
REMARK INTRA:                  -1.030
REMARK UNBOUND:                -1.085
REMARK SMILES CCCCCCCCCCCCCCC(=O)[O-]
REMARK SMILES IDX 9 1 10 2 11 3 12 4 13 5 14 6 15 7 16 8 17 9 8 10 7 11 6 12
REMARK SMILES IDX 5 13 4 14 3 15 2 16 1 17
REMARK H PARENT
REMARK Flexibility Score: inf
ROOT
ATOM      1  C   UNL     1       2.226  -2.261  -5.090  1.00  0.00     0.000 C 
ENDROOT
BRANCH   1   2
ATOM      2  C   UNL     1       2.832  -3.674  -5.088  1.00  0.00     0.000 C 
BRANCH   2   3
ATOM      3  C   UNL     1       2.026  -4.659  -4.223  1.00  0.00     0.000 C 
BRANCH   3   4
ATOM      4  C   UNL     1       1.015  -3.955  -3.298  1.00  0.00     0.000 C 
BRANCH   4   5
ATOM      5  C   UNL     1       0.485  -4.815  -2.132  1.00  0.00     0.006 C 
BRANCH   5   6
ATOM      6  C   UNL     1       1.152  -6.192  -1.998  1.00  0.00     0.053 C 
BRANCH   6   7
ATOM      7  C   UNL     1       0.147  -7.303  -1.969  1.00  0.00     0.041 C 
ATOM      8  O   UNL     1      -0.281  -7.740  -0.868  1.00  0.00    -0.550 OA
ATOM      9  O   UNL     1      -0.343  -7.830  -3.156  1.00  0.00    -0.550 OA
ENDBRANCH   6   7
ENDBRANCH   5   6
ENDBRANCH   4   5
ENDBRANCH   3   4
ENDBRANCH   2   3
ENDBRANCH   1   2
BRANCH   1  10
ATOM     10  C   UNL     1       3.190  -1.205  -4.520  1.00  0.00     0.000 C 
BRANCH  10  11
ATOM     11  C   UNL     1       4.450  -1.834  -3.901  1.00  0.00    -0.000 C 
BRANCH  11  12
ATOM     12  C   UNL     1       5.700  -0.955  -4.081  1.00  0.00    -0.000 C 
BRANCH  12  13
ATOM     13  C   UNL     1       6.093  -0.221  -2.780  1.00  0.00    -0.000 C 
BRANCH  13  14
ATOM     14  C   UNL     1       5.403  -0.779  -1.520  1.00  0.00    -0.000 C 
BRANCH  14  15
ATOM     15  C   UNL     1       6.304  -0.881  -0.275  1.00  0.00    -0.000 C 
BRANCH  15  16
ATOM     16  C   UNL     1       7.671  -1.546  -0.521  1.00  0.00    -0.003 C 
ATOM     17  C   UNL     1       7.556  -3.017  -0.918  1.00  0.00     0.004 C 
ENDBRANCH  15  16
ENDBRANCH  14  15
ENDBRANCH  13  14
ENDBRANCH  12  13
ENDBRANCH  11  12
ENDBRANCH  10  11
ENDBRANCH   1  10
TORSDOF 13
ENDMDL
MODEL 9
REMARK VINA RESULT:    -3.897      1.697      2.268
REMARK INTER + INTRA:          -7.944
REMARK INTER:                  -6.474
REMARK INTRA:                  -1.470
REMARK UNBOUND:                -1.085
REMARK SMILES CCCCCCCCCCCCCCC(=O)[O-]
REMARK SMILES IDX 9 1 10 2 11 3 12 4 13 5 14 6 15 7 16 8 17 9 8 10 7 11 6 12
REMARK SMILES IDX 5 13 4 14 3 15 2 16 1 17
REMARK H PARENT
REMARK Flexibility Score: inf
ROOT
ATOM      1  C   UNL     1       5.936  -1.965  -4.549  1.00  0.00     0.000 C 
ENDROOT
BRANCH   1   2
ATOM      2  C   UNL     1       6.654  -3.047  -3.726  1.00  0.00     0.000 C 
BRANCH   2   3
ATOM      3  C   UNL     1       7.701  -2.458  -2.764  1.00  0.00     0.000 C 
BRANCH   3   4
ATOM      4  C   UNL     1       7.454  -2.852  -1.296  1.00  0.00     0.000 C 
BRANCH   4   5
ATOM      5  C   UNL     1       7.060  -1.689  -0.363  1.00  0.00     0.006 C 
BRANCH   5   6
ATOM      6  C   UNL     1       7.364  -0.290  -0.920  1.00  0.00     0.053 C 
BRANCH   6   7
ATOM      7  C   UNL     1       6.244   0.671  -0.667  1.00  0.00     0.041 C 
ATOM      8  O   UNL     1       5.202   0.286  -0.073  1.00  0.00    -0.550 OA
ATOM      9  O   UNL     1       6.363   1.999  -1.055  1.00  0.00    -0.550 OA
ENDBRANCH   6   7
ENDBRANCH   5   6
ENDBRANCH   4   5
ENDBRANCH   3   4
ENDBRANCH   2   3
ENDBRANCH   1   2
BRANCH   1  10
ATOM     10  C   UNL     1       4.973  -1.119  -3.696  1.00  0.00     0.000 C 
BRANCH  10  11
ATOM     11  C   UNL     1       3.538  -1.668  -3.712  1.00  0.00    -0.000 C 
BRANCH  11  12
ATOM     12  C   UNL     1       2.713  -1.137  -4.898  1.00  0.00    -0.000 C 
BRANCH  12  13
ATOM     13  C   UNL     1       2.247  -2.268  -5.842  1.00  0.00    -0.000 C 
BRANCH  13  14
ATOM     14  C   UNL     1       2.792  -3.658  -5.461  1.00  0.00    -0.000 C 
BRANCH  14  15
ATOM     15  C   UNL     1       1.728  -4.766  -5.349  1.00  0.00    -0.000 C 
BRANCH  15  16
ATOM     16  C   UNL     1       1.455  -5.258  -3.916  1.00  0.00    -0.003 C 
ATOM     17  C   UNL     1       0.852  -4.177  -3.020  1.00  0.00     0.004 C 
ENDBRANCH  15  16
ENDBRANCH  14  15
ENDBRANCH  13  14
ENDBRANCH  12  13
ENDBRANCH  11  12
ENDBRANCH  10  11
ENDBRANCH   1  10
TORSDOF 13
ENDMDL
