MODEL 1
REMARK VINA RESULT:    -2.396      0.000      0.000
REMARK INTER + INTRA:          -4.039
REMARK INTER:                  -3.657
REMARK INTRA:                  -0.382
REMARK UNBOUND:                -0.382
REMARK SMILES CC1=CCC[C@@H](C)C(=O)C[C@H](C(C)C)C(=O)C1
REMARK SMILES IDX 8 1 9 2 6 3 7 4 5 5 4 6 3 7 2 8 1 9 10 11 11 12 15 13 16 14
REMARK SMILES IDX 17 15 12 17 13 18 14 19
REMARK H PARENT
REMARK Flexibility Score: 70.00
ROOT
ATOM      1  C   UNL     1     188.057 198.756 212.903  1.00  0.00     0.136 C 
ATOM      2  O   UNL     1     188.923 199.488 213.365  1.00  0.00    -0.299 OA
ENDROOT
BRANCH   1   3
ATOM      3  C   UNL     1     188.393 197.309 212.591  1.00  0.00     0.053 C 
ATOM      4  C   UNL     1     188.799 196.565 213.871  1.00  0.00     0.016 C 
BRANCH   3   5
ATOM      5  C   UNL     1     189.510 197.228 211.527  1.00  0.00     0.015 C 
BRANCH   5   6
ATOM      6  C   UNL     1     188.965 197.488 210.109  1.00  0.00     0.028 C 
BRANCH   6   7
ATOM      7  C   UNL     1     187.760 196.646 209.772  1.00  0.00    -0.028 C 
ATOM      8  C   UNL     1     186.545 197.122 209.404  1.00  0.00    -0.070 CG0
ATOM      9  C   UNL     1     185.433 196.122 209.203  1.00  0.00     0.039 C 
ATOM     10  G   UNL     1     186.260 198.596 209.141  1.00  0.00     0.000 G0
ENDBRANCH   6   7
ENDBRANCH   5   6
ENDBRANCH   3   5
ENDBRANCH   1   3
BRANCH   1  11
ATOM     11  C   UNL     1     186.671 199.313 212.671  1.00  0.00     0.087 C 
BRANCH  11  12
ATOM     12  C   UNL     1     186.558 200.063 211.316  1.00  0.00     0.066 C 
BRANCH  12  13
ATOM     13  C   UNL     1     185.646 199.319 210.350  1.00  0.00     0.140 C 
ATOM     14  O   UNL     1     184.433 199.339 210.503  1.00  0.00    -0.299 OA
BRANCH  13  15
ATOM     15  C   UNL     1     186.235 198.600 209.160  1.00  0.00     0.106 CG0
ATOM     16  G   UNL     1     186.540 197.129 209.415  1.00  0.00     0.000 G0
ENDBRANCH  13  15
ENDBRANCH  12  13
BRANCH  12  17
ATOM     17  C   UNL     1     186.146 201.565 211.468  1.00  0.00    -0.006 C 
ATOM     18  C   UNL     1     185.883 201.993 212.924  1.00  0.00     0.008 C 
ATOM     19  C   UNL     1     187.184 202.500 210.830  1.00  0.00     0.008 C 
ENDBRANCH  12  17
ENDBRANCH  11  12
ENDBRANCH   1  11
TORSDOF 1
ENDMDL
MODEL 2
REMARK VINA RESULT:    -2.388      2.920      5.042
REMARK INTER + INTRA:          -4.025
REMARK INTER:                  -4.005
REMARK INTRA:                  -0.020
REMARK UNBOUND:                -0.382
REMARK SMILES CC1=CCC[C@@H](C)C(=O)C[C@H](C(C)C)C(=O)C1
REMARK SMILES IDX 8 1 9 2 6 3 7 4 5 5 4 6 3 7 2 8 1 9 10 11 11 12 15 13 16 14
REMARK SMILES IDX 17 15 12 17 13 18 14 19
REMARK H PARENT
REMARK Flexibility Score: 70.00
ROOT
ATOM      1  C   UNL     1     186.231 201.989 210.849  1.00  0.00     0.136 C 
ATOM      2  O   UNL     1     185.290 202.680 211.217  1.00  0.00    -0.299 OA
ENDROOT
BRANCH   1   3
ATOM      3  C   UNL     1     186.156 200.481 211.012  1.00  0.00     0.053 C 
ATOM      4  C   UNL     1     185.155 199.883 210.014  1.00  0.00     0.016 C 
BRANCH   3   5
ATOM      5  C   UNL     1     185.778 200.110 212.463  1.00  0.00     0.015 C 
BRANCH   5   6
ATOM      6  C   UNL     1     186.922 200.426 213.447  1.00  0.00     0.028 C 
BRANCH   6   7
ATOM      7  C   UNL     1     188.087 199.475 213.330  1.00  0.00    -0.028 C 
ATOM      8  C   UNL     1     189.349 199.817 212.973  1.00  0.00    -0.070 CG0
ATOM      9  C   UNL     1     190.357 198.706 212.814  1.00  0.00     0.039 C 
ATOM     10  G   UNL     1     189.809 201.257 212.772  1.00  0.00     0.000 G0
ENDBRANCH   6   7
ENDBRANCH   5   6
ENDBRANCH   3   5
ENDBRANCH   1   3
BRANCH   1  11
ATOM     11  C   UNL     1     187.434 202.658 210.227  1.00  0.00     0.087 C 
BRANCH  11  12
ATOM     12  C   UNL     1     188.534 202.982 211.274  1.00  0.00     0.066 C 
BRANCH  12  13
ATOM     13  C   UNL     1     189.526 201.835 211.405  1.00  0.00     0.140 C 
ATOM     14  O   UNL     1     190.111 201.407 210.419  1.00  0.00    -0.299 OA
BRANCH  13  15
ATOM     15  C   UNL     1     189.838 201.259 212.764  1.00  0.00     0.106 CG0
ATOM     16  G   UNL     1     189.335 199.834 212.962  1.00  0.00     0.000 G0
ENDBRANCH  13  15
ENDBRANCH  12  13
BRANCH  12  17
ATOM     17  C   UNL     1     189.252 204.349 211.020  1.00  0.00    -0.006 C 
ATOM     18  C   UNL     1     190.354 204.672 212.046  1.00  0.00     0.008 C 
ATOM     19  C   UNL     1     189.828 204.427 209.598  1.00  0.00     0.008 C 
ENDBRANCH  12  17
ENDBRANCH  11  12
ENDBRANCH   1  11
TORSDOF 1
ENDMDL
MODEL 3
REMARK VINA RESULT:    -2.343      2.690      5.723
REMARK INTER + INTRA:          -3.957
REMARK INTER:                  -3.559
REMARK INTRA:                  -0.398
REMARK UNBOUND:                -0.382
REMARK SMILES CC1=CCC[C@@H](C)C(=O)C[C@H](C(C)C)C(=O)C1
REMARK SMILES IDX 8 1 9 2 6 3 7 4 5 5 4 6 3 7 2 8 1 9 10 11 11 12 15 13 16 14
REMARK SMILES IDX 17 15 12 17 13 18 14 19
REMARK H PARENT
REMARK Flexibility Score: 70.00
ROOT
ATOM      1  C   UNL     1     186.722 200.149 211.918  1.00  0.00     0.136 C 
ATOM      2  O   UNL     1     186.033 199.478 211.161  1.00  0.00    -0.299 OA
ENDROOT
BRANCH   1   3
ATOM      3  C   UNL     1     186.535 201.655 211.958  1.00  0.00     0.053 C 
ATOM      4  C   UNL     1     185.114 202.006 212.421  1.00  0.00     0.016 C 
BRANCH   3   5
ATOM      5  C   UNL     1     186.835 202.276 210.576  1.00  0.00     0.015 C 
BRANCH   5   6
ATOM      6  C   UNL     1     188.351 202.426 210.337  1.00  0.00     0.028 C 
BRANCH   6   7
ATOM      7  C   UNL     1     189.090 202.977 211.531  1.00  0.00    -0.028 C 
ATOM      8  C   UNL     1     190.086 202.345 212.200  1.00  0.00    -0.070 CG0
ATOM      9  C   UNL     1     190.636 203.017 213.434  1.00  0.00     0.039 C 
ATOM     10  G   UNL     1     190.702 201.027 211.748  1.00  0.00     0.000 G0
ENDBRANCH   6   7
ENDBRANCH   5   6
ENDBRANCH   3   5
ENDBRANCH   1   3
BRANCH   1  11
ATOM     11  C   UNL     1     187.731 199.454 212.803  1.00  0.00     0.087 C 
BRANCH  11  12
ATOM     12  C   UNL     1     189.009 199.040 212.025  1.00  0.00     0.066 C 
BRANCH  12  13
ATOM     13  C   UNL     1     190.229 199.805 212.520  1.00  0.00     0.140 C 
ATOM     14  O   UNL     1     190.845 199.418 213.504  1.00  0.00    -0.299 OA
BRANCH  13  15
ATOM     15  C   UNL     1     190.720 201.014 211.762  1.00  0.00     0.106 CG0
ATOM     16  G   UNL     1     190.069 202.322 212.195  1.00  0.00     0.000 G0
ENDBRANCH  13  15
ENDBRANCH  12  13
BRANCH  12  17
ATOM     17  C   UNL     1     189.256 197.495 212.010  1.00  0.00    -0.006 C 
ATOM     18  C   UNL     1     188.581 196.747 213.175  1.00  0.00     0.008 C 
ATOM     19  C   UNL     1     188.829 196.868 210.674  1.00  0.00     0.008 C 
ENDBRANCH  12  17
ENDBRANCH  11  12
ENDBRANCH   1  11
TORSDOF 1
ENDMDL
MODEL 4
REMARK VINA RESULT:    -2.339      2.567      4.578
REMARK INTER + INTRA:          -3.951
REMARK INTER:                  -3.539
REMARK INTRA:                  -0.412
REMARK UNBOUND:                -0.382
REMARK SMILES CC1=CCC[C@@H](C)C(=O)C[C@H](C(C)C)C(=O)C1
REMARK SMILES IDX 8 1 9 2 6 3 7 4 5 5 4 6 3 7 2 8 1 9 10 11 11 12 15 13 16 14
REMARK SMILES IDX 17 15 12 17 13 18 14 19
REMARK H PARENT
REMARK Flexibility Score: 70.00
ROOT
ATOM      1  C   UNL     1     185.082 199.965 210.353  1.00  0.00     0.136 C 
ATOM      2  O   UNL     1     184.192 199.529 211.072  1.00  0.00    -0.299 OA
ENDROOT
BRANCH   1   3
ATOM      3  C   UNL     1     185.493 199.184 209.118  1.00  0.00     0.053 C 
ATOM      4  C   UNL     1     186.448 198.044 209.499  1.00  0.00     0.016 C 
BRANCH   3   5
ATOM      5  C   UNL     1     186.140 200.121 208.074  1.00  0.00     0.015 C 
BRANCH   5   6
ATOM      6  C   UNL     1     187.639 199.813 207.886  1.00  0.00     0.028 C 
BRANCH   6   7
ATOM      7  C   UNL     1     188.461 201.036 207.562  1.00  0.00    -0.028 C 
ATOM      8  C   UNL     1     189.119 201.804 208.465  1.00  0.00    -0.070 CG0
ATOM      9  C   UNL     1     189.807 203.047 207.957  1.00  0.00     0.039 C 
ATOM     10  G   UNL     1     189.235 201.456 209.944  1.00  0.00     0.000 G0
ENDBRANCH   6   7
ENDBRANCH   5   6
ENDBRANCH   3   5
ENDBRANCH   1   3
BRANCH   1  11
ATOM     11  C   UNL     1     185.735 201.281 210.710  1.00  0.00     0.087 C 
BRANCH  11  12
ATOM     12  C   UNL     1     187.108 201.086 211.408  1.00  0.00     0.066 C 
BRANCH  12  13
ATOM     13  C   UNL     1     188.160 202.019 210.825  1.00  0.00     0.140 C 
ATOM     14  O   UNL     1     188.148 203.212 211.096  1.00  0.00    -0.299 OA
BRANCH  13  15
ATOM     15  C   UNL     1     189.261 201.464 209.954  1.00  0.00     0.106 CG0
ATOM     16  G   UNL     1     189.105 201.793 208.474  1.00  0.00     0.000 G0
ENDBRANCH  13  15
ENDBRANCH  12  13
BRANCH  12  17
ATOM     17  C   UNL     1     187.034 201.191 212.967  1.00  0.00    -0.006 C 
ATOM     18  C   UNL     1     185.736 201.837 213.486  1.00  0.00     0.008 C 
ATOM     19  C   UNL     1     187.236 199.822 213.635  1.00  0.00     0.008 C 
ENDBRANCH  12  17
ENDBRANCH  11  12
ENDBRANCH   1  11
TORSDOF 1
ENDMDL
MODEL 5
REMARK VINA RESULT:    -2.336      2.395      4.254
REMARK INTER + INTRA:          -3.947
REMARK INTER:                  -3.569
REMARK INTRA:                  -0.377
REMARK UNBOUND:                -0.382
REMARK SMILES CC1=CCC[C@@H](C)C(=O)C[C@H](C(C)C)C(=O)C1
REMARK SMILES IDX 8 1 9 2 6 3 7 4 5 5 4 6 3 7 2 8 1 9 10 11 11 12 15 13 16 14
REMARK SMILES IDX 17 15 12 17 13 18 14 19
REMARK H PARENT
REMARK Flexibility Score: 70.00
ROOT
ATOM      1  C   UNL     1     186.733 199.588 209.440  1.00  0.00     0.136 C 
ATOM      2  O   UNL     1     185.625 199.148 209.161  1.00  0.00    -0.299 OA
ENDROOT
BRANCH   1   3
ATOM      3  C   UNL     1     187.953 198.702 209.268  1.00  0.00     0.053 C 
ATOM      4  C   UNL     1     188.129 198.312 207.793  1.00  0.00     0.016 C 
BRANCH   3   5
ATOM      5  C   UNL     1     187.841 197.446 210.161  1.00  0.00     0.015 C 
BRANCH   5   6
ATOM      6  C   UNL     1     188.371 197.712 211.584  1.00  0.00     0.028 C 
BRANCH   6   7
ATOM      7  C   UNL     1     189.709 198.406 211.601  1.00  0.00    -0.028 C 
ATOM      8  C   UNL     1     189.951 199.640 212.111  1.00  0.00    -0.070 CG0
ATOM      9  C   UNL     1     191.339 200.206 211.944  1.00  0.00     0.039 C 
ATOM     10  G   UNL     1     188.914 200.454 212.875  1.00  0.00     0.000 G0
ENDBRANCH   6   7
ENDBRANCH   5   6
ENDBRANCH   3   5
ENDBRANCH   1   3
BRANCH   1  11
ATOM     11  C   UNL     1     186.853 201.011 209.934  1.00  0.00     0.087 C 
BRANCH  11  12
ATOM     12  C   UNL     1     186.800 201.103 211.483  1.00  0.00     0.066 C 
BRANCH  12  13
ATOM     13  C   UNL     1     188.161 201.468 212.060  1.00  0.00     0.140 C 
ATOM     14  O   UNL     1     188.624 202.588 211.892  1.00  0.00    -0.299 OA
BRANCH  13  15
ATOM     15  C   UNL     1     188.919 200.466 212.896  1.00  0.00     0.106 CG0
ATOM     16  G   UNL     1     189.925 199.637 212.107  1.00  0.00     0.000 G0
ENDBRANCH  13  15
ENDBRANCH  12  13
BRANCH  12  17
ATOM     17  C   UNL     1     185.669 202.045 212.013  1.00  0.00    -0.006 C 
ATOM     18  C   UNL     1     184.277 201.730 211.436  1.00  0.00     0.008 C 
ATOM     19  C   UNL     1     185.608 202.043 213.548  1.00  0.00     0.008 C 
ENDBRANCH  12  17
ENDBRANCH  11  12
ENDBRANCH   1  11
TORSDOF 1
ENDMDL
MODEL 6
REMARK VINA RESULT:    -2.321      2.465      3.892
REMARK INTER + INTRA:          -3.924
REMARK INTER:                  -3.536
REMARK INTRA:                  -0.388
REMARK UNBOUND:                -0.382
REMARK SMILES CC1=CCC[C@@H](C)C(=O)C[C@H](C(C)C)C(=O)C1
REMARK SMILES IDX 8 1 9 2 6 3 7 4 5 5 4 6 3 7 2 8 1 9 10 11 11 12 15 13 16 14
REMARK SMILES IDX 17 15 12 17 13 18 14 19
REMARK H PARENT
REMARK Flexibility Score: 70.00
ROOT
ATOM      1  C   UNL     1     187.891 202.030 212.735  1.00  0.00     0.136 C 
ATOM      2  O   UNL     1     188.720 202.019 213.636  1.00  0.00    -0.299 OA
ENDROOT
BRANCH   1   3
ATOM      3  C   UNL     1     186.579 201.290 212.919  1.00  0.00     0.053 C 
ATOM      4  C   UNL     1     185.781 201.896 214.083  1.00  0.00     0.016 C 
BRANCH   3   5
ATOM      5  C   UNL     1     186.833 199.784 213.149  1.00  0.00     0.015 C 
BRANCH   5   6
ATOM      6  C   UNL     1     187.415 199.107 211.892  1.00  0.00     0.028 C 
BRANCH   6   7
ATOM      7  C   UNL     1     186.478 199.142 210.710  1.00  0.00    -0.028 C 
ATOM      8  C   UNL     1     186.778 199.632 209.482  1.00  0.00    -0.070 CG0
ATOM      9  C   UNL     1     185.674 199.671 208.455  1.00  0.00     0.039 C 
ATOM     10  G   UNL     1     188.171 200.099 209.077  1.00  0.00     0.000 G0
ENDBRANCH   6   7
ENDBRANCH   5   6
ENDBRANCH   3   5
ENDBRANCH   1   3
BRANCH   1  11
ATOM     11  C   UNL     1     188.196 202.796 211.468  1.00  0.00     0.087 C 
BRANCH  11  12
ATOM     12  C   UNL     1     189.163 202.022 210.531  1.00  0.00     0.066 C 
BRANCH  12  13
ATOM     13  C   UNL     1     188.453 201.563 209.264  1.00  0.00     0.140 C 
ATOM     14  O   UNL     1     188.140 202.373 208.402  1.00  0.00    -0.299 OA
BRANCH  13  15
ATOM     15  C   UNL     1     188.185 200.095 209.039  1.00  0.00     0.106 CG0
ATOM     16  G   UNL     1     186.798 199.644 209.481  1.00  0.00     0.000 G0
ENDBRANCH  13  15
ENDBRANCH  12  13
BRANCH  12  17
ATOM     17  C   UNL     1     190.479 202.804 210.211  1.00  0.00    -0.006 C 
ATOM     18  C   UNL     1     190.352 204.330 210.377  1.00  0.00     0.008 C 
ATOM     19  C   UNL     1     191.659 202.287 211.049  1.00  0.00     0.008 C 
ENDBRANCH  12  17
ENDBRANCH  11  12
ENDBRANCH   1  11
TORSDOF 1
ENDMDL
MODEL 7
REMARK VINA RESULT:    -2.288      3.537      5.528
REMARK INTER + INTRA:          -3.874
REMARK INTER:                  -3.502
REMARK INTRA:                  -0.372
REMARK UNBOUND:                -0.382
REMARK SMILES CC1=CCC[C@@H](C)C(=O)C[C@H](C(C)C)C(=O)C1
REMARK SMILES IDX 8 1 9 2 6 3 7 4 5 5 4 6 3 7 2 8 1 9 10 11 11 12 15 13 16 14
REMARK SMILES IDX 17 15 12 17 13 18 14 19
REMARK H PARENT
REMARK Flexibility Score: 70.00
ROOT
ATOM      1  C   UNL     1     190.148 204.008 211.171  1.00  0.00     0.136 C 
ATOM      2  O   UNL     1     191.102 204.489 210.574  1.00  0.00    -0.299 OA
ENDROOT
BRANCH   1   3
ATOM      3  C   UNL     1     190.244 203.780 212.669  1.00  0.00     0.053 C 
ATOM      4  C   UNL     1     190.662 205.072 213.382  1.00  0.00     0.016 C 
BRANCH   3   5
ATOM      5  C   UNL     1     191.231 202.633 212.980  1.00  0.00     0.015 C 
BRANCH   5   6
ATOM      6  C   UNL     1     190.492 201.315 213.288  1.00  0.00     0.028 C 
BRANCH   6   7
ATOM      7  C   UNL     1     189.125 201.525 213.890  1.00  0.00    -0.028 C 
ATOM      8  C   UNL     1     187.945 201.259 213.277  1.00  0.00    -0.070 CG0
ATOM      9  C   UNL     1     186.678 201.631 214.007  1.00  0.00     0.039 C 
ATOM     10  G   UNL     1     187.835 200.567 211.924  1.00  0.00     0.000 G0
ENDBRANCH   6   7
ENDBRANCH   5   6
ENDBRANCH   3   5
ENDBRANCH   1   3
BRANCH   1  11
ATOM     11  C   UNL     1     188.894 203.669 210.398  1.00  0.00     0.087 C 
BRANCH  11  12
ATOM     12  C   UNL     1     188.800 202.156 210.063  1.00  0.00     0.066 C 
BRANCH  12  13
ATOM     13  C   UNL     1     187.600 201.513 210.744  1.00  0.00     0.140 C 
ATOM     14  O   UNL     1     186.469 201.715 210.323  1.00  0.00    -0.299 OA
BRANCH  13  15
ATOM     15  C   UNL     1     187.806 200.574 211.907  1.00  0.00     0.106 CG0
ATOM     16  G   UNL     1     187.943 201.278 213.253  1.00  0.00     0.000 G0
ENDBRANCH  13  15
ENDBRANCH  12  13
BRANCH  12  17
ATOM     17  C   UNL     1     188.831 201.855 208.528  1.00  0.00    -0.006 C 
ATOM     18  C   UNL     1     189.312 203.041 207.671  1.00  0.00     0.008 C 
ATOM     19  C   UNL     1     189.676 200.611 208.214  1.00  0.00     0.008 C 
ENDBRANCH  12  17
ENDBRANCH  11  12
ENDBRANCH   1  11
TORSDOF 1
ENDMDL
MODEL 8
REMARK VINA RESULT:    -2.260      3.040      4.752
REMARK INTER + INTRA:          -3.830
REMARK INTER:                  -3.558
REMARK INTRA:                  -0.273
REMARK UNBOUND:                -0.382
REMARK SMILES CC1=CCC[C@@H](C)C(=O)C[C@H](C(C)C)C(=O)C1
REMARK SMILES IDX 8 1 9 2 6 3 7 4 5 5 4 6 3 7 2 8 1 9 10 11 11 12 15 13 16 14
REMARK SMILES IDX 17 15 12 17 13 18 14 19
REMARK H PARENT
REMARK Flexibility Score: 70.00
ROOT
ATOM      1  C   UNL     1     188.469 199.237 212.428  1.00  0.00     0.136 C 
ATOM      2  O   UNL     1     187.948 198.518 213.270  1.00  0.00    -0.299 OA
ENDROOT
BRANCH   1   3
ATOM      3  C   UNL     1     189.889 199.729 212.642  1.00  0.00     0.053 C 
ATOM      4  C   UNL     1     190.851 198.542 212.793  1.00  0.00     0.016 C 
BRANCH   3   5
ATOM      5  C   UNL     1     189.962 200.658 213.874  1.00  0.00     0.015 C 
BRANCH   5   6
ATOM      6  C   UNL     1     189.652 202.121 213.502  1.00  0.00     0.028 C 
BRANCH   6   7
ATOM      7  C   UNL     1     190.551 202.663 212.419  1.00  0.00    -0.028 C 
ATOM      8  C   UNL     1     190.145 203.087 211.197  1.00  0.00    -0.070 CG0
ATOM      9  C   UNL     1     191.209 203.503 210.211  1.00  0.00     0.039 C 
ATOM     10  G   UNL     1     188.681 203.207 210.789  1.00  0.00     0.000 G0
ENDBRANCH   6   7
ENDBRANCH   5   6
ENDBRANCH   3   5
ENDBRANCH   1   3
BRANCH   1  11
ATOM     11  C   UNL     1     187.685 199.603 211.189  1.00  0.00     0.087 C 
BRANCH  11  12
ATOM     12  C   UNL     1     187.212 201.081 211.206  1.00  0.00     0.066 C 
BRANCH  12  13
ATOM     13  C   UNL     1     188.047 201.938 210.265  1.00  0.00     0.140 C 
ATOM     14  O   UNL     1     188.178 201.620 209.090  1.00  0.00    -0.299 OA
BRANCH  13  15
ATOM     15  C   UNL     1     188.670 203.220 210.763  1.00  0.00     0.106 CG0
ATOM     16  G   UNL     1     190.130 203.078 211.175  1.00  0.00     0.000 G0
ENDBRANCH  13  15
ENDBRANCH  12  13
BRANCH  12  17
ATOM     17  C   UNL     1     185.679 201.248 210.942  1.00  0.00    -0.006 C 
ATOM     18  C   UNL     1     184.933 199.915 210.749  1.00  0.00     0.008 C 
ATOM     19  C   UNL     1     185.002 202.066 212.053  1.00  0.00     0.008 C 
ENDBRANCH  12  17
ENDBRANCH  11  12
ENDBRANCH   1  11
TORSDOF 1
ENDMDL
MODEL 9
REMARK VINA RESULT:    -2.131      2.668      4.334
REMARK INTER + INTRA:          -3.634
REMARK INTER:                  -3.667
REMARK INTRA:                   0.033
REMARK UNBOUND:                -0.382
REMARK SMILES CC1=CCC[C@@H](C)C(=O)C[C@H](C(C)C)C(=O)C1
REMARK SMILES IDX 8 1 9 2 6 3 7 4 5 5 4 6 3 7 2 8 1 9 10 11 11 12 15 13 16 14
REMARK SMILES IDX 17 15 12 17 13 18 14 19
REMARK H PARENT
REMARK Flexibility Score: 70.00
ROOT
ATOM      1  C   UNL     1     187.381 199.683 208.977  1.00  0.00     0.136 C 
ATOM      2  O   UNL     1     188.307 199.890 208.203  1.00  0.00    -0.299 OA
ENDROOT
BRANCH   1   3
ATOM      3  C   UNL     1     187.105 198.267 209.448  1.00  0.00     0.053 C 
ATOM      4  C   UNL     1     185.622 197.918 209.259  1.00  0.00     0.016 C 
BRANCH   3   5
ATOM      5  C   UNL     1     187.529 198.094 210.924  1.00  0.00     0.015 C 
BRANCH   5   6
ATOM      6  C   UNL     1     189.023 198.415 211.127  1.00  0.00     0.028 C 
BRANCH   6   7
ATOM      7  C   UNL     1     189.292 199.238 212.362  1.00  0.00    -0.028 C 
ATOM      8  C   UNL     1     189.575 200.564 212.378  1.00  0.00    -0.070 CG0
ATOM      9  C   UNL     1     189.914 201.191 213.708  1.00  0.00     0.039 C 
ATOM     10  G   UNL     1     189.523 201.453 211.141  1.00  0.00     0.000 G0
ENDBRANCH   6   7
ENDBRANCH   5   6
ENDBRANCH   3   5
ENDBRANCH   1   3
BRANCH   1  11
ATOM     11  C   UNL     1     186.547 200.851 209.451  1.00  0.00     0.087 C 
BRANCH  11  12
ATOM     12  C   UNL     1     186.916 201.289 210.894  1.00  0.00     0.066 C 
BRANCH  12  13
ATOM     13  C   UNL     1     188.181 202.136 210.907  1.00  0.00     0.140 C 
ATOM     14  O   UNL     1     188.114 203.351 210.775  1.00  0.00    -0.299 OA
BRANCH  13  15
ATOM     15  C   UNL     1     189.522 201.485 211.142  1.00  0.00     0.106 CG0
ATOM     16  G   UNL     1     189.563 200.577 212.366  1.00  0.00     0.000 G0
ENDBRANCH  13  15
ENDBRANCH  12  13
BRANCH  12  17
ATOM     17  C   UNL     1     185.739 201.987 211.653  1.00  0.00    -0.006 C 
ATOM     18  C   UNL     1     184.345 201.608 211.120  1.00  0.00     0.008 C 
ATOM     19  C   UNL     1     185.808 201.722 213.165  1.00  0.00     0.008 C 
ENDBRANCH  12  17
ENDBRANCH  11  12
ENDBRANCH   1  11
TORSDOF 1
ENDMDL
