MODEL 1
REMARK VINA RESULT:    -7.498      0.000      0.000
REMARK INTER + INTRA:         -11.592
REMARK INTER:                  -9.909
REMARK INTRA:                  -1.683
REMARK UNBOUND:                -1.683
REMARK SMILES CC[C@H](C=C[C@H](C)[C@H]1CC[C@H]2[C@@H]3CC[C@@H]4C[C@@H](O)CC[C@]4(C)[C@@H]3CC[C@]12C)C(C)C
REMARK SMILES IDX 6 1 7 2 5 3 4 4 3 5 2 6 1 7 28 8 29 9 30 10 8 11 9 12 26 13
REMARK SMILES IDX 10 14 11 15 25 16 27 17 12 18 24 19 23 20 13 21 21 22 14 23
REMARK SMILES IDX 15 24 20 25 22 26 16 27 19 28 17 29 18 30
REMARK H PARENT 18 31
REMARK Flexibility Score: inf
ROOT
ATOM      1  C   UNL     1     188.420 198.009 193.732  1.00  0.00     0.012 C 
ATOM      2  C   UNL     1     188.726 199.493 193.453  1.00  0.00     0.012 C 
ENDROOT
BRANCH   1   3
ATOM      3  C   UNL     1     187.851 197.922 195.131  1.00  0.00    -0.028 C 
ATOM      4  C   UNL     1     186.530 197.969 195.369  1.00  0.00    -0.027 C 
BRANCH   4   5
ATOM      5  C   UNL     1     185.959 197.883 196.773  1.00  0.00     0.014 C 
BRANCH   5   6
ATOM      6  C   UNL     1     185.027 199.110 196.996  1.00  0.00     0.004 C 
ATOM      7  C   UNL     1     184.793 199.921 195.717  1.00  0.00     0.004 C 
ENDBRANCH   5   6
BRANCH   5   8
ATOM      8  C   UNL     1     185.224 196.519 196.959  1.00  0.00    -0.011 C 
ATOM      9  C   UNL     1     186.029 195.530 197.824  1.00  0.00     0.008 C 
ATOM     10  C   UNL     1     184.914 195.859 195.601  1.00  0.00     0.008 C 
ENDBRANCH   5   8
ENDBRANCH   4   5
ENDBRANCH   1   3
BRANCH   1  11
ATOM     11  C   UNL     1     187.439 197.308 192.733  1.00  0.00     0.002 C 
ATOM     12  C   UNL     1     187.051 198.093 191.458  1.00  0.00     0.005 C 
ATOM     13  C   UNL     1     187.801 195.886 192.226  1.00  0.00    -0.026 C 
ATOM     14  C   UNL     1     186.645 197.033 190.417  1.00  0.00     0.005 C 
ATOM     15  C   UNL     1     186.697 195.701 191.170  1.00  0.00    -0.001 C 
ATOM     16  C   UNL     1     187.676 194.765 193.294  1.00  0.00     0.007 C 
ATOM     17  C   UNL     1     189.234 195.855 191.620  1.00  0.00     0.012 C 
ATOM     18  C   UNL     1     186.875 194.411 190.340  1.00  0.00    -0.004 C 
ATOM     19  C   UNL     1     186.955 193.486 192.791  1.00  0.00     0.005 C 
ATOM     20  C   UNL     1     187.123 193.155 191.264  1.00  0.00    -0.001 C 
ATOM     21  C   UNL     1     185.719 194.225 189.367  1.00  0.00     0.004 C 
ATOM     22  C   UNL     1     186.454 191.746 190.818  1.00  0.00    -0.026 C 
ATOM     23  C   UNL     1     185.995 192.991 188.527  1.00  0.00     0.004 C 
ATOM     24  C   UNL     1     185.802 191.711 189.353  1.00  0.00    -0.002 C 
ATOM     25  C   UNL     1     185.380 191.277 191.868  1.00  0.00     0.010 C 
ATOM     26  C   UNL     1     187.605 190.692 190.841  1.00  0.00     0.012 C 
ATOM     27  C   UNL     1     184.298 191.314 189.334  1.00  0.00     0.036 C 
ATOM     28  C   UNL     1     184.654 189.971 191.499  1.00  0.00     0.032 C 
ATOM     29  C   UNL     1     184.010 190.008 190.097  1.00  0.00     0.114 C 
BRANCH  29  30
ATOM     30  O   UNL     1     184.381 188.885 189.329  1.00  0.00    -0.393 OA
ATOM     31  H   UNL     1     184.517 189.189 188.397  1.00  0.00     0.210 HD
ENDBRANCH  29  30
ENDBRANCH   1  11
TORSDOF 6
ENDMDL
MODEL 2
REMARK VINA RESULT:    -7.203      0.918      1.559
REMARK INTER + INTRA:         -11.201
REMARK INTER:                  -9.590
REMARK INTRA:                  -1.611
REMARK UNBOUND:                -1.683
REMARK SMILES CC[C@H](C=C[C@H](C)[C@H]1CC[C@H]2[C@@H]3CC[C@@H]4C[C@@H](O)CC[C@]4(C)[C@@H]3CC[C@]12C)C(C)C
REMARK SMILES IDX 6 1 7 2 5 3 4 4 3 5 2 6 1 7 28 8 29 9 30 10 8 11 9 12 26 13
REMARK SMILES IDX 10 14 11 15 25 16 27 17 12 18 24 19 23 20 13 21 21 22 14 23
REMARK SMILES IDX 15 24 20 25 22 26 16 27 19 28 17 29 18 30
REMARK H PARENT 18 31
REMARK Flexibility Score: inf
ROOT
ATOM      1  C   UNL     1     188.729 197.947 192.878  1.00  0.00     0.012 C 
ATOM      2  C   UNL     1     189.278 199.275 192.324  1.00  0.00     0.012 C 
ENDROOT
BRANCH   1   3
ATOM      3  C   UNL     1     188.096 198.246 194.219  1.00  0.00    -0.028 C 
ATOM      4  C   UNL     1     186.777 198.114 194.431  1.00  0.00    -0.027 C 
BRANCH   4   5
ATOM      5  C   UNL     1     186.140 198.416 195.776  1.00  0.00     0.014 C 
BRANCH   5   6
ATOM      6  C   UNL     1     185.224 197.218 196.163  1.00  0.00     0.004 C 
ATOM      7  C   UNL     1     185.424 195.998 195.257  1.00  0.00     0.004 C 
ENDBRANCH   5   6
BRANCH   5   8
ATOM      8  C   UNL     1     187.254 198.696 196.833  1.00  0.00    -0.011 C 
ATOM      9  C   UNL     1     187.233 197.681 197.993  1.00  0.00     0.008 C 
ATOM     10  C   UNL     1     187.133 200.119 197.413  1.00  0.00     0.008 C 
ENDBRANCH   5   8
ENDBRANCH   4   5
ENDBRANCH   1   3
BRANCH   1  11
ATOM     11  C   UNL     1     187.692 197.198 191.976  1.00  0.00     0.002 C 
ATOM     12  C   UNL     1     187.300 197.876 190.641  1.00  0.00     0.005 C 
ATOM     13  C   UNL     1     187.982 195.721 191.597  1.00  0.00    -0.026 C 
ATOM     14  C   UNL     1     186.821 196.741 189.717  1.00  0.00     0.005 C 
ATOM     15  C   UNL     1     186.841 195.485 190.591  1.00  0.00    -0.001 C 
ATOM     16  C   UNL     1     187.842 194.711 192.769  1.00  0.00     0.007 C 
ATOM     17  C   UNL     1     189.394 195.571 190.961  1.00  0.00     0.012 C 
ATOM     18  C   UNL     1     186.942 194.116 189.883  1.00  0.00    -0.004 C 
ATOM     19  C   UNL     1     187.056 193.423 192.408  1.00  0.00     0.005 C 
ATOM     20  C   UNL     1     187.166 192.943 190.915  1.00  0.00    -0.001 C 
ATOM     21  C   UNL     1     185.753 193.890 188.961  1.00  0.00     0.004 C 
ATOM     22  C   UNL     1     186.427 191.528 190.622  1.00  0.00    -0.026 C 
ATOM     23  C   UNL     1     185.954 192.571 188.236  1.00  0.00     0.004 C 
ATOM     24  C   UNL     1     185.733 191.385 189.183  1.00  0.00    -0.002 C 
ATOM     25  C   UNL     1     185.366 191.207 191.738  1.00  0.00     0.010 C 
ATOM     26  C   UNL     1     187.535 190.433 190.716  1.00  0.00     0.012 C 
ATOM     27  C   UNL     1     184.215 191.053 189.240  1.00  0.00     0.036 C 
ATOM     28  C   UNL     1     184.578 189.905 191.512  1.00  0.00     0.032 C 
ATOM     29  C   UNL     1     183.896 189.837 190.131  1.00  0.00     0.114 C 
BRANCH  29  30
ATOM     30  O   UNL     1     184.198 188.633 189.464  1.00  0.00    -0.393 OA
ATOM     31  H   UNL     1     183.874 187.886 190.027  1.00  0.00     0.210 HD
ENDBRANCH  29  30
ENDBRANCH   1  11
TORSDOF 6
ENDMDL
MODEL 3
REMARK VINA RESULT:    -7.139      1.141      1.582
REMARK INTER + INTRA:         -11.117
REMARK INTER:                  -9.966
REMARK INTRA:                  -1.151
REMARK UNBOUND:                -1.683
REMARK SMILES CC[C@H](C=C[C@H](C)[C@H]1CC[C@H]2[C@@H]3CC[C@@H]4C[C@@H](O)CC[C@]4(C)[C@@H]3CC[C@]12C)C(C)C
REMARK SMILES IDX 6 1 7 2 5 3 4 4 3 5 2 6 1 7 28 8 29 9 30 10 8 11 9 12 26 13
REMARK SMILES IDX 10 14 11 15 25 16 27 17 12 18 24 19 23 20 13 21 21 22 14 23
REMARK SMILES IDX 15 24 20 25 22 26 16 27 19 28 17 29 18 30
REMARK H PARENT 18 31
REMARK Flexibility Score: inf
ROOT
ATOM      1  C   UNL     1     187.579 196.938 192.883  1.00  0.00     0.012 C 
ATOM      2  C   UNL     1     187.820 198.443 192.666  1.00  0.00     0.012 C 
ENDROOT
BRANCH   1   3
ATOM      3  C   UNL     1     186.801 196.788 194.172  1.00  0.00    -0.028 C 
ATOM      4  C   UNL     1     186.807 197.734 195.124  1.00  0.00    -0.027 C 
BRANCH   4   5
ATOM      5  C   UNL     1     186.029 197.583 196.419  1.00  0.00     0.014 C 
BRANCH   5   6
ATOM      6  C   UNL     1     184.867 198.619 196.414  1.00  0.00     0.004 C 
ATOM      7  C   UNL     1     185.174 199.855 195.560  1.00  0.00     0.004 C 
ENDBRANCH   5   6
BRANCH   5   8
ATOM      8  C   UNL     1     185.530 196.111 196.563  1.00  0.00    -0.011 C 
ATOM      9  C   UNL     1     183.993 196.003 196.508  1.00  0.00     0.008 C 
ATOM     10  C   UNL     1     186.029 195.475 197.875  1.00  0.00     0.008 C 
ENDBRANCH   5   8
ENDBRANCH   4   5
ENDBRANCH   1   3
BRANCH   1  11
ATOM     11  C   UNL     1     186.823 196.186 191.737  1.00  0.00     0.002 C 
ATOM     12  C   UNL     1     186.713 196.910 190.374  1.00  0.00     0.005 C 
ATOM     13  C   UNL     1     187.277 194.744 191.382  1.00  0.00    -0.026 C 
ATOM     14  C   UNL     1     186.526 195.801 189.322  1.00  0.00     0.005 C 
ATOM     15  C   UNL     1     186.415 194.505 190.129  1.00  0.00    -0.001 C 
ATOM     16  C   UNL     1     186.928 193.673 192.451  1.00  0.00     0.007 C 
ATOM     17  C   UNL     1     188.804 194.693 191.088  1.00  0.00     0.012 C 
ATOM     18  C   UNL     1     186.755 193.179 189.415  1.00  0.00    -0.004 C 
ATOM     19  C   UNL     1     186.322 192.368 191.869  1.00  0.00     0.005 C 
ATOM     20  C   UNL     1     186.800 191.968 190.426  1.00  0.00    -0.001 C 
ATOM     21  C   UNL     1     185.826 192.943 188.233  1.00  0.00     0.004 C 
ATOM     22  C   UNL     1     186.232 190.537 189.916  1.00  0.00    -0.026 C 
ATOM     23  C   UNL     1     186.265 191.673 187.526  1.00  0.00     0.004 C 
ATOM     24  C   UNL     1     185.899 190.431 188.351  1.00  0.00    -0.002 C 
ATOM     25  C   UNL     1     184.961 190.111 190.742  1.00  0.00     0.010 C 
ATOM     26  C   UNL     1     187.349 189.491 190.226  1.00  0.00     0.012 C 
ATOM     27  C   UNL     1     184.430 190.026 188.039  1.00  0.00     0.036 C 
ATOM     28  C   UNL     1     184.323 188.786 190.290  1.00  0.00     0.032 C 
ATOM     29  C   UNL     1     183.983 188.755 188.785  1.00  0.00     0.114 C 
BRANCH  29  30
ATOM     30  O   UNL     1     184.500 187.600 188.163  1.00  0.00    -0.393 OA
ATOM     31  H   UNL     1     184.006 187.466 187.317  1.00  0.00     0.210 HD
ENDBRANCH  29  30
ENDBRANCH   1  11
TORSDOF 6
ENDMDL
MODEL 4
REMARK VINA RESULT:    -6.764      1.763      3.604
REMARK INTER + INTRA:         -10.622
REMARK INTER:                  -9.630
REMARK INTRA:                  -0.992
REMARK UNBOUND:                -1.683
REMARK SMILES CC[C@H](C=C[C@H](C)[C@H]1CC[C@H]2[C@@H]3CC[C@@H]4C[C@@H](O)CC[C@]4(C)[C@@H]3CC[C@]12C)C(C)C
REMARK SMILES IDX 6 1 7 2 5 3 4 4 3 5 2 6 1 7 28 8 29 9 30 10 8 11 9 12 26 13
REMARK SMILES IDX 10 14 11 15 25 16 27 17 12 18 24 19 23 20 13 21 21 22 14 23
REMARK SMILES IDX 15 24 20 25 22 26 16 27 19 28 17 29 18 30
REMARK H PARENT 18 31
REMARK Flexibility Score: inf
ROOT
ATOM      1  C   UNL     1     187.341 195.281 191.675  1.00  0.00     0.012 C 
ATOM      2  C   UNL     1     188.165 196.383 190.983  1.00  0.00     0.012 C 
ENDROOT
BRANCH   1   3
ATOM      3  C   UNL     1     186.437 195.959 192.680  1.00  0.00    -0.028 C 
ATOM      4  C   UNL     1     186.891 196.405 193.862  1.00  0.00    -0.027 C 
BRANCH   4   5
ATOM      5  C   UNL     1     185.984 197.084 194.873  1.00  0.00     0.014 C 
BRANCH   5   6
ATOM      6  C   UNL     1     185.697 196.077 196.025  1.00  0.00     0.004 C 
ATOM      7  C   UNL     1     184.213 196.011 196.403  1.00  0.00     0.004 C 
ENDBRANCH   5   6
BRANCH   5   8
ATOM      8  C   UNL     1     186.649 198.405 195.372  1.00  0.00    -0.011 C 
ATOM      9  C   UNL     1     185.618 199.523 195.624  1.00  0.00     0.008 C 
ATOM     10  C   UNL     1     187.705 198.915 194.371  1.00  0.00     0.008 C 
ENDBRANCH   5   8
ENDBRANCH   4   5
ENDBRANCH   1   3
BRANCH   1  11
ATOM     11  C   UNL     1     186.477 194.373 190.737  1.00  0.00     0.002 C 
ATOM     12  C   UNL     1     186.476 194.718 189.229  1.00  0.00     0.005 C 
ATOM     13  C   UNL     1     186.703 192.838 190.791  1.00  0.00    -0.026 C 
ATOM     14  C   UNL     1     186.120 193.409 188.498  1.00  0.00     0.005 C 
ATOM     15  C   UNL     1     185.813 192.406 189.612  1.00  0.00    -0.001 C 
ATOM     16  C   UNL     1     186.196 192.153 192.090  1.00  0.00     0.007 C 
ATOM     17  C   UNL     1     188.204 192.484 190.581  1.00  0.00     0.012 C 
ATOM     18  C   UNL     1     185.943 190.902 189.285  1.00  0.00    -0.004 C 
ATOM     19  C   UNL     1     185.395 190.846 191.847  1.00  0.00     0.005 C 
ATOM     20  C   UNL     1     185.804 190.011 190.580  1.00  0.00    -0.001 C 
ATOM     21  C   UNL     1     184.987 190.502 188.171  1.00  0.00     0.004 C 
ATOM     22  C   UNL     1     185.022 188.596 190.442  1.00  0.00    -0.026 C 
ATOM     23  C   UNL     1     185.224 189.039 187.840  1.00  0.00     0.004 C 
ATOM     24  C   UNL     1     184.673 188.130 188.948  1.00  0.00    -0.002 C 
ATOM     25  C   UNL     1     183.702 188.599 191.300  1.00  0.00     0.010 C 
ATOM     26  C   UNL     1     185.965 187.516 191.059  1.00  0.00     0.012 C 
ATOM     27  C   UNL     1     183.159 187.879 188.696  1.00  0.00     0.036 C 
ATOM     28  C   UNL     1     182.867 187.311 191.187  1.00  0.00     0.032 C 
ATOM     29  C   UNL     1     182.524 186.932 189.732  1.00  0.00     0.114 C 
BRANCH  29  30
ATOM     30  O   UNL     1     182.856 185.591 189.456  1.00  0.00    -0.393 OA
ATOM     31  H   UNL     1     183.325 185.226 190.247  1.00  0.00     0.210 HD
ENDBRANCH  29  30
ENDBRANCH   1  11
TORSDOF 6
ENDMDL
MODEL 5
REMARK VINA RESULT:    -6.672      4.282      9.876
REMARK INTER + INTRA:         -10.500
REMARK INTER:                  -9.562
REMARK INTRA:                  -0.938
REMARK UNBOUND:                -1.683
REMARK SMILES CC[C@H](C=C[C@H](C)[C@H]1CC[C@H]2[C@@H]3CC[C@@H]4C[C@@H](O)CC[C@]4(C)[C@@H]3CC[C@]12C)C(C)C
REMARK SMILES IDX 6 1 7 2 5 3 4 4 3 5 2 6 1 7 28 8 29 9 30 10 8 11 9 12 26 13
REMARK SMILES IDX 10 14 11 15 25 16 27 17 12 18 24 19 23 20 13 21 21 22 14 23
REMARK SMILES IDX 15 24 20 25 22 26 16 27 19 28 17 29 18 30
REMARK H PARENT 18 31
REMARK Flexibility Score: inf
ROOT
ATOM      1  C   UNL     1     184.345 186.589 190.653  1.00  0.00     0.012 C 
ATOM      2  C   UNL     1     183.184 185.878 189.933  1.00  0.00     0.012 C 
ENDROOT
BRANCH   1   3
ATOM      3  C   UNL     1     185.438 185.565 190.866  1.00  0.00    -0.028 C 
ATOM      4  C   UNL     1     185.332 184.586 191.778  1.00  0.00    -0.027 C 
BRANCH   4   5
ATOM      5  C   UNL     1     186.429 183.560 191.993  1.00  0.00     0.014 C 
BRANCH   5   6
ATOM      6  C   UNL     1     186.777 183.528 193.511  1.00  0.00     0.004 C 
ATOM      7  C   UNL     1     187.040 184.921 194.091  1.00  0.00     0.004 C 
ENDBRANCH   5   6
BRANCH   5   8
ATOM      8  C   UNL     1     185.966 182.173 191.447  1.00  0.00    -0.011 C 
ATOM      9  C   UNL     1     185.310 181.301 192.536  1.00  0.00     0.008 C 
ATOM     10  C   UNL     1     187.141 181.394 190.824  1.00  0.00     0.008 C 
ENDBRANCH   5   8
ENDBRANCH   4   5
ENDBRANCH   1   3
BRANCH   1  11
ATOM     11  C   UNL     1     184.946 187.839 189.927  1.00  0.00     0.002 C 
ATOM     12  C   UNL     1     184.345 188.211 188.550  1.00  0.00     0.005 C 
ATOM     13  C   UNL     1     185.007 189.181 190.706  1.00  0.00    -0.026 C 
ATOM     14  C   UNL     1     184.620 189.714 188.363  1.00  0.00     0.005 C 
ATOM     15  C   UNL     1     185.468 190.115 189.572  1.00  0.00    -0.001 C 
ATOM     16  C   UNL     1     186.055 189.218 191.853  1.00  0.00     0.007 C 
ATOM     17  C   UNL     1     183.611 189.562 191.278  1.00  0.00     0.012 C 
ATOM     18  C   UNL     1     185.473 191.602 189.989  1.00  0.00    -0.004 C 
ATOM     19  C   UNL     1     186.914 190.510 191.887  1.00  0.00     0.005 C 
ATOM     20  C   UNL     1     186.215 191.818 191.365  1.00  0.00    -0.001 C 
ATOM     21  C   UNL     1     186.013 192.480 188.869  1.00  0.00     0.004 C 
ATOM     22  C   UNL     1     187.112 193.158 191.537  1.00  0.00    -0.026 C 
ATOM     23  C   UNL     1     185.913 193.930 189.307  1.00  0.00     0.004 C 
ATOM     24  C   UNL     1     186.967 194.254 190.375  1.00  0.00    -0.002 C 
ATOM     25  C   UNL     1     188.634 192.796 191.714  1.00  0.00     0.010 C 
ATOM     26  C   UNL     1     186.645 193.826 192.868  1.00  0.00     0.012 C 
ATOM     27  C   UNL     1     188.306 194.621 189.675  1.00  0.00     0.036 C 
ATOM     28  C   UNL     1     189.569 194.012 191.832  1.00  0.00     0.032 C 
ATOM     29  C   UNL     1     189.418 195.012 190.667  1.00  0.00     0.114 C 
BRANCH  29  30
ATOM     30  O   UNL     1     189.230 196.328 191.137  1.00  0.00    -0.393 OA
ATOM     31  H   UNL     1     189.952 196.523 191.786  1.00  0.00     0.210 HD
ENDBRANCH  29  30
ENDBRANCH   1  11
TORSDOF 6
ENDMDL
MODEL 6
REMARK VINA RESULT:    -6.565      3.790      7.384
REMARK INTER + INTRA:         -10.359
REMARK INTER:                  -9.299
REMARK INTRA:                  -1.059
REMARK UNBOUND:                -1.683
REMARK SMILES CC[C@H](C=C[C@H](C)[C@H]1CC[C@H]2[C@@H]3CC[C@@H]4C[C@@H](O)CC[C@]4(C)[C@@H]3CC[C@]12C)C(C)C
REMARK SMILES IDX 6 1 7 2 5 3 4 4 3 5 2 6 1 7 28 8 29 9 30 10 8 11 9 12 26 13
REMARK SMILES IDX 10 14 11 15 25 16 27 17 12 18 24 19 23 20 13 21 21 22 14 23
REMARK SMILES IDX 15 24 20 25 22 26 16 27 19 28 17 29 18 30
REMARK H PARENT 18 31
REMARK Flexibility Score: inf
ROOT
ATOM      1  C   UNL     1     186.272 192.061 188.871  1.00  0.00     0.012 C 
ATOM      2  C   UNL     1     185.372 192.624 187.755  1.00  0.00     0.012 C 
ENDROOT
BRANCH   1   3
ATOM      3  C   UNL     1     186.680 193.223 189.749  1.00  0.00    -0.028 C 
ATOM      4  C   UNL     1     186.112 194.435 189.640  1.00  0.00    -0.027 C 
BRANCH   4   5
ATOM      5  C   UNL     1     186.523 195.602 190.519  1.00  0.00     0.014 C 
BRANCH   5   6
ATOM      6  C   UNL     1     187.351 195.046 191.714  1.00  0.00     0.004 C 
ATOM      7  C   UNL     1     186.713 195.347 193.074  1.00  0.00     0.004 C 
ENDBRANCH   5   6
BRANCH   5   8
ATOM      8  C   UNL     1     187.309 196.649 189.669  1.00  0.00    -0.011 C 
ATOM      9  C   UNL     1     188.721 196.158 189.292  1.00  0.00     0.008 C 
ATOM     10  C   UNL     1     187.429 197.996 190.408  1.00  0.00     0.008 C 
ENDBRANCH   5   8
ENDBRANCH   4   5
ENDBRANCH   1   3
BRANCH   1  11
ATOM     11  C   UNL     1     185.645 190.938 189.764  1.00  0.00     0.002 C 
ATOM     12  C   UNL     1     184.110 190.759 189.696  1.00  0.00     0.005 C 
ATOM     13  C   UNL     1     186.216 189.499 189.640  1.00  0.00    -0.026 C 
ATOM     14  C   UNL     1     183.837 189.302 190.114  1.00  0.00     0.005 C 
ATOM     15  C   UNL     1     185.203 188.745 190.521  1.00  0.00    -0.001 C 
ATOM     16  C   UNL     1     187.641 189.314 190.231  1.00  0.00     0.007 C 
ATOM     17  C   UNL     1     186.212 189.019 188.160  1.00  0.00     0.012 C 
ATOM     18  C   UNL     1     185.400 187.214 190.478  1.00  0.00    -0.004 C 
ATOM     19  C   UNL     1     187.805 188.044 191.108  1.00  0.00     0.005 C 
ATOM     20  C   UNL     1     186.908 186.814 190.715  1.00  0.00    -0.001 C 
ATOM     21  C   UNL     1     184.435 186.514 191.424  1.00  0.00     0.004 C 
ATOM     22  C   UNL     1     187.207 185.476 191.584  1.00  0.00    -0.026 C 
ATOM     23  C   UNL     1     184.620 185.015 191.273  1.00  0.00     0.004 C 
ATOM     24  C   UNL     1     185.936 184.557 191.916  1.00  0.00    -0.002 C 
ATOM     25  C   UNL     1     187.948 185.833 192.926  1.00  0.00     0.010 C 
ATOM     26  C   UNL     1     188.194 184.618 190.733  1.00  0.00     0.012 C 
ATOM     27  C   UNL     1     185.705 184.315 193.435  1.00  0.00     0.036 C 
ATOM     28  C   UNL     1     188.226 184.627 193.840  1.00  0.00     0.032 C 
ATOM     29  C   UNL     1     186.962 183.802 194.162  1.00  0.00     0.114 C 
BRANCH  29  30
ATOM     30  O   UNL     1     187.164 182.430 193.910  1.00  0.00    -0.393 OA
ATOM     31  H   UNL     1     186.276 181.992 193.895  1.00  0.00     0.210 HD
ENDBRANCH  29  30
ENDBRANCH   1  11
TORSDOF 6
ENDMDL
MODEL 7
REMARK VINA RESULT:    -6.417      6.808      9.670
REMARK INTER + INTRA:         -10.163
REMARK INTER:                  -8.732
REMARK INTRA:                  -1.430
REMARK UNBOUND:                -1.683
REMARK SMILES CC[C@H](C=C[C@H](C)[C@H]1CC[C@H]2[C@@H]3CC[C@@H]4C[C@@H](O)CC[C@]4(C)[C@@H]3CC[C@]12C)C(C)C
REMARK SMILES IDX 6 1 7 2 5 3 4 4 3 5 2 6 1 7 28 8 29 9 30 10 8 11 9 12 26 13
REMARK SMILES IDX 10 14 11 15 25 16 27 17 12 18 24 19 23 20 13 21 21 22 14 23
REMARK SMILES IDX 15 24 20 25 22 26 16 27 19 28 17 29 18 30
REMARK H PARENT 18 31
REMARK Flexibility Score: inf
ROOT
ATOM      1  C   UNL     1     184.953 188.901 190.596  1.00  0.00     0.012 C 
ATOM      2  C   UNL     1     183.447 189.047 190.881  1.00  0.00     0.012 C 
ENDROOT
BRANCH   1   3
ATOM      3  C   UNL     1     185.416 187.625 191.264  1.00  0.00    -0.028 C 
ATOM      4  C   UNL     1     185.831 186.560 190.559  1.00  0.00    -0.027 C 
BRANCH   4   5
ATOM      5  C   UNL     1     186.293 185.278 191.229  1.00  0.00     0.014 C 
BRANCH   5   6
ATOM      6  C   UNL     1     187.832 185.150 191.027  1.00  0.00     0.004 C 
ATOM      7  C   UNL     1     188.300 185.668 189.664  1.00  0.00     0.004 C 
ENDBRANCH   5   6
BRANCH   5   8
ATOM      8  C   UNL     1     185.875 185.290 192.732  1.00  0.00    -0.011 C 
ATOM      9  C   UNL     1     186.960 185.904 193.639  1.00  0.00     0.008 C 
ATOM     10  C   UNL     1     185.547 183.871 193.236  1.00  0.00     0.008 C 
ENDBRANCH   5   8
ENDBRANCH   4   5
ENDBRANCH   1   3
BRANCH   1  11
ATOM     11  C   UNL     1     185.371 188.872 189.088  1.00  0.00     0.002 C 
ATOM     12  C   UNL     1     184.255 189.114 188.043  1.00  0.00     0.005 C 
ATOM     13  C   UNL     1     186.541 189.786 188.634  1.00  0.00    -0.026 C 
ATOM     14  C   UNL     1     184.965 189.645 186.784  1.00  0.00     0.005 C 
ATOM     15  C   UNL     1     186.458 189.572 187.112  1.00  0.00    -0.001 C 
ATOM     16  C   UNL     1     187.943 189.342 189.134  1.00  0.00     0.007 C 
ATOM     17  C   UNL     1     186.294 191.264 189.054  1.00  0.00     0.012 C 
ATOM     18  C   UNL     1     187.415 190.494 186.326  1.00  0.00    -0.004 C 
ATOM     19  C   UNL     1     189.046 189.372 188.043  1.00  0.00     0.005 C 
ATOM     20  C   UNL     1     188.877 190.458 186.920  1.00  0.00    -0.001 C 
ATOM     21  C   UNL     1     187.362 190.192 184.835  1.00  0.00     0.004 C 
ATOM     22  C   UNL     1     190.118 190.526 185.877  1.00  0.00    -0.026 C 
ATOM     23  C   UNL     1     188.256 191.184 184.114  1.00  0.00     0.004 C 
ATOM     24  C   UNL     1     189.738 190.864 184.356  1.00  0.00    -0.002 C 
ATOM     25  C   UNL     1     190.954 189.193 185.912  1.00  0.00     0.010 C 
ATOM     26  C   UNL     1     191.053 191.665 186.388  1.00  0.00     0.012 C 
ATOM     27  C   UNL     1     190.202 189.792 183.330  1.00  0.00     0.036 C 
ATOM     28  C   UNL     1     192.124 189.148 184.914  1.00  0.00     0.032 C 
ATOM     29  C   UNL     1     191.696 189.439 183.460  1.00  0.00     0.114 C 
BRANCH  29  30
ATOM     30  O   UNL     1     192.501 190.438 182.875  1.00  0.00    -0.393 OA
ATOM     31  H   UNL     1     193.332 190.506 183.408  1.00  0.00     0.210 HD
ENDBRANCH  29  30
ENDBRANCH   1  11
TORSDOF 6
ENDMDL
MODEL 8
REMARK VINA RESULT:    -6.362      1.795      3.379
REMARK INTER + INTRA:         -10.089
REMARK INTER:                  -8.923
REMARK INTRA:                  -1.167
REMARK UNBOUND:                -1.683
REMARK SMILES CC[C@H](C=C[C@H](C)[C@H]1CC[C@H]2[C@@H]3CC[C@@H]4C[C@@H](O)CC[C@]4(C)[C@@H]3CC[C@]12C)C(C)C
REMARK SMILES IDX 6 1 7 2 5 3 4 4 3 5 2 6 1 7 28 8 29 9 30 10 8 11 9 12 26 13
REMARK SMILES IDX 10 14 11 15 25 16 27 17 12 18 24 19 23 20 13 21 21 22 14 23
REMARK SMILES IDX 15 24 20 25 22 26 16 27 19 28 17 29 18 30
REMARK H PARENT 18 31
REMARK Flexibility Score: inf
ROOT
ATOM      1  C   UNL     1     188.559 195.249 191.044  1.00  0.00     0.012 C 
ATOM      2  C   UNL     1     188.911 196.418 190.104  1.00  0.00     0.012 C 
ENDROOT
BRANCH   1   3
ATOM      3  C   UNL     1     188.351 195.829 192.425  1.00  0.00    -0.028 C 
ATOM      4  C   UNL     1     187.198 196.412 192.790  1.00  0.00    -0.027 C 
BRANCH   4   5
ATOM      5  C   UNL     1     186.989 196.996 194.175  1.00  0.00     0.014 C 
BRANCH   5   6
ATOM      6  C   UNL     1     186.764 198.530 194.029  1.00  0.00     0.004 C 
ATOM      7  C   UNL     1     187.811 199.360 194.779  1.00  0.00     0.004 C 
ENDBRANCH   5   6
BRANCH   5   8
ATOM      8  C   UNL     1     185.799 196.270 194.877  1.00  0.00    -0.011 C 
ATOM      9  C   UNL     1     185.272 197.052 196.097  1.00  0.00     0.008 C 
ATOM     10  C   UNL     1     186.193 194.850 195.326  1.00  0.00     0.008 C 
ENDBRANCH   5   8
ENDBRANCH   4   5
ENDBRANCH   1   3
BRANCH   1  11
ATOM     11  C   UNL     1     187.305 194.400 190.649  1.00  0.00     0.002 C 
ATOM     12  C   UNL     1     186.435 194.927 189.482  1.00  0.00     0.005 C 
ATOM     13  C   UNL     1     187.509 192.892 190.339  1.00  0.00    -0.026 C 
ATOM     14  C   UNL     1     185.713 193.695 188.906  1.00  0.00     0.005 C 
ATOM     15  C   UNL     1     186.097 192.541 189.834  1.00  0.00    -0.001 C 
ATOM     16  C   UNL     1     187.839 192.014 191.577  1.00  0.00     0.007 C 
ATOM     17  C   UNL     1     188.610 192.685 189.259  1.00  0.00     0.012 C 
ATOM     18  C   UNL     1     186.004 191.104 189.276  1.00  0.00    -0.004 C 
ATOM     19  C   UNL     1     187.035 190.688 191.649  1.00  0.00     0.005 C 
ATOM     20  C   UNL     1     186.631 190.051 190.270  1.00  0.00    -0.001 C 
ATOM     21  C   UNL     1     184.576 190.771 188.866  1.00  0.00     0.004 C 
ATOM     22  C   UNL     1     185.902 188.607 190.399  1.00  0.00    -0.026 C 
ATOM     23  C   UNL     1     184.567 189.383 188.249  1.00  0.00     0.004 C 
ATOM     24  C   UNL     1     184.750 188.304 189.325  1.00  0.00    -0.002 C 
ATOM     25  C   UNL     1     185.320 188.401 191.847  1.00  0.00     0.010 C 
ATOM     26  C   UNL     1     187.019 187.537 190.200  1.00  0.00     0.012 C 
ATOM     27  C   UNL     1     183.367 187.969 189.952  1.00  0.00     0.036 C 
ATOM     28  C   UNL     1     184.563 187.076 192.047  1.00  0.00     0.032 C 
ATOM     29  C   UNL     1     183.439 186.854 191.013  1.00  0.00     0.114 C 
BRANCH  29  30
ATOM     30  O   UNL     1     183.541 185.587 190.404  1.00  0.00    -0.393 OA
ATOM     31  H   UNL     1     183.458 184.903 191.114  1.00  0.00     0.210 HD
ENDBRANCH  29  30
ENDBRANCH   1  11
TORSDOF 6
ENDMDL
MODEL 9
REMARK VINA RESULT:    -6.275      3.761      9.181
REMARK INTER + INTRA:          -9.975
REMARK INTER:                  -8.365
REMARK INTRA:                  -1.610
REMARK UNBOUND:                -1.683
REMARK SMILES CC[C@H](C=C[C@H](C)[C@H]1CC[C@H]2[C@@H]3CC[C@@H]4C[C@@H](O)CC[C@]4(C)[C@@H]3CC[C@]12C)C(C)C
REMARK SMILES IDX 6 1 7 2 5 3 4 4 3 5 2 6 1 7 28 8 29 9 30 10 8 11 9 12 26 13
REMARK SMILES IDX 10 14 11 15 25 16 27 17 12 18 24 19 23 20 13 21 21 22 14 23
REMARK SMILES IDX 15 24 20 25 22 26 16 27 19 28 17 29 18 30
REMARK H PARENT 18 31
REMARK Flexibility Score: inf
ROOT
ATOM      1  C   UNL     1     186.551 189.796 188.067  1.00  0.00     0.012 C 
ATOM      2  C   UNL     1     185.229 189.165 187.592  1.00  0.00     0.012 C 
ENDROOT
BRANCH   1   3
ATOM      3  C   UNL     1     187.628 189.371 187.093  1.00  0.00    -0.028 C 
ATOM      4  C   UNL     1     188.392 190.261 186.440  1.00  0.00    -0.027 C 
BRANCH   4   5
ATOM      5  C   UNL     1     189.471 189.836 185.461  1.00  0.00     0.014 C 
BRANCH   5   6
ATOM      6  C   UNL     1     188.977 190.159 184.020  1.00  0.00     0.004 C 
ATOM      7  C   UNL     1     187.791 191.128 183.999  1.00  0.00     0.004 C 
ENDBRANCH   5   6
BRANCH   5   8
ATOM      8  C   UNL     1     190.814 190.547 185.817  1.00  0.00    -0.011 C 
ATOM      9  C   UNL     1     190.652 191.572 186.957  1.00  0.00     0.008 C 
ATOM     10  C   UNL     1     191.418 191.256 184.589  1.00  0.00     0.008 C 
ENDBRANCH   5   8
ENDBRANCH   4   5
ENDBRANCH   1   3
BRANCH   1  11
ATOM     11  C   UNL     1     186.564 191.355 188.199  1.00  0.00     0.002 C 
ATOM     12  C   UNL     1     185.329 192.118 187.662  1.00  0.00     0.005 C 
ATOM     13  C   UNL     1     186.829 191.971 189.600  1.00  0.00    -0.026 C 
ATOM     14  C   UNL     1     185.290 193.451 188.433  1.00  0.00     0.005 C 
ATOM     15  C   UNL     1     186.562 193.453 189.284  1.00  0.00    -0.001 C 
ATOM     16  C   UNL     1     188.288 191.815 190.111  1.00  0.00     0.007 C 
ATOM     17  C   UNL     1     185.852 191.389 190.662  1.00  0.00     0.012 C 
ATOM     18  C   UNL     1     186.585 194.346 190.544  1.00  0.00    -0.004 C 
ATOM     19  C   UNL     1     188.888 193.108 190.724  1.00  0.00     0.005 C 
ATOM     20  C   UNL     1     187.869 194.079 191.423  1.00  0.00    -0.001 C 
ATOM     21  C   UNL     1     186.400 195.811 190.177  1.00  0.00     0.004 C 
ATOM     22  C   UNL     1     188.563 195.351 192.151  1.00  0.00    -0.026 C 
ATOM     23  C   UNL     1     186.347 196.622 191.460  1.00  0.00     0.004 C 
ATOM     24  C   UNL     1     187.737 196.725 192.101  1.00  0.00    -0.002 C 
ATOM     25  C   UNL     1     190.010 195.601 191.585  1.00  0.00     0.010 C 
ATOM     26  C   UNL     1     188.723 194.958 193.653  1.00  0.00     0.012 C 
ATOM     27  C   UNL     1     188.511 197.910 191.455  1.00  0.00     0.036 C 
ATOM     28  C   UNL     1     190.726 196.824 192.184  1.00  0.00     0.032 C 
ATOM     29  C   UNL     1     189.906 198.126 192.071  1.00  0.00     0.114 C 
BRANCH  29  30
ATOM     30  O   UNL     1     189.809 198.785 193.314  1.00  0.00    -0.393 OA
ATOM     31  H   UNL     1     189.907 198.103 194.025  1.00  0.00     0.210 HD
ENDBRANCH  29  30
ENDBRANCH   1  11
TORSDOF 6
ENDMDL
