MODEL 1
REMARK VINA RESULT:    -5.065      0.000      0.000
REMARK INTER + INTRA:         -16.895
REMARK INTER:                 -12.762
REMARK INTRA:                  -4.133
REMARK UNBOUND:                -4.133
REMARK SMILES CCCCCCCCCCCCCCCCCCCCCCCCCCCC(=O)[O-]
REMARK SMILES IDX 15 1 16 2 17 3 18 4 19 5 20 6 21 7 22 8 23 9 24 10 25 11
REMARK SMILES IDX 26 12 27 13 28 14 29 15 30 16 14 17 13 18 12 19 11 20 10 21
REMARK SMILES IDX 9 22 8 23 7 24 6 25 5 26 4 27 3 28 2 29 1 30
REMARK H PARENT
REMARK Flexibility Score: inf
ROOT
ATOM      1  C   UNL     1      -5.352   6.328  16.315  1.00  0.00     0.000 C 
ENDROOT
BRANCH   1   2
ATOM      2  C   UNL     1      -5.635   5.052  17.123  1.00  0.00     0.000 C 
BRANCH   2   3
ATOM      3  C   UNL     1      -5.489   3.771  16.283  1.00  0.00     0.000 C 
BRANCH   3   4
ATOM      4  C   UNL     1      -4.663   2.686  16.991  1.00  0.00     0.000 C 
BRANCH   4   5
ATOM      5  C   UNL     1      -3.172   2.739  16.615  1.00  0.00     0.000 C 
BRANCH   5   6
ATOM      6  C   UNL     1      -2.910   3.589  15.361  1.00  0.00     0.000 C 
BRANCH   6   7
ATOM      7  C   UNL     1      -1.972   4.778  15.637  1.00  0.00     0.000 C 
BRANCH   7   8
ATOM      8  C   UNL     1      -0.898   4.450  16.687  1.00  0.00     0.000 C 
BRANCH   8   9
ATOM      9  C   UNL     1      -0.027   5.666  17.045  1.00  0.00     0.000 C 
BRANCH   9  10
ATOM     10  C   UNL     1      -0.214   6.126  18.504  1.00  0.00     0.000 C 
BRANCH  10  11
ATOM     11  C   UNL     1       0.539   7.416  18.879  1.00  0.00     0.000 C 
BRANCH  11  12
ATOM     12  C   UNL     1       0.557   7.679  20.395  1.00  0.00     0.006 C 
BRANCH  12  13
ATOM     13  C   UNL     1      -0.350   6.707  21.163  1.00  0.00     0.053 C 
BRANCH  13  14
ATOM     14  C   UNL     1      -0.040   6.698  22.629  1.00  0.00     0.041 C 
ATOM     15  O   UNL     1      -0.973   6.686  23.474  1.00  0.00    -0.550 OA
ATOM     16  O   UNL     1       1.280   6.670  23.061  1.00  0.00    -0.550 OA
ENDBRANCH  13  14
ENDBRANCH  12  13
ENDBRANCH  11  12
ENDBRANCH  10  11
ENDBRANCH   9  10
ENDBRANCH   8   9
ENDBRANCH   7   8
ENDBRANCH   6   7
ENDBRANCH   5   6
ENDBRANCH   4   5
ENDBRANCH   3   4
ENDBRANCH   2   3
ENDBRANCH   1   2
BRANCH   1  17
ATOM     17  C   UNL     1      -6.529   7.322  16.343  1.00  0.00     0.000 C 
BRANCH  17  18
ATOM     18  C   UNL     1      -7.863   6.666  15.929  1.00  0.00     0.000 C 
BRANCH  18  19
ATOM     19  C   UNL     1      -7.988   6.404  14.418  1.00  0.00     0.000 C 
BRANCH  19  20
ATOM     20  C   UNL     1      -8.252   4.926  14.090  1.00  0.00     0.000 C 
BRANCH  20  21
ATOM     21  C   UNL     1      -7.436   4.421  12.886  1.00  0.00     0.000 C 
BRANCH  21  22
ATOM     22  C   UNL     1      -5.945   4.823  12.874  1.00  0.00    -0.000 C 
BRANCH  22  23
ATOM     23  C   UNL     1      -5.388   5.249  11.504  1.00  0.00    -0.000 C 
BRANCH  23  24
ATOM     24  C   UNL     1      -6.488   5.709  10.531  1.00  0.00    -0.000 C 
BRANCH  24  25
ATOM     25  C   UNL     1      -6.424   7.217  10.239  1.00  0.00    -0.000 C 
BRANCH  25  26
ATOM     26  C   UNL     1      -6.721   8.076  11.482  1.00  0.00    -0.000 C 
BRANCH  26  27
ATOM     27  C   UNL     1      -5.567   9.031  11.828  1.00  0.00    -0.000 C 
BRANCH  27  28
ATOM     28  C   UNL     1      -5.130   8.925  13.301  1.00  0.00    -0.000 C 
BRANCH  28  29
ATOM     29  C   UNL     1      -3.955   7.955  13.498  1.00  0.00    -0.003 C 
ATOM     30  C   UNL     1      -2.957   7.994  12.342  1.00  0.00     0.004 C 
ENDBRANCH  28  29
ENDBRANCH  27  28
ENDBRANCH  26  27
ENDBRANCH  25  26
ENDBRANCH  24  25
ENDBRANCH  23  24
ENDBRANCH  22  23
ENDBRANCH  21  22
ENDBRANCH  20  21
ENDBRANCH  19  20
ENDBRANCH  18  19
ENDBRANCH  17  18
ENDBRANCH   1  17
TORSDOF 26
ENDMDL
MODEL 2
REMARK VINA RESULT:    -4.710      1.039      2.567
REMARK INTER + INTRA:         -16.001
REMARK INTER:                 -12.674
REMARK INTRA:                  -3.327
REMARK UNBOUND:                -4.133
REMARK SMILES CCCCCCCCCCCCCCCCCCCCCCCCCCCC(=O)[O-]
REMARK SMILES IDX 15 1 16 2 17 3 18 4 19 5 20 6 21 7 22 8 23 9 24 10 25 11
REMARK SMILES IDX 26 12 27 13 28 14 29 15 30 16 14 17 13 18 12 19 11 20 10 21
REMARK SMILES IDX 9 22 8 23 7 24 6 25 5 26 4 27 3 28 2 29 1 30
REMARK H PARENT
REMARK Flexibility Score: inf
ROOT
ATOM      1  C   UNL     1      -5.653   5.768  17.066  1.00  0.00     0.000 C 
ENDROOT
BRANCH   1   2
ATOM      2  C   UNL     1      -4.817   5.627  15.784  1.00  0.00     0.000 C 
BRANCH   2   3
ATOM      3  C   UNL     1      -4.717   4.171  15.295  1.00  0.00     0.000 C 
BRANCH   3   4
ATOM      4  C   UNL     1      -4.980   3.149  16.412  1.00  0.00     0.000 C 
BRANCH   4   5
ATOM      5  C   UNL     1      -3.688   2.695  17.113  1.00  0.00     0.000 C 
BRANCH   5   6
ATOM      6  C   UNL     1      -2.468   2.724  16.178  1.00  0.00     0.000 C 
BRANCH   6   7
ATOM      7  C   UNL     1      -1.269   3.471  16.791  1.00  0.00     0.000 C 
BRANCH   7   8
ATOM      8  C   UNL     1      -1.365   4.993  16.603  1.00  0.00     0.000 C 
BRANCH   8   9
ATOM      9  C   UNL     1      -0.110   5.732  17.098  1.00  0.00     0.000 C 
BRANCH   9  10
ATOM     10  C   UNL     1      -0.178   6.090  18.594  1.00  0.00     0.000 C 
BRANCH  10  11
ATOM     11  C   UNL     1       0.514   7.411  18.978  1.00  0.00     0.000 C 
BRANCH  11  12
ATOM     12  C   UNL     1       0.848   7.498  20.477  1.00  0.00     0.006 C 
BRANCH  12  13
ATOM     13  C   UNL     1      -0.224   6.832  21.351  1.00  0.00     0.053 C 
BRANCH  13  14
ATOM     14  C   UNL     1       0.297   6.499  22.715  1.00  0.00     0.041 C 
ATOM     15  O   UNL     1       1.496   6.742  23.013  1.00  0.00    -0.550 OA
ATOM     16  O   UNL     1      -0.551   5.948  23.668  1.00  0.00    -0.550 OA
ENDBRANCH  13  14
ENDBRANCH  12  13
ENDBRANCH  11  12
ENDBRANCH  10  11
ENDBRANCH   9  10
ENDBRANCH   8   9
ENDBRANCH   7   8
ENDBRANCH   6   7
ENDBRANCH   5   6
ENDBRANCH   4   5
ENDBRANCH   3   4
ENDBRANCH   2   3
ENDBRANCH   1   2
BRANCH   1  17
ATOM     17  C   UNL     1      -6.982   6.511  16.830  1.00  0.00     0.000 C 
BRANCH  17  18
ATOM     18  C   UNL     1      -7.642   6.126  15.489  1.00  0.00     0.000 C 
BRANCH  18  19
ATOM     19  C   UNL     1      -8.985   6.828  15.230  1.00  0.00     0.000 C 
BRANCH  19  20
ATOM     20  C   UNL     1      -8.910   7.854  14.088  1.00  0.00     0.000 C 
BRANCH  20  21
ATOM     21  C   UNL     1      -7.497   8.434  13.890  1.00  0.00     0.000 C 
BRANCH  21  22
ATOM     22  C   UNL     1      -7.171   8.925  12.463  1.00  0.00    -0.000 C 
BRANCH  22  23
ATOM     23  C   UNL     1      -5.672   9.051  12.136  1.00  0.00    -0.000 C 
BRANCH  23  24
ATOM     24  C   UNL     1      -4.808   8.032  12.900  1.00  0.00    -0.000 C 
BRANCH  24  25
ATOM     25  C   UNL     1      -3.626   7.517  12.063  1.00  0.00    -0.000 C 
BRANCH  25  26
ATOM     26  C   UNL     1      -3.959   7.418  10.562  1.00  0.00    -0.000 C 
BRANCH  26  27
ATOM     27  C   UNL     1      -4.598   6.071  10.188  1.00  0.00    -0.000 C 
BRANCH  27  28
ATOM     28  C   UNL     1      -6.120   6.174   9.977  1.00  0.00    -0.000 C 
BRANCH  28  29
ATOM     29  C   UNL     1      -6.898   5.117  10.774  1.00  0.00    -0.003 C 
ATOM     30  C   UNL     1      -6.219   4.754  12.094  1.00  0.00     0.004 C 
ENDBRANCH  28  29
ENDBRANCH  27  28
ENDBRANCH  26  27
ENDBRANCH  25  26
ENDBRANCH  24  25
ENDBRANCH  23  24
ENDBRANCH  22  23
ENDBRANCH  21  22
ENDBRANCH  20  21
ENDBRANCH  19  20
ENDBRANCH  18  19
ENDBRANCH  17  18
ENDBRANCH   1  17
TORSDOF 26
ENDMDL
MODEL 3
REMARK VINA RESULT:    -4.602      2.966      6.799
REMARK INTER + INTRA:         -15.730
REMARK INTER:                 -12.522
REMARK INTRA:                  -3.208
REMARK UNBOUND:                -4.133
REMARK SMILES CCCCCCCCCCCCCCCCCCCCCCCCCCCC(=O)[O-]
REMARK SMILES IDX 15 1 16 2 17 3 18 4 19 5 20 6 21 7 22 8 23 9 24 10 25 11
REMARK SMILES IDX 26 12 27 13 28 14 29 15 30 16 14 17 13 18 12 19 11 20 10 21
REMARK SMILES IDX 9 22 8 23 7 24 6 25 5 26 4 27 3 28 2 29 1 30
REMARK H PARENT
REMARK Flexibility Score: inf
ROOT
ATOM      1  C   UNL     1       0.814   8.739  18.555  1.00  0.00     0.000 C 
ENDROOT
BRANCH   1   2
ATOM      2  C   UNL     1       0.925   8.120  19.957  1.00  0.00     0.000 C 
BRANCH   2   3
ATOM      3  C   UNL     1       0.289   6.721  20.042  1.00  0.00     0.000 C 
BRANCH   3   4
ATOM      4  C   UNL     1      -0.514   6.355  18.784  1.00  0.00     0.000 C 
BRANCH   4   5
ATOM      5  C   UNL     1       0.201   5.311  17.909  1.00  0.00     0.000 C 
BRANCH   5   6
ATOM      6  C   UNL     1      -0.598   4.955  16.645  1.00  0.00     0.000 C 
BRANCH   6   7
ATOM      7  C   UNL     1      -1.260   3.567  16.733  1.00  0.00     0.000 C 
BRANCH   7   8
ATOM      8  C   UNL     1      -2.396   3.391  15.713  1.00  0.00     0.000 C 
BRANCH   8   9
ATOM      9  C   UNL     1      -3.732   3.010  16.373  1.00  0.00     0.000 C 
BRANCH   9  10
ATOM     10  C   UNL     1      -4.954   3.419  15.529  1.00  0.00     0.000 C 
BRANCH  10  11
ATOM     11  C   UNL     1      -4.704   4.572  14.540  1.00  0.00     0.000 C 
BRANCH  11  12
ATOM     12  C   UNL     1      -5.184   5.933  15.074  1.00  0.00     0.006 C 
BRANCH  12  13
ATOM     13  C   UNL     1      -6.103   5.786  16.294  1.00  0.00     0.053 C 
BRANCH  13  14
ATOM     14  C   UNL     1      -6.860   7.048  16.576  1.00  0.00     0.041 C 
ATOM     15  O   UNL     1      -8.057   7.167  16.206  1.00  0.00    -0.550 OA
ATOM     16  O   UNL     1      -6.251   8.082  17.277  1.00  0.00    -0.550 OA
ENDBRANCH  13  14
ENDBRANCH  12  13
ENDBRANCH  11  12
ENDBRANCH  10  11
ENDBRANCH   9  10
ENDBRANCH   8   9
ENDBRANCH   7   8
ENDBRANCH   6   7
ENDBRANCH   5   6
ENDBRANCH   4   5
ENDBRANCH   3   4
ENDBRANCH   2   3
ENDBRANCH   1   2
BRANCH   1  17
ATOM     17  C   UNL     1       2.174   8.838  17.839  1.00  0.00     0.000 C 
BRANCH  17  18
ATOM     18  C   UNL     1       2.039   9.327  16.382  1.00  0.00     0.000 C 
BRANCH  18  19
ATOM     19  C   UNL     1       0.747   8.868  15.686  1.00  0.00     0.000 C 
BRANCH  19  20
ATOM     20  C   UNL     1      -0.029  10.029  15.044  1.00  0.00     0.000 C 
BRANCH  20  21
ATOM     21  C   UNL     1      -0.335   9.798  13.553  1.00  0.00     0.000 C 
BRANCH  21  22
ATOM     22  C   UNL     1      -1.832   9.749  13.179  1.00  0.00    -0.000 C 
BRANCH  22  23
ATOM     23  C   UNL     1      -2.190   8.812  12.011  1.00  0.00    -0.000 C 
BRANCH  23  24
ATOM     24  C   UNL     1      -3.114   7.658  12.436  1.00  0.00    -0.000 C 
BRANCH  24  25
ATOM     25  C   UNL     1      -4.392   7.581  11.583  1.00  0.00    -0.000 C 
BRANCH  25  26
ATOM     26  C   UNL     1      -4.550   6.225  10.870  1.00  0.00    -0.000 C 
BRANCH  26  27
ATOM     27  C   UNL     1      -6.009   5.922  10.496  1.00  0.00    -0.000 C 
BRANCH  27  28
ATOM     28  C   UNL     1      -6.692   4.967  11.492  1.00  0.00    -0.000 C 
BRANCH  28  29
ATOM     29  C   UNL     1      -7.741   5.674  12.362  1.00  0.00    -0.003 C 
ATOM     30  C   UNL     1      -8.346   4.755  13.422  1.00  0.00     0.004 C 
ENDBRANCH  28  29
ENDBRANCH  27  28
ENDBRANCH  26  27
ENDBRANCH  25  26
ENDBRANCH  24  25
ENDBRANCH  23  24
ENDBRANCH  22  23
ENDBRANCH  21  22
ENDBRANCH  20  21
ENDBRANCH  19  20
ENDBRANCH  18  19
ENDBRANCH  17  18
ENDBRANCH   1  17
TORSDOF 26
ENDMDL
MODEL 4
REMARK VINA RESULT:    -4.595      2.472      7.244
REMARK INTER + INTRA:         -15.712
REMARK INTER:                 -12.407
REMARK INTRA:                  -3.305
REMARK UNBOUND:                -4.133
REMARK SMILES CCCCCCCCCCCCCCCCCCCCCCCCCCCC(=O)[O-]
REMARK SMILES IDX 15 1 16 2 17 3 18 4 19 5 20 6 21 7 22 8 23 9 24 10 25 11
REMARK SMILES IDX 26 12 27 13 28 14 29 15 30 16 14 17 13 18 12 19 11 20 10 21
REMARK SMILES IDX 9 22 8 23 7 24 6 25 5 26 4 27 3 28 2 29 1 30
REMARK H PARENT
REMARK Flexibility Score: inf
ROOT
ATOM      1  C   UNL     1      -7.066   4.183  13.199  1.00  0.00     0.000 C 
ENDROOT
BRANCH   1   2
ATOM      2  C   UNL     1      -7.550   5.110  12.073  1.00  0.00     0.000 C 
BRANCH   2   3
ATOM      3  C   UNL     1      -6.901   4.787  10.715  1.00  0.00     0.000 C 
BRANCH   3   4
ATOM      4  C   UNL     1      -6.210   6.005  10.081  1.00  0.00     0.000 C 
BRANCH   4   5
ATOM      5  C   UNL     1      -4.731   6.122  10.486  1.00  0.00     0.000 C 
BRANCH   5   6
ATOM      6  C   UNL     1      -4.102   7.454  10.044  1.00  0.00     0.000 C 
BRANCH   6   7
ATOM      7  C   UNL     1      -3.321   8.145  11.178  1.00  0.00     0.000 C 
BRANCH   7   8
ATOM      8  C   UNL     1      -3.472   7.419  12.524  1.00  0.00     0.000 C 
BRANCH   8   9
ATOM      9  C   UNL     1      -3.960   8.350  13.647  1.00  0.00     0.000 C 
BRANCH   9  10
ATOM     10  C   UNL     1      -5.403   8.842  13.431  1.00  0.00     0.000 C 
BRANCH  10  11
ATOM     11  C   UNL     1      -6.493   7.966  14.077  1.00  0.00     0.000 C 
BRANCH  11  12
ATOM     12  C   UNL     1      -5.993   7.207  15.318  1.00  0.00     0.006 C 
BRANCH  12  13
ATOM     13  C   UNL     1      -6.089   8.055  16.594  1.00  0.00     0.053 C 
BRANCH  13  14
ATOM     14  C   UNL     1      -6.415   7.220  17.795  1.00  0.00     0.041 C 
ATOM     15  O   UNL     1      -7.301   7.595  18.607  1.00  0.00    -0.550 OA
ATOM     16  O   UNL     1      -5.761   6.011  17.999  1.00  0.00    -0.550 OA
ENDBRANCH  13  14
ENDBRANCH  12  13
ENDBRANCH  11  12
ENDBRANCH  10  11
ENDBRANCH   9  10
ENDBRANCH   8   9
ENDBRANCH   7   8
ENDBRANCH   6   7
ENDBRANCH   5   6
ENDBRANCH   4   5
ENDBRANCH   3   4
ENDBRANCH   2   3
ENDBRANCH   1   2
BRANCH   1  17
ATOM     17  C   UNL     1      -5.606   3.729  13.008  1.00  0.00     0.000 C 
BRANCH  17  18
ATOM     18  C   UNL     1      -4.699   4.153  14.183  1.00  0.00     0.000 C 
BRANCH  18  19
ATOM     19  C   UNL     1      -5.192   3.672  15.558  1.00  0.00     0.000 C 
BRANCH  19  20
ATOM     20  C   UNL     1      -4.103   2.939  16.358  1.00  0.00     0.000 C 
BRANCH  20  21
ATOM     21  C   UNL     1      -2.676   3.325  15.928  1.00  0.00     0.000 C 
BRANCH  21  22
ATOM     22  C   UNL     1      -2.128   4.635  16.534  1.00  0.00    -0.000 C 
BRANCH  22  23
ATOM     23  C   UNL     1      -0.718   4.540  17.143  1.00  0.00    -0.000 C 
BRANCH  23  24
ATOM     24  C   UNL     1      -0.160   5.909  17.570  1.00  0.00    -0.000 C 
BRANCH  24  25
ATOM     25  C   UNL     1       0.139   5.980  19.077  1.00  0.00    -0.000 C 
BRANCH  25  26
ATOM     26  C   UNL     1       0.357   7.422  19.571  1.00  0.00    -0.000 C 
BRANCH  26  27
ATOM     27  C   UNL     1       0.569   8.415  18.417  1.00  0.00    -0.000 C 
BRANCH  27  28
ATOM     28  C   UNL     1       2.040   8.840  18.262  1.00  0.00    -0.000 C 
BRANCH  28  29
ATOM     29  C   UNL     1       2.457   8.994  16.792  1.00  0.00    -0.003 C 
ATOM     30  C   UNL     1       1.337   9.556  15.916  1.00  0.00     0.004 C 
ENDBRANCH  28  29
ENDBRANCH  27  28
ENDBRANCH  26  27
ENDBRANCH  25  26
ENDBRANCH  24  25
ENDBRANCH  23  24
ENDBRANCH  22  23
ENDBRANCH  21  22
ENDBRANCH  20  21
ENDBRANCH  19  20
ENDBRANCH  18  19
ENDBRANCH  17  18
ENDBRANCH   1  17
TORSDOF 26
ENDMDL
MODEL 5
REMARK VINA RESULT:    -4.525      3.065      7.514
REMARK INTER + INTRA:         -15.535
REMARK INTER:                 -11.442
REMARK INTRA:                  -4.093
REMARK UNBOUND:                -4.133
REMARK SMILES CCCCCCCCCCCCCCCCCCCCCCCCCCCC(=O)[O-]
REMARK SMILES IDX 15 1 16 2 17 3 18 4 19 5 20 6 21 7 22 8 23 9 24 10 25 11
REMARK SMILES IDX 26 12 27 13 28 14 29 15 30 16 14 17 13 18 12 19 11 20 10 21
REMARK SMILES IDX 9 22 8 23 7 24 6 25 5 26 4 27 3 28 2 29 1 30
REMARK H PARENT
REMARK Flexibility Score: inf
ROOT
ATOM      1  C   UNL     1      -6.309   7.240  15.593  1.00  0.00     0.000 C 
ENDROOT
BRANCH   1   2
ATOM      2  C   UNL     1      -7.570   6.750  16.322  1.00  0.00     0.000 C 
BRANCH   2   3
ATOM      3  C   UNL     1      -8.610   6.136  15.368  1.00  0.00     0.000 C 
BRANCH   3   4
ATOM      4  C   UNL     1      -8.535   6.723  13.949  1.00  0.00     0.000 C 
BRANCH   4   5
ATOM      5  C   UNL     1      -8.696   5.652  12.857  1.00  0.00     0.000 C 
BRANCH   5   6
ATOM      6  C   UNL     1      -7.632   4.546  12.955  1.00  0.00     0.000 C 
BRANCH   6   7
ATOM      7  C   UNL     1      -6.927   4.282  11.612  1.00  0.00     0.000 C 
BRANCH   7   8
ATOM      8  C   UNL     1      -5.701   5.186  11.403  1.00  0.00     0.000 C 
BRANCH   8   9
ATOM      9  C   UNL     1      -5.878   6.160  10.225  1.00  0.00     0.000 C 
BRANCH   9  10
ATOM     10  C   UNL     1      -5.951   7.632  10.674  1.00  0.00     0.000 C 
BRANCH  10  11
ATOM     11  C   UNL     1      -5.432   7.904  12.098  1.00  0.00     0.000 C 
BRANCH  11  12
ATOM     12  C   UNL     1      -4.498   9.125  12.171  1.00  0.00     0.006 C 
BRANCH  12  13
ATOM     13  C   UNL     1      -3.187   8.899  11.405  1.00  0.00     0.053 C 
BRANCH  13  14
ATOM     14  C   UNL     1      -2.033   8.672  12.333  1.00  0.00     0.041 C 
ATOM     15  O   UNL     1      -2.224   8.175  13.474  1.00  0.00    -0.550 OA
ATOM     16  O   UNL     1      -0.741   8.981  11.924  1.00  0.00    -0.550 OA
ENDBRANCH  13  14
ENDBRANCH  12  13
ENDBRANCH  11  12
ENDBRANCH  10  11
ENDBRANCH   9  10
ENDBRANCH   8   9
ENDBRANCH   7   8
ENDBRANCH   6   7
ENDBRANCH   5   6
ENDBRANCH   4   5
ENDBRANCH   3   4
ENDBRANCH   2   3
ENDBRANCH   1   2
BRANCH   1  17
ATOM     17  C   UNL     1      -5.046   6.459  16.001  1.00  0.00     0.000 C 
BRANCH  17  18
ATOM     18  C   UNL     1      -4.386   5.739  14.805  1.00  0.00     0.000 C 
BRANCH  18  19
ATOM     19  C   UNL     1      -4.640   4.223  14.771  1.00  0.00     0.000 C 
BRANCH  19  20
ATOM     20  C   UNL     1      -5.164   3.676  16.108  1.00  0.00     0.000 C 
BRANCH  20  21
ATOM     21  C   UNL     1      -4.162   2.743  16.812  1.00  0.00     0.000 C 
BRANCH  21  22
ATOM     22  C   UNL     1      -2.797   2.578  16.111  1.00  0.00    -0.000 C 
BRANCH  22  23
ATOM     23  C   UNL     1      -1.567   2.884  16.983  1.00  0.00    -0.000 C 
BRANCH  23  24
ATOM     24  C   UNL     1      -0.839   4.171  16.555  1.00  0.00    -0.000 C 
BRANCH  24  25
ATOM     25  C   UNL     1      -1.018   5.314  17.567  1.00  0.00    -0.000 C 
BRANCH  25  26
ATOM     26  C   UNL     1       0.105   6.364  17.482  1.00  0.00    -0.000 C 
BRANCH  26  27
ATOM     27  C   UNL     1       0.380   7.045  18.832  1.00  0.00    -0.000 C 
BRANCH  27  28
ATOM     28  C   UNL     1       0.965   8.461  18.676  1.00  0.00    -0.000 C 
BRANCH  28  29
ATOM     29  C   UNL     1       1.016   8.918  17.211  1.00  0.00    -0.003 C 
ATOM     30  C   UNL     1       2.444   9.085  16.694  1.00  0.00     0.004 C 
ENDBRANCH  28  29
ENDBRANCH  27  28
ENDBRANCH  26  27
ENDBRANCH  25  26
ENDBRANCH  24  25
ENDBRANCH  23  24
ENDBRANCH  22  23
ENDBRANCH  21  22
ENDBRANCH  20  21
ENDBRANCH  19  20
ENDBRANCH  18  19
ENDBRANCH  17  18
ENDBRANCH   1  17
TORSDOF 26
ENDMDL
MODEL 6
REMARK VINA RESULT:    -4.489      2.741      8.119
REMARK INTER + INTRA:         -15.445
REMARK INTER:                 -11.756
REMARK INTRA:                  -3.689
REMARK UNBOUND:                -4.133
REMARK SMILES CCCCCCCCCCCCCCCCCCCCCCCCCCCC(=O)[O-]
REMARK SMILES IDX 15 1 16 2 17 3 18 4 19 5 20 6 21 7 22 8 23 9 24 10 25 11
REMARK SMILES IDX 26 12 27 13 28 14 29 15 30 16 14 17 13 18 12 19 11 20 10 21
REMARK SMILES IDX 9 22 8 23 7 24 6 25 5 26 4 27 3 28 2 29 1 30
REMARK H PARENT
REMARK Flexibility Score: inf
ROOT
ATOM      1  C   UNL     1      -6.225   7.442  15.798  1.00  0.00     0.000 C 
ENDROOT
BRANCH   1   2
ATOM      2  C   UNL     1      -7.442   6.883  16.551  1.00  0.00     0.000 C 
BRANCH   2   3
ATOM      3  C   UNL     1      -8.514   6.310  15.608  1.00  0.00     0.000 C 
BRANCH   3   4
ATOM      4  C   UNL     1      -8.561   7.033  14.252  1.00  0.00     0.000 C 
BRANCH   4   5
ATOM      5  C   UNL     1      -8.806   6.070  13.077  1.00  0.00     0.000 C 
BRANCH   5   6
ATOM      6  C   UNL     1      -8.061   4.735  13.244  1.00  0.00     0.000 C 
BRANCH   6   7
ATOM      7  C   UNL     1      -7.485   4.208  11.917  1.00  0.00     0.000 C 
BRANCH   7   8
ATOM      8  C   UNL     1      -6.251   5.000  11.455  1.00  0.00     0.000 C 
BRANCH   8   9
ATOM      9  C   UNL     1      -6.521   5.832  10.189  1.00  0.00     0.000 C 
BRANCH   9  10
ATOM     10  C   UNL     1      -6.400   7.348  10.432  1.00  0.00     0.000 C 
BRANCH  10  11
ATOM     11  C   UNL     1      -5.736   7.741  11.765  1.00  0.00     0.000 C 
BRANCH  11  12
ATOM     12  C   UNL     1      -4.686   8.854  11.605  1.00  0.00     0.006 C 
BRANCH  12  13
ATOM     13  C   UNL     1      -3.258   8.342  11.839  1.00  0.00     0.053 C 
BRANCH  13  14
ATOM     14  C   UNL     1      -2.837   8.499  13.269  1.00  0.00     0.041 C 
ATOM     15  O   UNL     1      -2.175   7.593  13.838  1.00  0.00    -0.550 OA
ATOM     16  O   UNL     1      -3.150   9.662  13.962  1.00  0.00    -0.550 OA
ENDBRANCH  13  14
ENDBRANCH  12  13
ENDBRANCH  11  12
ENDBRANCH  10  11
ENDBRANCH   9  10
ENDBRANCH   8   9
ENDBRANCH   7   8
ENDBRANCH   6   7
ENDBRANCH   5   6
ENDBRANCH   4   5
ENDBRANCH   3   4
ENDBRANCH   2   3
ENDBRANCH   1   2
BRANCH   1  17
ATOM     17  C   UNL     1      -4.985   6.535  15.917  1.00  0.00     0.000 C 
BRANCH  17  18
ATOM     18  C   UNL     1      -4.811   5.612  14.693  1.00  0.00     0.000 C 
BRANCH  18  19
ATOM     19  C   UNL     1      -4.840   4.112  15.032  1.00  0.00     0.000 C 
BRANCH  19  20
ATOM     20  C   UNL     1      -4.216   3.798  16.401  1.00  0.00     0.000 C 
BRANCH  20  21
ATOM     21  C   UNL     1      -2.735   3.388  16.309  1.00  0.00     0.000 C 
BRANCH  21  22
ATOM     22  C   UNL     1      -1.742   4.533  16.011  1.00  0.00    -0.000 C 
BRANCH  22  23
ATOM     23  C   UNL     1      -0.671   4.774  17.089  1.00  0.00    -0.000 C 
BRANCH  23  24
ATOM     24  C   UNL     1       0.229   5.982  16.774  1.00  0.00    -0.000 C 
BRANCH  24  25
ATOM     25  C   UNL     1       0.448   6.888  17.997  1.00  0.00    -0.000 C 
BRANCH  25  26
ATOM     26  C   UNL     1       0.032   6.214  19.318  1.00  0.00    -0.000 C 
BRANCH  26  27
ATOM     27  C   UNL     1       0.086   7.177  20.515  1.00  0.00    -0.000 C 
BRANCH  27  28
ATOM     28  C   UNL     1       1.254   6.872  21.470  1.00  0.00    -0.000 C 
BRANCH  28  29
ATOM     29  C   UNL     1       0.788   6.629  22.913  1.00  0.00    -0.003 C 
ATOM     30  C   UNL     1      -0.733   6.543  23.035  1.00  0.00     0.004 C 
ENDBRANCH  28  29
ENDBRANCH  27  28
ENDBRANCH  26  27
ENDBRANCH  25  26
ENDBRANCH  24  25
ENDBRANCH  23  24
ENDBRANCH  22  23
ENDBRANCH  21  22
ENDBRANCH  20  21
ENDBRANCH  19  20
ENDBRANCH  18  19
ENDBRANCH  17  18
ENDBRANCH   1  17
TORSDOF 26
ENDMDL
MODEL 7
REMARK VINA RESULT:    -4.263      2.426      8.356
REMARK INTER + INTRA:         -14.875
REMARK INTER:                 -11.794
REMARK INTRA:                  -3.081
REMARK UNBOUND:                -4.133
REMARK SMILES CCCCCCCCCCCCCCCCCCCCCCCCCCCC(=O)[O-]
REMARK SMILES IDX 15 1 16 2 17 3 18 4 19 5 20 6 21 7 22 8 23 9 24 10 25 11
REMARK SMILES IDX 26 12 27 13 28 14 29 15 30 16 14 17 13 18 12 19 11 20 10 21
REMARK SMILES IDX 9 22 8 23 7 24 6 25 5 26 4 27 3 28 2 29 1 30
REMARK H PARENT
REMARK Flexibility Score: inf
ROOT
ATOM      1  C   UNL     1      -4.214   3.805  14.490  1.00  0.00     0.000 C 
ENDROOT
BRANCH   1   2
ATOM      2  C   UNL     1      -5.742   3.812  14.655  1.00  0.00     0.000 C 
BRANCH   2   3
ATOM      3  C   UNL     1      -6.482   4.086  13.333  1.00  0.00     0.000 C 
BRANCH   3   4
ATOM      4  C   UNL     1      -7.932   4.549  13.549  1.00  0.00     0.000 C 
BRANCH   4   5
ATOM      5  C   UNL     1      -8.391   5.564  12.488  1.00  0.00     0.000 C 
BRANCH   5   6
ATOM      6  C   UNL     1      -7.696   5.356  11.133  1.00  0.00     0.000 C 
BRANCH   6   7
ATOM      7  C   UNL     1      -6.969   6.621  10.639  1.00  0.00     0.000 C 
BRANCH   7   8
ATOM      8  C   UNL     1      -5.452   6.558  10.873  1.00  0.00     0.000 C 
BRANCH   8   9
ATOM      9  C   UNL     1      -4.916   7.788  11.627  1.00  0.00     0.000 C 
BRANCH   9  10
ATOM     10  C   UNL     1      -5.772   8.157  12.853  1.00  0.00     0.000 C 
BRANCH  10  11
ATOM     11  C   UNL     1      -5.451   7.364  14.133  1.00  0.00     0.000 C 
BRANCH  11  12
ATOM     12  C   UNL     1      -5.765   8.149  15.418  1.00  0.00     0.006 C 
BRANCH  12  13
ATOM     13  C   UNL     1      -6.855   7.471  16.260  1.00  0.00     0.053 C 
BRANCH  13  14
ATOM     14  C   UNL     1      -6.286   6.808  17.477  1.00  0.00     0.041 C 
ATOM     15  O   UNL     1      -5.208   6.161  17.402  1.00  0.00    -0.550 OA
ATOM     16  O   UNL     1      -6.930   6.932  18.702  1.00  0.00    -0.550 OA
ENDBRANCH  13  14
ENDBRANCH  12  13
ENDBRANCH  11  12
ENDBRANCH  10  11
ENDBRANCH   9  10
ENDBRANCH   8   9
ENDBRANCH   7   8
ENDBRANCH   6   7
ENDBRANCH   5   6
ENDBRANCH   4   5
ENDBRANCH   3   4
ENDBRANCH   2   3
ENDBRANCH   1   2
BRANCH   1  17
ATOM     17  C   UNL     1      -3.473   3.629  15.829  1.00  0.00     0.000 C 
BRANCH  17  18
ATOM     18  C   UNL     1      -2.156   4.431  15.883  1.00  0.00     0.000 C 
BRANCH  18  19
ATOM     19  C   UNL     1      -1.153   3.917  16.930  1.00  0.00     0.000 C 
BRANCH  19  20
ATOM     20  C   UNL     1      -0.258   5.032  17.496  1.00  0.00     0.000 C 
BRANCH  20  21
ATOM     21  C   UNL     1      -0.254   6.302  16.625  1.00  0.00     0.000 C 
BRANCH  21  22
ATOM     22  C   UNL     1       1.043   7.137  16.669  1.00  0.00    -0.000 C 
BRANCH  22  23
ATOM     23  C   UNL     1       0.923   8.506  17.363  1.00  0.00    -0.000 C 
BRANCH  23  24
ATOM     24  C   UNL     1       2.232   8.946  18.041  1.00  0.00    -0.000 C 
BRANCH  24  25
ATOM     25  C   UNL     1       2.074   9.139  19.558  1.00  0.00    -0.000 C 
BRANCH  25  26
ATOM     26  C   UNL     1       0.761   8.542  20.099  1.00  0.00    -0.000 C 
BRANCH  26  27
ATOM     27  C   UNL     1       0.933   7.103  20.611  1.00  0.00    -0.000 C 
BRANCH  27  28
ATOM     28  C   UNL     1      -0.295   6.600  21.392  1.00  0.00    -0.000 C 
BRANCH  28  29
ATOM     29  C   UNL     1      -0.132   6.755  22.911  1.00  0.00    -0.003 C 
ATOM     30  C   UNL     1      -1.408   6.414  23.679  1.00  0.00     0.004 C 
ENDBRANCH  28  29
ENDBRANCH  27  28
ENDBRANCH  26  27
ENDBRANCH  25  26
ENDBRANCH  24  25
ENDBRANCH  23  24
ENDBRANCH  22  23
ENDBRANCH  21  22
ENDBRANCH  20  21
ENDBRANCH  19  20
ENDBRANCH  18  19
ENDBRANCH  17  18
ENDBRANCH   1  17
TORSDOF 26
ENDMDL
MODEL 8
REMARK VINA RESULT:    -4.186      2.143      2.733
REMARK INTER + INTRA:         -14.682
REMARK INTER:                 -10.875
REMARK INTRA:                  -3.808
REMARK UNBOUND:                -4.133
REMARK SMILES CCCCCCCCCCCCCCCCCCCCCCCCCCCC(=O)[O-]
REMARK SMILES IDX 15 1 16 2 17 3 18 4 19 5 20 6 21 7 22 8 23 9 24 10 25 11
REMARK SMILES IDX 26 12 27 13 28 14 29 15 30 16 14 17 13 18 12 19 11 20 10 21
REMARK SMILES IDX 9 22 8 23 7 24 6 25 5 26 4 27 3 28 2 29 1 30
REMARK H PARENT
REMARK Flexibility Score: inf
ROOT
ATOM      1  C   UNL     1      -5.970   5.845  18.039  1.00  0.00     0.000 C 
ENDROOT
BRANCH   1   2
ATOM      2  C   UNL     1      -4.851   5.563  17.024  1.00  0.00     0.000 C 
BRANCH   2   3
ATOM      3  C   UNL     1      -5.153   4.350  16.126  1.00  0.00     0.000 C 
BRANCH   3   4
ATOM      4  C   UNL     1      -4.418   3.078  16.577  1.00  0.00     0.000 C 
BRANCH   4   5
ATOM      5  C   UNL     1      -3.001   2.975  15.987  1.00  0.00     0.000 C 
BRANCH   5   6
ATOM      6  C   UNL     1      -1.979   2.432  16.999  1.00  0.00     0.000 C 
BRANCH   6   7
ATOM      7  C   UNL     1      -0.875   3.454  17.332  1.00  0.00     0.000 C 
BRANCH   7   8
ATOM      8  C   UNL     1      -1.089   4.802  16.626  1.00  0.00     0.000 C 
BRANCH   8   9
ATOM      9  C   UNL     1      -0.901   6.002  17.569  1.00  0.00     0.000 C 
BRANCH   9  10
ATOM     10  C   UNL     1       0.096   5.717  18.708  1.00  0.00     0.000 C 
BRANCH  10  11
ATOM     11  C   UNL     1       0.251   6.853  19.736  1.00  0.00     0.000 C 
BRANCH  11  12
ATOM     12  C   UNL     1       0.288   8.247  19.087  1.00  0.00     0.006 C 
BRANCH  12  13
ATOM     13  C   UNL     1       1.696   8.625  18.607  1.00  0.00     0.053 C 
BRANCH  13  14
ATOM     14  C   UNL     1       1.719   8.941  17.142  1.00  0.00     0.041 C 
ATOM     15  O   UNL     1       2.501   9.822  16.695  1.00  0.00    -0.550 OA
ATOM     16  O   UNL     1       0.898   8.241  16.267  1.00  0.00    -0.550 OA
ENDBRANCH  13  14
ENDBRANCH  12  13
ENDBRANCH  11  12
ENDBRANCH  10  11
ENDBRANCH   9  10
ENDBRANCH   8   9
ENDBRANCH   7   8
ENDBRANCH   6   7
ENDBRANCH   5   6
ENDBRANCH   4   5
ENDBRANCH   3   4
ENDBRANCH   2   3
ENDBRANCH   1   2
BRANCH   1  17
ATOM     17  C   UNL     1      -6.586   7.247  17.870  1.00  0.00     0.000 C 
BRANCH  17  18
ATOM     18  C   UNL     1      -6.966   7.551  16.406  1.00  0.00     0.000 C 
BRANCH  18  19
ATOM     19  C   UNL     1      -8.055   6.625  15.837  1.00  0.00     0.000 C 
BRANCH  19  20
ATOM     20  C   UNL     1      -8.074   6.603  14.301  1.00  0.00     0.000 C 
BRANCH  20  21
ATOM     21  C   UNL     1      -8.683   5.311  13.724  1.00  0.00     0.000 C 
BRANCH  21  22
ATOM     22  C   UNL     1      -7.707   4.125  13.568  1.00  0.00    -0.000 C 
BRANCH  22  23
ATOM     23  C   UNL     1      -6.491   4.386  12.661  1.00  0.00    -0.000 C 
BRANCH  23  24
ATOM     24  C   UNL     1      -6.872   4.503  11.175  1.00  0.00    -0.000 C 
BRANCH  24  25
ATOM     25  C   UNL     1      -6.250   5.738  10.502  1.00  0.00    -0.000 C 
BRANCH  25  26
ATOM     26  C   UNL     1      -6.983   7.044  10.862  1.00  0.00    -0.000 C 
BRANCH  26  27
ATOM     27  C   UNL     1      -6.025   8.237  11.008  1.00  0.00    -0.000 C 
BRANCH  27  28
ATOM     28  C   UNL     1      -5.864   8.694  12.470  1.00  0.00    -0.000 C 
BRANCH  28  29
ATOM     29  C   UNL     1      -4.450   8.439  13.014  1.00  0.00    -0.003 C 
ATOM     30  C   UNL     1      -4.318   7.081  13.701  1.00  0.00     0.004 C 
ENDBRANCH  28  29
ENDBRANCH  27  28
ENDBRANCH  26  27
ENDBRANCH  25  26
ENDBRANCH  24  25
ENDBRANCH  23  24
ENDBRANCH  22  23
ENDBRANCH  21  22
ENDBRANCH  20  21
ENDBRANCH  19  20
ENDBRANCH  18  19
ENDBRANCH  17  18
ENDBRANCH   1  17
TORSDOF 26
ENDMDL
MODEL 9
REMARK VINA RESULT:    -4.180      2.752      8.311
REMARK INTER + INTRA:         -14.667
REMARK INTER:                 -11.994
REMARK INTRA:                  -2.672
REMARK UNBOUND:                -4.133
REMARK SMILES CCCCCCCCCCCCCCCCCCCCCCCCCCCC(=O)[O-]
REMARK SMILES IDX 15 1 16 2 17 3 18 4 19 5 20 6 21 7 22 8 23 9 24 10 25 11
REMARK SMILES IDX 26 12 27 13 28 14 29 15 30 16 14 17 13 18 12 19 11 20 10 21
REMARK SMILES IDX 9 22 8 23 7 24 6 25 5 26 4 27 3 28 2 29 1 30
REMARK H PARENT
REMARK Flexibility Score: inf
ROOT
ATOM      1  C   UNL     1      -3.865   7.083  11.434  1.00  0.00     0.000 C 
ENDROOT
BRANCH   1   2
ATOM      2  C   UNL     1      -4.867   6.934  10.278  1.00  0.00     0.000 C 
BRANCH   2   3
ATOM      3  C   UNL     1      -6.033   5.988  10.619  1.00  0.00     0.000 C 
BRANCH   3   4
ATOM      4  C   UNL     1      -7.385   6.715  10.696  1.00  0.00     0.000 C 
BRANCH   4   5
ATOM      5  C   UNL     1      -7.346   7.939  11.626  1.00  0.00     0.000 C 
BRANCH   5   6
ATOM      6  C   UNL     1      -7.227   7.550  13.109  1.00  0.00     0.000 C 
BRANCH   6   7
ATOM      7  C   UNL     1      -6.109   8.319  13.836  1.00  0.00     0.000 C 
BRANCH   7   8
ATOM      8  C   UNL     1      -5.313   7.426  14.802  1.00  0.00     0.000 C 
BRANCH   8   9
ATOM      9  C   UNL     1      -6.166   6.913  15.975  1.00  0.00     0.000 C 
BRANCH   9  10
ATOM     10  C   UNL     1      -6.451   5.402  15.891  1.00  0.00     0.000 C 
BRANCH  10  11
ATOM     11  C   UNL     1      -5.825   4.689  14.677  1.00  0.00     0.000 C 
BRANCH  11  12
ATOM     12  C   UNL     1      -4.765   3.648  15.075  1.00  0.00     0.006 C 
BRANCH  12  13
ATOM     13  C   UNL     1      -3.995   4.059  16.338  1.00  0.00     0.053 C 
BRANCH  13  14
ATOM     14  C   UNL     1      -2.514   3.914  16.159  1.00  0.00     0.041 C 
ATOM     15  O   UNL     1      -1.835   4.869  15.699  1.00  0.00    -0.550 OA
ATOM     16  O   UNL     1      -1.881   2.734  16.530  1.00  0.00    -0.550 OA
ENDBRANCH  13  14
ENDBRANCH  12  13
ENDBRANCH  11  12
ENDBRANCH  10  11
ENDBRANCH   9  10
ENDBRANCH   8   9
ENDBRANCH   7   8
ENDBRANCH   6   7
ENDBRANCH   5   6
ENDBRANCH   4   5
ENDBRANCH   3   4
ENDBRANCH   2   3
ENDBRANCH   1   2
BRANCH   1  17
ATOM     17  C   UNL     1      -3.128   8.436  11.410  1.00  0.00     0.000 C 
BRANCH  17  18
ATOM     18  C   UNL     1      -2.204   8.625  12.631  1.00  0.00     0.000 C 
BRANCH  18  19
ATOM     19  C   UNL     1      -1.395   9.932  12.607  1.00  0.00     0.000 C 
BRANCH  19  20
ATOM     20  C   UNL     1      -0.056   9.819  13.354  1.00  0.00     0.000 C 
BRANCH  20  21
ATOM     21  C   UNL     1      -0.227   9.550  14.860  1.00  0.00     0.000 C 
BRANCH  21  22
ATOM     22  C   UNL     1       0.966   9.957  15.751  1.00  0.00    -0.000 C 
BRANCH  22  23
ATOM     23  C   UNL     1       1.362   8.934  16.830  1.00  0.00    -0.000 C 
BRANCH  23  24
ATOM     24  C   UNL     1       0.694   7.564  16.626  1.00  0.00    -0.000 C 
BRANCH  24  25
ATOM     25  C   UNL     1       0.479   6.809  17.948  1.00  0.00    -0.000 C 
BRANCH  25  26
ATOM     26  C   UNL     1       0.632   7.718  19.182  1.00  0.00    -0.000 C 
BRANCH  26  27
ATOM     27  C   UNL     1       0.216   7.018  20.486  1.00  0.00    -0.000 C 
BRANCH  27  28
ATOM     28  C   UNL     1       1.391   6.839  21.464  1.00  0.00    -0.000 C 
BRANCH  28  29
ATOM     29  C   UNL     1       0.935   6.787  22.930  1.00  0.00    -0.003 C 
ATOM     30  C   UNL     1      -0.539   6.411  23.076  1.00  0.00     0.004 C 
ENDBRANCH  28  29
ENDBRANCH  27  28
ENDBRANCH  26  27
ENDBRANCH  25  26
ENDBRANCH  24  25
ENDBRANCH  23  24
ENDBRANCH  22  23
ENDBRANCH  21  22
ENDBRANCH  20  21
ENDBRANCH  19  20
ENDBRANCH  18  19
ENDBRANCH  17  18
ENDBRANCH   1  17
TORSDOF 26
ENDMDL
