MODEL 1
REMARK VINA RESULT:    -4.059      0.000      0.000
REMARK INTER + INTRA:          -6.108
REMARK INTER:                  -6.195
REMARK INTRA:                   0.088
REMARK UNBOUND:                 0.088
REMARK SMILES CC1=CCC[C@@H](C)C(=O)C[C@H](C(C)C)C(=O)C1
REMARK SMILES IDX 8 1 9 2 6 3 7 4 5 5 4 6 3 7 2 8 1 9 10 11 11 12 15 13 16 14
REMARK SMILES IDX 17 15 12 17 13 18 14 19
REMARK H PARENT
REMARK Flexibility Score: 70.00
ROOT
ATOM      1  C   UNL     1     -13.377 -15.563  27.675  1.00  0.00     0.136 C 
ATOM      2  O   UNL     1     -14.190 -15.217  26.830  1.00  0.00    -0.299 OA
ENDROOT
BRANCH   1   3
ATOM      3  C   UNL     1     -12.626 -16.869  27.460  1.00  0.00     0.053 C 
ATOM      4  C   UNL     1     -11.786 -16.807  26.177  1.00  0.00     0.016 C 
BRANCH   3   5
ATOM      5  C   UNL     1     -13.561 -18.103  27.452  1.00  0.00     0.015 C 
BRANCH   5   6
ATOM      6  C   UNL     1     -13.485 -19.009  28.700  1.00  0.00     0.028 C 
BRANCH   6   7
ATOM      7  C   UNL     1     -12.151 -19.087  29.407  1.00  0.00    -0.028 C 
ATOM      8  C   UNL     1     -11.846 -18.547  30.611  1.00  0.00    -0.070 CG0
ATOM      9  C   UNL     1     -10.506 -18.886  31.215  1.00  0.00     0.039 C 
ATOM     10  G   UNL     1     -12.741 -17.571  31.350  1.00  0.00     0.000 G0
ENDBRANCH   6   7
ENDBRANCH   5   6
ENDBRANCH   3   5
ENDBRANCH   1   3
BRANCH   1  11
ATOM     11  C   UNL     1     -13.196 -14.676  28.899  1.00  0.00     0.087 C 
BRANCH  11  12
ATOM     12  C   UNL     1     -13.625 -15.343  30.232  1.00  0.00     0.066 C 
BRANCH  12  13
ATOM     13  C   UNL     1     -12.499 -16.152  30.850  1.00  0.00     0.140 C 
ATOM     14  O   UNL     1     -11.367 -15.693  30.884  1.00  0.00    -0.299 OA
BRANCH  13  15
ATOM     15  C   UNL     1     -12.737 -17.560  31.348  1.00  0.00     0.106 CG0
ATOM     16  G   UNL     1     -11.849 -18.532  30.597  1.00  0.00     0.000 G0
ENDBRANCH  13  15
ENDBRANCH  12  13
BRANCH  12  17
ATOM     17  C   UNL     1     -14.296 -14.337  31.221  1.00  0.00    -0.006 C 
ATOM     18  C   UNL     1     -15.265 -13.401  30.480  1.00  0.00     0.008 C 
ATOM     19  C   UNL     1     -15.016 -14.981  32.421  1.00  0.00     0.008 C 
ENDBRANCH  12  17
ENDBRANCH  11  12
ENDBRANCH   1  11
TORSDOF 1
ENDMDL
MODEL 2
REMARK VINA RESULT:    -3.453      1.929      3.529
REMARK INTER + INTRA:          -5.183
REMARK INTER:                  -6.156
REMARK INTRA:                   0.973
REMARK UNBOUND:                 0.088
REMARK SMILES CC1=CCC[C@@H](C)C(=O)C[C@H](C(C)C)C(=O)C1
REMARK SMILES IDX 8 1 9 2 6 3 7 4 5 5 4 6 3 7 2 8 1 9 10 11 11 12 15 13 16 14
REMARK SMILES IDX 17 15 12 17 13 18 14 19
REMARK H PARENT
REMARK Flexibility Score: 70.00
ROOT
ATOM      1  C   UNL     1     -13.214 -18.489  30.101  1.00  0.00     0.136 C 
ATOM      2  O   UNL     1     -13.684 -18.786  29.012  1.00  0.00    -0.299 OA
ENDROOT
BRANCH   1   3
ATOM      3  C   UNL     1     -12.031 -19.296  30.619  1.00  0.00     0.053 C 
ATOM      4  C   UNL     1     -12.496 -20.346  31.638  1.00  0.00     0.016 C 
BRANCH   3   5
ATOM      5  C   UNL     1     -10.912 -18.405  31.212  1.00  0.00     0.015 C 
BRANCH   5   6
ATOM      6  C   UNL     1     -10.047 -17.644  30.184  1.00  0.00     0.028 C 
BRANCH   6   7
ATOM      7  C   UNL     1     -10.480 -17.722  28.737  1.00  0.00    -0.028 C 
ATOM      8  C   UNL     1     -11.065 -16.734  28.018  1.00  0.00    -0.070 CG0
ATOM      9  C   UNL     1     -11.263 -16.962  26.540  1.00  0.00     0.039 C 
ATOM     10  G   UNL     1     -11.594 -15.449  28.624  1.00  0.00     0.000 G0
ENDBRANCH   6   7
ENDBRANCH   5   6
ENDBRANCH   3   5
ENDBRANCH   1   3
BRANCH   1  11
ATOM     11  C   UNL     1     -13.865 -17.354  30.877  1.00  0.00     0.087 C 
BRANCH  11  12
ATOM     12  C   UNL     1     -13.189 -15.974  30.666  1.00  0.00     0.066 C 
BRANCH  12  13
ATOM     13  C   UNL     1     -12.991 -15.657  29.195  1.00  0.00     0.140 C 
ATOM     14  O   UNL     1     -13.952 -15.647  28.440  1.00  0.00    -0.299 OA
BRANCH  13  15
ATOM     15  C   UNL     1     -11.607 -15.438  28.626  1.00  0.00     0.106 CG0
ATOM     16  G   UNL     1     -11.084 -16.729  28.027  1.00  0.00     0.000 G0
ENDBRANCH  13  15
ENDBRANCH  12  13
BRANCH  12  17
ATOM     17  C   UNL     1     -13.887 -14.830  31.470  1.00  0.00    -0.006 C 
ATOM     18  C   UNL     1     -14.724 -13.937  30.539  1.00  0.00     0.008 C 
ATOM     19  C   UNL     1     -14.754 -15.299  32.654  1.00  0.00     0.008 C 
ENDBRANCH  12  17
ENDBRANCH  11  12
ENDBRANCH   1  11
TORSDOF 1
ENDMDL
MODEL 3
REMARK VINA RESULT:    -3.309      1.985      4.738
REMARK INTER + INTRA:          -4.962
REMARK INTER:                  -6.415
REMARK INTRA:                   1.453
REMARK UNBOUND:                 0.088
REMARK SMILES CC1=CCC[C@@H](C)C(=O)C[C@H](C(C)C)C(=O)C1
REMARK SMILES IDX 8 1 9 2 6 3 7 4 5 5 4 6 3 7 2 8 1 9 10 11 11 12 15 13 16 14
REMARK SMILES IDX 17 15 12 17 13 18 14 19
REMARK H PARENT
REMARK Flexibility Score: 70.00
ROOT
ATOM      1  C   UNL     1     -12.968 -15.770  31.266  1.00  0.00     0.136 C 
ATOM      2  O   UNL     1     -11.782 -15.489  31.364  1.00  0.00    -0.299 OA
ENDROOT
BRANCH   1   3
ATOM      3  C   UNL     1     -13.989 -14.651  31.411  1.00  0.00     0.053 C 
ATOM      4  C   UNL     1     -15.043 -15.012  32.467  1.00  0.00     0.016 C 
BRANCH   3   5
ATOM      5  C   UNL     1     -14.657 -14.270  30.067  1.00  0.00     0.015 C 
BRANCH   5   6
ATOM      6  C   UNL     1     -13.692 -14.000  28.893  1.00  0.00     0.028 C 
BRANCH   6   7
ATOM      7  C   UNL     1     -13.726 -14.980  27.742  1.00  0.00    -0.028 C 
ATOM      8  C   UNL     1     -12.822 -15.957  27.491  1.00  0.00    -0.070 CG0
ATOM      9  C   UNL     1     -13.134 -16.935  26.384  1.00  0.00     0.039 C 
ATOM     10  G   UNL     1     -11.492 -16.082  28.207  1.00  0.00     0.000 G0
ENDBRANCH   6   7
ENDBRANCH   5   6
ENDBRANCH   3   5
ENDBRANCH   1   3
BRANCH   1  11
ATOM     11  C   UNL     1     -13.340 -17.228  31.037  1.00  0.00     0.087 C 
BRANCH  11  12
ATOM     12  C   UNL     1     -12.869 -17.795  29.672  1.00  0.00     0.066 C 
BRANCH  12  13
ATOM     13  C   UNL     1     -11.544 -17.196  29.236  1.00  0.00     0.140 C 
ATOM     14  O   UNL     1     -10.506 -17.563  29.767  1.00  0.00    -0.299 OA
BRANCH  13  15
ATOM     15  C   UNL     1     -11.493 -16.085  28.212  1.00  0.00     0.106 CG0
ATOM     16  G   UNL     1     -12.827 -15.976  27.500  1.00  0.00     0.000 G0
ENDBRANCH  13  15
ENDBRANCH  12  13
BRANCH  12  17
ATOM     17  C   UNL     1     -12.903 -19.356  29.623  1.00  0.00    -0.006 C 
ATOM     18  C   UNL     1     -12.958 -19.949  31.041  1.00  0.00     0.008 C 
ATOM     19  C   UNL     1     -14.032 -19.959  28.767  1.00  0.00     0.008 C 
ENDBRANCH  12  17
ENDBRANCH  11  12
ENDBRANCH   1  11
TORSDOF 1
ENDMDL
MODEL 4
REMARK VINA RESULT:    -3.053      1.718      3.446
REMARK INTER + INTRA:          -4.572
REMARK INTER:                  -5.540
REMARK INTRA:                   0.968
REMARK UNBOUND:                 0.088
REMARK SMILES CC1=CCC[C@@H](C)C(=O)C[C@H](C(C)C)C(=O)C1
REMARK SMILES IDX 8 1 9 2 6 3 7 4 5 5 4 6 3 7 2 8 1 9 10 11 11 12 15 13 16 14
REMARK SMILES IDX 17 15 12 17 13 18 14 19
REMARK H PARENT
REMARK Flexibility Score: 70.00
ROOT
ATOM      1  C   UNL     1     -12.813 -18.060  31.070  1.00  0.00     0.136 C 
ATOM      2  O   UNL     1     -11.618 -17.801  31.052  1.00  0.00    -0.299 OA
ENDROOT
BRANCH   1   3
ATOM      3  C   UNL     1     -13.236 -19.519  30.971  1.00  0.00     0.053 C 
ATOM      4  C   UNL     1     -12.253 -20.421  31.731  1.00  0.00     0.016 C 
BRANCH   3   5
ATOM      5  C   UNL     1     -13.408 -19.995  29.508  1.00  0.00     0.015 C 
BRANCH   5   6
ATOM      6  C   UNL     1     -14.054 -18.976  28.544  1.00  0.00     0.028 C 
BRANCH   6   7
ATOM      7  C   UNL     1     -13.141 -18.312  27.539  1.00  0.00    -0.028 C 
ATOM      8  C   UNL     1     -12.841 -16.993  27.474  1.00  0.00    -0.070 CG0
ATOM      9  C   UNL     1     -11.774 -16.562  26.498  1.00  0.00     0.039 C 
ATOM     10  G   UNL     1     -13.561 -15.923  28.270  1.00  0.00     0.000 G0
ENDBRANCH   6   7
ENDBRANCH   5   6
ENDBRANCH   3   5
ENDBRANCH   1   3
BRANCH   1  11
ATOM     11  C   UNL     1     -13.795 -16.901  31.160  1.00  0.00     0.087 C 
BRANCH  11  12
ATOM     12  C   UNL     1     -13.171 -15.517  30.839  1.00  0.00     0.066 C 
BRANCH  12  13
ATOM     13  C   UNL     1     -12.680 -15.434  29.405  1.00  0.00     0.140 C 
ATOM     14  O   UNL     1     -11.600 -14.917  29.160  1.00  0.00    -0.299 OA
BRANCH  13  15
ATOM     15  C   UNL     1     -13.546 -15.905  28.259  1.00  0.00     0.106 CG0
ATOM     16  G   UNL     1     -12.829 -16.990  27.480  1.00  0.00     0.000 G0
ENDBRANCH  13  15
ENDBRANCH  12  13
BRANCH  12  17
ATOM     17  C   UNL     1     -14.093 -14.328  31.260  1.00  0.00    -0.006 C 
ATOM     18  C   UNL     1     -14.823 -13.739  30.041  1.00  0.00     0.008 C 
ATOM     19  C   UNL     1     -15.114 -14.652  32.367  1.00  0.00     0.008 C 
ENDBRANCH  12  17
ENDBRANCH  11  12
ENDBRANCH   1  11
TORSDOF 1
ENDMDL
MODEL 5
REMARK VINA RESULT:    -3.019      1.738      3.766
REMARK INTER + INTRA:          -4.520
REMARK INTER:                  -5.067
REMARK INTRA:                   0.547
REMARK UNBOUND:                 0.088
REMARK SMILES CC1=CCC[C@@H](C)C(=O)C[C@H](C(C)C)C(=O)C1
REMARK SMILES IDX 8 1 9 2 6 3 7 4 5 5 4 6 3 7 2 8 1 9 10 11 11 12 15 13 16 14
REMARK SMILES IDX 17 15 12 17 13 18 14 19
REMARK H PARENT
REMARK Flexibility Score: 70.00
ROOT
ATOM      1  C   UNL     1     -11.622 -15.400  30.258  1.00  0.00     0.136 C 
ATOM      2  O   UNL     1     -10.948 -14.777  29.451  1.00  0.00    -0.299 OA
ENDROOT
BRANCH   1   3
ATOM      3  C   UNL     1     -10.901 -16.238  31.305  1.00  0.00     0.053 C 
ATOM      4  C   UNL     1      -9.875 -15.388  32.067  1.00  0.00     0.016 C 
BRANCH   3   5
ATOM      5  C   UNL     1     -10.239 -17.503  30.707  1.00  0.00     0.015 C 
BRANCH   5   6
ATOM      6  C   UNL     1     -11.099 -18.298  29.701  1.00  0.00     0.028 C 
BRANCH   6   7
ATOM      7  C   UNL     1     -10.973 -17.916  28.244  1.00  0.00    -0.028 C 
ATOM      8  C   UNL     1     -11.920 -17.315  27.485  1.00  0.00    -0.070 CG0
ATOM      9  C   UNL     1     -11.530 -16.868  26.098  1.00  0.00     0.039 C 
ATOM     10  G   UNL     1     -13.360 -17.131  27.920  1.00  0.00     0.000 G0
ENDBRANCH   6   7
ENDBRANCH   5   6
ENDBRANCH   3   5
ENDBRANCH   1   3
BRANCH   1  11
ATOM     11  C   UNL     1     -13.137 -15.318  30.140  1.00  0.00     0.087 C 
BRANCH  11  12
ATOM     12  C   UNL     1     -13.634 -14.674  28.819  1.00  0.00     0.066 C 
BRANCH  12  13
ATOM     13  C   UNL     1     -13.811 -15.703  27.717  1.00  0.00     0.140 C 
ATOM     14  O   UNL     1     -14.387 -15.396  26.684  1.00  0.00    -0.299 OA
BRANCH  13  15
ATOM     15  C   UNL     1     -13.362 -17.134  27.911  1.00  0.00     0.106 CG0
ATOM     16  G   UNL     1     -11.914 -17.283  27.488  1.00  0.00     0.000 G0
ENDBRANCH  13  15
ENDBRANCH  12  13
BRANCH  12  17
ATOM     17  C   UNL     1     -14.879 -13.753  29.028  1.00  0.00    -0.006 C 
ATOM     18  C   UNL     1     -15.211 -13.608  30.523  1.00  0.00     0.008 C 
ATOM     19  C   UNL     1     -14.775 -12.357  28.384  1.00  0.00     0.008 C 
ENDBRANCH  12  17
ENDBRANCH  11  12
ENDBRANCH   1  11
TORSDOF 1
ENDMDL
MODEL 6
REMARK VINA RESULT:    -2.960      1.865      3.725
REMARK INTER + INTRA:          -4.430
REMARK INTER:                  -4.468
REMARK INTRA:                   0.038
REMARK UNBOUND:                 0.088
REMARK SMILES CC1=CCC[C@@H](C)C(=O)C[C@H](C(C)C)C(=O)C1
REMARK SMILES IDX 8 1 9 2 6 3 7 4 5 5 4 6 3 7 2 8 1 9 10 11 11 12 15 13 16 14
REMARK SMILES IDX 17 15 12 17 13 18 14 19
REMARK H PARENT
REMARK Flexibility Score: 70.00
ROOT
ATOM      1  C   UNL     1     -11.919 -15.501  30.457  1.00  0.00     0.136 C 
ATOM      2  O   UNL     1     -12.339 -15.227  31.572  1.00  0.00    -0.299 OA
ENDROOT
BRANCH   1   3
ATOM      3  C   UNL     1     -10.415 -15.637  30.266  1.00  0.00     0.053 C 
ATOM      4  C   UNL     1      -9.957 -14.882  29.011  1.00  0.00     0.016 C 
BRANCH   3   5
ATOM      5  C   UNL     1      -9.946 -17.112  30.229  1.00  0.00     0.015 C 
BRANCH   5   6
ATOM      6  C   UNL     1     -10.329 -17.967  31.456  1.00  0.00     0.028 C 
BRANCH   6   7
ATOM      7  C   UNL     1     -10.951 -19.318  31.179  1.00  0.00    -0.028 C 
ATOM      8  C   UNL     1     -12.194 -19.546  30.691  1.00  0.00    -0.070 CG0
ATOM      9  C   UNL     1     -12.557 -20.965  30.330  1.00  0.00     0.039 C 
ATOM     10  G   UNL     1     -13.258 -18.475  30.555  1.00  0.00     0.000 G0
ENDBRANCH   6   7
ENDBRANCH   5   6
ENDBRANCH   3   5
ENDBRANCH   1   3
BRANCH   1  11
ATOM     11  C   UNL     1     -12.930 -15.656  29.330  1.00  0.00     0.087 C 
BRANCH  11  12
ATOM     12  C   UNL     1     -12.736 -16.938  28.478  1.00  0.00     0.066 C 
BRANCH  12  13
ATOM     13  C   UNL     1     -13.449 -18.134  29.082  1.00  0.00     0.140 C 
ATOM     14  O   UNL     1     -14.241 -18.775  28.407  1.00  0.00    -0.299 OA
BRANCH  13  15
ATOM     15  C   UNL     1     -13.262 -18.497  30.537  1.00  0.00     0.106 CG0
ATOM     16  G   UNL     1     -12.178 -19.548  30.674  1.00  0.00     0.000 G0
ENDBRANCH  13  15
ENDBRANCH  12  13
BRANCH  12  17
ATOM     17  C   UNL     1     -13.054 -16.711  26.965  1.00  0.00    -0.006 C 
ATOM     18  C   UNL     1     -13.899 -15.441  26.766  1.00  0.00     0.008 C 
ATOM     19  C   UNL     1     -11.825 -16.665  26.038  1.00  0.00     0.008 C 
ENDBRANCH  12  17
ENDBRANCH  11  12
ENDBRANCH   1  11
TORSDOF 1
ENDMDL
MODEL 7
REMARK VINA RESULT:    -2.762      1.566      3.300
REMARK INTER + INTRA:          -4.127
REMARK INTER:                  -5.567
REMARK INTRA:                   1.440
REMARK UNBOUND:                 0.088
REMARK SMILES CC1=CCC[C@@H](C)C(=O)C[C@H](C(C)C)C(=O)C1
REMARK SMILES IDX 8 1 9 2 6 3 7 4 5 5 4 6 3 7 2 8 1 9 10 11 11 12 15 13 16 14
REMARK SMILES IDX 17 15 12 17 13 18 14 19
REMARK H PARENT
REMARK Flexibility Score: 70.00
ROOT
ATOM      1  C   UNL     1     -10.635 -16.065  30.836  1.00  0.00     0.136 C 
ATOM      2  O   UNL     1      -9.986 -15.185  31.385  1.00  0.00    -0.299 OA
ENDROOT
BRANCH   1   3
ATOM      3  C   UNL     1      -9.890 -17.275  30.291  1.00  0.00     0.053 C 
ATOM      4  C   UNL     1     -10.137 -17.429  28.783  1.00  0.00     0.016 C 
BRANCH   3   5
ATOM      5  C   UNL     1     -10.236 -18.582  31.046  1.00  0.00     0.015 C 
BRANCH   5   6
ATOM      6  C   UNL     1     -11.740 -18.847  31.271  1.00  0.00     0.028 C 
BRANCH   6   7
ATOM      7  C   UNL     1     -12.456 -19.660  30.217  1.00  0.00    -0.028 C 
ATOM      8  C   UNL     1     -13.371 -19.201  29.331  1.00  0.00    -0.070 CG0
ATOM      9  C   UNL     1     -13.840 -20.144  28.251  1.00  0.00     0.039 C 
ATOM     10  G   UNL     1     -14.001 -17.824  29.404  1.00  0.00     0.000 G0
ENDBRANCH   6   7
ENDBRANCH   5   6
ENDBRANCH   3   5
ENDBRANCH   1   3
BRANCH   1  11
ATOM     11  C   UNL     1     -12.139 -15.871  30.710  1.00  0.00     0.087 C 
BRANCH  11  12
ATOM     12  C   UNL     1     -12.620 -15.580  29.264  1.00  0.00     0.066 C 
BRANCH  12  13
ATOM     13  C   UNL     1     -13.212 -16.812  28.604  1.00  0.00     0.140 C 
ATOM     14  O   UNL     1     -13.107 -16.965  27.396  1.00  0.00    -0.299 OA
BRANCH  13  15
ATOM     15  C   UNL     1     -14.009 -17.816  29.405  1.00  0.00     0.106 CG0
ATOM     16  G   UNL     1     -13.367 -19.186  29.303  1.00  0.00     0.000 G0
ENDBRANCH  13  15
ENDBRANCH  12  13
BRANCH  12  17
ATOM     17  C   UNL     1     -13.534 -14.316  29.176  1.00  0.00    -0.006 C 
ATOM     18  C   UNL     1     -14.365 -14.327  27.881  1.00  0.00     0.008 C 
ATOM     19  C   UNL     1     -14.463 -14.095  30.384  1.00  0.00     0.008 C 
ENDBRANCH  12  17
ENDBRANCH  11  12
ENDBRANCH   1  11
TORSDOF 1
ENDMDL
MODEL 8
REMARK VINA RESULT:    -2.633      1.714      4.142
REMARK INTER + INTRA:          -3.931
REMARK INTER:                  -5.333
REMARK INTRA:                   1.402
REMARK UNBOUND:                 0.088
REMARK SMILES CC1=CCC[C@@H](C)C(=O)C[C@H](C(C)C)C(=O)C1
REMARK SMILES IDX 8 1 9 2 6 3 7 4 5 5 4 6 3 7 2 8 1 9 10 11 11 12 15 13 16 14
REMARK SMILES IDX 17 15 12 17 13 18 14 19
REMARK H PARENT
REMARK Flexibility Score: 70.00
ROOT
ATOM      1  C   UNL     1     -12.884 -16.691  27.721  1.00  0.00     0.136 C 
ATOM      2  O   UNL     1     -13.084 -16.879  26.529  1.00  0.00    -0.299 OA
ENDROOT
BRANCH   1   3
ATOM      3  C   UNL     1     -11.693 -15.833  28.125  1.00  0.00     0.053 C 
ATOM      4  C   UNL     1     -10.602 -16.694  28.778  1.00  0.00     0.016 C 
BRANCH   3   5
ATOM      5  C   UNL     1     -12.090 -14.650  29.041  1.00  0.00     0.015 C 
BRANCH   5   6
ATOM      6  C   UNL     1     -13.508 -14.081  28.823  1.00  0.00     0.028 C 
BRANCH   6   7
ATOM      7  C   UNL     1     -14.431 -14.068  30.020  1.00  0.00    -0.028 C 
ATOM      8  C   UNL     1     -14.210 -14.672  31.213  1.00  0.00    -0.070 CG0
ATOM      9  C   UNL     1     -15.182 -14.394  32.332  1.00  0.00     0.039 C 
ATOM     10  G   UNL     1     -13.088 -15.660  31.464  1.00  0.00     0.000 G0
ENDBRANCH   6   7
ENDBRANCH   5   6
ENDBRANCH   3   5
ENDBRANCH   1   3
BRANCH   1  11
ATOM     11  C   UNL     1     -13.823 -17.355  28.718  1.00  0.00     0.087 C 
BRANCH  11  12
ATOM     12  C   UNL     1     -13.123 -17.859  30.007  1.00  0.00     0.066 C 
BRANCH  12  13
ATOM     13  C   UNL     1     -13.555 -17.073  31.232  1.00  0.00     0.140 C 
ATOM     14  O   UNL     1     -14.355 -17.560  32.017  1.00  0.00    -0.299 OA
BRANCH  13  15
ATOM     15  C   UNL     1     -13.079 -15.655  31.453  1.00  0.00     0.106 CG0
ATOM     16  G   UNL     1     -14.217 -14.683  31.210  1.00  0.00     0.000 G0
ENDBRANCH  13  15
ENDBRANCH  12  13
BRANCH  12  17
ATOM     17  C   UNL     1     -13.225 -19.408  30.183  1.00  0.00    -0.006 C 
ATOM     18  C   UNL     1     -13.278 -20.114  28.818  1.00  0.00     0.008 C 
ATOM     19  C   UNL     1     -12.121 -20.042  31.050  1.00  0.00     0.008 C 
ENDBRANCH  12  17
ENDBRANCH  11  12
ENDBRANCH   1  11
TORSDOF 1
ENDMDL
MODEL 9
REMARK VINA RESULT:    -2.609      1.524      4.064
REMARK INTER + INTRA:          -3.894
REMARK INTER:                  -4.616
REMARK INTRA:                   0.722
REMARK UNBOUND:                 0.088
REMARK SMILES CC1=CCC[C@@H](C)C(=O)C[C@H](C(C)C)C(=O)C1
REMARK SMILES IDX 8 1 9 2 6 3 7 4 5 5 4 6 3 7 2 8 1 9 10 11 11 12 15 13 16 14
REMARK SMILES IDX 17 15 12 17 13 18 14 19
REMARK H PARENT
REMARK Flexibility Score: 70.00
ROOT
ATOM      1  C   UNL     1     -13.608 -14.579  28.639  1.00  0.00     0.136 C 
ATOM      2  O   UNL     1     -12.542 -13.983  28.680  1.00  0.00    -0.299 OA
ENDROOT
BRANCH   1   3
ATOM      3  C   UNL     1     -14.768 -14.038  29.463  1.00  0.00     0.053 C 
ATOM      4  C   UNL     1     -15.138 -12.618  29.012  1.00  0.00     0.016 C 
BRANCH   3   5
ATOM      5  C   UNL     1     -14.495 -14.083  30.986  1.00  0.00     0.015 C 
BRANCH   5   6
ATOM      6  C   UNL     1     -14.164 -15.475  31.566  1.00  0.00     0.028 C 
BRANCH   6   7
ATOM      7  C   UNL     1     -12.716 -15.908  31.519  1.00  0.00    -0.028 C 
ATOM      8  C   UNL     1     -12.232 -17.037  30.948  1.00  0.00    -0.070 CG0
ATOM      9  C   UNL     1     -10.734 -17.196  30.864  1.00  0.00     0.039 C 
ATOM     10  G   UNL     1     -13.104 -18.174  30.455  1.00  0.00     0.000 G0
ENDBRANCH   6   7
ENDBRANCH   5   6
ENDBRANCH   3   5
ENDBRANCH   1   3
BRANCH   1  11
ATOM     11  C   UNL     1     -13.691 -15.840  27.791  1.00  0.00     0.087 C 
BRANCH  11  12
ATOM     12  C   UNL     1     -12.638 -16.919  28.156  1.00  0.00     0.066 C 
BRANCH  12  13
ATOM     13  C   UNL     1     -13.251 -18.071  28.932  1.00  0.00     0.140 C 
ATOM     14  O   UNL     1     -13.942 -18.896  28.353  1.00  0.00    -0.299 OA
BRANCH  13  15
ATOM     15  C   UNL     1     -13.094 -18.168  30.433  1.00  0.00     0.106 CG0
ATOM     16  G   UNL     1     -12.235 -17.025  30.938  1.00  0.00     0.000 G0
ENDBRANCH  13  15
ENDBRANCH  12  13
BRANCH  12  17
ATOM     17  C   UNL     1     -11.784 -17.369  26.928  1.00  0.00    -0.006 C 
ATOM     18  C   UNL     1     -12.117 -16.523  25.687  1.00  0.00     0.008 C 
ATOM     19  C   UNL     1     -10.261 -17.374  27.157  1.00  0.00     0.008 C 
ENDBRANCH  12  17
ENDBRANCH  11  12
ENDBRANCH   1  11
TORSDOF 1
ENDMDL
