MODEL 1
REMARK VINA RESULT:    -3.396      0.000      0.000
REMARK INTER + INTRA:          -4.775
REMARK INTER:                  -4.388
REMARK INTRA:                  -0.387
REMARK UNBOUND:                -0.387
REMARK SMILES CCCCCCC=O
REMARK SMILES IDX 4 1 3 2 2 3 1 4 5 5 6 6 7 7 8 8
REMARK H PARENT
REMARK Flexibility Score: inf
ROOT
ATOM      1  C   UNL     1     118.263 118.240 117.355  1.00  0.00     0.000 C 
ENDROOT
BRANCH   1   2
ATOM      2  C   UNL     1     119.767 118.036 117.599  1.00  0.00    -0.000 C 
BRANCH   2   3
ATOM      3  C   UNL     1     120.080 117.626 119.046  1.00  0.00    -0.003 C 
ATOM      4  C   UNL     1     121.234 118.426 119.651  1.00  0.00     0.004 C 
ENDBRANCH   2   3
ENDBRANCH   1   2
BRANCH   1   5
ATOM      5  C   UNL     1     117.865 119.706 117.582  1.00  0.00     0.008 C 
BRANCH   5   6
ATOM      6  C   UNL     1     117.159 119.926 118.928  1.00  0.00     0.072 C 
BRANCH   6   7
ATOM      7  C   UNL     1     118.000 120.711 119.893  1.00  0.00     0.224 C 
ATOM      8  O   UNL     1     118.997 121.303 119.512  1.00  0.00    -0.303 OA
ENDBRANCH   6   7
ENDBRANCH   5   6
ENDBRANCH   1   5
TORSDOF 5
ENDMDL
MODEL 2
REMARK VINA RESULT:    -3.387      1.964      3.727
REMARK INTER + INTRA:          -4.763
REMARK INTER:                  -4.377
REMARK INTRA:                  -0.387
REMARK UNBOUND:                -0.387
REMARK SMILES CCCCCCC=O
REMARK SMILES IDX 4 1 3 2 2 3 1 4 5 5 6 6 7 7 8 8
REMARK H PARENT
REMARK Flexibility Score: inf
ROOT
ATOM      1  C   UNL     1     119.383 119.345 117.453  1.00  0.00     0.000 C 
ENDROOT
BRANCH   1   2
ATOM      2  C   UNL     1     117.860 119.509 117.577  1.00  0.00    -0.000 C 
BRANCH   2   3
ATOM      3  C   UNL     1     117.432 120.015 118.963  1.00  0.00    -0.003 C 
ATOM      4  C   UNL     1     116.419 119.093 119.643  1.00  0.00     0.004 C 
ENDBRANCH   2   3
ENDBRANCH   1   2
BRANCH   1   5
ATOM      5  C   UNL     1     119.798 117.883 117.677  1.00  0.00     0.008 C 
BRANCH   5   6
ATOM      6  C   UNL     1     120.464 117.659 119.042  1.00  0.00     0.072 C 
BRANCH   6   7
ATOM      7  C   UNL     1     119.641 116.785 119.943  1.00  0.00     0.224 C 
ATOM      8  O   UNL     1     118.593 116.297 119.551  1.00  0.00    -0.303 OA
ENDBRANCH   6   7
ENDBRANCH   5   6
ENDBRANCH   1   5
TORSDOF 5
ENDMDL
MODEL 3
REMARK VINA RESULT:    -3.376      1.977      2.657
REMARK INTER + INTRA:          -4.750
REMARK INTER:                  -4.341
REMARK INTRA:                  -0.409
REMARK UNBOUND:                -0.387
REMARK SMILES CCCCCCC=O
REMARK SMILES IDX 4 1 3 2 2 3 1 4 5 5 6 6 7 7 8 8
REMARK H PARENT
REMARK Flexibility Score: inf
ROOT
ATOM      1  C   UNL     1     118.288 119.375 117.436  1.00  0.00     0.000 C 
ENDROOT
BRANCH   1   2
ATOM      2  C   UNL     1     118.189 117.847 117.569  1.00  0.00    -0.000 C 
BRANCH   2   3
ATOM      3  C   UNL     1     117.601 117.409 118.919  1.00  0.00    -0.003 C 
ATOM      4  C   UNL     1     118.477 116.384 119.641  1.00  0.00     0.004 C 
ENDBRANCH   2   3
ENDBRANCH   1   2
BRANCH   1   5
ATOM      5  C   UNL     1     119.729 119.853 117.670  1.00  0.00     0.008 C 
BRANCH   5   6
ATOM      6  C   UNL     1     119.957 120.366 119.099  1.00  0.00     0.072 C 
BRANCH   6   7
ATOM      7  C   UNL     1     120.815 119.437 119.909  1.00  0.00     0.224 C 
ATOM      8  O   UNL     1     121.332 118.458 119.395  1.00  0.00    -0.303 OA
ENDBRANCH   6   7
ENDBRANCH   5   6
ENDBRANCH   1   5
TORSDOF 5
ENDMDL
MODEL 4
REMARK VINA RESULT:    -3.355      2.002      2.673
REMARK INTER + INTRA:          -4.722
REMARK INTER:                  -4.331
REMARK INTRA:                  -0.391
REMARK UNBOUND:                -0.387
REMARK SMILES CCCCCCC=O
REMARK SMILES IDX 4 1 3 2 2 3 1 4 5 5 6 6 7 7 8 8
REMARK H PARENT
REMARK Flexibility Score: inf
ROOT
ATOM      1  C   UNL     1     119.321 118.214 117.414  1.00  0.00     0.000 C 
ENDROOT
BRANCH   1   2
ATOM      2  C   UNL     1     119.378 119.742 117.564  1.00  0.00    -0.000 C 
BRANCH   2   3
ATOM      3  C   UNL     1     119.967 120.183 118.913  1.00  0.00    -0.003 C 
ATOM      4  C   UNL     1     119.107 121.230 119.620  1.00  0.00     0.004 C 
ENDBRANCH   2   3
ENDBRANCH   1   2
BRANCH   1   5
ATOM      5  C   UNL     1     117.906 117.688 117.700  1.00  0.00     0.008 C 
BRANCH   5   6
ATOM      6  C   UNL     1     117.755 117.141 119.126  1.00  0.00     0.072 C 
BRANCH   6   7
ATOM      7  C   UNL     1     116.771 117.932 119.940  1.00  0.00     0.224 C 
ATOM      8  O   UNL     1     116.321 118.987 119.521  1.00  0.00    -0.303 OA
ENDBRANCH   6   7
ENDBRANCH   5   6
ENDBRANCH   1   5
TORSDOF 5
ENDMDL
MODEL 5
REMARK VINA RESULT:    -3.346      1.106      3.279
REMARK INTER + INTRA:          -4.710
REMARK INTER:                  -4.396
REMARK INTRA:                  -0.314
REMARK UNBOUND:                -0.387
REMARK SMILES CCCCCCC=O
REMARK SMILES IDX 4 1 3 2 2 3 1 4 5 5 6 6 7 7 8 8
REMARK H PARENT
REMARK Flexibility Score: inf
ROOT
ATOM      1  C   UNL     1     118.224 118.240 117.498  1.00  0.00     0.000 C 
ENDROOT
BRANCH   1   2
ATOM      2  C   UNL     1     117.820 119.710 117.689  1.00  0.00    -0.000 C 
BRANCH   2   3
ATOM      3  C   UNL     1     116.816 119.901 118.836  1.00  0.00    -0.003 C 
ATOM      4  C   UNL     1     116.672 118.655 119.711  1.00  0.00     0.004 C 
ENDBRANCH   2   3
ENDBRANCH   1   2
BRANCH   1   5
ATOM      5  C   UNL     1     119.750 118.076 117.581  1.00  0.00     0.008 C 
BRANCH   5   6
ATOM      6  C   UNL     1     120.218 117.583 118.958  1.00  0.00     0.072 C 
BRANCH   6   7
ATOM      7  C   UNL     1     121.207 118.518 119.593  1.00  0.00     0.224 C 
ATOM      8  O   UNL     1     120.892 119.665 119.868  1.00  0.00    -0.303 OA
ENDBRANCH   6   7
ENDBRANCH   5   6
ENDBRANCH   1   5
TORSDOF 5
ENDMDL
MODEL 6
REMARK VINA RESULT:    -3.345      2.183      3.530
REMARK INTER + INTRA:          -4.710
REMARK INTER:                  -4.389
REMARK INTRA:                  -0.321
REMARK UNBOUND:                -0.387
REMARK SMILES CCCCCCC=O
REMARK SMILES IDX 4 1 3 2 2 3 1 4 5 5 6 6 7 7 8 8
REMARK H PARENT
REMARK Flexibility Score: inf
ROOT
ATOM      1  C   UNL     1     117.548 118.580 118.720  1.00  0.00     0.000 C 
ENDROOT
BRANCH   1   2
ATOM      2  C   UNL     1     118.112 119.424 117.566  1.00  0.00    -0.000 C 
BRANCH   2   3
ATOM      3  C   UNL     1     119.072 118.629 116.668  1.00  0.00    -0.003 C 
ATOM      4  C   UNL     1     118.753 118.782 115.180  1.00  0.00     0.004 C 
ENDBRANCH   2   3
ENDBRANCH   1   2
BRANCH   1   5
ATOM      5  C   UNL     1     117.802 117.084 118.480  1.00  0.00     0.008 C 
BRANCH   5   6
ATOM      6  C   UNL     1     118.489 116.402 119.671  1.00  0.00     0.072 C 
BRANCH   6   7
ATOM      7  C   UNL     1     119.696 117.160 120.145  1.00  0.00     0.224 C 
ATOM      8  O   UNL     1     120.746 117.113 119.524  1.00  0.00    -0.303 OA
ENDBRANCH   6   7
ENDBRANCH   5   6
ENDBRANCH   1   5
TORSDOF 5
ENDMDL
MODEL 7
REMARK VINA RESULT:    -3.316      1.561      2.038
REMARK INTER + INTRA:          -4.672
REMARK INTER:                  -4.278
REMARK INTRA:                  -0.394
REMARK UNBOUND:                -0.387
REMARK SMILES CCCCCCC=O
REMARK SMILES IDX 4 1 3 2 2 3 1 4 5 5 6 6 7 7 8 8
REMARK H PARENT
REMARK Flexibility Score: inf
ROOT
ATOM      1  C   UNL     1     119.374 118.164 117.517  1.00  0.00     0.000 C 
ENDROOT
BRANCH   1   2
ATOM      2  C   UNL     1     117.918 117.708 117.703  1.00  0.00    -0.000 C 
BRANCH   2   3
ATOM      3  C   UNL     1     117.752 116.722 118.869  1.00  0.00    -0.003 C 
ATOM      4  C   UNL     1     118.984 116.663 119.774  1.00  0.00     0.004 C 
ENDBRANCH   2   3
ENDBRANCH   1   2
BRANCH   1   5
ATOM      5  C   UNL     1     119.466 119.696 117.462  1.00  0.00     0.008 C 
BRANCH   5   6
ATOM      6  C   UNL     1     119.953 120.308 118.783  1.00  0.00     0.072 C 
BRANCH   6   7
ATOM      7  C   UNL     1     118.831 120.903 119.585  1.00  0.00     0.224 C 
ATOM      8  O   UNL     1     118.055 120.188 120.198  1.00  0.00    -0.303 OA
ENDBRANCH   6   7
ENDBRANCH   5   6
ENDBRANCH   1   5
TORSDOF 5
ENDMDL
MODEL 8
REMARK VINA RESULT:    -3.314      1.598      2.696
REMARK INTER + INTRA:          -4.669
REMARK INTER:                  -4.396
REMARK INTRA:                  -0.273
REMARK UNBOUND:                -0.387
REMARK SMILES CCCCCCC=O
REMARK SMILES IDX 4 1 3 2 2 3 1 4 5 5 6 6 7 7 8 8
REMARK H PARENT
REMARK Flexibility Score: inf
ROOT
ATOM      1  C   UNL     1     120.009 119.037 118.734  1.00  0.00     0.000 C 
ENDROOT
BRANCH   1   2
ATOM      2  C   UNL     1     119.711 118.235 117.458  1.00  0.00    -0.000 C 
BRANCH   2   3
ATOM      3  C   UNL     1     118.578 118.852 116.624  1.00  0.00    -0.003 C 
ATOM      4  C   UNL     1     118.837 118.767 115.119  1.00  0.00     0.004 C 
ENDBRANCH   2   3
ENDBRANCH   1   2
BRANCH   1   5
ATOM      5  C   UNL     1     119.759 120.537 118.510  1.00  0.00     0.008 C 
BRANCH   5   6
ATOM      6  C   UNL     1     119.161 121.228 119.744  1.00  0.00     0.072 C 
BRANCH   6   7
ATOM      7  C   UNL     1     117.835 120.644 120.140  1.00  0.00     0.224 C 
ATOM      8  O   UNL     1     116.940 120.517 119.319  1.00  0.00    -0.303 OA
ENDBRANCH   6   7
ENDBRANCH   5   6
ENDBRANCH   1   5
TORSDOF 5
ENDMDL
MODEL 9
REMARK VINA RESULT:    -3.310      1.647      1.798
REMARK INTER + INTRA:          -4.664
REMARK INTER:                  -4.318
REMARK INTRA:                  -0.346
REMARK UNBOUND:                -0.387
REMARK SMILES CCCCCCC=O
REMARK SMILES IDX 4 1 3 2 2 3 1 4 5 5 6 6 7 7 8 8
REMARK H PARENT
REMARK Flexibility Score: inf
ROOT
ATOM      1  C   UNL     1     119.374 119.538 117.638  1.00  0.00     0.000 C 
ENDROOT
BRANCH   1   2
ATOM      2  C   UNL     1     119.741 118.047 117.679  1.00  0.00    -0.000 C 
BRANCH   2   3
ATOM      3  C   UNL     1     120.596 117.683 118.903  1.00  0.00    -0.003 C 
ATOM      4  C   UNL     1     121.058 118.911 119.688  1.00  0.00     0.004 C 
ENDBRANCH   2   3
ENDBRANCH   1   2
BRANCH   1   5
ATOM      5  C   UNL     1     117.853 119.731 117.733  1.00  0.00     0.008 C 
BRANCH   5   6
ATOM      6  C   UNL     1     117.383 120.032 119.163  1.00  0.00     0.072 C 
BRANCH   6   7
ATOM      7  C   UNL     1     116.434 118.991 119.683  1.00  0.00     0.224 C 
ATOM      8  O   UNL     1     116.827 117.868 119.954  1.00  0.00    -0.303 OA
ENDBRANCH   6   7
ENDBRANCH   5   6
ENDBRANCH   1   5
TORSDOF 5
ENDMDL
