MODEL 1
REMARK VINA RESULT:    -5.928      0.000      0.000
REMARK INTER + INTRA:          -7.388
REMARK INTER:                  -7.141
REMARK INTRA:                  -0.246
REMARK UNBOUND:                -0.246
REMARK SMILES O=c1c(O)c(-c2ccc(O)c(O)c2)oc2cc(O)cc(O)c12
REMARK SMILES IDX 5 1 3 2 2 3 1 4 22 5 20 6 19 7 17 8 16 9 15 10 14 11 6 12
REMARK SMILES IDX 7 13 8 14 9 15 13 16 11 17 10 18 12 20 4 22 21 24 18 26
REMARK H PARENT 10 19 12 21 4 23 21 25 18 27
REMARK Flexibility Score: inf
ROOT
ATOM      1  C   UNL     1      -3.119  -1.288  23.522  1.00  0.00     0.180 A 
ATOM      2  C   UNL     1      -3.157  -1.901  24.788  1.00  0.00     0.208 A 
ATOM      3  C   UNL     1      -2.018  -2.581  25.247  1.00  0.00     0.238 A 
ATOM      4  O   UNL     1      -2.038  -3.126  26.385  1.00  0.00    -0.285 OA
ATOM      5  C   UNL     1      -0.872  -2.653  24.430  1.00  0.00     0.111 A 
ATOM      6  C   UNL     1       0.315  -3.322  24.816  1.00  0.00     0.134 A 
ATOM      7  C   UNL     1       1.410  -3.356  23.942  1.00  0.00     0.093 A 
ATOM      8  C   UNL     1       1.341  -2.737  22.688  1.00  0.00     0.123 A 
ATOM      9  C   UNL     1       0.173  -2.076  22.303  1.00  0.00     0.094 A 
ATOM     10  C   UNL     1      -0.928  -2.029  23.161  1.00  0.00     0.146 A 
ATOM     11  O   UNL     1      -2.025  -1.389  22.772  1.00  0.00    -0.452 OA
ENDROOT
BRANCH   1  12
ATOM     12  C   UNL     1      -4.273  -0.537  22.975  1.00  0.00     0.025 A 
ATOM     13  C   UNL     1      -4.653   0.705  23.506  1.00  0.00     0.016 A 
ATOM     14  C   UNL     1      -5.730   1.405  22.958  1.00  0.00     0.051 A 
ATOM     15  C   UNL     1      -6.437   0.890  21.866  1.00  0.00     0.157 A 
ATOM     16  C   UNL     1      -4.966  -1.046  21.866  1.00  0.00     0.062 A 
ATOM     17  C   UNL     1      -6.047  -0.351  21.310  1.00  0.00     0.158 A 
BRANCH  15  18
ATOM     18  O   UNL     1      -7.507   1.638  21.369  1.00  0.00    -0.504 OA
ATOM     19  H   UNL     1      -8.046   1.379  20.556  1.00  0.00     0.293 HD
ENDBRANCH  15  18
BRANCH  17  20
ATOM     20  O   UNL     1      -6.698  -0.925  20.215  1.00  0.00    -0.504 OA
ATOM     21  H   UNL     1      -6.633  -1.901  19.968  1.00  0.00     0.293 HD
ENDBRANCH  17  20
ENDBRANCH   1  12
BRANCH   2  22
ATOM     22  O   UNL     1      -4.322  -1.858  25.559  1.00  0.00    -0.502 OA
ATOM     23  H   UNL     1      -4.305  -1.881  26.571  1.00  0.00     0.293 HD
ENDBRANCH   2  22
BRANCH   6  24
ATOM     24  O   UNL     1       0.413  -3.949  26.059  1.00  0.00    -0.507 OA
ATOM     25  H   UNL     1       1.303  -4.257  26.432  1.00  0.00     0.293 HD
ENDBRANCH   6  24
BRANCH   8  26
ATOM     26  O   UNL     1       2.429  -2.772  21.818  1.00  0.00    -0.508 OA
ATOM     27  H   UNL     1       2.797  -3.648  21.466  1.00  0.00     0.293 HD
ENDBRANCH   8  26
TORSDOF 6
ENDMDL
MODEL 2
REMARK VINA RESULT:    -5.895      4.062      6.792
REMARK INTER + INTRA:          -7.348
REMARK INTER:                  -7.018
REMARK INTRA:                  -0.329
REMARK UNBOUND:                -0.246
REMARK SMILES O=c1c(O)c(-c2ccc(O)c(O)c2)oc2cc(O)cc(O)c12
REMARK SMILES IDX 5 1 3 2 2 3 1 4 22 5 20 6 19 7 17 8 16 9 15 10 14 11 6 12
REMARK SMILES IDX 7 13 8 14 9 15 13 16 11 17 10 18 12 20 4 22 21 24 18 26
REMARK H PARENT 10 19 12 21 4 23 21 25 18 27
REMARK Flexibility Score: inf
ROOT
ATOM      1  C   UNL     1       1.100  -3.118  22.708  1.00  0.00     0.180 A 
ATOM      2  C   UNL     1       1.902  -2.219  23.437  1.00  0.00     0.208 A 
ATOM      3  C   UNL     1       1.438  -1.745  24.674  1.00  0.00     0.238 A 
ATOM      4  O   UNL     1       2.153  -0.948  25.341  1.00  0.00    -0.285 OA
ATOM      5  C   UNL     1       0.178  -2.161  25.152  1.00  0.00     0.111 A 
ATOM      6  C   UNL     1      -0.364  -1.728  26.386  1.00  0.00     0.134 A 
ATOM      7  C   UNL     1      -1.629  -2.180  26.787  1.00  0.00     0.093 A 
ATOM      8  C   UNL     1      -2.363  -3.054  25.977  1.00  0.00     0.123 A 
ATOM      9  C   UNL     1      -1.833  -3.484  24.760  1.00  0.00     0.094 A 
ATOM     10  C   UNL     1      -0.573  -3.047  24.344  1.00  0.00     0.146 A 
ATOM     11  O   UNL     1      -0.090  -3.476  23.183  1.00  0.00    -0.452 OA
ENDROOT
BRANCH   1  12
ATOM     12  C   UNL     1       1.528  -3.676  21.405  1.00  0.00     0.025 A 
ATOM     13  C   UNL     1       2.208  -4.901  21.322  1.00  0.00     0.016 A 
ATOM     14  C   UNL     1       2.580  -5.418  20.080  1.00  0.00     0.051 A 
ATOM     15  C   UNL     1       2.270  -4.734  18.899  1.00  0.00     0.157 A 
ATOM     16  C   UNL     1       1.196  -2.999  20.221  1.00  0.00     0.062 A 
ATOM     17  C   UNL     1       1.565  -3.509  18.970  1.00  0.00     0.158 A 
BRANCH  15  18
ATOM     18  O   UNL     1       2.675  -5.303  17.689  1.00  0.00    -0.504 OA
ATOM     19  H   UNL     1       3.333  -6.064  17.616  1.00  0.00     0.293 HD
ENDBRANCH  15  18
BRANCH  17  20
ATOM     20  O   UNL     1       1.213  -2.775  17.835  1.00  0.00    -0.504 OA
ATOM     21  H   UNL     1       1.083  -1.774  17.829  1.00  0.00     0.293 HD
ENDBRANCH  17  20
ENDBRANCH   1  12
BRANCH   2  22
ATOM     22  O   UNL     1       3.125  -1.784  22.919  1.00  0.00    -0.502 OA
ATOM     23  H   UNL     1       4.004  -1.948  23.394  1.00  0.00     0.293 HD
ENDBRANCH   2  22
BRANCH   6  24
ATOM     24  O   UNL     1       0.343  -0.855  27.214  1.00  0.00    -0.507 OA
ATOM     25  H   UNL     1       0.428  -1.016  28.210  1.00  0.00     0.293 HD
ENDBRANCH   6  24
BRANCH   8  26
ATOM     26  O   UNL     1      -3.621  -3.502  26.375  1.00  0.00    -0.508 OA
ATOM     27  H   UNL     1      -4.072  -3.145  27.208  1.00  0.00     0.293 HD
ENDBRANCH   8  26
TORSDOF 6
ENDMDL
MODEL 3
REMARK VINA RESULT:    -5.646      2.260      3.782
REMARK INTER + INTRA:          -7.047
REMARK INTER:                  -6.758
REMARK INTRA:                  -0.289
REMARK UNBOUND:                -0.246
REMARK SMILES O=c1c(O)c(-c2ccc(O)c(O)c2)oc2cc(O)cc(O)c12
REMARK SMILES IDX 5 1 3 2 2 3 1 4 22 5 20 6 19 7 17 8 16 9 15 10 14 11 6 12
REMARK SMILES IDX 7 13 8 14 9 15 13 16 11 17 10 18 12 20 4 22 21 24 18 26
REMARK H PARENT 10 19 12 21 4 23 21 25 18 27
REMARK Flexibility Score: inf
ROOT
ATOM      1  C   UNL     1      -1.774  -0.908  20.780  1.00  0.00     0.180 A 
ATOM      2  C   UNL     1      -0.914  -1.528  19.854  1.00  0.00     0.208 A 
ATOM      3  C   UNL     1       0.215  -2.214  20.329  1.00  0.00     0.238 A 
ATOM      4  O   UNL     1       0.986  -2.783  19.509  1.00  0.00    -0.285 OA
ATOM      5  C   UNL     1       0.475  -2.253  21.715  1.00  0.00     0.111 A 
ATOM      6  C   UNL     1       1.591  -2.919  22.275  1.00  0.00     0.134 A 
ATOM      7  C   UNL     1       1.785  -2.903  23.664  1.00  0.00     0.093 A 
ATOM      8  C   UNL     1       0.886  -2.234  24.502  1.00  0.00     0.123 A 
ATOM      9  C   UNL     1      -0.216  -1.576  23.953  1.00  0.00     0.094 A 
ATOM     10  C   UNL     1      -0.429  -1.582  22.573  1.00  0.00     0.146 A 
ATOM     11  O   UNL     1      -1.489  -0.953  22.078  1.00  0.00    -0.452 OA
ENDROOT
BRANCH   1  12
ATOM     12  C   UNL     1      -2.993  -0.182  20.358  1.00  0.00     0.025 A 
ATOM     13  C   UNL     1      -2.924   1.115  19.825  1.00  0.00     0.016 A 
ATOM     14  C   UNL     1      -4.086   1.771  19.413  1.00  0.00     0.051 A 
ATOM     15  C   UNL     1      -5.332   1.143  19.507  1.00  0.00     0.157 A 
ATOM     16  C   UNL     1      -4.240  -0.822  20.434  1.00  0.00     0.062 A 
ATOM     17  C   UNL     1      -5.411  -0.172  20.022  1.00  0.00     0.158 A 
BRANCH  15  18
ATOM     18  O   UNL     1      -6.456   1.855  19.081  1.00  0.00    -0.504 OA
ATOM     19  H   UNL     1      -7.261   2.038  19.661  1.00  0.00     0.293 HD
ENDBRANCH  15  18
BRANCH  17  20
ATOM     20  O   UNL     1      -6.617  -0.866  20.139  1.00  0.00    -0.504 OA
ATOM     21  H   UNL     1      -6.684  -1.867  20.251  1.00  0.00     0.293 HD
ENDBRANCH  17  20
ENDBRANCH   1  12
BRANCH   2  22
ATOM     22  O   UNL     1      -1.167  -1.435  18.482  1.00  0.00    -0.502 OA
ATOM     23  H   UNL     1      -0.527  -0.982  17.842  1.00  0.00     0.293 HD
ENDBRANCH   2  22
BRANCH   6  24
ATOM     24  O   UNL     1       2.506  -3.594  21.465  1.00  0.00    -0.507 OA
ATOM     25  H   UNL     1       2.650  -3.338  20.496  1.00  0.00     0.293 HD
ENDBRANCH   6  24
BRANCH   8  26
ATOM     26  O   UNL     1       1.079  -2.217  25.881  1.00  0.00    -0.508 OA
ATOM     27  H   UNL     1       0.336  -2.464  26.523  1.00  0.00     0.293 HD
ENDBRANCH   8  26
TORSDOF 6
ENDMDL
MODEL 4
REMARK VINA RESULT:    -5.628      2.036      7.266
REMARK INTER + INTRA:          -7.025
REMARK INTER:                  -6.730
REMARK INTRA:                  -0.296
REMARK UNBOUND:                -0.246
REMARK SMILES O=c1c(O)c(-c2ccc(O)c(O)c2)oc2cc(O)cc(O)c12
REMARK SMILES IDX 5 1 3 2 2 3 1 4 22 5 20 6 19 7 17 8 16 9 15 10 14 11 6 12
REMARK SMILES IDX 7 13 8 14 9 15 13 16 11 17 10 18 12 20 4 22 21 24 18 26
REMARK H PARENT 10 19 12 21 4 23 21 25 18 27
REMARK Flexibility Score: inf
ROOT
ATOM      1  C   UNL     1      -0.967  -1.640  22.529  1.00  0.00     0.180 A 
ATOM      2  C   UNL     1      -0.683  -1.469  21.161  1.00  0.00     0.208 A 
ATOM      3  C   UNL     1      -1.627  -0.819  20.349  1.00  0.00     0.238 A 
ATOM      4  O   UNL     1      -1.379  -0.651  19.123  1.00  0.00    -0.285 OA
ATOM      5  C   UNL     1      -2.839  -0.370  20.911  1.00  0.00     0.111 A 
ATOM      6  C   UNL     1      -3.843   0.290  20.162  1.00  0.00     0.134 A 
ATOM      7  C   UNL     1      -5.027   0.699  20.794  1.00  0.00     0.093 A 
ATOM      8  C   UNL     1      -5.226   0.458  22.158  1.00  0.00     0.123 A 
ATOM      9  C   UNL     1      -4.239  -0.192  22.900  1.00  0.00     0.094 A 
ATOM     10  C   UNL     1      -3.052  -0.605  22.290  1.00  0.00     0.146 A 
ATOM     11  O   UNL     1      -2.127  -1.217  23.022  1.00  0.00    -0.452 OA
ENDROOT
BRANCH   1  12
ATOM     12  C   UNL     1      -0.015  -2.299  23.453  1.00  0.00     0.025 A 
ATOM     13  C   UNL     1       0.792  -1.552  24.326  1.00  0.00     0.016 A 
ATOM     14  C   UNL     1       1.664  -2.197  25.205  1.00  0.00     0.051 A 
ATOM     15  C   UNL     1       1.739  -3.594  25.242  1.00  0.00     0.157 A 
ATOM     16  C   UNL     1       0.042  -3.700  23.503  1.00  0.00     0.062 A 
ATOM     17  C   UNL     1       0.914  -4.356  24.381  1.00  0.00     0.158 A 
BRANCH  15  18
ATOM     18  O   UNL     1       2.635  -4.177  26.140  1.00  0.00    -0.504 OA
ATOM     19  H   UNL     1       2.995  -5.115  26.050  1.00  0.00     0.293 HD
ENDBRANCH  15  18
BRANCH  17  20
ATOM     20  O   UNL     1       0.926  -5.753  24.367  1.00  0.00    -0.504 OA
ATOM     21  H   UNL     1       1.730  -6.308  24.112  1.00  0.00     0.293 HD
ENDBRANCH  17  20
ENDBRANCH   1  12
BRANCH   2  22
ATOM     22  O   UNL     1       0.504  -1.966  20.617  1.00  0.00    -0.502 OA
ATOM     23  H   UNL     1       1.199  -2.445  21.177  1.00  0.00     0.293 HD
ENDBRANCH   2  22
BRANCH   6  24
ATOM     24  O   UNL     1      -3.673   0.543  18.800  1.00  0.00    -0.507 OA
ATOM     25  H   UNL     1      -4.438   0.453  18.142  1.00  0.00     0.293 HD
ENDBRANCH   6  24
BRANCH   8  26
ATOM     26  O   UNL     1      -6.403   0.862  22.785  1.00  0.00    -0.508 OA
ATOM     27  H   UNL     1      -7.312   0.641  22.398  1.00  0.00     0.293 HD
ENDBRANCH   8  26
TORSDOF 6
ENDMDL
MODEL 5
REMARK VINA RESULT:    -5.622      1.580      6.734
REMARK INTER + INTRA:          -7.019
REMARK INTER:                  -6.720
REMARK INTRA:                  -0.299
REMARK UNBOUND:                -0.246
REMARK SMILES O=c1c(O)c(-c2ccc(O)c(O)c2)oc2cc(O)cc(O)c12
REMARK SMILES IDX 5 1 3 2 2 3 1 4 22 5 20 6 19 7 17 8 16 9 15 10 14 11 6 12
REMARK SMILES IDX 7 13 8 14 9 15 13 16 11 17 10 18 12 20 4 22 21 24 18 26
REMARK H PARENT 10 19 12 21 4 23 21 25 18 27
REMARK Flexibility Score: inf
ROOT
ATOM      1  C   UNL     1      -1.563  -1.573  23.608  1.00  0.00     0.180 A 
ATOM      2  C   UNL     1      -1.776  -0.882  24.816  1.00  0.00     0.208 A 
ATOM      3  C   UNL     1      -2.956  -0.139  24.974  1.00  0.00     0.238 A 
ATOM      4  O   UNL     1      -3.162   0.475  26.057  1.00  0.00    -0.285 OA
ATOM      5  C   UNL     1      -3.891  -0.083  23.921  1.00  0.00     0.111 A 
ATOM      6  C   UNL     1      -5.103   0.646  23.998  1.00  0.00     0.134 A 
ATOM      7  C   UNL     1      -5.977   0.660  22.902  1.00  0.00     0.093 A 
ATOM      8  C   UNL     1      -5.663  -0.039  21.731  1.00  0.00     0.123 A 
ATOM      9  C   UNL     1      -4.470  -0.759  21.650  1.00  0.00     0.094 A 
ATOM     10  C   UNL     1      -3.587  -0.788  22.732  1.00  0.00     0.146 A 
ATOM     11  O   UNL     1      -2.461  -1.485  22.630  1.00  0.00    -0.452 OA
ENDROOT
BRANCH   1  12
ATOM     12  C   UNL     1      -0.353  -2.393  23.372  1.00  0.00     0.025 A 
ATOM     13  C   UNL     1       0.750  -1.882  22.669  1.00  0.00     0.016 A 
ATOM     14  C   UNL     1       1.889  -2.666  22.480  1.00  0.00     0.051 A 
ATOM     15  C   UNL     1       1.959  -3.964  22.998  1.00  0.00     0.157 A 
ATOM     16  C   UNL     1      -0.278  -3.686  23.911  1.00  0.00     0.062 A 
ATOM     17  C   UNL     1       0.861  -4.480  23.727  1.00  0.00     0.158 A 
BRANCH  15  18
ATOM     18  O   UNL     1       3.125  -4.697  22.770  1.00  0.00    -0.504 OA
ATOM     19  H   UNL     1       4.033  -4.283  22.621  1.00  0.00     0.293 HD
ENDBRANCH  15  18
BRANCH  17  20
ATOM     20  O   UNL     1       0.860  -5.762  24.281  1.00  0.00    -0.504 OA
ATOM     21  H   UNL     1       1.675  -6.355  24.333  1.00  0.00     0.293 HD
ENDBRANCH  17  20
ENDBRANCH   1  12
BRANCH   2  22
ATOM     22  O   UNL     1      -0.811  -0.914  25.827  1.00  0.00    -0.502 OA
ATOM     23  H   UNL     1      -1.053  -0.999  26.806  1.00  0.00     0.293 HD
ENDBRANCH   2  22
BRANCH   6  24
ATOM     24  O   UNL     1      -5.443   1.353  25.152  1.00  0.00    -0.507 OA
ATOM     25  H   UNL     1      -4.845   1.359  25.969  1.00  0.00     0.293 HD
ENDBRANCH   6  24
BRANCH   8  26
ATOM     26  O   UNL     1      -6.531  -0.025  20.641  1.00  0.00    -0.508 OA
ATOM     27  H   UNL     1      -6.211   0.222  19.712  1.00  0.00     0.293 HD
ENDBRANCH   8  26
TORSDOF 6
ENDMDL
MODEL 6
REMARK VINA RESULT:    -5.501      3.338      7.186
REMARK INTER + INTRA:          -6.872
REMARK INTER:                  -6.640
REMARK INTRA:                  -0.233
REMARK UNBOUND:                -0.246
REMARK SMILES O=c1c(O)c(-c2ccc(O)c(O)c2)oc2cc(O)cc(O)c12
REMARK SMILES IDX 5 1 3 2 2 3 1 4 22 5 20 6 19 7 17 8 16 9 15 10 14 11 6 12
REMARK SMILES IDX 7 13 8 14 9 15 13 16 11 17 10 18 12 20 4 22 21 24 18 26
REMARK H PARENT 10 19 12 21 4 23 21 25 18 27
REMARK Flexibility Score: inf
ROOT
ATOM      1  C   UNL     1       1.049  -2.521  23.211  1.00  0.00     0.180 A 
ATOM      2  C   UNL     1       1.790  -3.293  22.297  1.00  0.00     0.208 A 
ATOM      3  C   UNL     1       1.473  -3.216  20.931  1.00  0.00     0.238 A 
ATOM      4  O   UNL     1       2.137  -3.896  20.101  1.00  0.00    -0.285 OA
ATOM      5  C   UNL     1       0.414  -2.388  20.506  1.00  0.00     0.111 A 
ATOM      6  C   UNL     1       0.028  -2.257  19.150  1.00  0.00     0.134 A 
ATOM      7  C   UNL     1      -1.043  -1.419  18.809  1.00  0.00     0.093 A 
ATOM      8  C   UNL     1      -1.737  -0.712  19.798  1.00  0.00     0.123 A 
ATOM      9  C   UNL     1      -1.360  -0.837  21.136  1.00  0.00     0.094 A 
ATOM     10  C   UNL     1      -0.294  -1.665  21.496  1.00  0.00     0.146 A 
ATOM     11  O   UNL     1       0.047  -1.763  22.776  1.00  0.00    -0.452 OA
ENDROOT
BRANCH   1  12
ATOM     12  C   UNL     1       1.334  -2.534  24.664  1.00  0.00     0.025 A 
ATOM     13  C   UNL     1       2.513  -1.974  25.182  1.00  0.00     0.016 A 
ATOM     14  C   UNL     1       2.749  -1.978  26.558  1.00  0.00     0.051 A 
ATOM     15  C   UNL     1       1.812  -2.522  27.443  1.00  0.00     0.157 A 
ATOM     16  C   UNL     1       0.383  -3.061  25.551  1.00  0.00     0.062 A 
ATOM     17  C   UNL     1       0.611  -3.069  26.933  1.00  0.00     0.158 A 
BRANCH  15  18
ATOM     18  O   UNL     1       2.110  -2.498  28.808  1.00  0.00    -0.504 OA
ATOM     19  H   UNL     1       1.964  -3.277  29.431  1.00  0.00     0.293 HD
ENDBRANCH  15  18
BRANCH  17  20
ATOM     20  O   UNL     1      -0.375  -3.622  27.754  1.00  0.00    -0.504 OA
ATOM     21  H   UNL     1      -0.311  -3.668  28.760  1.00  0.00     0.293 HD
ENDBRANCH  17  20
ENDBRANCH   1  12
BRANCH   2  22
ATOM     22  O   UNL     1       2.803  -4.144  22.747  1.00  0.00    -0.502 OA
ATOM     23  H   UNL     1       2.807  -4.536  23.681  1.00  0.00     0.293 HD
ENDBRANCH   2  22
BRANCH   6  24
ATOM     24  O   UNL     1       0.700  -2.951  18.143  1.00  0.00    -0.507 OA
ATOM     25  H   UNL     1       1.146  -2.471  17.371  1.00  0.00     0.293 HD
ENDBRANCH   6  24
BRANCH   8  26
ATOM     26  O   UNL     1      -2.802   0.120  19.460  1.00  0.00    -0.508 OA
ATOM     27  H   UNL     1      -2.729   0.796  18.709  1.00  0.00     0.293 HD
ENDBRANCH   8  26
TORSDOF 6
ENDMDL
MODEL 7
REMARK VINA RESULT:    -5.452      2.623      6.639
REMARK INTER + INTRA:          -6.814
REMARK INTER:                  -6.537
REMARK INTRA:                  -0.277
REMARK UNBOUND:                -0.246
REMARK SMILES O=c1c(O)c(-c2ccc(O)c(O)c2)oc2cc(O)cc(O)c12
REMARK SMILES IDX 5 1 3 2 2 3 1 4 22 5 20 6 19 7 17 8 16 9 15 10 14 11 6 12
REMARK SMILES IDX 7 13 8 14 9 15 13 16 11 17 10 18 12 20 4 22 21 24 18 26
REMARK H PARENT 10 19 12 21 4 23 21 25 18 27
REMARK Flexibility Score: inf
ROOT
ATOM      1  C   UNL     1      -1.597  -2.062  24.855  1.00  0.00     0.180 A 
ATOM      2  C   UNL     1      -2.872  -1.735  24.358  1.00  0.00     0.208 A 
ATOM      3  C   UNL     1      -3.851  -1.273  25.252  1.00  0.00     0.238 A 
ATOM      4  O   UNL     1      -4.995  -0.967  24.816  1.00  0.00    -0.285 OA
ATOM      5  C   UNL     1      -3.546  -1.163  26.624  1.00  0.00     0.111 A 
ATOM      6  C   UNL     1      -4.475  -0.710  27.591  1.00  0.00     0.134 A 
ATOM      7  C   UNL     1      -4.098  -0.638  28.939  1.00  0.00     0.093 A 
ATOM      8  C   UNL     1      -2.810  -1.012  29.339  1.00  0.00     0.123 A 
ATOM      9  C   UNL     1      -1.890  -1.459  28.389  1.00  0.00     0.094 A 
ATOM     10  C   UNL     1      -2.246  -1.536  27.041  1.00  0.00     0.146 A 
ATOM     11  O   UNL     1      -1.349  -1.960  26.157  1.00  0.00    -0.452 OA
ENDROOT
BRANCH   1  12
ATOM     12  C   UNL     1      -0.507  -2.538  23.972  1.00  0.00     0.025 A 
ATOM     13  C   UNL     1       0.181  -1.659  23.120  1.00  0.00     0.016 A 
ATOM     14  C   UNL     1       1.221  -2.128  22.315  1.00  0.00     0.051 A 
ATOM     15  C   UNL     1       1.605  -3.473  22.354  1.00  0.00     0.157 A 
ATOM     16  C   UNL     1      -0.109  -3.883  24.030  1.00  0.00     0.062 A 
ATOM     17  C   UNL     1       0.933  -4.362  23.226  1.00  0.00     0.158 A 
BRANCH  15  18
ATOM     18  O   UNL     1       2.650  -3.878  21.521  1.00  0.00    -0.504 OA
ATOM     19  H   UNL     1       3.523  -3.382  21.428  1.00  0.00     0.293 HD
ENDBRANCH  15  18
BRANCH  17  20
ATOM     20  O   UNL     1       1.266  -5.715  23.327  1.00  0.00    -0.504 OA
ATOM     21  H   UNL     1       2.029  -6.068  23.885  1.00  0.00     0.293 HD
ENDBRANCH  17  20
ENDBRANCH   1  12
BRANCH   2  22
ATOM     22  O   UNL     1      -3.165  -1.899  23.001  1.00  0.00    -0.502 OA
ATOM     23  H   UNL     1      -3.096  -1.139  22.335  1.00  0.00     0.293 HD
ENDBRANCH   2  22
BRANCH   6  24
ATOM     24  O   UNL     1      -5.767  -0.331  27.222  1.00  0.00    -0.507 OA
ATOM     25  H   UNL     1      -6.048  -0.268  26.251  1.00  0.00     0.293 HD
ENDBRANCH   6  24
BRANCH   8  26
ATOM     26  O   UNL     1      -2.434  -0.942  30.679  1.00  0.00    -0.508 OA
ATOM     27  H   UNL     1      -1.472  -1.078  30.967  1.00  0.00     0.293 HD
ENDBRANCH   8  26
TORSDOF 6
ENDMDL
MODEL 8
REMARK VINA RESULT:    -5.421      4.571      6.576
REMARK INTER + INTRA:          -6.777
REMARK INTER:                  -6.506
REMARK INTRA:                  -0.271
REMARK UNBOUND:                -0.246
REMARK SMILES O=c1c(O)c(-c2ccc(O)c(O)c2)oc2cc(O)cc(O)c12
REMARK SMILES IDX 5 1 3 2 2 3 1 4 22 5 20 6 19 7 17 8 16 9 15 10 14 11 6 12
REMARK SMILES IDX 7 13 8 14 9 15 13 16 11 17 10 18 12 20 4 22 21 24 18 26
REMARK H PARENT 10 19 12 21 4 23 21 25 18 27
REMARK Flexibility Score: inf
ROOT
ATOM      1  C   UNL     1       0.780  -2.919  24.176  1.00  0.00     0.180 A 
ATOM      2  C   UNL     1      -0.386  -3.392  24.805  1.00  0.00     0.208 A 
ATOM      3  C   UNL     1      -0.901  -2.682  25.902  1.00  0.00     0.238 A 
ATOM      4  O   UNL     1      -1.952  -3.091  26.468  1.00  0.00    -0.285 OA
ATOM      5  C   UNL     1      -0.233  -1.528  26.360  1.00  0.00     0.111 A 
ATOM      6  C   UNL     1      -0.683  -0.758  27.460  1.00  0.00     0.134 A 
ATOM      7  C   UNL     1       0.042   0.373  27.861  1.00  0.00     0.093 A 
ATOM      8  C   UNL     1       1.209   0.747  27.185  1.00  0.00     0.123 A 
ATOM      9  C   UNL     1       1.656  -0.008  26.100  1.00  0.00     0.094 A 
ATOM     10  C   UNL     1       0.946  -1.137  25.683  1.00  0.00     0.146 A 
ATOM     11  O   UNL     1       1.391  -1.835  24.645  1.00  0.00    -0.452 OA
ENDROOT
BRANCH   1  12
ATOM     12  C   UNL     1       1.373  -3.602  23.003  1.00  0.00     0.025 A 
ATOM     13  C   UNL     1       2.103  -4.793  23.143  1.00  0.00     0.016 A 
ATOM     14  C   UNL     1       2.633  -5.430  22.019  1.00  0.00     0.051 A 
ATOM     15  C   UNL     1       2.434  -4.905  20.738  1.00  0.00     0.157 A 
ATOM     16  C   UNL     1       1.154  -3.084  21.717  1.00  0.00     0.062 A 
ATOM     17  C   UNL     1       1.681  -3.717  20.584  1.00  0.00     0.158 A 
BRANCH  15  18
ATOM     18  O   UNL     1       2.994  -5.589  19.657  1.00  0.00    -0.504 OA
ATOM     19  H   UNL     1       3.651  -6.349  19.749  1.00  0.00     0.293 HD
ENDBRANCH  15  18
BRANCH  17  20
ATOM     20  O   UNL     1       1.433  -3.137  19.338  1.00  0.00    -0.504 OA
ATOM     21  H   UNL     1       1.026  -2.222  19.213  1.00  0.00     0.293 HD
ENDBRANCH  17  20
ENDBRANCH   1  12
BRANCH   2  22
ATOM     22  O   UNL     1      -1.002  -4.566  24.363  1.00  0.00    -0.502 OA
ATOM     23  H   UNL     1      -1.816  -4.958  24.820  1.00  0.00     0.293 HD
ENDBRANCH   2  22
BRANCH   6  24
ATOM     24  O   UNL     1      -1.842  -1.107  28.155  1.00  0.00    -0.507 OA
ATOM     25  H   UNL     1      -2.764  -0.885  27.799  1.00  0.00     0.293 HD
ENDBRANCH   6  24
BRANCH   8  26
ATOM     26  O   UNL     1       1.931   1.870  27.584  1.00  0.00    -0.508 OA
ATOM     27  H   UNL     1       2.062   2.095  28.562  1.00  0.00     0.293 HD
ENDBRANCH   8  26
TORSDOF 6
ENDMDL
MODEL 9
REMARK VINA RESULT:    -5.408      3.866      6.924
REMARK INTER + INTRA:          -6.761
REMARK INTER:                  -6.430
REMARK INTRA:                  -0.331
REMARK UNBOUND:                -0.246
REMARK SMILES O=c1c(O)c(-c2ccc(O)c(O)c2)oc2cc(O)cc(O)c12
REMARK SMILES IDX 5 1 3 2 2 3 1 4 22 5 20 6 19 7 17 8 16 9 15 10 14 11 6 12
REMARK SMILES IDX 7 13 8 14 9 15 13 16 11 17 10 18 12 20 4 22 21 24 18 26
REMARK H PARENT 10 19 12 21 4 23 21 25 18 27
REMARK Flexibility Score: inf
ROOT
ATOM      1  C   UNL     1       0.971  -2.640  24.062  1.00  0.00     0.180 A 
ATOM      2  C   UNL     1       1.779  -1.715  24.749  1.00  0.00     0.208 A 
ATOM      3  C   UNL     1       1.223  -0.991  25.816  1.00  0.00     0.238 A 
ATOM      4  O   UNL     1       1.941  -0.167  26.446  1.00  0.00    -0.285 OA
ATOM      5  C   UNL     1      -0.128  -1.189  26.165  1.00  0.00     0.111 A 
ATOM      6  C   UNL     1      -0.765  -0.498  27.223  1.00  0.00     0.134 A 
ATOM      7  C   UNL     1      -2.117  -0.744  27.502  1.00  0.00     0.093 A 
ATOM      8  C   UNL     1      -2.844  -1.667  26.741  1.00  0.00     0.123 A 
ATOM      9  C   UNL     1      -2.221  -2.351  25.697  1.00  0.00     0.094 A 
ATOM     10  C   UNL     1      -0.874  -2.121  25.405  1.00  0.00     0.146 A 
ATOM     11  O   UNL     1      -0.304  -2.790  24.408  1.00  0.00    -0.452 OA
ENDROOT
BRANCH   1  12
ATOM     12  C   UNL     1       1.488  -3.455  22.938  1.00  0.00     0.025 A 
ATOM     13  C   UNL     1       2.117  -4.690  23.160  1.00  0.00     0.016 A 
ATOM     14  C   UNL     1       2.575  -5.451  22.082  1.00  0.00     0.051 A 
ATOM     15  C   UNL     1       2.404  -5.004  20.768  1.00  0.00     0.157 A 
ATOM     16  C   UNL     1       1.296  -3.014  21.619  1.00  0.00     0.062 A 
ATOM     17  C   UNL     1       1.753  -3.770  20.532  1.00  0.00     0.158 A 
BRANCH  15  18
ATOM     18  O   UNL     1       2.890  -5.810  19.735  1.00  0.00    -0.504 OA
ATOM     19  H   UNL     1       3.329  -5.454  18.900  1.00  0.00     0.293 HD
ENDBRANCH  15  18
BRANCH  17  20
ATOM     20  O   UNL     1       1.538  -3.263  19.249  1.00  0.00    -0.504 OA
ATOM     21  H   UNL     1       0.693  -2.790  18.963  1.00  0.00     0.293 HD
ENDBRANCH  17  20
ENDBRANCH   1  12
BRANCH   2  22
ATOM     22  O   UNL     1       3.102  -1.501  24.354  1.00  0.00    -0.502 OA
ATOM     23  H   UNL     1       3.730  -0.895  24.866  1.00  0.00     0.293 HD
ENDBRANCH   2  22
BRANCH   6  24
ATOM     24  O   UNL     1      -0.066   0.429  27.999  1.00  0.00    -0.507 OA
ATOM     25  H   UNL     1       0.656   0.144  28.649  1.00  0.00     0.293 HD
ENDBRANCH   6  24
BRANCH   8  26
ATOM     26  O   UNL     1      -4.188  -1.911  27.016  1.00  0.00    -0.508 OA
ATOM     27  H   UNL     1      -4.824  -2.241  26.300  1.00  0.00     0.293 HD
ENDBRANCH   8  26
TORSDOF 6
ENDMDL
