MODEL 1
REMARK VINA RESULT:    -2.799      0.000      0.000
REMARK INTER + INTRA:          -3.531
REMARK INTER:                  -3.453
REMARK INTRA:                  -0.077
REMARK UNBOUND:                -0.077
REMARK SMILES CCCCCC(=O)[O-]
REMARK SMILES IDX 4 1 5 2 6 3 7 4 8 5 3 6 2 7 1 8
REMARK H PARENT
REMARK Flexibility Score: inf
ROOT
ATOM      1  C   UNL     1       8.109 -21.258  15.019  1.00  0.00     0.006 C 
ENDROOT
BRANCH   1   2
ATOM      2  C   UNL     1       9.012 -20.133  14.482  1.00  0.00     0.053 C 
BRANCH   2   3
ATOM      3  C   UNL     1       8.804 -19.870  13.023  1.00  0.00     0.041 C 
ATOM      4  O   UNL     1       8.838 -18.692  12.577  1.00  0.00    -0.550 OA
ATOM      5  O   UNL     1       8.543 -20.924  12.156  1.00  0.00    -0.550 OA
ENDBRANCH   2   3
ENDBRANCH   1   2
BRANCH   1   6
ATOM      6  C   UNL     1       8.617 -21.899  16.323  1.00  0.00     0.000 C 
BRANCH   6   7
ATOM      7  C   UNL     1       7.768 -21.526  17.548  1.00  0.00    -0.003 C 
ATOM      8  C   UNL     1       6.320 -21.969  17.367  1.00  0.00     0.004 C 
ENDBRANCH   6   7
ENDBRANCH   1   6
TORSDOF 4
ENDMDL
MODEL 2
REMARK VINA RESULT:    -2.630      1.149      1.594
REMARK INTER + INTRA:          -3.322
REMARK INTER:                  -3.245
REMARK INTRA:                  -0.078
REMARK UNBOUND:                -0.077
REMARK SMILES CCCCCC(=O)[O-]
REMARK SMILES IDX 4 1 5 2 6 3 7 4 8 5 3 6 2 7 1 8
REMARK H PARENT
REMARK Flexibility Score: inf
ROOT
ATOM      1  C   UNL     1       8.760 -21.061  15.271  1.00  0.00     0.006 C 
ENDROOT
BRANCH   1   2
ATOM      2  C   UNL     1       8.981 -21.649  13.866  1.00  0.00     0.053 C 
BRANCH   2   3
ATOM      3  C   UNL     1       7.983 -21.151  12.866  1.00  0.00     0.041 C 
ATOM      4  O   UNL     1       6.871 -21.728  12.737  1.00  0.00    -0.550 OA
ATOM      5  O   UNL     1       8.292 -20.066  12.055  1.00  0.00    -0.550 OA
ENDBRANCH   2   3
ENDBRANCH   1   2
BRANCH   1   6
ATOM      6  C   UNL     1       8.059 -22.024  16.248  1.00  0.00     0.000 C 
BRANCH   6   7
ATOM      7  C   UNL     1       7.281 -21.297  17.355  1.00  0.00    -0.003 C 
ATOM      8  C   UNL     1       5.933 -21.965  17.607  1.00  0.00     0.004 C 
ENDBRANCH   6   7
ENDBRANCH   1   6
TORSDOF 4
ENDMDL
MODEL 3
REMARK VINA RESULT:    -2.556      2.919      4.448
REMARK INTER + INTRA:          -3.231
REMARK INTER:                  -3.112
REMARK INTRA:                  -0.119
REMARK UNBOUND:                -0.077
REMARK SMILES CCCCCC(=O)[O-]
REMARK SMILES IDX 4 1 5 2 6 3 7 4 8 5 3 6 2 7 1 8
REMARK H PARENT
REMARK Flexibility Score: inf
ROOT
ATOM      1  C   UNL     1       8.806 -21.968  15.833  1.00  0.00     0.006 C 
ENDROOT
BRANCH   1   2
ATOM      2  C   UNL     1       7.743 -21.266  16.699  1.00  0.00     0.053 C 
BRANCH   2   3
ATOM      3  C   UNL     1       6.492 -22.075  16.847  1.00  0.00     0.041 C 
ATOM      4  O   UNL     1       5.837 -22.043  17.923  1.00  0.00    -0.550 OA
ATOM      5  O   UNL     1       6.062 -22.889  15.806  1.00  0.00    -0.550 OA
ENDBRANCH   2   3
ENDBRANCH   1   2
BRANCH   1   6
ATOM      6  C   UNL     1       8.969 -21.358  14.429  1.00  0.00     0.000 C 
BRANCH   6   7
ATOM      7  C   UNL     1       9.057 -19.824  14.446  1.00  0.00    -0.003 C 
ATOM      8  C   UNL     1       9.057 -19.259  13.029  1.00  0.00     0.004 C 
ENDBRANCH   6   7
ENDBRANCH   1   6
TORSDOF 4
ENDMDL
MODEL 4
REMARK VINA RESULT:    -2.482     17.541     18.900
REMARK INTER + INTRA:          -3.139
REMARK INTER:                  -3.063
REMARK INTRA:                  -0.076
REMARK UNBOUND:                -0.077
REMARK SMILES CCCCCC(=O)[O-]
REMARK SMILES IDX 4 1 5 2 6 3 7 4 8 5 3 6 2 7 1 8
REMARK H PARENT
REMARK Flexibility Score: inf
ROOT
ATOM      1  C   UNL     1     -10.518 -21.234  17.021  1.00  0.00     0.006 C 
ENDROOT
BRANCH   1   2
ATOM      2  C   UNL     1     -10.893 -20.909  18.478  1.00  0.00     0.053 C 
BRANCH   2   3
ATOM      3  C   UNL     1      -9.698 -20.833  19.379  1.00  0.00     0.041 C 
ATOM      4  O   UNL     1      -9.722 -20.105  20.407  1.00  0.00    -0.550 OA
ATOM      5  O   UNL     1      -8.546 -21.544  19.068  1.00  0.00    -0.550 OA
ENDBRANCH   2   3
ENDBRANCH   1   2
BRANCH   1   6
ATOM      6  C   UNL     1     -10.812 -20.091  16.031  1.00  0.00     0.000 C 
BRANCH   6   7
ATOM      7  C   UNL     1     -10.396 -20.422  14.590  1.00  0.00    -0.003 C 
ATOM      8  C   UNL     1      -8.904 -20.734  14.508  1.00  0.00     0.004 C 
ENDBRANCH   6   7
ENDBRANCH   1   6
TORSDOF 4
ENDMDL
MODEL 5
REMARK VINA RESULT:    -2.412     17.365     18.498
REMARK INTER + INTRA:          -3.053
REMARK INTER:                  -2.868
REMARK INTRA:                  -0.186
REMARK UNBOUND:                -0.077
REMARK SMILES CCCCCC(=O)[O-]
REMARK SMILES IDX 4 1 5 2 6 3 7 4 8 5 3 6 2 7 1 8
REMARK H PARENT
REMARK Flexibility Score: inf
ROOT
ATOM      1  C   UNL     1     -10.938 -21.358  17.292  1.00  0.00     0.006 C 
ENDROOT
BRANCH   1   2
ATOM      2  C   UNL     1      -9.965 -21.226  18.478  1.00  0.00     0.053 C 
BRANCH   2   3
ATOM      3  C   UNL     1      -8.728 -22.053  18.306  1.00  0.00     0.041 C 
ATOM      4  O   UNL     1      -8.415 -22.501  17.170  1.00  0.00    -0.550 OA
ATOM      5  O   UNL     1      -7.935 -22.356  19.405  1.00  0.00    -0.550 OA
ENDBRANCH   2   3
ENDBRANCH   1   2
BRANCH   1   6
ATOM      6  C   UNL     1     -10.935 -20.145  16.343  1.00  0.00     0.000 C 
BRANCH   6   7
ATOM      7  C   UNL     1     -10.782 -20.537  14.866  1.00  0.00    -0.003 C 
ATOM      8  C   UNL     1      -9.314 -20.550  14.451  1.00  0.00     0.004 C 
ENDBRANCH   6   7
ENDBRANCH   1   6
TORSDOF 4
ENDMDL
MODEL 6
REMARK VINA RESULT:    -2.387     17.923     19.094
REMARK INTER + INTRA:          -3.023
REMARK INTER:                  -2.952
REMARK INTRA:                  -0.070
REMARK UNBOUND:                -0.077
REMARK SMILES CCCCCC(=O)[O-]
REMARK SMILES IDX 4 1 5 2 6 3 7 4 8 5 3 6 2 7 1 8
REMARK H PARENT
REMARK Flexibility Score: inf
ROOT
ATOM      1  C   UNL     1     -10.319 -21.192  17.230  1.00  0.00     0.006 C 
ENDROOT
BRANCH   1   2
ATOM      2  C   UNL     1     -10.905 -21.100  18.651  1.00  0.00     0.053 C 
BRANCH   2   3
ATOM      3  C   UNL     1      -9.869 -20.784  19.685  1.00  0.00     0.041 C 
ATOM      4  O   UNL     1      -9.090 -21.683  20.100  1.00  0.00    -0.550 OA
ATOM      5  O   UNL     1      -9.781 -19.502  20.214  1.00  0.00    -0.550 OA
ENDBRANCH   2   3
ENDBRANCH   1   2
BRANCH   1   6
ATOM      6  C   UNL     1     -10.805 -20.080  16.282  1.00  0.00     0.000 C 
BRANCH   6   7
ATOM      7  C   UNL     1     -10.577 -20.413  14.800  1.00  0.00    -0.003 C 
ATOM      8  C   UNL     1      -9.092 -20.597  14.500  1.00  0.00     0.004 C 
ENDBRANCH   6   7
ENDBRANCH   1   6
TORSDOF 4
ENDMDL
MODEL 7
REMARK VINA RESULT:    -2.326     18.149     19.399
REMARK INTER + INTRA:          -2.947
REMARK INTER:                  -2.785
REMARK INTRA:                  -0.162
REMARK UNBOUND:                -0.077
REMARK SMILES CCCCCC(=O)[O-]
REMARK SMILES IDX 4 1 5 2 6 3 7 4 8 5 3 6 2 7 1 8
REMARK H PARENT
REMARK Flexibility Score: inf
ROOT
ATOM      1  C   UNL     1      -9.809 -20.416  22.722  1.00  0.00     0.006 C 
ENDROOT
BRANCH   1   2
ATOM      2  C   UNL     1     -10.932 -20.169  21.698  1.00  0.00     0.053 C 
BRANCH   2   3
ATOM      3  C   UNL     1     -10.413 -19.734  20.363  1.00  0.00     0.041 C 
ATOM      4  O   UNL     1      -9.520 -20.404  19.778  1.00  0.00    -0.550 OA
ATOM      5  O   UNL     1     -10.893 -18.570  19.775  1.00  0.00    -0.550 OA
ENDBRANCH   2   3
ENDBRANCH   1   2
BRANCH   1   6
ATOM      6  C   UNL     1      -9.882 -21.791  23.410  1.00  0.00     0.000 C 
BRANCH   6   7
ATOM      7  C   UNL     1      -8.524 -22.506  23.471  1.00  0.00    -0.003 C 
ATOM      8  C   UNL     1      -8.047 -22.899  22.076  1.00  0.00     0.004 C 
ENDBRANCH   6   7
ENDBRANCH   1   6
TORSDOF 4
ENDMDL
MODEL 8
REMARK VINA RESULT:    -2.218     15.250     16.658
REMARK INTER + INTRA:          -2.814
REMARK INTER:                  -2.736
REMARK INTRA:                  -0.078
REMARK UNBOUND:                -0.077
REMARK SMILES CCCCCC(=O)[O-]
REMARK SMILES IDX 4 1 5 2 6 3 7 4 8 5 3 6 2 7 1 8
REMARK H PARENT
REMARK Flexibility Score: inf
ROOT
ATOM      1  C   UNL     1      -8.235 -21.253  15.808  1.00  0.00     0.006 C 
ENDROOT
BRANCH   1   2
ATOM      2  C   UNL     1      -6.865 -21.934  15.631  1.00  0.00     0.053 C 
BRANCH   2   3
ATOM      3  C   UNL     1      -6.264 -22.371  16.932  1.00  0.00     0.041 C 
ATOM      4  O   UNL     1      -6.980 -22.459  17.965  1.00  0.00    -0.550 OA
ATOM      5  O   UNL     1      -4.907 -22.654  17.011  1.00  0.00    -0.550 OA
ENDBRANCH   2   3
ENDBRANCH   1   2
BRANCH   1   6
ATOM      6  C   UNL     1      -8.862 -20.761  14.491  1.00  0.00     0.000 C 
BRANCH   6   7
ATOM      7  C   UNL     1     -10.373 -20.510  14.601  1.00  0.00    -0.003 C 
ATOM      8  C   UNL     1     -10.762 -20.114  16.022  1.00  0.00     0.004 C 
ENDBRANCH   6   7
ENDBRANCH   1   6
TORSDOF 4
ENDMDL
