MODEL 1
REMARK VINA RESULT:    -3.574      0.000      0.000
REMARK INTER + INTRA:          -3.802
REMARK INTER:                  -3.783
REMARK INTRA:                  -0.019
REMARK UNBOUND:                -0.019
REMARK SMILES O=C([O-])c1cccnc1
REMARK SMILES IDX 4 1 5 2 9 3 6 4 8 5 7 6 2 7 1 8 3 9
REMARK H PARENT
REMARK Flexibility Score: inf
ROOT
ATOM      1  C   UNL     1       3.843 -37.266  19.042  1.00  0.00     0.016 A 
ATOM      2  C   UNL     1       3.860 -36.808  17.713  1.00  0.00     0.013 A 
ATOM      3  C   UNL     1       2.679 -37.890  19.519  1.00  0.00     0.120 A 
ATOM      4  C   UNL     1       2.738 -36.976  16.900  1.00  0.00     0.021 A 
ATOM      5  N   UNL     1       1.599 -38.041  18.706  1.00  0.00    -0.264 NA
ATOM      6  C   UNL     1       1.603 -37.601  17.420  1.00  0.00     0.111 A 
ENDROOT
BRANCH   1   7
ATOM      7  C   UNL     1       5.021 -37.097  19.919  1.00  0.00     0.073 C 
ATOM      8  O   UNL     1       5.445 -38.059  20.615  1.00  0.00    -0.545 OA
ATOM      9  O   UNL     1       5.678 -35.875  19.990  1.00  0.00    -0.545 OA
ENDBRANCH   1   7
TORSDOF 1
ENDMDL
MODEL 2
REMARK VINA RESULT:    -3.535      2.861      3.725
REMARK INTER + INTRA:          -3.761
REMARK INTER:                  -3.743
REMARK INTRA:                  -0.018
REMARK UNBOUND:                -0.019
REMARK SMILES O=C([O-])c1cccnc1
REMARK SMILES IDX 4 1 5 2 9 3 6 4 8 5 7 6 2 7 1 8 3 9
REMARK H PARENT
REMARK Flexibility Score: inf
ROOT
ATOM      1  C   UNL     1       2.720 -37.382  17.160  1.00  0.00     0.016 A 
ATOM      2  C   UNL     1       3.833 -37.084  17.965  1.00  0.00     0.013 A 
ATOM      3  C   UNL     1       1.564 -37.885  17.779  1.00  0.00     0.120 A 
ATOM      4  C   UNL     1       3.775 -37.290  19.344  1.00  0.00     0.021 A 
ATOM      5  N   UNL     1       1.534 -38.077  19.126  1.00  0.00    -0.264 NA
ATOM      6  C   UNL     1       2.604 -37.793  19.913  1.00  0.00     0.111 A 
ENDROOT
BRANCH   1   7
ATOM      7  C   UNL     1       2.760 -37.171  15.697  1.00  0.00     0.073 C 
ATOM      8  O   UNL     1       1.893 -36.454  15.129  1.00  0.00    -0.545 OA
ATOM      9  O   UNL     1       3.756 -37.761  14.928  1.00  0.00    -0.545 OA
ENDBRANCH   1   7
TORSDOF 1
ENDMDL
MODEL 3
REMARK VINA RESULT:    -3.503      2.757      3.679
REMARK INTER + INTRA:          -3.727
REMARK INTER:                  -3.708
REMARK INTRA:                  -0.018
REMARK UNBOUND:                -0.019
REMARK SMILES O=C([O-])c1cccnc1
REMARK SMILES IDX 4 1 5 2 9 3 6 4 8 5 7 6 2 7 1 8 3 9
REMARK H PARENT
REMARK Flexibility Score: inf
ROOT
ATOM      1  C   UNL     1       4.047 -37.040  18.984  1.00  0.00     0.016 A 
ATOM      2  C   UNL     1       4.555 -35.746  18.782  1.00  0.00     0.013 A 
ATOM      3  C   UNL     1       4.526 -37.783  20.076  1.00  0.00     0.120 A 
ATOM      4  C   UNL     1       5.513 -35.225  19.654  1.00  0.00     0.021 A 
ATOM      5  N   UNL     1       5.460 -37.253  20.911  1.00  0.00    -0.264 NA
ATOM      6  C   UNL     1       5.959 -36.002  20.725  1.00  0.00     0.111 A 
ENDROOT
BRANCH   1   7
ATOM      7  C   UNL     1       3.032 -37.610  18.072  1.00  0.00     0.073 C 
ATOM      8  O   UNL     1       1.947 -38.063  18.524  1.00  0.00    -0.545 OA
ATOM      9  O   UNL     1       3.262 -37.654  16.702  1.00  0.00    -0.545 OA
ENDBRANCH   1   7
TORSDOF 1
ENDMDL
MODEL 4
REMARK VINA RESULT:    -3.472      2.799      3.934
REMARK INTER + INTRA:          -3.695
REMARK INTER:                  -3.676
REMARK INTRA:                  -0.018
REMARK UNBOUND:                -0.019
REMARK SMILES O=C([O-])c1cccnc1
REMARK SMILES IDX 4 1 5 2 9 3 6 4 8 5 7 6 2 7 1 8 3 9
REMARK H PARENT
REMARK Flexibility Score: inf
ROOT
ATOM      1  C   UNL     1       4.000 -37.033  18.867  1.00  0.00     0.016 A 
ATOM      2  C   UNL     1       4.461 -37.767  19.974  1.00  0.00     0.013 A 
ATOM      3  C   UNL     1       4.529 -35.750  18.649  1.00  0.00     0.120 A 
ATOM      4  C   UNL     1       5.421 -37.220  20.826  1.00  0.00     0.021 A 
ATOM      5  N   UNL     1       5.464 -35.240  19.495  1.00  0.00    -0.264 NA
ATOM      6  C   UNL     1       5.916 -35.941  20.569  1.00  0.00     0.111 A 
ENDROOT
BRANCH   1   7
ATOM      7  C   UNL     1       2.983 -37.594  17.953  1.00  0.00     0.073 C 
ATOM      8  O   UNL     1       1.879 -38.007  18.397  1.00  0.00    -0.545 OA
ATOM      9  O   UNL     1       3.232 -37.675  16.588  1.00  0.00    -0.545 OA
ENDBRANCH   1   7
TORSDOF 1
ENDMDL
MODEL 5
REMARK VINA RESULT:    -3.421      2.614      3.266
REMARK INTER + INTRA:          -3.640
REMARK INTER:                  -3.622
REMARK INTRA:                  -0.019
REMARK UNBOUND:                -0.019
REMARK SMILES O=C([O-])c1cccnc1
REMARK SMILES IDX 4 1 5 2 9 3 6 4 8 5 7 6 2 7 1 8 3 9
REMARK H PARENT
REMARK Flexibility Score: inf
ROOT
ATOM      1  C   UNL     1       2.553 -37.435  16.908  1.00  0.00     0.016 A 
ATOM      2  C   UNL     1       3.541 -38.020  16.097  1.00  0.00     0.013 A 
ATOM      3  C   UNL     1       1.649 -36.537  16.317  1.00  0.00     0.120 A 
ATOM      4  C   UNL     1       3.608 -37.705  14.739  1.00  0.00     0.021 A 
ATOM      5  N   UNL     1       1.736 -36.247  14.991  1.00  0.00    -0.264 NA
ATOM      6  C   UNL     1       2.688 -36.806  14.198  1.00  0.00     0.111 A 
ENDROOT
BRANCH   1   7
ATOM      7  C   UNL     1       2.465 -37.755  18.349  1.00  0.00     0.073 C 
ATOM      8  O   UNL     1       1.377 -38.145  18.853  1.00  0.00    -0.545 OA
ATOM      9  O   UNL     1       3.580 -37.630  19.168  1.00  0.00    -0.545 OA
ENDBRANCH   1   7
TORSDOF 1
ENDMDL
MODEL 6
REMARK VINA RESULT:    -3.321      4.175      5.804
REMARK INTER + INTRA:          -3.535
REMARK INTER:                  -3.511
REMARK INTRA:                  -0.023
REMARK UNBOUND:                -0.019
REMARK SMILES O=C([O-])c1cccnc1
REMARK SMILES IDX 4 1 5 2 9 3 6 4 8 5 7 6 2 7 1 8 3 9
REMARK H PARENT
REMARK Flexibility Score: inf
ROOT
ATOM      1  C   UNL     1       5.858 -36.009  22.334  1.00  0.00     0.016 A 
ATOM      2  C   UNL     1       5.861 -37.040  23.289  1.00  0.00     0.013 A 
ATOM      3  C   UNL     1       5.994 -34.684  22.781  1.00  0.00     0.120 A 
ATOM      4  C   UNL     1       5.994 -36.738  24.645  1.00  0.00     0.021 A 
ATOM      5  N   UNL     1       6.123 -34.417  24.108  1.00  0.00    -0.264 NA
ATOM      6  C   UNL     1       6.125 -35.405  25.040  1.00  0.00     0.111 A 
ENDROOT
BRANCH   1   7
ATOM      7  C   UNL     1       5.719 -36.308  20.893  1.00  0.00     0.073 C 
ATOM      8  O   UNL     1       5.312 -37.437  20.509  1.00  0.00    -0.545 OA
ATOM      9  O   UNL     1       6.034 -35.346  19.940  1.00  0.00    -0.545 OA
ENDBRANCH   1   7
TORSDOF 1
ENDMDL
MODEL 7
REMARK VINA RESULT:    -3.062      3.362      4.095
REMARK INTER + INTRA:          -3.260
REMARK INTER:                  -3.237
REMARK INTRA:                  -0.023
REMARK UNBOUND:                -0.019
REMARK SMILES O=C([O-])c1cccnc1
REMARK SMILES IDX 4 1 5 2 9 3 6 4 8 5 7 6 2 7 1 8 3 9
REMARK H PARENT
REMARK Flexibility Score: inf
ROOT
ATOM      1  C   UNL     1       5.612 -36.293  22.305  1.00  0.00     0.016 A 
ATOM      2  C   UNL     1       5.161 -35.524  21.219  1.00  0.00     0.013 A 
ATOM      3  C   UNL     1       5.737 -37.681  22.134  1.00  0.00     0.120 A 
ATOM      4  C   UNL     1       4.846 -36.140  20.007  1.00  0.00     0.021 A 
ATOM      5  N   UNL     1       5.424 -38.257  20.942  1.00  0.00    -0.264 NA
ATOM      6  C   UNL     1       4.985 -37.523  19.886  1.00  0.00     0.111 A 
ENDROOT
BRANCH   1   7
ATOM      7  C   UNL     1       5.951 -35.659  23.598  1.00  0.00     0.073 C 
ATOM      8  O   UNL     1       6.125 -36.362  24.629  1.00  0.00    -0.545 OA
ATOM      9  O   UNL     1       6.081 -34.279  23.692  1.00  0.00    -0.545 OA
ENDBRANCH   1   7
TORSDOF 1
ENDMDL
MODEL 8
REMARK VINA RESULT:    -2.851      3.238      3.940
REMARK INTER + INTRA:          -3.037
REMARK INTER:                  -3.016
REMARK INTRA:                  -0.021
REMARK UNBOUND:                -0.019
REMARK SMILES O=C([O-])c1cccnc1
REMARK SMILES IDX 4 1 5 2 9 3 6 4 8 5 7 6 2 7 1 8 3 9
REMARK H PARENT
REMARK Flexibility Score: inf
ROOT
ATOM      1  C   UNL     1       5.433 -38.271  21.402  1.00  0.00     0.016 A 
ATOM      2  C   UNL     1       4.964 -38.220  20.079  1.00  0.00     0.013 A 
ATOM      3  C   UNL     1       5.691 -37.060  22.066  1.00  0.00     0.120 A 
ATOM      4  C   UNL     1       4.764 -36.988  19.453  1.00  0.00     0.021 A 
ATOM      5  N   UNL     1       5.488 -35.873  21.434  1.00  0.00    -0.264 NA
ATOM      6  C   UNL     1       5.035 -35.812  20.154  1.00  0.00     0.111 A 
ENDROOT
BRANCH   1   7
ATOM      7  C   UNL     1       5.651 -39.565  22.083  1.00  0.00     0.073 C 
ATOM      8  O   UNL     1       6.123 -40.549  21.453  1.00  0.00    -0.545 OA
ATOM      9  O   UNL     1       5.338 -39.714  23.428  1.00  0.00    -0.545 OA
ENDBRANCH   1   7
TORSDOF 1
ENDMDL
MODEL 9
REMARK VINA RESULT:    -2.537      1.327      2.048
REMARK INTER + INTRA:          -2.705
REMARK INTER:                  -2.682
REMARK INTRA:                  -0.022
REMARK UNBOUND:                -0.019
REMARK SMILES O=C([O-])c1cccnc1
REMARK SMILES IDX 4 1 5 2 9 3 6 4 8 5 7 6 2 7 1 8 3 9
REMARK H PARENT
REMARK Flexibility Score: inf
ROOT
ATOM      1  C   UNL     1       4.800 -36.585  19.789  1.00  0.00     0.016 A 
ATOM      2  C   UNL     1       5.041 -35.519  18.906  1.00  0.00     0.013 A 
ATOM      3  C   UNL     1       3.886 -37.579  19.401  1.00  0.00     0.120 A 
ATOM      4  C   UNL     1       4.380 -35.462  17.678  1.00  0.00     0.021 A 
ATOM      5  N   UNL     1       3.255 -37.501  18.199  1.00  0.00    -0.264 NA
ATOM      6  C   UNL     1       3.479 -36.473  17.338  1.00  0.00     0.111 A 
ENDROOT
BRANCH   1   7
ATOM      7  C   UNL     1       5.490 -36.664  21.094  1.00  0.00     0.073 C 
ATOM      8  O   UNL     1       5.913 -35.620  21.659  1.00  0.00    -0.545 OA
ATOM      9  O   UNL     1       5.684 -37.892  21.715  1.00  0.00    -0.545 OA
ENDBRANCH   1   7
TORSDOF 1
ENDMDL
