MODEL 1
REMARK VINA RESULT:    -3.324      0.000      0.000
REMARK INTER + INTRA:          -5.387
REMARK INTER:                  -4.781
REMARK INTRA:                  -0.606
REMARK UNBOUND:                -0.606
REMARK SMILES CCCCCCCCCO
REMARK SMILES IDX 6 1 5 2 4 3 3 4 2 5 1 6 7 7 8 8 9 9 10 10
REMARK H PARENT 10 11
REMARK Flexibility Score: inf
ROOT
ATOM      1  C   UNL     1       8.774   7.766  44.341  1.00  0.00     0.000 C 
ENDROOT
BRANCH   1   2
ATOM      2  C   UNL     1       8.130   6.395  44.617  1.00  0.00     0.000 C 
BRANCH   2   3
ATOM      3  C   UNL     1       6.604   6.476  44.787  1.00  0.00    -0.000 C 
BRANCH   3   4
ATOM      4  C   UNL     1       5.847   5.732  43.675  1.00  0.00    -0.000 C 
BRANCH   4   5
ATOM      5  C   UNL     1       5.925   6.453  42.320  1.00  0.00    -0.003 C 
ATOM      6  C   UNL     1       6.142   5.460  41.183  1.00  0.00     0.004 C 
ENDBRANCH   4   5
ENDBRANCH   3   4
ENDBRANCH   2   3
ENDBRANCH   1   2
BRANCH   1   7
ATOM      7  C   UNL     1       9.551   7.874  43.014  1.00  0.00     0.002 C 
BRANCH   7   8
ATOM      8  C   UNL     1       9.730   6.547  42.254  1.00  0.00     0.028 C 
BRANCH   8   9
ATOM      9  C   UNL     1      10.871   6.592  41.235  1.00  0.00     0.156 C 
BRANCH   9  10
ATOM     10  O   UNL     1      11.928   5.793  41.685  1.00  0.00    -0.396 OA
ATOM     11  H   UNL     1      12.487   5.600  40.887  1.00  0.00     0.210 HD
ENDBRANCH   9  10
ENDBRANCH   8   9
ENDBRANCH   7   8
ENDBRANCH   1   7
TORSDOF 8
ENDMDL
MODEL 2
REMARK VINA RESULT:    -3.323     10.837     12.817
REMARK INTER + INTRA:          -5.386
REMARK INTER:                  -5.038
REMARK INTRA:                  -0.347
REMARK UNBOUND:                -0.606
REMARK SMILES CCCCCCCCCO
REMARK SMILES IDX 6 1 5 2 4 3 3 4 2 5 1 6 7 7 8 8 9 9 10 10
REMARK H PARENT 10 11
REMARK Flexibility Score: inf
ROOT
ATOM      1  C   UNL     1       9.840  -1.164  33.970  1.00  0.00     0.000 C 
ENDROOT
BRANCH   1   2
ATOM      2  C   UNL     1       9.180  -1.478  32.616  1.00  0.00     0.000 C 
BRANCH   2   3
ATOM      3  C   UNL     1       9.142  -0.262  31.675  1.00  0.00    -0.000 C 
BRANCH   3   4
ATOM      4  C   UNL     1      10.263  -0.295  30.623  1.00  0.00    -0.000 C 
BRANCH   4   5
ATOM      5  C   UNL     1      11.028   1.034  30.530  1.00  0.00    -0.003 C 
ATOM      6  C   UNL     1      10.463   2.062  31.507  1.00  0.00     0.004 C 
ENDBRANCH   4   5
ENDBRANCH   3   4
ENDBRANCH   2   3
ENDBRANCH   1   2
BRANCH   1   7
ATOM      7  C   UNL     1       8.883  -1.140  35.179  1.00  0.00     0.002 C 
BRANCH   7   8
ATOM      8  C   UNL     1       7.450  -1.620  34.886  1.00  0.00     0.028 C 
BRANCH   8   9
ATOM      9  C   UNL     1       6.518  -1.489  36.092  1.00  0.00     0.156 C 
BRANCH   9  10
ATOM     10  O   UNL     1       6.111  -0.156  36.224  1.00  0.00    -0.396 OA
ATOM     11  H   UNL     1       6.302   0.278  35.351  1.00  0.00     0.210 HD
ENDBRANCH   9  10
ENDBRANCH   8   9
ENDBRANCH   7   8
ENDBRANCH   1   7
TORSDOF 8
ENDMDL
MODEL 3
REMARK VINA RESULT:    -3.280      1.670      2.068
REMARK INTER + INTRA:          -5.324
REMARK INTER:                  -4.925
REMARK INTRA:                  -0.399
REMARK UNBOUND:                -0.606
REMARK SMILES CCCCCCCCCO
REMARK SMILES IDX 6 1 5 2 4 3 3 4 2 5 1 6 7 7 8 8 9 9 10 10
REMARK H PARENT 10 11
REMARK Flexibility Score: inf
ROOT
ATOM      1  C   UNL     1       9.455   8.710  43.611  1.00  0.00     0.000 C 
ENDROOT
BRANCH   1   2
ATOM      2  C   UNL     1       8.759   7.997  44.784  1.00  0.00     0.000 C 
BRANCH   2   3
ATOM      3  C   UNL     1       7.420   8.649  45.168  1.00  0.00    -0.000 C 
BRANCH   3   4
ATOM      4  C   UNL     1       6.287   7.622  45.321  1.00  0.00    -0.000 C 
BRANCH   4   5
ATOM      5  C   UNL     1       6.712   6.204  44.906  1.00  0.00    -0.003 C 
ATOM      6  C   UNL     1       5.684   5.170  45.355  1.00  0.00     0.004 C 
ENDBRANCH   4   5
ENDBRANCH   3   4
ENDBRANCH   2   3
ENDBRANCH   1   2
BRANCH   1   7
ATOM      7  C   UNL     1       9.301   8.023  42.239  1.00  0.00     0.002 C 
BRANCH   7   8
ATOM      8  C   UNL     1       9.884   6.601  42.153  1.00  0.00     0.028 C 
BRANCH   8   9
ATOM      9  C   UNL     1      11.042   6.489  41.159  1.00  0.00     0.156 C 
BRANCH   9  10
ATOM     10  O   UNL     1      12.048   5.683  41.706  1.00  0.00    -0.396 OA
ATOM     11  H   UNL     1      11.593   5.057  42.327  1.00  0.00     0.210 HD
ENDBRANCH   9  10
ENDBRANCH   8   9
ENDBRANCH   7   8
ENDBRANCH   1   7
TORSDOF 8
ENDMDL
MODEL 4
REMARK VINA RESULT:    -3.205      1.560      2.246
REMARK INTER + INTRA:          -5.216
REMARK INTER:                  -4.920
REMARK INTRA:                  -0.296
REMARK UNBOUND:                -0.606
REMARK SMILES CCCCCCCCCO
REMARK SMILES IDX 6 1 5 2 4 3 3 4 2 5 1 6 7 7 8 8 9 9 10 10
REMARK H PARENT 10 11
REMARK Flexibility Score: inf
ROOT
ATOM      1  C   UNL     1       9.073   8.420  44.153  1.00  0.00     0.000 C 
ENDROOT
BRANCH   1   2
ATOM      2  C   UNL     1       8.496   7.166  44.835  1.00  0.00     0.000 C 
BRANCH   2   3
ATOM      3  C   UNL     1       6.959   7.115  44.786  1.00  0.00    -0.000 C 
BRANCH   3   4
ATOM      4  C   UNL     1       6.417   5.678  44.821  1.00  0.00    -0.000 C 
BRANCH   4   5
ATOM      5  C   UNL     1       5.417   5.449  45.965  1.00  0.00    -0.003 C 
ATOM      6  C   UNL     1       4.948   6.774  46.557  1.00  0.00     0.004 C 
ENDBRANCH   4   5
ENDBRANCH   3   4
ENDBRANCH   2   3
ENDBRANCH   1   2
BRANCH   1   7
ATOM      7  C   UNL     1       9.917   8.154  42.890  1.00  0.00     0.002 C 
BRANCH   7   8
ATOM      8  C   UNL     1       9.709   6.770  42.248  1.00  0.00     0.028 C 
BRANCH   8   9
ATOM      9  C   UNL     1      10.746   6.451  41.168  1.00  0.00     0.156 C 
BRANCH   9  10
ATOM     10  O   UNL     1      11.924   5.998  41.773  1.00  0.00    -0.396 OA
ATOM     11  H   UNL     1      12.671   6.383  41.245  1.00  0.00     0.210 HD
ENDBRANCH   9  10
ENDBRANCH   8   9
ENDBRANCH   7   8
ENDBRANCH   1   7
TORSDOF 8
ENDMDL
MODEL 5
REMARK VINA RESULT:    -3.158     11.542     12.701
REMARK INTER + INTRA:          -5.148
REMARK INTER:                  -4.481
REMARK INTRA:                  -0.667
REMARK UNBOUND:                -0.606
REMARK SMILES CCCCCCCCCO
REMARK SMILES IDX 6 1 5 2 4 3 3 4 2 5 1 6 7 7 8 8 9 9 10 10
REMARK H PARENT 10 11
REMARK Flexibility Score: inf
ROOT
ATOM      1  C   UNL     1      10.577  -0.971  33.799  1.00  0.00     0.000 C 
ENDROOT
BRANCH   1   2
ATOM      2  C   UNL     1       9.830  -1.336  32.503  1.00  0.00     0.000 C 
BRANCH   2   3
ATOM      3  C   UNL     1       9.414  -0.100  31.687  1.00  0.00    -0.000 C 
BRANCH   3   4
ATOM      4  C   UNL     1      10.265   0.082  30.420  1.00  0.00    -0.000 C 
BRANCH   4   5
ATOM      5  C   UNL     1      11.159   1.330  30.481  1.00  0.00    -0.003 C 
ATOM      6  C   UNL     1      10.534   2.410  31.359  1.00  0.00     0.004 C 
ENDBRANCH   4   5
ENDBRANCH   3   4
ENDBRANCH   2   3
ENDBRANCH   1   2
BRANCH   1   7
ATOM      7  C   UNL     1      12.053  -0.566  33.617  1.00  0.00     0.002 C 
BRANCH   7   8
ATOM      8  C   UNL     1      12.383   0.887  34.004  1.00  0.00     0.028 C 
BRANCH   8   9
ATOM      9  C   UNL     1      13.836   1.268  33.711  1.00  0.00     0.156 C 
BRANCH   9  10
ATOM     10  O   UNL     1      14.629   0.966  34.825  1.00  0.00    -0.396 OA
ATOM     11  H   UNL     1      14.237   1.468  35.586  1.00  0.00     0.210 HD
ENDBRANCH   9  10
ENDBRANCH   8   9
ENDBRANCH   7   8
ENDBRANCH   1   7
TORSDOF 8
ENDMDL
MODEL 6
REMARK VINA RESULT:    -3.147      2.752      4.504
REMARK INTER + INTRA:          -5.132
REMARK INTER:                  -4.543
REMARK INTRA:                  -0.589
REMARK UNBOUND:                -0.606
REMARK SMILES CCCCCCCCCO
REMARK SMILES IDX 6 1 5 2 4 3 3 4 2 5 1 6 7 7 8 8 9 9 10 10
REMARK H PARENT 10 11
REMARK Flexibility Score: inf
ROOT
ATOM      1  C   UNL     1       8.063   6.484  44.765  1.00  0.00     0.000 C 
ENDROOT
BRANCH   1   2
ATOM      2  C   UNL     1       8.655   7.867  44.440  1.00  0.00     0.000 C 
BRANCH   2   3
ATOM      3  C   UNL     1       9.485   7.870  43.146  1.00  0.00    -0.000 C 
BRANCH   3   4
ATOM      4  C   UNL     1       9.470   6.509  42.433  1.00  0.00    -0.000 C 
BRANCH   4   5
ATOM      5  C   UNL     1       8.814   6.574  41.045  1.00  0.00    -0.003 C 
ATOM      6  C   UNL     1       7.505   5.789  41.020  1.00  0.00     0.004 C 
ENDBRANCH   4   5
ENDBRANCH   3   4
ENDBRANCH   2   3
ENDBRANCH   1   2
BRANCH   1   7
ATOM      7  C   UNL     1       6.563   6.477  45.122  1.00  0.00     0.002 C 
BRANCH   7   8
ATOM      8  C   UNL     1       5.698   5.518  44.284  1.00  0.00     0.028 C 
BRANCH   8   9
ATOM      9  C   UNL     1       4.779   4.641  45.138  1.00  0.00     0.156 C 
BRANCH   9  10
ATOM     10  O   UNL     1       5.486   4.175  46.253  1.00  0.00    -0.396 OA
ATOM     11  H   UNL     1       5.743   4.981  46.772  1.00  0.00     0.210 HD
ENDBRANCH   9  10
ENDBRANCH   8   9
ENDBRANCH   7   8
ENDBRANCH   1   7
TORSDOF 8
ENDMDL
MODEL 7
REMARK VINA RESULT:    -3.137     11.786     12.761
REMARK INTER + INTRA:          -5.118
REMARK INTER:                  -4.426
REMARK INTRA:                  -0.692
REMARK UNBOUND:                -0.606
REMARK SMILES CCCCCCCCCO
REMARK SMILES IDX 6 1 5 2 4 3 3 4 2 5 1 6 7 7 8 8 9 9 10 10
REMARK H PARENT 10 11
REMARK Flexibility Score: inf
ROOT
ATOM      1  C   UNL     1      11.009   1.347  30.443  1.00  0.00     0.000 C 
ENDROOT
BRANCH   1   2
ATOM      2  C   UNL     1      10.347  -0.041  30.484  1.00  0.00     0.000 C 
BRANCH   2   3
ATOM      3  C   UNL     1       9.216  -0.133  31.522  1.00  0.00    -0.000 C 
BRANCH   3   4
ATOM      4  C   UNL     1       9.416  -1.293  32.511  1.00  0.00    -0.000 C 
BRANCH   4   5
ATOM      5  C   UNL     1      10.373  -0.936  33.658  1.00  0.00    -0.003 C 
ATOM      6  C   UNL     1      11.724  -1.624  33.480  1.00  0.00     0.004 C 
ENDBRANCH   4   5
ENDBRANCH   3   4
ENDBRANCH   2   3
ENDBRANCH   1   2
BRANCH   1   7
ATOM      7  C   UNL     1      10.567   2.321  31.555  1.00  0.00     0.002 C 
BRANCH   7   8
ATOM      8  C   UNL     1      11.716   2.982  32.337  1.00  0.00     0.028 C 
BRANCH   8   9
ATOM      9  C   UNL     1      12.663   1.966  32.981  1.00  0.00     0.156 C 
BRANCH   9  10
ATOM     10  O   UNL     1      12.437   1.930  34.362  1.00  0.00    -0.396 OA
ATOM     11  H   UNL     1      13.259   1.547  34.765  1.00  0.00     0.210 HD
ENDBRANCH   9  10
ENDBRANCH   8   9
ENDBRANCH   7   8
ENDBRANCH   1   7
TORSDOF 8
ENDMDL
MODEL 8
REMARK VINA RESULT:    -3.105     10.582     12.250
REMARK INTER + INTRA:          -5.072
REMARK INTER:                  -4.694
REMARK INTRA:                  -0.378
REMARK UNBOUND:                -0.606
REMARK SMILES CCCCCCCCCO
REMARK SMILES IDX 6 1 5 2 4 3 3 4 2 5 1 6 7 7 8 8 9 9 10 10
REMARK H PARENT 10 11
REMARK Flexibility Score: inf
ROOT
ATOM      1  C   UNL     1       9.211  -1.146  32.535  1.00  0.00     0.000 C 
ENDROOT
BRANCH   1   2
ATOM      2  C   UNL     1       9.957  -0.884  33.856  1.00  0.00     0.000 C 
BRANCH   2   3
ATOM      3  C   UNL     1       9.088  -1.160  35.095  1.00  0.00    -0.000 C 
BRANCH   3   4
ATOM      4  C   UNL     1       7.860  -2.026  34.772  1.00  0.00    -0.000 C 
BRANCH   4   5
ATOM      5  C   UNL     1       6.536  -1.336  35.137  1.00  0.00    -0.003 C 
ATOM      6  C   UNL     1       6.726  -0.365  36.298  1.00  0.00     0.004 C 
ENDBRANCH   4   5
ENDBRANCH   3   4
ENDBRANCH   2   3
ENDBRANCH   1   2
BRANCH   1   7
ATOM      7  C   UNL     1       9.231   0.020  31.526  1.00  0.00     0.002 C 
BRANCH   7   8
ATOM      8  C   UNL     1      10.432   0.030  30.564  1.00  0.00     0.028 C 
BRANCH   8   9
ATOM      9  C   UNL     1      11.082   1.409  30.433  1.00  0.00     0.156 C 
BRANCH   9  10
ATOM     10  O   UNL     1      10.566   2.262  31.416  1.00  0.00    -0.396 OA
ATOM     11  H   UNL     1      11.058   3.119  31.324  1.00  0.00     0.210 HD
ENDBRANCH   9  10
ENDBRANCH   8   9
ENDBRANCH   7   8
ENDBRANCH   1   7
TORSDOF 8
ENDMDL
MODEL 9
REMARK VINA RESULT:    -3.076     12.024     13.441
REMARK INTER + INTRA:          -5.030
REMARK INTER:                  -4.714
REMARK INTRA:                  -0.316
REMARK UNBOUND:                -0.606
REMARK SMILES CCCCCCCCCO
REMARK SMILES IDX 6 1 5 2 4 3 3 4 2 5 1 6 7 7 8 8 9 9 10 10
REMARK H PARENT 10 11
REMARK Flexibility Score: inf
ROOT
ATOM      1  C   UNL     1       9.375  -1.237  32.403  1.00  0.00     0.000 C 
ENDROOT
BRANCH   1   2
ATOM      2  C   UNL     1       9.362   0.056  31.569  1.00  0.00     0.000 C 
BRANCH   2   3
ATOM      3  C   UNL     1      10.529   0.133  30.571  1.00  0.00    -0.000 C 
BRANCH   3   4
ATOM      4  C   UNL     1      11.045   1.569  30.377  1.00  0.00    -0.000 C 
BRANCH   4   5
ATOM      5  C   UNL     1      10.640   2.504  31.527  1.00  0.00    -0.003 C 
ATOM      6  C   UNL     1      11.828   2.798  32.439  1.00  0.00     0.004 C 
ENDBRANCH   4   5
ENDBRANCH   3   4
ENDBRANCH   2   3
ENDBRANCH   1   2
BRANCH   1   7
ATOM      7  C   UNL     1       8.962  -1.072  33.880  1.00  0.00     0.002 C 
BRANCH   7   8
ATOM      8  C   UNL     1       8.005  -2.152  34.414  1.00  0.00     0.028 C 
BRANCH   8   9
ATOM      9  C   UNL     1       8.734  -3.393  34.935  1.00  0.00     0.156 C 
BRANCH   9  10
ATOM     10  O   UNL     1       8.728  -4.385  33.947  1.00  0.00    -0.396 OA
ATOM     11  H   UNL     1       8.039  -5.045  34.224  1.00  0.00     0.210 HD
ENDBRANCH   9  10
ENDBRANCH   8   9
ENDBRANCH   7   8
ENDBRANCH   1   7
TORSDOF 8
ENDMDL
