MODEL 1
REMARK VINA RESULT:    -6.476      0.000      0.000
REMARK INTER + INTRA:          -6.934
REMARK INTER:                  -6.855
REMARK INTRA:                  -0.079
REMARK UNBOUND:                -0.079
REMARK SMILES CC(=O)c1cccc(C)c1
REMARK SMILES IDX 9 1 8 2 10 3 4 4 5 5 6 6 7 7 2 8 3 9 1 10
REMARK H PARENT
REMARK Flexibility Score: inf
ROOT
ATOM      1  C   UNL     1     149.478 157.939 159.531  1.00  0.00     0.044 C 
ATOM      2  C   UNL     1     150.711 157.155 159.192  1.00  0.00    -0.050 A 
ATOM      3  C   UNL     1     151.311 156.329 160.157  1.00  0.00     0.015 A 
ATOM      4  C   UNL     1     152.449 155.560 159.839  1.00  0.00     0.017 A 
ATOM      5  C   UNL     1     152.965 155.626 158.532  1.00  0.00     0.012 A 
ATOM      6  C   UNL     1     152.359 156.434 157.567  1.00  0.00     0.001 A 
ATOM      7  C   UNL     1     151.234 157.191 157.892  1.00  0.00     0.003 A 
ENDROOT
BRANCH   4   8
ATOM      8  C   UNL     1     153.102 154.688 160.854  1.00  0.00     0.159 C 
ATOM      9  O   UNL     1     152.755 154.768 162.064  1.00  0.00    -0.295 OA
ATOM     10  C   UNL     1     154.171 153.704 160.483  1.00  0.00     0.093 C 
ENDBRANCH   4   8
TORSDOF 1
ENDMDL
MODEL 2
REMARK VINA RESULT:    -6.336      1.765      3.902
REMARK INTER + INTRA:          -6.785
REMARK INTER:                  -6.706
REMARK INTRA:                  -0.079
REMARK UNBOUND:                -0.079
REMARK SMILES CC(=O)c1cccc(C)c1
REMARK SMILES IDX 9 1 8 2 10 3 4 4 5 5 6 6 7 7 2 8 3 9 1 10
REMARK H PARENT
REMARK Flexibility Score: inf
ROOT
ATOM      1  C   UNL     1     153.062 154.486 161.629  1.00  0.00     0.044 C 
ATOM      2  C   UNL     1     152.598 155.198 160.393  1.00  0.00    -0.050 A 
ATOM      3  C   UNL     1     151.494 156.065 160.450  1.00  0.00     0.015 A 
ATOM      4  C   UNL     1     151.071 156.768 159.303  1.00  0.00     0.017 A 
ATOM      5  C   UNL     1     151.784 156.593 158.102  1.00  0.00     0.012 A 
ATOM      6  C   UNL     1     152.892 155.744 158.049  1.00  0.00     0.001 A 
ATOM      7  C   UNL     1     153.302 155.054 159.190  1.00  0.00     0.003 A 
ENDROOT
BRANCH   4   8
ATOM      8  C   UNL     1     149.898 157.684 159.345  1.00  0.00     0.159 C 
ATOM      9  O   UNL     1     149.128 157.669 160.345  1.00  0.00    -0.295 OA
ATOM     10  C   UNL     1     149.594 158.635 158.226  1.00  0.00     0.093 C 
ENDBRANCH   4   8
TORSDOF 1
ENDMDL
MODEL 3
REMARK VINA RESULT:    -5.996      1.113      2.348
REMARK INTER + INTRA:          -6.426
REMARK INTER:                  -6.354
REMARK INTRA:                  -0.072
REMARK UNBOUND:                -0.079
REMARK SMILES CC(=O)c1cccc(C)c1
REMARK SMILES IDX 9 1 8 2 10 3 4 4 5 5 6 6 7 7 2 8 3 9 1 10
REMARK H PARENT
REMARK Flexibility Score: inf
ROOT
ATOM      1  C   UNL     1     152.515 155.633 156.756  1.00  0.00     0.044 C 
ATOM      2  C   UNL     1     152.316 155.752 158.238  1.00  0.00    -0.050 A 
ATOM      3  C   UNL     1     153.099 154.988 159.119  1.00  0.00     0.015 A 
ATOM      4  C   UNL     1     152.948 155.119 160.515  1.00  0.00     0.017 A 
ATOM      5  C   UNL     1     152.005 156.039 161.008  1.00  0.00     0.012 A 
ATOM      6  C   UNL     1     151.239 156.813 160.133  1.00  0.00     0.001 A 
ATOM      7  C   UNL     1     151.397 156.675 158.754  1.00  0.00     0.003 A 
ENDROOT
BRANCH   4   8
ATOM      8  C   UNL     1     153.763 154.309 161.461  1.00  0.00     0.159 C 
ATOM      9  O   UNL     1     153.213 153.779 162.466  1.00  0.00    -0.295 OA
ATOM     10  C   UNL     1     155.234 154.098 161.261  1.00  0.00     0.093 C 
ENDBRANCH   4   8
TORSDOF 1
ENDMDL
MODEL 4
REMARK VINA RESULT:    -5.898     15.910     16.686
REMARK INTER + INTRA:          -6.322
REMARK INTER:                  -6.254
REMARK INTRA:                  -0.067
REMARK UNBOUND:                -0.079
REMARK SMILES CC(=O)c1cccc(C)c1
REMARK SMILES IDX 9 1 8 2 10 3 4 4 5 5 6 6 7 7 2 8 3 9 1 10
REMARK H PARENT
REMARK Flexibility Score: inf
ROOT
ATOM      1  C   UNL     1     151.379 167.775 148.938  1.00  0.00     0.044 C 
ATOM      2  C   UNL     1     150.534 168.750 149.704  1.00  0.00    -0.050 A 
ATOM      3  C   UNL     1     150.971 169.239 150.946  1.00  0.00     0.015 A 
ATOM      4  C   UNL     1     150.204 170.184 151.658  1.00  0.00     0.017 A 
ATOM      5  C   UNL     1     148.998 170.639 151.093  1.00  0.00     0.012 A 
ATOM      6  C   UNL     1     148.572 170.167 149.849  1.00  0.00     0.001 A 
ATOM      7  C   UNL     1     149.339 169.231 149.153  1.00  0.00     0.003 A 
ENDROOT
BRANCH   4   8
ATOM      8  C   UNL     1     150.648 170.704 152.980  1.00  0.00     0.159 C 
ATOM      9  O   UNL     1     150.505 169.993 154.012  1.00  0.00    -0.295 OA
ATOM     10  C   UNL     1     151.267 172.062 153.131  1.00  0.00     0.093 C 
ENDBRANCH   4   8
TORSDOF 1
ENDMDL
MODEL 5
REMARK VINA RESULT:    -5.545      2.039      4.294
REMARK INTER + INTRA:          -5.948
REMARK INTER:                  -5.872
REMARK INTRA:                  -0.076
REMARK UNBOUND:                -0.079
REMARK SMILES CC(=O)c1cccc(C)c1
REMARK SMILES IDX 9 1 8 2 10 3 4 4 5 5 6 6 7 7 2 8 3 9 1 10
REMARK H PARENT
REMARK Flexibility Score: inf
ROOT
ATOM      1  C   UNL     1     152.895 155.409 156.749  1.00  0.00     0.044 C 
ATOM      2  C   UNL     1     152.287 155.853 158.046  1.00  0.00    -0.050 A 
ATOM      3  C   UNL     1     151.236 156.785 158.051  1.00  0.00     0.015 A 
ATOM      4  C   UNL     1     150.632 157.182 159.261  1.00  0.00     0.017 A 
ATOM      5  C   UNL     1     151.095 156.618 160.464  1.00  0.00     0.012 A 
ATOM      6  C   UNL     1     152.128 155.678 160.459  1.00  0.00     0.001 A 
ATOM      7  C   UNL     1     152.719 155.292 159.256  1.00  0.00     0.003 A 
ENDROOT
BRANCH   4   8
ATOM      8  C   UNL     1     149.523 158.176 159.284  1.00  0.00     0.159 C 
ATOM      9  O   UNL     1     148.806 158.290 160.315  1.00  0.00    -0.295 OA
ATOM     10  C   UNL     1     149.224 159.057 158.108  1.00  0.00     0.093 C 
ENDBRANCH   4   8
TORSDOF 1
ENDMDL
MODEL 6
REMARK VINA RESULT:    -5.404     15.593     16.618
REMARK INTER + INTRA:          -5.799
REMARK INTER:                  -5.733
REMARK INTRA:                  -0.066
REMARK UNBOUND:                -0.079
REMARK SMILES CC(=O)c1cccc(C)c1
REMARK SMILES IDX 9 1 8 2 10 3 4 4 5 5 6 6 7 7 2 8 3 9 1 10
REMARK H PARENT
REMARK Flexibility Score: inf
ROOT
ATOM      1  C   UNL     1     151.711 171.456 153.525  1.00  0.00     0.044 C 
ATOM      2  C   UNL     1     150.763 171.041 152.439  1.00  0.00    -0.050 A 
ATOM      3  C   UNL     1     150.924 169.802 151.797  1.00  0.00     0.015 A 
ATOM      4  C   UNL     1     150.017 169.385 150.801  1.00  0.00     0.017 A 
ATOM      5  C   UNL     1     148.940 170.228 150.471  1.00  0.00     0.012 A 
ATOM      6  C   UNL     1     148.770 171.453 151.122  1.00  0.00     0.001 A 
ATOM      7  C   UNL     1     149.673 171.856 152.106  1.00  0.00     0.003 A 
ENDROOT
BRANCH   4   8
ATOM      8  C   UNL     1     150.180 168.079 150.104  1.00  0.00     0.159 C 
ATOM      9  O   UNL     1     149.520 167.076 150.492  1.00  0.00    -0.295 OA
ATOM     10  C   UNL     1     151.113 167.911 148.941  1.00  0.00     0.093 C 
ENDBRANCH   4   8
TORSDOF 1
ENDMDL
MODEL 7
REMARK VINA RESULT:    -5.379     10.000     10.778
REMARK INTER + INTRA:          -5.772
REMARK INTER:                  -5.697
REMARK INTRA:                  -0.075
REMARK UNBOUND:                -0.079
REMARK SMILES CC(=O)c1cccc(C)c1
REMARK SMILES IDX 9 1 8 2 10 3 4 4 5 5 6 6 7 7 2 8 3 9 1 10
REMARK H PARENT
REMARK Flexibility Score: inf
ROOT
ATOM      1  C   UNL     1     148.711 158.744 149.969  1.00  0.00     0.044 C 
ATOM      2  C   UNL     1     149.443 159.875 150.631  1.00  0.00    -0.050 A 
ATOM      3  C   UNL     1     148.732 160.977 151.133  1.00  0.00     0.015 A 
ATOM      4  C   UNL     1     149.405 162.028 151.790  1.00  0.00     0.017 A 
ATOM      5  C   UNL     1     150.801 161.945 151.943  1.00  0.00     0.012 A 
ATOM      6  C   UNL     1     151.506 160.841 151.459  1.00  0.00     0.001 A 
ATOM      7  C   UNL     1     150.830 159.806 150.811  1.00  0.00     0.003 A 
ENDROOT
BRANCH   4   8
ATOM      8  C   UNL     1     148.667 163.208 152.319  1.00  0.00     0.159 C 
ATOM      9  O   UNL     1     149.262 164.314 152.442  1.00  0.00    -0.295 OA
ATOM     10  C   UNL     1     147.224 163.129 152.717  1.00  0.00     0.093 C 
ENDBRANCH   4   8
TORSDOF 1
ENDMDL
MODEL 8
REMARK VINA RESULT:    -5.293     14.915     16.232
REMARK INTER + INTRA:          -5.682
REMARK INTER:                  -5.615
REMARK INTRA:                  -0.067
REMARK UNBOUND:                -0.079
REMARK SMILES CC(=O)c1cccc(C)c1
REMARK SMILES IDX 9 1 8 2 10 3 4 4 5 5 6 6 7 7 2 8 3 9 1 10
REMARK H PARENT
REMARK Flexibility Score: inf
ROOT
ATOM      1  C   UNL     1     148.983 169.114 148.637  1.00  0.00     0.044 C 
ATOM      2  C   UNL     1     149.411 169.661 149.967  1.00  0.00    -0.050 A 
ATOM      3  C   UNL     1     150.518 169.109 150.633  1.00  0.00     0.015 A 
ATOM      4  C   UNL     1     150.953 169.638 151.866  1.00  0.00     0.017 A 
ATOM      5  C   UNL     1     150.264 170.738 152.410  1.00  0.00     0.012 A 
ATOM      6  C   UNL     1     149.174 171.298 151.739  1.00  0.00     0.001 A 
ATOM      7  C   UNL     1     148.752 170.767 150.520  1.00  0.00     0.003 A 
ENDROOT
BRANCH   4   8
ATOM      8  C   UNL     1     152.118 169.059 152.589  1.00  0.00     0.159 C 
ATOM      9  O   UNL     1     151.927 168.235 153.525  1.00  0.00    -0.295 OA
ATOM     10  C   UNL     1     153.530 169.424 152.240  1.00  0.00     0.093 C 
ENDBRANCH   4   8
TORSDOF 1
ENDMDL
MODEL 9
REMARK VINA RESULT:    -5.103     15.305     17.029
REMARK INTER + INTRA:          -5.480
REMARK INTER:                  -5.409
REMARK INTRA:                  -0.071
REMARK UNBOUND:                -0.079
REMARK SMILES CC(=O)c1cccc(C)c1
REMARK SMILES IDX 9 1 8 2 10 3 4 4 5 5 6 6 7 7 2 8 3 9 1 10
REMARK H PARENT
REMARK Flexibility Score: inf
ROOT
ATOM      1  C   UNL     1     153.320 168.814 152.610  1.00  0.00     0.044 C 
ATOM      2  C   UNL     1     152.322 169.934 152.623  1.00  0.00    -0.050 A 
ATOM      3  C   UNL     1     151.096 169.793 151.953  1.00  0.00     0.015 A 
ATOM      4  C   UNL     1     150.134 170.824 151.988  1.00  0.00     0.017 A 
ATOM      5  C   UNL     1     150.422 171.992 152.719  1.00  0.00     0.012 A 
ATOM      6  C   UNL     1     151.634 172.125 153.400  1.00  0.00     0.001 A 
ATOM      7  C   UNL     1     152.579 171.099 153.358  1.00  0.00     0.003 A 
ENDROOT
BRANCH   4   8
ATOM      8  C   UNL     1     148.834 170.694 151.276  1.00  0.00     0.159 C 
ATOM      9  O   UNL     1     147.761 170.995 151.869  1.00  0.00    -0.295 OA
ATOM     10  C   UNL     1     148.750 170.211 149.858  1.00  0.00     0.093 C 
ENDBRANCH   4   8
TORSDOF 1
ENDMDL
