MODEL 1
REMARK VINA RESULT:    -4.023      0.000      0.000
REMARK INTER + INTRA:         -11.694
REMARK INTER:                  -9.198
REMARK INTRA:                  -2.496
REMARK UNBOUND:                -2.496
REMARK SMILES CCCCCCCCCCCCCCCCCCCCCCCC(=O)[O-]
REMARK SMILES IDX 13 1 14 2 15 3 16 4 17 5 18 6 19 7 20 8 21 9 22 10 23 11
REMARK SMILES IDX 24 12 25 13 26 14 12 15 11 16 10 17 9 18 8 19 7 20 6 21 5 22
REMARK SMILES IDX 4 23 3 24 2 25 1 26
REMARK H PARENT
REMARK Flexibility Score: inf
ROOT
ATOM      1  C   UNL     1       4.362   8.318   9.809  1.00  0.00     0.000 C 
ENDROOT
BRANCH   1   2
ATOM      2  C   UNL     1       3.757   9.491   9.019  1.00  0.00     0.000 C 
BRANCH   2   3
ATOM      3  C   UNL     1       4.823  10.462   8.480  1.00  0.00     0.000 C 
BRANCH   3   4
ATOM      4  C   UNL     1       5.205  10.261   7.000  1.00  0.00     0.000 C 
BRANCH   4   5
ATOM      5  C   UNL     1       4.865  11.435   6.062  1.00  0.00     0.000 C 
BRANCH   5   6
ATOM      6  C   UNL     1       4.033  12.530   6.750  1.00  0.00     0.000 C 
BRANCH   6   7
ATOM      7  C   UNL     1       4.744  13.896   6.778  1.00  0.00     0.000 C 
BRANCH   7   8
ATOM      8  C   UNL     1       5.775  14.081   7.908  1.00  0.00     0.000 C 
BRANCH   8   9
ATOM      9  C   UNL     1       7.228  14.066   7.404  1.00  0.00     0.000 C 
BRANCH   9  10
ATOM     10  C   UNL     1       7.955  12.745   7.722  1.00  0.00     0.006 C 
BRANCH  10  11
ATOM     11  C   UNL     1       9.143  12.435   6.797  1.00  0.00     0.053 C 
BRANCH  11  12
ATOM     12  C   UNL     1       9.192  10.988   6.411  1.00  0.00     0.041 C 
ATOM     13  O   UNL     1       9.629  10.648   5.280  1.00  0.00    -0.550 OA
ATOM     14  O   UNL     1       8.723  10.018   7.288  1.00  0.00    -0.550 OA
ENDBRANCH  11  12
ENDBRANCH  10  11
ENDBRANCH   9  10
ENDBRANCH   8   9
ENDBRANCH   7   8
ENDBRANCH   6   7
ENDBRANCH   5   6
ENDBRANCH   4   5
ENDBRANCH   3   4
ENDBRANCH   2   3
ENDBRANCH   1   2
BRANCH   1  15
ATOM     15  C   UNL     1       4.106   6.950   9.139  1.00  0.00     0.000 C 
BRANCH  15  16
ATOM     16  C   UNL     1       3.500   5.898  10.089  1.00  0.00     0.000 C 
BRANCH  16  17
ATOM     17  C   UNL     1       2.594   4.858   9.405  1.00  0.00     0.000 C 
BRANCH  17  18
ATOM     18  C   UNL     1       2.857   4.708   7.888  1.00  0.00    -0.000 C 
BRANCH  18  19
ATOM     19  C   UNL     1       3.303   3.287   7.503  1.00  0.00    -0.000 C 
BRANCH  19  20
ATOM     20  C   UNL     1       4.660   2.906   8.116  1.00  0.00    -0.000 C 
BRANCH  20  21
ATOM     21  C   UNL     1       5.783   3.872   7.710  1.00  0.00    -0.000 C 
BRANCH  21  22
ATOM     22  C   UNL     1       5.931   3.936   6.185  1.00  0.00    -0.000 C 
BRANCH  22  23
ATOM     23  C   UNL     1       7.245   3.283   5.731  1.00  0.00    -0.000 C 
BRANCH  23  24
ATOM     24  C   UNL     1       8.089   2.778   6.920  1.00  0.00    -0.000 C 
BRANCH  24  25
ATOM     25  C   UNL     1       8.452   1.285   6.828  1.00  0.00    -0.003 C 
ATOM     26  C   UNL     1       7.262   0.363   7.087  1.00  0.00     0.004 C 
ENDBRANCH  24  25
ENDBRANCH  23  24
ENDBRANCH  22  23
ENDBRANCH  21  22
ENDBRANCH  20  21
ENDBRANCH  19  20
ENDBRANCH  18  19
ENDBRANCH  17  18
ENDBRANCH  16  17
ENDBRANCH  15  16
ENDBRANCH   1  15
TORSDOF 22
ENDMDL
MODEL 2
REMARK VINA RESULT:    -4.008      2.532      9.816
REMARK INTER + INTRA:         -11.660
REMARK INTER:                  -9.742
REMARK INTRA:                  -1.918
REMARK UNBOUND:                -2.496
REMARK SMILES CCCCCCCCCCCCCCCCCCCCCCCC(=O)[O-]
REMARK SMILES IDX 13 1 14 2 15 3 16 4 17 5 18 6 19 7 20 8 21 9 22 10 23 11
REMARK SMILES IDX 24 12 25 13 26 14 12 15 11 16 10 17 9 18 8 19 7 20 6 21 5 22
REMARK SMILES IDX 4 23 3 24 2 25 1 26
REMARK H PARENT
REMARK Flexibility Score: inf
ROOT
ATOM      1  C   UNL     1       4.547   3.752   7.748  1.00  0.00     0.000 C 
ENDROOT
BRANCH   1   2
ATOM      2  C   UNL     1       4.730   2.380   8.419  1.00  0.00     0.000 C 
BRANCH   2   3
ATOM      3  C   UNL     1       3.395   1.722   8.812  1.00  0.00     0.000 C 
BRANCH   3   4
ATOM      4  C   UNL     1       3.349   0.188   8.658  1.00  0.00     0.000 C 
BRANCH   4   5
ATOM      5  C   UNL     1       4.712  -0.497   8.442  1.00  0.00     0.000 C 
BRANCH   5   6
ATOM      6  C   UNL     1       4.697  -1.515   7.290  1.00  0.00     0.000 C 
BRANCH   6   7
ATOM      7  C   UNL     1       6.109  -1.890   6.803  1.00  0.00     0.000 C 
BRANCH   7   8
ATOM      8  C   UNL     1       6.564  -1.201   5.503  1.00  0.00     0.000 C 
BRANCH   8   9
ATOM      9  C   UNL     1       7.790  -0.294   5.703  1.00  0.00     0.000 C 
BRANCH   9  10
ATOM     10  C   UNL     1       7.454   1.003   6.464  1.00  0.00     0.006 C 
BRANCH  10  11
ATOM     11  C   UNL     1       8.422   2.166   6.198  1.00  0.00     0.053 C 
BRANCH  11  12
ATOM     12  C   UNL     1       7.949   3.049   5.084  1.00  0.00     0.041 C 
ATOM     13  O   UNL     1       6.980   3.832   5.263  1.00  0.00    -0.550 OA
ATOM     14  O   UNL     1       8.559   2.981   3.838  1.00  0.00    -0.550 OA
ENDBRANCH  11  12
ENDBRANCH  10  11
ENDBRANCH   9  10
ENDBRANCH   8   9
ENDBRANCH   7   8
ENDBRANCH   6   7
ENDBRANCH   5   6
ENDBRANCH   4   5
ENDBRANCH   3   4
ENDBRANCH   2   3
ENDBRANCH   1   2
BRANCH   1  15
ATOM     15  C   UNL     1       3.213   4.431   8.131  1.00  0.00     0.000 C 
BRANCH  15  16
ATOM     16  C   UNL     1       3.388   5.735   8.933  1.00  0.00     0.000 C 
BRANCH  16  17
ATOM     17  C   UNL     1       4.763   5.898   9.607  1.00  0.00     0.000 C 
BRANCH  17  18
ATOM     18  C   UNL     1       5.226   7.369   9.721  1.00  0.00    -0.000 C 
BRANCH  18  19
ATOM     19  C   UNL     1       4.068   8.368   9.559  1.00  0.00    -0.000 C 
BRANCH  19  20
ATOM     20  C   UNL     1       4.550   9.823   9.456  1.00  0.00    -0.000 C 
BRANCH  20  21
ATOM     21  C   UNL     1       4.099  10.504   8.155  1.00  0.00    -0.000 C 
BRANCH  21  22
ATOM     22  C   UNL     1       5.210  10.464   7.099  1.00  0.00    -0.000 C 
BRANCH  22  23
ATOM     23  C   UNL     1       4.976  11.527   6.014  1.00  0.00    -0.000 C 
BRANCH  23  24
ATOM     24  C   UNL     1       4.298  12.795   6.573  1.00  0.00    -0.000 C 
BRANCH  24  25
ATOM     25  C   UNL     1       5.239  14.010   6.657  1.00  0.00    -0.003 C 
ATOM     26  C   UNL     1       5.412  14.535   8.081  1.00  0.00     0.004 C 
ENDBRANCH  24  25
ENDBRANCH  23  24
ENDBRANCH  22  23
ENDBRANCH  21  22
ENDBRANCH  20  21
ENDBRANCH  19  20
ENDBRANCH  18  19
ENDBRANCH  17  18
ENDBRANCH  16  17
ENDBRANCH  15  16
ENDBRANCH   1  15
TORSDOF 22
ENDMDL
MODEL 3
REMARK VINA RESULT:    -4.003      3.750     10.002
REMARK INTER + INTRA:         -11.648
REMARK INTER:                  -9.382
REMARK INTRA:                  -2.266
REMARK UNBOUND:                -2.496
REMARK SMILES CCCCCCCCCCCCCCCCCCCCCCCC(=O)[O-]
REMARK SMILES IDX 13 1 14 2 15 3 16 4 17 5 18 6 19 7 20 8 21 9 22 10 23 11
REMARK SMILES IDX 24 12 25 13 26 14 12 15 11 16 10 17 9 18 8 19 7 20 6 21 5 22
REMARK SMILES IDX 4 23 3 24 2 25 1 26
REMARK H PARENT
REMARK Flexibility Score: inf
ROOT
ATOM      1  C   UNL     1       2.732   4.107   8.002  1.00  0.00     0.000 C 
ENDROOT
BRANCH   1   2
ATOM      2  C   UNL     1       2.134   3.527   9.295  1.00  0.00     0.000 C 
BRANCH   2   3
ATOM      3  C   UNL     1       2.822   2.224   9.741  1.00  0.00     0.000 C 
BRANCH   3   4
ATOM      4  C   UNL     1       4.148   1.903   9.022  1.00  0.00     0.000 C 
BRANCH   4   5
ATOM      5  C   UNL     1       5.420   2.066   9.876  1.00  0.00     0.000 C 
BRANCH   5   6
ATOM      6  C   UNL     1       6.479   2.960   9.211  1.00  0.00     0.000 C 
BRANCH   6   7
ATOM      7  C   UNL     1       6.277   3.099   7.690  1.00  0.00     0.000 C 
BRANCH   7   8
ATOM      8  C   UNL     1       7.384   2.478   6.817  1.00  0.00     0.000 C 
BRANCH   8   9
ATOM      9  C   UNL     1       7.865   1.114   7.340  1.00  0.00     0.000 C 
BRANCH   9  10
ATOM     10  C   UNL     1       6.867  -0.023   7.045  1.00  0.00     0.006 C 
BRANCH  10  11
ATOM     11  C   UNL     1       7.516  -1.402   6.847  1.00  0.00     0.053 C 
BRANCH  11  12
ATOM     12  C   UNL     1       7.104  -2.037   5.554  1.00  0.00     0.041 C 
ATOM     13  O   UNL     1       6.806  -3.260   5.514  1.00  0.00    -0.550 OA
ATOM     14  O   UNL     1       7.084  -1.285   4.386  1.00  0.00    -0.550 OA
ENDBRANCH  11  12
ENDBRANCH  10  11
ENDBRANCH   9  10
ENDBRANCH   8   9
ENDBRANCH   7   8
ENDBRANCH   6   7
ENDBRANCH   5   6
ENDBRANCH   4   5
ENDBRANCH   3   4
ENDBRANCH   2   3
ENDBRANCH   1   2
BRANCH   1  15
ATOM     15  C   UNL     1       3.403   5.482   8.218  1.00  0.00     0.000 C 
BRANCH  15  16
ATOM     16  C   UNL     1       3.571   5.864   9.701  1.00  0.00     0.000 C 
BRANCH  16  17
ATOM     17  C   UNL     1       3.902   7.347   9.951  1.00  0.00     0.000 C 
BRANCH  17  18
ATOM     18  C   UNL     1       4.176   8.148   8.657  1.00  0.00    -0.000 C 
BRANCH  18  19
ATOM     19  C   UNL     1       4.067   9.667   8.868  1.00  0.00    -0.000 C 
BRANCH  19  20
ATOM     20  C   UNL     1       4.751  10.472   7.753  1.00  0.00    -0.000 C 
BRANCH  20  21
ATOM     21  C   UNL     1       3.818  11.515   7.119  1.00  0.00    -0.000 C 
BRANCH  21  22
ATOM     22  C   UNL     1       4.604  12.498   6.243  1.00  0.00    -0.000 C 
BRANCH  22  23
ATOM     23  C   UNL     1       4.548  13.919   6.823  1.00  0.00    -0.000 C 
BRANCH  23  24
ATOM     24  C   UNL     1       5.953  14.489   7.111  1.00  0.00    -0.000 C 
BRANCH  24  25
ATOM     25  C   UNL     1       6.276  14.601   8.611  1.00  0.00    -0.003 C 
ATOM     26  C   UNL     1       6.653  13.264   9.244  1.00  0.00     0.004 C 
ENDBRANCH  24  25
ENDBRANCH  23  24
ENDBRANCH  22  23
ENDBRANCH  21  22
ENDBRANCH  20  21
ENDBRANCH  19  20
ENDBRANCH  18  19
ENDBRANCH  17  18
ENDBRANCH  16  17
ENDBRANCH  15  16
ENDBRANCH   1  15
TORSDOF 22
ENDMDL
MODEL 4
REMARK VINA RESULT:    -3.979      2.021      4.815
REMARK INTER + INTRA:         -11.593
REMARK INTER:                  -9.621
REMARK INTRA:                  -1.972
REMARK UNBOUND:                -2.496
REMARK SMILES CCCCCCCCCCCCCCCCCCCCCCCC(=O)[O-]
REMARK SMILES IDX 13 1 14 2 15 3 16 4 17 5 18 6 19 7 20 8 21 9 22 10 23 11
REMARK SMILES IDX 24 12 25 13 26 14 12 15 11 16 10 17 9 18 8 19 7 20 6 21 5 22
REMARK SMILES IDX 4 23 3 24 2 25 1 26
REMARK H PARENT
REMARK Flexibility Score: inf
ROOT
ATOM      1  C   UNL     1       5.006   3.554   8.554  1.00  0.00     0.000 C 
ENDROOT
BRANCH   1   2
ATOM      2  C   UNL     1       3.732   3.939   7.783  1.00  0.00     0.000 C 
BRANCH   2   3
ATOM      3  C   UNL     1       3.115   5.264   8.269  1.00  0.00     0.000 C 
BRANCH   3   4
ATOM      4  C   UNL     1       3.465   5.657   9.719  1.00  0.00     0.000 C 
BRANCH   4   5
ATOM      5  C   UNL     1       4.200   7.001   9.880  1.00  0.00     0.000 C 
BRANCH   5   6
ATOM      6  C   UNL     1       4.136   7.876   8.617  1.00  0.00     0.000 C 
BRANCH   6   7
ATOM      7  C   UNL     1       4.071   9.382   8.934  1.00  0.00     0.000 C 
BRANCH   7   8
ATOM      8  C   UNL     1       4.832  10.296   7.955  1.00  0.00     0.000 C 
BRANCH   8   9
ATOM      9  C   UNL     1       3.930  11.350   7.292  1.00  0.00     0.000 C 
BRANCH   9  10
ATOM     10  C   UNL     1       4.658  12.154   6.198  1.00  0.00     0.006 C 
BRANCH  10  11
ATOM     11  C   UNL     1       4.658  13.675   6.420  1.00  0.00     0.053 C 
BRANCH  11  12
ATOM     12  C   UNL     1       5.546  14.077   7.558  1.00  0.00     0.041 C 
ATOM     13  O   UNL     1       6.746  13.698   7.591  1.00  0.00    -0.550 OA
ATOM     14  O   UNL     1       5.037  14.843   8.599  1.00  0.00    -0.550 OA
ENDBRANCH  11  12
ENDBRANCH  10  11
ENDBRANCH   9  10
ENDBRANCH   8   9
ENDBRANCH   7   8
ENDBRANCH   6   7
ENDBRANCH   5   6
ENDBRANCH   4   5
ENDBRANCH   3   4
ENDBRANCH   2   3
ENDBRANCH   1   2
BRANCH   1  15
ATOM     15  C   UNL     1       5.011   2.075   8.998  1.00  0.00     0.000 C 
BRANCH  15  16
ATOM     16  C   UNL     1       3.839   1.252   8.430  1.00  0.00     0.000 C 
BRANCH  16  17
ATOM     17  C   UNL     1       4.057  -0.272   8.438  1.00  0.00     0.000 C 
BRANCH  17  18
ATOM     18  C   UNL     1       5.520  -0.691   8.162  1.00  0.00    -0.000 C 
BRANCH  18  19
ATOM     19  C   UNL     1       5.696  -1.352   6.785  1.00  0.00    -0.000 C 
BRANCH  19  20
ATOM     20  C   UNL     1       7.157  -1.354   6.310  1.00  0.00    -0.000 C 
BRANCH  20  21
ATOM     21  C   UNL     1       7.659   0.049   5.940  1.00  0.00    -0.000 C 
BRANCH  21  22
ATOM     22  C   UNL     1       8.465   0.668   7.088  1.00  0.00    -0.000 C 
BRANCH  22  23
ATOM     23  C   UNL     1       8.624   2.184   6.896  1.00  0.00    -0.000 C 
BRANCH  23  24
ATOM     24  C   UNL     1       7.446   2.801   6.114  1.00  0.00    -0.000 C 
BRANCH  24  25
ATOM     25  C   UNL     1       7.874   3.524   4.825  1.00  0.00    -0.003 C 
ATOM     26  C   UNL     1       9.368   3.395   4.534  1.00  0.00     0.004 C 
ENDBRANCH  24  25
ENDBRANCH  23  24
ENDBRANCH  22  23
ENDBRANCH  21  22
ENDBRANCH  20  21
ENDBRANCH  19  20
ENDBRANCH  18  19
ENDBRANCH  17  18
ENDBRANCH  16  17
ENDBRANCH  15  16
ENDBRANCH   1  15
TORSDOF 22
ENDMDL
MODEL 5
REMARK VINA RESULT:    -3.954      2.122      4.804
REMARK INTER + INTRA:         -11.535
REMARK INTER:                  -9.511
REMARK INTRA:                  -2.023
REMARK UNBOUND:                -2.496
REMARK SMILES CCCCCCCCCCCCCCCCCCCCCCCC(=O)[O-]
REMARK SMILES IDX 13 1 14 2 15 3 16 4 17 5 18 6 19 7 20 8 21 9 22 10 23 11
REMARK SMILES IDX 24 12 25 13 26 14 12 15 11 16 10 17 9 18 8 19 7 20 6 21 5 22
REMARK SMILES IDX 4 23 3 24 2 25 1 26
REMARK H PARENT
REMARK Flexibility Score: inf
ROOT
ATOM      1  C   UNL     1       3.229   3.416   7.882  1.00  0.00     0.000 C 
ENDROOT
BRANCH   1   2
ATOM      2  C   UNL     1       2.354   4.300   8.788  1.00  0.00     0.000 C 
BRANCH   2   3
ATOM      3  C   UNL     1       3.118   4.846  10.008  1.00  0.00     0.000 C 
BRANCH   3   4
ATOM      4  C   UNL     1       3.356   6.370  10.005  1.00  0.00     0.000 C 
BRANCH   4   5
ATOM      5  C   UNL     1       4.497   6.860   9.093  1.00  0.00     0.000 C 
BRANCH   5   6
ATOM      6  C   UNL     1       4.889   8.323   9.356  1.00  0.00     0.000 C 
BRANCH   6   7
ATOM      7  C   UNL     1       3.913   9.330   8.718  1.00  0.00     0.000 C 
BRANCH   7   8
ATOM      8  C   UNL     1       4.507  10.714   8.397  1.00  0.00     0.000 C 
BRANCH   8   9
ATOM      9  C   UNL     1       3.943  11.324   7.103  1.00  0.00     0.000 C 
BRANCH   9  10
ATOM     10  C   UNL     1       4.386  12.785   6.891  1.00  0.00     0.006 C 
BRANCH  10  11
ATOM     11  C   UNL     1       5.878  13.041   7.157  1.00  0.00     0.053 C 
BRANCH  11  12
ATOM     12  C   UNL     1       6.090  14.134   8.159  1.00  0.00     0.041 C 
ATOM     13  O   UNL     1       5.109  14.783   8.609  1.00  0.00    -0.550 OA
ATOM     14  O   UNL     1       7.377  14.459   8.571  1.00  0.00    -0.550 OA
ENDBRANCH  11  12
ENDBRANCH  10  11
ENDBRANCH   9  10
ENDBRANCH   8   9
ENDBRANCH   7   8
ENDBRANCH   6   7
ENDBRANCH   5   6
ENDBRANCH   4   5
ENDBRANCH   3   4
ENDBRANCH   2   3
ENDBRANCH   1   2
BRANCH   1  15
ATOM     15  C   UNL     1       3.987   4.227   6.807  1.00  0.00     0.000 C 
BRANCH  15  16
ATOM     16  C   UNL     1       5.514   4.021   6.837  1.00  0.00     0.000 C 
BRANCH  16  17
ATOM     17  C   UNL     1       6.001   2.952   7.832  1.00  0.00     0.000 C 
BRANCH  17  18
ATOM     18  C   UNL     1       7.385   2.359   7.476  1.00  0.00    -0.000 C 
BRANCH  18  19
ATOM     19  C   UNL     1       7.917   2.870   6.126  1.00  0.00    -0.000 C 
BRANCH  19  20
ATOM     20  C   UNL     1       8.135   1.740   5.109  1.00  0.00    -0.000 C 
BRANCH  20  21
ATOM     21  C   UNL     1       7.810   0.354   5.687  1.00  0.00    -0.000 C 
BRANCH  21  22
ATOM     22  C   UNL     1       7.544  -0.661   4.570  1.00  0.00    -0.000 C 
BRANCH  22  23
ATOM     23  C   UNL     1       6.444  -1.653   4.977  1.00  0.00    -0.000 C 
BRANCH  23  24
ATOM     24  C   UNL     1       6.430  -1.920   6.497  1.00  0.00    -0.000 C 
BRANCH  24  25
ATOM     25  C   UNL     1       5.039  -1.759   7.137  1.00  0.00    -0.003 C 
ATOM     26  C   UNL     1       4.928  -0.520   8.024  1.00  0.00     0.004 C 
ENDBRANCH  24  25
ENDBRANCH  23  24
ENDBRANCH  22  23
ENDBRANCH  21  22
ENDBRANCH  20  21
ENDBRANCH  19  20
ENDBRANCH  18  19
ENDBRANCH  17  18
ENDBRANCH  16  17
ENDBRANCH  15  16
ENDBRANCH   1  15
TORSDOF 22
ENDMDL
MODEL 6
REMARK VINA RESULT:    -3.926      4.212     10.473
REMARK INTER + INTRA:         -11.471
REMARK INTER:                  -9.741
REMARK INTRA:                  -1.729
REMARK UNBOUND:                -2.496
REMARK SMILES CCCCCCCCCCCCCCCCCCCCCCCC(=O)[O-]
REMARK SMILES IDX 13 1 14 2 15 3 16 4 17 5 18 6 19 7 20 8 21 9 22 10 23 11
REMARK SMILES IDX 24 12 25 13 26 14 12 15 11 16 10 17 9 18 8 19 7 20 6 21 5 22
REMARK SMILES IDX 4 23 3 24 2 25 1 26
REMARK H PARENT
REMARK Flexibility Score: inf
ROOT
ATOM      1  C   UNL     1       3.565   3.849   7.108  1.00  0.00     0.000 C 
ENDROOT
BRANCH   1   2
ATOM      2  C   UNL     1       4.689   3.170   7.908  1.00  0.00     0.000 C 
BRANCH   2   3
ATOM      3  C   UNL     1       6.095   3.595   7.446  1.00  0.00     0.000 C 
BRANCH   3   4
ATOM      4  C   UNL     1       6.232   3.873   5.935  1.00  0.00     0.000 C 
BRANCH   4   5
ATOM      5  C   UNL     1       7.586   3.487   5.311  1.00  0.00     0.000 C 
BRANCH   5   6
ATOM      6  C   UNL     1       8.262   2.306   6.028  1.00  0.00     0.000 C 
BRANCH   6   7
ATOM      7  C   UNL     1       7.869   0.940   5.435  1.00  0.00     0.000 C 
BRANCH   7   8
ATOM      8  C   UNL     1       7.748  -0.211   6.451  1.00  0.00     0.000 C 
BRANCH   8   9
ATOM      9  C   UNL     1       6.393  -0.231   7.178  1.00  0.00     0.000 C 
BRANCH   9  10
ATOM     10  C   UNL     1       5.710  -1.611   7.128  1.00  0.00     0.006 C 
BRANCH  10  11
ATOM     11  C   UNL     1       6.484  -2.729   7.846  1.00  0.00     0.053 C 
BRANCH  11  12
ATOM     12  C   UNL     1       7.101  -3.695   6.881  1.00  0.00     0.041 C 
ATOM     13  O   UNL     1       8.349  -3.854   6.853  1.00  0.00    -0.550 OA
ATOM     14  O   UNL     1       6.298  -4.394   5.989  1.00  0.00    -0.550 OA
ENDBRANCH  11  12
ENDBRANCH  10  11
ENDBRANCH   9  10
ENDBRANCH   8   9
ENDBRANCH   7   8
ENDBRANCH   6   7
ENDBRANCH   5   6
ENDBRANCH   4   5
ENDBRANCH   3   4
ENDBRANCH   2   3
ENDBRANCH   1   2
BRANCH   1  15
ATOM     15  C   UNL     1       2.592   4.647   8.004  1.00  0.00     0.000 C 
BRANCH  15  16
ATOM     16  C   UNL     1       3.004   4.685   9.488  1.00  0.00     0.000 C 
BRANCH  16  17
ATOM     17  C   UNL     1       3.384   6.081  10.017  1.00  0.00     0.000 C 
BRANCH  17  18
ATOM     18  C   UNL     1       4.172   6.936   8.998  1.00  0.00    -0.000 C 
BRANCH  18  19
ATOM     19  C   UNL     1       4.528   8.328   9.546  1.00  0.00    -0.000 C 
BRANCH  19  20
ATOM     20  C   UNL     1       3.751   9.456   8.850  1.00  0.00    -0.000 C 
BRANCH  20  21
ATOM     21  C   UNL     1       4.577  10.158   7.762  1.00  0.00    -0.000 C 
BRANCH  21  22
ATOM     22  C   UNL     1       3.832  11.377   7.204  1.00  0.00    -0.000 C 
BRANCH  22  23
ATOM     23  C   UNL     1       4.780  12.284   6.405  1.00  0.00    -0.000 C 
BRANCH  23  24
ATOM     24  C   UNL     1       4.593  13.776   6.751  1.00  0.00    -0.000 C 
BRANCH  24  25
ATOM     25  C   UNL     1       5.907  14.496   7.101  1.00  0.00    -0.003 C 
ATOM     26  C   UNL     1       6.267  14.398   8.582  1.00  0.00     0.004 C 
ENDBRANCH  24  25
ENDBRANCH  23  24
ENDBRANCH  22  23
ENDBRANCH  21  22
ENDBRANCH  20  21
ENDBRANCH  19  20
ENDBRANCH  18  19
ENDBRANCH  17  18
ENDBRANCH  16  17
ENDBRANCH  15  16
ENDBRANCH   1  15
TORSDOF 22
ENDMDL
MODEL 7
REMARK VINA RESULT:    -3.863      1.403      2.226
REMARK INTER + INTRA:         -11.328
REMARK INTER:                  -9.616
REMARK INTRA:                  -1.712
REMARK UNBOUND:                -2.496
REMARK SMILES CCCCCCCCCCCCCCCCCCCCCCCC(=O)[O-]
REMARK SMILES IDX 13 1 14 2 15 3 16 4 17 5 18 6 19 7 20 8 21 9 22 10 23 11
REMARK SMILES IDX 24 12 25 13 26 14 12 15 11 16 10 17 9 18 8 19 7 20 6 21 5 22
REMARK SMILES IDX 4 23 3 24 2 25 1 26
REMARK H PARENT
REMARK Flexibility Score: inf
ROOT
ATOM      1  C   UNL     1       4.366   8.132   9.548  1.00  0.00     0.000 C 
ENDROOT
BRANCH   1   2
ATOM      2  C   UNL     1       3.757   9.447   9.031  1.00  0.00     0.000 C 
BRANCH   2   3
ATOM      3  C   UNL     1       4.823  10.460   8.573  1.00  0.00     0.000 C 
BRANCH   3   4
ATOM      4  C   UNL     1       5.351  10.253   7.139  1.00  0.00     0.000 C 
BRANCH   4   5
ATOM      5  C   UNL     1       4.902  11.307   6.109  1.00  0.00     0.000 C 
BRANCH   5   6
ATOM      6  C   UNL     1       4.110  12.463   6.741  1.00  0.00     0.000 C 
BRANCH   6   7
ATOM      7  C   UNL     1       4.909  13.779   6.795  1.00  0.00     0.000 C 
BRANCH   7   8
ATOM      8  C   UNL     1       5.951  13.875   7.925  1.00  0.00     0.000 C 
BRANCH   8   9
ATOM      9  C   UNL     1       7.388  14.042   7.404  1.00  0.00     0.000 C 
BRANCH   9  10
ATOM     10  C   UNL     1       8.309  12.875   7.811  1.00  0.00     0.006 C 
BRANCH  10  11
ATOM     11  C   UNL     1       9.372  12.510   6.763  1.00  0.00     0.053 C 
BRANCH  11  12
ATOM     12  C   UNL     1       9.201  11.111   6.253  1.00  0.00     0.041 C 
ATOM     13  O   UNL     1       8.859  10.187   7.037  1.00  0.00    -0.550 OA
ATOM     14  O   UNL     1       9.454  10.822   4.918  1.00  0.00    -0.550 OA
ENDBRANCH  11  12
ENDBRANCH  10  11
ENDBRANCH   9  10
ENDBRANCH   8   9
ENDBRANCH   7   8
ENDBRANCH   6   7
ENDBRANCH   5   6
ENDBRANCH   4   5
ENDBRANCH   3   4
ENDBRANCH   2   3
ENDBRANCH   1   2
BRANCH   1  15
ATOM     15  C   UNL     1       4.064   6.930   8.626  1.00  0.00     0.000 C 
BRANCH  15  16
ATOM     16  C   UNL     1       3.426   5.733   9.356  1.00  0.00     0.000 C 
BRANCH  16  17
ATOM     17  C   UNL     1       2.859   4.640   8.431  1.00  0.00     0.000 C 
BRANCH  17  18
ATOM     18  C   UNL     1       3.937   3.681   7.873  1.00  0.00    -0.000 C 
BRANCH  18  19
ATOM     19  C   UNL     1       3.732   2.229   8.337  1.00  0.00    -0.000 C 
BRANCH  19  20
ATOM     20  C   UNL     1       5.057   1.511   8.639  1.00  0.00    -0.000 C 
BRANCH  20  21
ATOM     21  C   UNL     1       4.867   0.013   8.916  1.00  0.00    -0.000 C 
BRANCH  21  22
ATOM     22  C   UNL     1       4.684  -0.770   7.611  1.00  0.00    -0.000 C 
BRANCH  22  23
ATOM     23  C   UNL     1       5.679  -1.937   7.523  1.00  0.00    -0.000 C 
BRANCH  23  24
ATOM     24  C   UNL     1       7.127  -1.455   7.292  1.00  0.00    -0.000 C 
BRANCH  24  25
ATOM     25  C   UNL     1       7.298  -0.610   6.017  1.00  0.00    -0.003 C 
ATOM     26  C   UNL     1       7.050  -1.404   4.736  1.00  0.00     0.004 C 
ENDBRANCH  24  25
ENDBRANCH  23  24
ENDBRANCH  22  23
ENDBRANCH  21  22
ENDBRANCH  20  21
ENDBRANCH  19  20
ENDBRANCH  18  19
ENDBRANCH  17  18
ENDBRANCH  16  17
ENDBRANCH  15  16
ENDBRANCH   1  15
TORSDOF 22
ENDMDL
MODEL 8
REMARK VINA RESULT:    -3.855      3.728     10.588
REMARK INTER + INTRA:         -11.310
REMARK INTER:                  -9.475
REMARK INTRA:                  -1.835
REMARK UNBOUND:                -2.496
REMARK SMILES CCCCCCCCCCCCCCCCCCCCCCCC(=O)[O-]
REMARK SMILES IDX 13 1 14 2 15 3 16 4 17 5 18 6 19 7 20 8 21 9 22 10 23 11
REMARK SMILES IDX 24 12 25 13 26 14 12 15 11 16 10 17 9 18 8 19 7 20 6 21 5 22
REMARK SMILES IDX 4 23 3 24 2 25 1 26
REMARK H PARENT
REMARK Flexibility Score: inf
ROOT
ATOM      1  C   UNL     1       3.995   4.917   8.249  1.00  0.00     0.000 C 
ENDROOT
BRANCH   1   2
ATOM      2  C   UNL     1       2.509   4.703   8.586  1.00  0.00     0.000 C 
BRANCH   2   3
ATOM      3  C   UNL     1       2.244   3.361   9.292  1.00  0.00     0.000 C 
BRANCH   3   4
ATOM      4  C   UNL     1       3.485   2.467   9.491  1.00  0.00     0.000 C 
BRANCH   4   5
ATOM      5  C   UNL     1       3.531   1.196   8.623  1.00  0.00     0.000 C 
BRANCH   5   6
ATOM      6  C   UNL     1       3.620  -0.095   9.454  1.00  0.00     0.000 C 
BRANCH   6   7
ATOM      7  C   UNL     1       3.314  -1.361   8.630  1.00  0.00     0.000 C 
BRANCH   7   8
ATOM      8  C   UNL     1       4.372  -1.734   7.575  1.00  0.00     0.000 C 
BRANCH   8   9
ATOM      9  C   UNL     1       5.746  -2.052   8.188  1.00  0.00     0.000 C 
BRANCH   9  10
ATOM     10  C   UNL     1       6.905  -1.368   7.437  1.00  0.00     0.006 C 
BRANCH  10  11
ATOM     11  C   UNL     1       7.397  -2.131   6.197  1.00  0.00     0.053 C 
BRANCH  11  12
ATOM     12  C   UNL     1       7.135  -1.374   4.931  1.00  0.00     0.041 C 
ATOM     13  O   UNL     1       6.242  -1.762   4.133  1.00  0.00    -0.550 OA
ATOM     14  O   UNL     1       7.903  -0.260   4.616  1.00  0.00    -0.550 OA
ENDBRANCH  11  12
ENDBRANCH  10  11
ENDBRANCH   9  10
ENDBRANCH   8   9
ENDBRANCH   7   8
ENDBRANCH   6   7
ENDBRANCH   5   6
ENDBRANCH   4   5
ENDBRANCH   3   4
ENDBRANCH   2   3
ENDBRANCH   1   2
BRANCH   1  15
ATOM     15  C   UNL     1       4.636   6.057   9.071  1.00  0.00     0.000 C 
BRANCH  15  16
ATOM     16  C   UNL     1       3.654   6.761  10.027  1.00  0.00     0.000 C 
BRANCH  16  17
ATOM     17  C   UNL     1       3.711   8.299   9.993  1.00  0.00     0.000 C 
BRANCH  17  18
ATOM     18  C   UNL     1       4.872   8.858   9.138  1.00  0.00    -0.000 C 
BRANCH  18  19
ATOM     19  C   UNL     1       4.444  10.051   8.267  1.00  0.00    -0.000 C 
BRANCH  19  20
ATOM     20  C   UNL     1       5.407  10.308   7.098  1.00  0.00    -0.000 C 
BRANCH  20  21
ATOM     21  C   UNL     1       4.843  11.308   6.078  1.00  0.00    -0.000 C 
BRANCH  21  22
ATOM     22  C   UNL     1       4.046  12.417   6.775  1.00  0.00    -0.000 C 
BRANCH  22  23
ATOM     23  C   UNL     1       4.682  13.793   6.525  1.00  0.00    -0.000 C 
BRANCH  23  24
ATOM     24  C   UNL     1       5.376  14.354   7.784  1.00  0.00    -0.000 C 
BRANCH  24  25
ATOM     25  C   UNL     1       6.795  13.800   8.003  1.00  0.00    -0.003 C 
ATOM     26  C   UNL     1       6.910  12.922   9.248  1.00  0.00     0.004 C 
ENDBRANCH  24  25
ENDBRANCH  23  24
ENDBRANCH  22  23
ENDBRANCH  21  22
ENDBRANCH  20  21
ENDBRANCH  19  20
ENDBRANCH  18  19
ENDBRANCH  17  18
ENDBRANCH  16  17
ENDBRANCH  15  16
ENDBRANCH   1  15
TORSDOF 22
ENDMDL
MODEL 9
REMARK VINA RESULT:    -3.845     14.265     17.493
REMARK INTER + INTRA:         -11.286
REMARK INTER:                  -8.203
REMARK INTRA:                  -3.084
REMARK UNBOUND:                -2.496
REMARK SMILES CCCCCCCCCCCCCCCCCCCCCCCC(=O)[O-]
REMARK SMILES IDX 13 1 14 2 15 3 16 4 17 5 18 6 19 7 20 8 21 9 22 10 23 11
REMARK SMILES IDX 24 12 25 13 26 14 12 15 11 16 10 17 9 18 8 19 7 20 6 21 5 22
REMARK SMILES IDX 4 23 3 24 2 25 1 26
REMARK H PARENT
REMARK Flexibility Score: inf
ROOT
ATOM      1  C   UNL     1       5.157   7.901  -7.699  1.00  0.00     0.000 C 
ENDROOT
BRANCH   1   2
ATOM      2  C   UNL     1       3.800   8.612  -7.834  1.00  0.00     0.000 C 
BRANCH   2   3
ATOM      3  C   UNL     1       3.077   8.277  -9.151  1.00  0.00     0.000 C 
BRANCH   3   4
ATOM      4  C   UNL     1       1.764   7.482  -8.995  1.00  0.00     0.000 C 
BRANCH   4   5
ATOM      5  C   UNL     1       1.844   5.992  -9.378  1.00  0.00     0.000 C 
BRANCH   5   6
ATOM      6  C   UNL     1       3.245   5.567  -9.849  1.00  0.00     0.000 C 
BRANCH   6   7
ATOM      7  C   UNL     1       3.691   4.214  -9.263  1.00  0.00     0.000 C 
BRANCH   7   8
ATOM      8  C   UNL     1       5.102   4.194  -8.646  1.00  0.00     0.000 C 
BRANCH   8   9
ATOM      9  C   UNL     1       5.940   2.988  -9.105  1.00  0.00     0.000 C 
BRANCH   9  10
ATOM     10  C   UNL     1       6.163   1.956  -7.982  1.00  0.00     0.006 C 
BRANCH  10  11
ATOM     11  C   UNL     1       5.014   0.951  -7.806  1.00  0.00     0.053 C 
BRANCH  11  12
ATOM     12  C   UNL     1       4.598   0.817  -6.373  1.00  0.00     0.041 C 
ATOM     13  O   UNL     1       3.540   0.204  -6.073  1.00  0.00    -0.550 OA
ATOM     14  O   UNL     1       5.363   1.399  -5.370  1.00  0.00    -0.550 OA
ENDBRANCH  11  12
ENDBRANCH  10  11
ENDBRANCH   9  10
ENDBRANCH   8   9
ENDBRANCH   7   8
ENDBRANCH   6   7
ENDBRANCH   5   6
ENDBRANCH   4   5
ENDBRANCH   3   4
ENDBRANCH   2   3
ENDBRANCH   1   2
BRANCH   1  15
ATOM     15  C   UNL     1       5.982   7.935  -9.005  1.00  0.00     0.000 C 
BRANCH  15  16
ATOM     16  C   UNL     1       7.379   7.297  -8.874  1.00  0.00     0.000 C 
BRANCH  16  17
ATOM     17  C   UNL     1       7.777   6.905  -7.439  1.00  0.00     0.000 C 
BRANCH  17  18
ATOM     18  C   UNL     1       8.856   7.826  -6.823  1.00  0.00    -0.000 C 
BRANCH  18  19
ATOM     19  C   UNL     1       8.321   8.658  -5.646  1.00  0.00    -0.000 C 
BRANCH  19  20
ATOM     20  C   UNL     1       9.008  10.028  -5.527  1.00  0.00    -0.000 C 
BRANCH  20  21
ATOM     21  C   UNL     1       8.381  11.084  -6.450  1.00  0.00    -0.000 C 
BRANCH  21  22
ATOM     22  C   UNL     1       6.860  10.910  -6.533  1.00  0.00    -0.000 C 
BRANCH  22  23
ATOM     23  C   UNL     1       6.307  11.511  -7.834  1.00  0.00    -0.000 C 
BRANCH  23  24
ATOM     24  C   UNL     1       5.253  12.607  -7.572  1.00  0.00    -0.000 C 
BRANCH  24  25
ATOM     25  C   UNL     1       5.674  13.619  -6.491  1.00  0.00    -0.003 C 
ATOM     26  C   UNL     1       4.488  14.225  -5.745  1.00  0.00     0.004 C 
ENDBRANCH  24  25
ENDBRANCH  23  24
ENDBRANCH  22  23
ENDBRANCH  21  22
ENDBRANCH  20  21
ENDBRANCH  19  20
ENDBRANCH  18  19
ENDBRANCH  17  18
ENDBRANCH  16  17
ENDBRANCH  15  16
ENDBRANCH   1  15
TORSDOF 22
ENDMDL
