MODEL 1
REMARK VINA RESULT:    -7.754      0.000      0.000
REMARK INTER + INTRA:          -9.232
REMARK INTER:                  -9.341
REMARK INTRA:                   0.109
REMARK UNBOUND:                 0.109
REMARK SMILES O=c1c(O)c(-c2ccc(O)cc2O)oc2cc(O)cc(O)c12
REMARK SMILES IDX 5 1 3 2 2 3 1 4 22 5 20 6 19 7 17 8 16 9 15 10 14 11 6 12
REMARK SMILES IDX 8 13 7 14 9 15 11 16 12 17 10 18 13 20 4 22 21 24 18 26
REMARK H PARENT 10 19 13 21 4 23 21 25 18 27
REMARK Flexibility Score: inf
ROOT
ATOM      1  C   UNL     1      34.279  27.028  20.667  1.00  0.00     0.184 A 
ATOM      2  C   UNL     1      34.585  25.655  20.664  1.00  0.00     0.208 A 
ATOM      3  C   UNL     1      34.414  24.926  19.478  1.00  0.00     0.238 A 
ATOM      4  O   UNL     1      34.695  23.697  19.459  1.00  0.00    -0.285 OA
ATOM      5  C   UNL     1      33.921  25.575  18.327  1.00  0.00     0.111 A 
ATOM      6  C   UNL     1      33.717  24.912  17.092  1.00  0.00     0.134 A 
ATOM      7  C   UNL     1      33.216  25.627  15.994  1.00  0.00     0.093 A 
ATOM      8  C   UNL     1      32.916  26.990  16.106  1.00  0.00     0.123 A 
ATOM      9  C   UNL     1      33.118  27.647  17.320  1.00  0.00     0.094 A 
ATOM     10  C   UNL     1      33.618  26.954  18.426  1.00  0.00     0.146 A 
ATOM     11  O   UNL     1      33.803  27.606  19.569  1.00  0.00    -0.451 OA
ENDROOT
BRANCH   1  12
ATOM     12  C   UNL     1      34.449  27.858  21.879  1.00  0.00     0.063 A 
ATOM     13  C   UNL     1      34.360  28.038  24.302  1.00  0.00     0.047 A 
ATOM     14  C   UNL     1      34.214  27.280  23.137  1.00  0.00     0.020 A 
ATOM     15  C   UNL     1      34.728  29.383  24.224  1.00  0.00     0.119 A 
ATOM     16  C   UNL     1      34.942  29.975  22.972  1.00  0.00     0.093 A 
ATOM     17  C   UNL     1      34.791  29.223  21.797  1.00  0.00     0.130 A 
BRANCH  15  18
ATOM     18  O   UNL     1      34.874  30.125  25.395  1.00  0.00    -0.508 OA
ATOM     19  H   UNL     1      35.233  29.705  26.245  1.00  0.00     0.293 HD
ENDBRANCH  15  18
BRANCH  17  20
ATOM     20  O   UNL     1      34.959  29.836  20.555  1.00  0.00    -0.507 OA
ATOM     21  H   UNL     1      34.827  29.326  19.689  1.00  0.00     0.293 HD
ENDBRANCH  17  20
ENDBRANCH   1  12
BRANCH   2  22
ATOM     22  O   UNL     1      35.026  25.033  21.833  1.00  0.00    -0.502 OA
ATOM     23  H   UNL     1      35.138  25.536  22.706  1.00  0.00     0.293 HD
ENDBRANCH   2  22
BRANCH   6  24
ATOM     24  O   UNL     1      34.005  23.554  16.949  1.00  0.00    -0.507 OA
ATOM     25  H   UNL     1      34.795  23.125  17.416  1.00  0.00     0.293 HD
ENDBRANCH   6  24
BRANCH   8  26
ATOM     26  O   UNL     1      32.418  27.698  15.015  1.00  0.00    -0.508 OA
ATOM     27  H   UNL     1      32.048  28.636  15.115  1.00  0.00     0.293 HD
ENDBRANCH   8  26
TORSDOF 6
ENDMDL
MODEL 2
REMARK VINA RESULT:    -7.009      1.094      6.283
REMARK INTER + INTRA:          -8.334
REMARK INTER:                  -8.887
REMARK INTRA:                   0.553
REMARK UNBOUND:                 0.109
REMARK SMILES O=c1c(O)c(-c2ccc(O)cc2O)oc2cc(O)cc(O)c12
REMARK SMILES IDX 5 1 3 2 2 3 1 4 22 5 20 6 19 7 17 8 16 9 15 10 14 11 6 12
REMARK SMILES IDX 8 13 7 14 9 15 11 16 12 17 10 18 13 20 4 22 21 24 18 26
REMARK H PARENT 10 19 13 21 4 23 21 25 18 27
REMARK Flexibility Score: inf
ROOT
ATOM      1  C   UNL     1      33.997  26.532  19.454  1.00  0.00     0.184 A 
ATOM      2  C   UNL     1      34.345  25.297  20.029  1.00  0.00     0.208 A 
ATOM      3  C   UNL     1      34.688  25.256  21.389  1.00  0.00     0.238 A 
ATOM      4  O   UNL     1      34.991  24.152  21.919  1.00  0.00    -0.285 OA
ATOM      5  C   UNL     1      34.697  26.449  22.141  1.00  0.00     0.111 A 
ATOM      6  C   UNL     1      35.034  26.494  23.516  1.00  0.00     0.134 A 
ATOM      7  C   UNL     1      35.028  27.724  24.192  1.00  0.00     0.093 A 
ATOM      8  C   UNL     1      34.692  28.905  23.522  1.00  0.00     0.123 A 
ATOM      9  C   UNL     1      34.358  28.864  22.168  1.00  0.00     0.094 A 
ATOM     10  C   UNL     1      34.356  27.650  21.476  1.00  0.00     0.146 A 
ATOM     11  O   UNL     1      34.030  27.640  20.187  1.00  0.00    -0.451 OA
ENDROOT
BRANCH   1  12
ATOM     12  C   UNL     1      33.613  26.645  18.031  1.00  0.00     0.063 A 
ATOM     13  C   UNL     1      33.497  25.629  15.824  1.00  0.00     0.047 A 
ATOM     14  C   UNL     1      33.843  25.554  17.176  1.00  0.00     0.020 A 
ATOM     15  C   UNL     1      32.930  26.797  15.308  1.00  0.00     0.119 A 
ATOM     16  C   UNL     1      32.717  27.898  16.147  1.00  0.00     0.093 A 
ATOM     17  C   UNL     1      33.068  27.833  17.504  1.00  0.00     0.130 A 
BRANCH  15  18
ATOM     18  O   UNL     1      32.586  26.854  13.959  1.00  0.00    -0.508 OA
ATOM     19  H   UNL     1      31.625  26.985  13.663  1.00  0.00     0.293 HD
ENDBRANCH  15  18
BRANCH  17  20
ATOM     20  O   UNL     1      32.896  28.953  18.319  1.00  0.00    -0.507 OA
ATOM     21  H   UNL     1      32.193  28.976  19.049  1.00  0.00     0.293 HD
ENDBRANCH  17  20
ENDBRANCH   1  12
BRANCH   2  22
ATOM     22  O   UNL     1      34.370  24.141  19.246  1.00  0.00    -0.502 OA
ATOM     23  H   UNL     1      34.640  24.154  18.270  1.00  0.00     0.293 HD
ENDBRANCH   2  22
BRANCH   6  24
ATOM     24  O   UNL     1      35.375  25.334  24.211  1.00  0.00    -0.507 OA
ATOM     25  H   UNL     1      36.170  25.301  24.837  1.00  0.00     0.293 HD
ENDBRANCH   6  24
BRANCH   8  26
ATOM     26  O   UNL     1      34.687  30.125  24.194  1.00  0.00    -0.508 OA
ATOM     27  H   UNL     1      35.013  30.976  23.753  1.00  0.00     0.293 HD
ENDBRANCH   8  26
TORSDOF 6
ENDMDL
MODEL 3
REMARK VINA RESULT:    -6.922      1.400      1.785
REMARK INTER + INTRA:          -8.230
REMARK INTER:                  -8.416
REMARK INTRA:                   0.186
REMARK UNBOUND:                 0.109
REMARK SMILES O=c1c(O)c(-c2ccc(O)cc2O)oc2cc(O)cc(O)c12
REMARK SMILES IDX 5 1 3 2 2 3 1 4 22 5 20 6 19 7 17 8 16 9 15 10 14 11 6 12
REMARK SMILES IDX 8 13 7 14 9 15 11 16 12 17 10 18 13 20 4 22 21 24 18 26
REMARK H PARENT 10 19 13 21 4 23 21 25 18 27
REMARK Flexibility Score: inf
ROOT
ATOM      1  C   UNL     1      33.889  26.894  20.367  1.00  0.00     0.184 A 
ATOM      2  C   UNL     1      34.253  25.714  19.693  1.00  0.00     0.208 A 
ATOM      3  C   UNL     1      34.066  25.642  18.304  1.00  0.00     0.238 A 
ATOM      4  O   UNL     1      34.400  24.594  17.688  1.00  0.00    -0.285 OA
ATOM      5  C   UNL     1      33.501  26.738  17.621  1.00  0.00     0.111 A 
ATOM      6  C   UNL     1      33.276  26.745  16.222  1.00  0.00     0.134 A 
ATOM      7  C   UNL     1      32.702  27.873  15.617  1.00  0.00     0.093 A 
ATOM      8  C   UNL     1      32.348  28.991  16.381  1.00  0.00     0.123 A 
ATOM      9  C   UNL     1      32.569  28.988  17.758  1.00  0.00     0.094 A 
ATOM     10  C   UNL     1      33.142  27.876  18.381  1.00  0.00     0.146 A 
ATOM     11  O   UNL     1      33.345  27.903  19.695  1.00  0.00    -0.451 OA
ENDROOT
BRANCH   1  12
ATOM     12  C   UNL     1      34.071  27.042  21.827  1.00  0.00     0.063 A 
ATOM     13  C   UNL     1      34.138  26.007  24.026  1.00  0.00     0.047 A 
ATOM     14  C   UNL     1      33.976  25.902  22.642  1.00  0.00     0.020 A 
ATOM     15  C   UNL     1      34.381  27.252  24.613  1.00  0.00     0.119 A 
ATOM     16  C   UNL     1      34.455  28.397  23.810  1.00  0.00     0.093 A 
ATOM     17  C   UNL     1      34.287  28.302  22.421  1.00  0.00     0.130 A 
BRANCH  15  18
ATOM     18  O   UNL     1      34.545  27.340  25.994  1.00  0.00    -0.508 OA
ATOM     19  H   UNL     1      34.321  26.561  26.604  1.00  0.00     0.293 HD
ENDBRANCH  15  18
BRANCH  17  20
ATOM     20  O   UNL     1      34.314  29.456  21.637  1.00  0.00    -0.507 OA
ATOM     21  H   UNL     1      34.566  30.357  22.027  1.00  0.00     0.293 HD
ENDBRANCH  17  20
ENDBRANCH   1  12
BRANCH   2  22
ATOM     22  O   UNL     1      34.768  24.630  20.407  1.00  0.00    -0.502 OA
ATOM     23  H   UNL     1      34.837  23.702  20.007  1.00  0.00     0.293 HD
ENDBRANCH   2  22
BRANCH   6  24
ATOM     24  O   UNL     1      33.617  25.645  15.434  1.00  0.00    -0.507 OA
ATOM     25  H   UNL     1      34.243  24.923  15.769  1.00  0.00     0.293 HD
ENDBRANCH   6  24
BRANCH   8  26
ATOM     26  O   UNL     1      31.777  30.109  15.778  1.00  0.00    -0.508 OA
ATOM     27  H   UNL     1      30.778  30.274  15.804  1.00  0.00     0.293 HD
ENDBRANCH   8  26
TORSDOF 6
ENDMDL
MODEL 4
REMARK VINA RESULT:    -6.848      1.262      3.177
REMARK INTER + INTRA:          -8.141
REMARK INTER:                  -7.963
REMARK INTRA:                  -0.178
REMARK UNBOUND:                 0.109
REMARK SMILES O=c1c(O)c(-c2ccc(O)cc2O)oc2cc(O)cc(O)c12
REMARK SMILES IDX 5 1 3 2 2 3 1 4 22 5 20 6 19 7 17 8 16 9 15 10 14 11 6 12
REMARK SMILES IDX 8 13 7 14 9 15 11 16 12 17 10 18 13 20 4 22 21 24 18 26
REMARK H PARENT 10 19 13 21 4 23 21 25 18 27
REMARK Flexibility Score: inf
ROOT
ATOM      1  C   UNL     1      34.029  27.910  20.498  1.00  0.00     0.184 A 
ATOM      2  C   UNL     1      33.498  28.732  19.488  1.00  0.00     0.208 A 
ATOM      3  C   UNL     1      33.133  28.150  18.264  1.00  0.00     0.238 A 
ATOM      4  O   UNL     1      32.645  28.874  17.354  1.00  0.00    -0.285 OA
ATOM      5  C   UNL     1      33.325  26.767  18.066  1.00  0.00     0.111 A 
ATOM      6  C   UNL     1      32.987  26.104  16.861  1.00  0.00     0.134 A 
ATOM      7  C   UNL     1      33.216  24.725  16.739  1.00  0.00     0.093 A 
ATOM      8  C   UNL     1      33.777  23.998  17.796  1.00  0.00     0.123 A 
ATOM      9  C   UNL     1      34.110  24.648  18.985  1.00  0.00     0.094 A 
ATOM     10  C   UNL     1      33.888  26.021  19.128  1.00  0.00     0.146 A 
ATOM     11  O   UNL     1      34.211  26.613  20.273  1.00  0.00    -0.451 OA
ENDROOT
BRANCH   1  12
ATOM     12  C   UNL     1      34.423  28.455  21.815  1.00  0.00     0.063 A 
ATOM     13  C   UNL     1      35.648  30.125  23.089  1.00  0.00     0.047 A 
ATOM     14  C   UNL     1      35.253  29.586  21.861  1.00  0.00     0.020 A 
ATOM     15  C   UNL     1      35.229  29.531  24.283  1.00  0.00     0.119 A 
ATOM     16  C   UNL     1      34.420  28.389  24.247  1.00  0.00     0.093 A 
ATOM     17  C   UNL     1      34.024  27.839  23.019  1.00  0.00     0.130 A 
BRANCH  15  18
ATOM     18  O   UNL     1      35.628  30.082  25.500  1.00  0.00    -0.508 OA
ATOM     19  H   UNL     1      35.062  29.985  26.335  1.00  0.00     0.293 HD
ENDBRANCH  15  18
BRANCH  17  20
ATOM     20  O   UNL     1      33.258  26.673  22.995  1.00  0.00    -0.507 OA
ATOM     21  H   UNL     1      33.371  25.948  23.695  1.00  0.00     0.293 HD
ENDBRANCH  17  20
ENDBRANCH   1  12
BRANCH   2  22
ATOM     22  O   UNL     1      33.364  30.105  19.700  1.00  0.00    -0.502 OA
ATOM     23  H   UNL     1      34.078  30.655  20.162  1.00  0.00     0.293 HD
ENDBRANCH   2  22
BRANCH   6  24
ATOM     24  O   UNL     1      32.428  26.801  15.789  1.00  0.00    -0.507 OA
ATOM     25  H   UNL     1      32.904  27.583  15.356  1.00  0.00     0.293 HD
ENDBRANCH   6  24
BRANCH   8  26
ATOM     26  O   UNL     1      34.004  22.630  17.674  1.00  0.00    -0.508 OA
ATOM     27  H   UNL     1      34.908  22.265  17.398  1.00  0.00     0.293 HD
ENDBRANCH   8  26
TORSDOF 6
ENDMDL
MODEL 5
REMARK VINA RESULT:    -6.822      3.095      6.090
REMARK INTER + INTRA:          -8.109
REMARK INTER:                  -7.831
REMARK INTRA:                  -0.278
REMARK UNBOUND:                 0.109
REMARK SMILES O=c1c(O)c(-c2ccc(O)cc2O)oc2cc(O)cc(O)c12
REMARK SMILES IDX 5 1 3 2 2 3 1 4 22 5 20 6 19 7 17 8 16 9 15 10 14 11 6 12
REMARK SMILES IDX 8 13 7 14 9 15 11 16 12 17 10 18 13 20 4 22 21 24 18 26
REMARK H PARENT 10 19 13 21 4 23 21 25 18 27
REMARK Flexibility Score: inf
ROOT
ATOM      1  C   UNL     1      33.379  24.888  17.930  1.00  0.00     0.184 A 
ATOM      2  C   UNL     1      33.594  25.249  16.588  1.00  0.00     0.208 A 
ATOM      3  C   UNL     1      33.358  26.576  16.197  1.00  0.00     0.238 A 
ATOM      4  O   UNL     1      33.558  26.914  14.999  1.00  0.00    -0.285 OA
ATOM      5  C   UNL     1      32.893  27.509  17.147  1.00  0.00     0.111 A 
ATOM      6  C   UNL     1      32.627  28.864  16.834  1.00  0.00     0.134 A 
ATOM      7  C   UNL     1      32.158  29.729  17.835  1.00  0.00     0.093 A 
ATOM      8  C   UNL     1      31.949  29.265  19.139  1.00  0.00     0.123 A 
ATOM      9  C   UNL     1      32.211  27.931  19.451  1.00  0.00     0.094 A 
ATOM     10  C   UNL     1      32.681  27.053  18.470  1.00  0.00     0.146 A 
ATOM     11  O   UNL     1      32.926  25.788  18.797  1.00  0.00    -0.451 OA
ENDROOT
BRANCH   1  12
ATOM     12  C   UNL     1      33.621  23.511  18.412  1.00  0.00     0.063 A 
ATOM     13  C   UNL     1      33.146  21.134  18.227  1.00  0.00     0.047 A 
ATOM     14  C   UNL     1      32.945  22.447  17.794  1.00  0.00     0.020 A 
ATOM     15  C   UNL     1      34.012  20.870  19.291  1.00  0.00     0.119 A 
ATOM     16  C   UNL     1      34.673  21.928  19.929  1.00  0.00     0.093 A 
ATOM     17  C   UNL     1      34.472  23.249  19.504  1.00  0.00     0.130 A 
BRANCH  15  18
ATOM     18  O   UNL     1      34.206  19.555  19.710  1.00  0.00    -0.508 OA
ATOM     19  H   UNL     1      33.601  19.125  20.400  1.00  0.00     0.293 HD
ENDBRANCH  15  18
BRANCH  17  20
ATOM     20  O   UNL     1      35.098  24.298  20.179  1.00  0.00    -0.507 OA
ATOM     21  H   UNL     1      36.094  24.466  20.092  1.00  0.00     0.293 HD
ENDBRANCH  17  20
ENDBRANCH   1  12
BRANCH   2  22
ATOM     22  O   UNL     1      34.012  24.290  15.663  1.00  0.00    -0.502 OA
ATOM     23  H   UNL     1      33.559  24.171  14.764  1.00  0.00     0.293 HD
ENDBRANCH   2  22
BRANCH   6  24
ATOM     24  O   UNL     1      32.823  29.356  15.543  1.00  0.00    -0.507 OA
ATOM     25  H   UNL     1      32.053  29.690  14.977  1.00  0.00     0.293 HD
ENDBRANCH   6  24
BRANCH   8  26
ATOM     26  O   UNL     1      31.483  30.125  20.130  1.00  0.00    -0.508 OA
ATOM     27  H   UNL     1      31.398  31.122  19.972  1.00  0.00     0.293 HD
ENDBRANCH   8  26
TORSDOF 6
ENDMDL
MODEL 6
REMARK VINA RESULT:    -6.654      2.228      5.784
REMARK INTER + INTRA:          -7.907
REMARK INTER:                  -8.516
REMARK INTRA:                   0.609
REMARK UNBOUND:                 0.109
REMARK SMILES O=c1c(O)c(-c2ccc(O)cc2O)oc2cc(O)cc(O)c12
REMARK SMILES IDX 5 1 3 2 2 3 1 4 22 5 20 6 19 7 17 8 16 9 15 10 14 11 6 12
REMARK SMILES IDX 8 13 7 14 9 15 11 16 12 17 10 18 13 20 4 22 21 24 18 26
REMARK H PARENT 10 19 13 21 4 23 21 25 18 27
REMARK Flexibility Score: inf
ROOT
ATOM      1  C   UNL     1      33.991  25.260  19.549  1.00  0.00     0.184 A 
ATOM      2  C   UNL     1      34.496  25.854  20.720  1.00  0.00     0.208 A 
ATOM      3  C   UNL     1      34.377  27.243  20.881  1.00  0.00     0.238 A 
ATOM      4  O   UNL     1      34.815  27.785  21.931  1.00  0.00    -0.285 OA
ATOM      5  C   UNL     1      33.778  28.013  19.862  1.00  0.00     0.111 A 
ATOM      6  C   UNL     1      33.623  29.418  19.944  1.00  0.00     0.134 A 
ATOM      7  C   UNL     1      33.023  30.114  18.884  1.00  0.00     0.093 A 
ATOM      8  C   UNL     1      32.576  29.433  17.745  1.00  0.00     0.123 A 
ATOM      9  C   UNL     1      32.726  28.048  17.661  1.00  0.00     0.094 A 
ATOM     10  C   UNL     1      33.319  27.336  18.707  1.00  0.00     0.146 A 
ATOM     11  O   UNL     1      33.446  26.017  18.602  1.00  0.00    -0.451 OA
ENDROOT
BRANCH   1  12
ATOM     12  C   UNL     1      34.072  23.802  19.322  1.00  0.00     0.063 A 
ATOM     13  C   UNL     1      34.750  21.609  20.124  1.00  0.00     0.047 A 
ATOM     14  C   UNL     1      34.654  22.991  20.309  1.00  0.00     0.020 A 
ATOM     15  C   UNL     1      34.280  21.024  18.946  1.00  0.00     0.119 A 
ATOM     16  C   UNL     1      33.719  21.827  17.945  1.00  0.00     0.093 A 
ATOM     17  C   UNL     1      33.624  23.215  18.120  1.00  0.00     0.130 A 
BRANCH  15  18
ATOM     18  O   UNL     1      34.379  19.644  18.778  1.00  0.00    -0.508 OA
ATOM     19  H   UNL     1      33.556  19.052  18.762  1.00  0.00     0.293 HD
ENDBRANCH  15  18
BRANCH  17  20
ATOM     20  O   UNL     1      33.108  24.011  17.096  1.00  0.00    -0.507 OA
ATOM     21  H   UNL     1      33.713  24.490  16.440  1.00  0.00     0.293 HD
ENDBRANCH  17  20
ENDBRANCH   1  12
BRANCH   2  22
ATOM     22  O   UNL     1      35.125  25.069  21.689  1.00  0.00    -0.502 OA
ATOM     23  H   UNL     1      35.847  25.435  22.297  1.00  0.00     0.293 HD
ENDBRANCH   2  22
BRANCH   6  24
ATOM     24  O   UNL     1      34.059  30.125  21.065  1.00  0.00    -0.507 OA
ATOM     25  H   UNL     1      33.614  30.019  21.968  1.00  0.00     0.293 HD
ENDBRANCH   6  24
BRANCH   8  26
ATOM     26  O   UNL     1      31.982  30.125  16.693  1.00  0.00    -0.508 OA
ATOM     27  H   UNL     1      31.139  29.787  16.244  1.00  0.00     0.293 HD
ENDBRANCH   8  26
TORSDOF 6
ENDMDL
MODEL 7
REMARK VINA RESULT:    -6.599      2.213      6.294
REMARK INTER + INTRA:          -7.841
REMARK INTER:                  -8.320
REMARK INTRA:                   0.479
REMARK UNBOUND:                 0.109
REMARK SMILES O=c1c(O)c(-c2ccc(O)cc2O)oc2cc(O)cc(O)c12
REMARK SMILES IDX 5 1 3 2 2 3 1 4 22 5 20 6 19 7 17 8 16 9 15 10 14 11 6 12
REMARK SMILES IDX 8 13 7 14 9 15 11 16 12 17 10 18 13 20 4 22 21 24 18 26
REMARK H PARENT 10 19 13 21 4 23 21 25 18 27
REMARK Flexibility Score: inf
ROOT
ATOM      1  C   UNL     1      33.676  25.240  18.637  1.00  0.00     0.184 A 
ATOM      2  C   UNL     1      33.241  25.835  17.439  1.00  0.00     0.208 A 
ATOM      3  C   UNL     1      33.099  27.231  17.388  1.00  0.00     0.238 A 
ATOM      4  O   UNL     1      32.721  27.776  16.316  1.00  0.00    -0.285 OA
ATOM      5  C   UNL     1      33.375  28.000  18.537  1.00  0.00     0.111 A 
ATOM      6  C   UNL     1      33.254  29.411  18.570  1.00  0.00     0.134 A 
ATOM      7  C   UNL     1      33.539  30.105  19.756  1.00  0.00     0.093 A 
ATOM      8  C   UNL     1      33.940  29.417  20.907  1.00  0.00     0.123 A 
ATOM      9  C   UNL     1      34.062  28.027  20.878  1.00  0.00     0.094 A 
ATOM     10  C   UNL     1      33.785  27.317  19.706  1.00  0.00     0.146 A 
ATOM     11  O   UNL     1      33.912  25.994  19.706  1.00  0.00    -0.451 OA
ENDROOT
BRANCH   1  12
ATOM     12  C   UNL     1      33.859  23.778  18.756  1.00  0.00     0.063 A 
ATOM     13  C   UNL     1      33.408  21.552  17.888  1.00  0.00     0.047 A 
ATOM     14  C   UNL     1      33.260  22.939  17.802  1.00  0.00     0.020 A 
ATOM     15  C   UNL     1      34.143  20.987  18.933  1.00  0.00     0.119 A 
ATOM     16  C   UNL     1      34.725  21.815  19.902  1.00  0.00     0.093 A 
ATOM     17  C   UNL     1      34.576  23.207  19.827  1.00  0.00     0.130 A 
BRANCH  15  18
ATOM     18  O   UNL     1      34.286  19.602  19.002  1.00  0.00    -0.508 OA
ATOM     19  H   UNL     1      33.838  19.060  19.733  1.00  0.00     0.293 HD
ENDBRANCH  15  18
BRANCH  17  20
ATOM     20  O   UNL     1      35.118  24.018  20.824  1.00  0.00    -0.507 OA
ATOM     21  H   UNL     1      35.535  23.625  21.661  1.00  0.00     0.293 HD
ENDBRANCH  17  20
ENDBRANCH   1  12
BRANCH   2  22
ATOM     22  O   UNL     1      32.933  25.040  16.333  1.00  0.00    -0.502 OA
ATOM     23  H   UNL     1      32.048  25.111  15.845  1.00  0.00     0.293 HD
ENDBRANCH   2  22
BRANCH   6  24
ATOM     24  O   UNL     1      32.854  30.125  17.440  1.00  0.00    -0.507 OA
ATOM     25  H   UNL     1      33.390  30.106  16.581  1.00  0.00     0.293 HD
ENDBRANCH   6  24
BRANCH   8  26
ATOM     26  O   UNL     1      34.222  30.107  22.083  1.00  0.00    -0.508 OA
ATOM     27  H   UNL     1      33.857  29.802  22.978  1.00  0.00     0.293 HD
ENDBRANCH   8  26
TORSDOF 6
ENDMDL
MODEL 8
REMARK VINA RESULT:    -6.352      2.637      4.542
REMARK INTER + INTRA:          -7.542
REMARK INTER:                  -7.439
REMARK INTRA:                  -0.103
REMARK UNBOUND:                 0.109
REMARK SMILES O=c1c(O)c(-c2ccc(O)cc2O)oc2cc(O)cc(O)c12
REMARK SMILES IDX 5 1 3 2 2 3 1 4 22 5 20 6 19 7 17 8 16 9 15 10 14 11 6 12
REMARK SMILES IDX 8 13 7 14 9 15 11 16 12 17 10 18 13 20 4 22 21 24 18 26
REMARK H PARENT 10 19 13 21 4 23 21 25 18 27
REMARK Flexibility Score: inf
ROOT
ATOM      1  C   UNL     1      34.746  25.032  20.367  1.00  0.00     0.184 A 
ATOM      2  C   UNL     1      34.350  24.943  19.020  1.00  0.00     0.208 A 
ATOM      3  C   UNL     1      33.982  23.692  18.503  1.00  0.00     0.238 A 
ATOM      4  O   UNL     1      33.614  23.601  17.301  1.00  0.00    -0.285 OA
ATOM      5  C   UNL     1      34.037  22.553  19.333  1.00  0.00     0.111 A 
ATOM      6  C   UNL     1      33.687  21.254  18.889  1.00  0.00     0.134 A 
ATOM      7  C   UNL     1      33.776  20.169  19.774  1.00  0.00     0.093 A 
ATOM      8  C   UNL     1      34.208  20.358  21.092  1.00  0.00     0.123 A 
ATOM      9  C   UNL     1      34.553  21.635  21.534  1.00  0.00     0.094 A 
ATOM     10  C   UNL     1      34.470  22.730  20.669  1.00  0.00     0.146 A 
ATOM     11  O   UNL     1      34.801  23.936  21.118  1.00  0.00    -0.451 OA
ENDROOT
BRANCH   1  12
ATOM     12  C   UNL     1      35.133  26.321  20.979  1.00  0.00     0.063 A 
ATOM     13  C   UNL     1      36.774  27.623  22.214  1.00  0.00     0.047 A 
ATOM     14  C   UNL     1      36.378  26.421  21.621  1.00  0.00     0.020 A 
ATOM     15  C   UNL     1      35.927  28.733  22.185  1.00  0.00     0.119 A 
ATOM     16  C   UNL     1      34.673  28.636  21.567  1.00  0.00     0.093 A 
ATOM     17  C   UNL     1      34.266  27.432  20.975  1.00  0.00     0.130 A 
BRANCH  15  18
ATOM     18  O   UNL     1      36.337  29.926  22.777  1.00  0.00    -0.508 OA
ATOM     19  H   UNL     1      35.812  30.349  23.534  1.00  0.00     0.293 HD
ENDBRANCH  15  18
BRANCH  17  20
ATOM     20  O   UNL     1      32.996  27.333  20.405  1.00  0.00    -0.507 OA
ATOM     21  H   UNL     1      32.869  27.188  19.410  1.00  0.00     0.293 HD
ENDBRANCH  17  20
ENDBRANCH   1  12
BRANCH   2  22
ATOM     22  O   UNL     1      34.350  26.083  18.213  1.00  0.00    -0.502 OA
ATOM     23  H   UNL     1      35.093  26.771  18.248  1.00  0.00     0.293 HD
ENDBRANCH   2  22
BRANCH   6  24
ATOM     24  O   UNL     1      33.253  21.035  17.581  1.00  0.00    -0.507 OA
ATOM     25  H   UNL     1      32.831  21.771  17.029  1.00  0.00     0.293 HD
ENDBRANCH   6  24
BRANCH   8  26
ATOM     26  O   UNL     1      34.297  19.280  21.970  1.00  0.00    -0.508 OA
ATOM     27  H   UNL     1      34.313  18.323  21.636  1.00  0.00     0.293 HD
ENDBRANCH   8  26
TORSDOF 6
ENDMDL
MODEL 9
REMARK VINA RESULT:    -6.336      1.431      6.891
REMARK INTER + INTRA:          -7.524
REMARK INTER:                  -8.077
REMARK INTRA:                   0.553
REMARK UNBOUND:                 0.109
REMARK SMILES O=c1c(O)c(-c2ccc(O)cc2O)oc2cc(O)cc(O)c12
REMARK SMILES IDX 5 1 3 2 2 3 1 4 22 5 20 6 19 7 17 8 16 9 15 10 14 11 6 12
REMARK SMILES IDX 8 13 7 14 9 15 11 16 12 17 10 18 13 20 4 22 21 24 18 26
REMARK H PARENT 10 19 13 21 4 23 21 25 18 27
REMARK Flexibility Score: inf
ROOT
ATOM      1  C   UNL     1      33.680  27.525  19.412  1.00  0.00     0.184 A 
ATOM      2  C   UNL     1      33.673  28.816  19.969  1.00  0.00     0.208 A 
ATOM      3  C   UNL     1      33.993  28.970  21.327  1.00  0.00     0.238 A 
ATOM      4  O   UNL     1      34.001  30.125  21.834  1.00  0.00    -0.285 OA
ATOM      5  C   UNL     1      34.291  27.833  22.105  1.00  0.00     0.111 A 
ATOM      6  C   UNL     1      34.620  27.901  23.481  1.00  0.00     0.134 A 
ATOM      7  C   UNL     1      34.896  26.721  24.188  1.00  0.00     0.093 A 
ATOM      8  C   UNL     1      34.850  25.478  23.548  1.00  0.00     0.123 A 
ATOM      9  C   UNL     1      34.528  25.406  22.193  1.00  0.00     0.094 A 
ATOM     10  C   UNL     1      34.251  26.569  21.468  1.00  0.00     0.146 A 
ATOM     11  O   UNL     1      33.950  26.472  20.177  1.00  0.00    -0.451 OA
ENDROOT
BRANCH   1  12
ATOM     12  C   UNL     1      33.365  27.293  17.986  1.00  0.00     0.063 A 
ATOM     13  C   UNL     1      32.500  28.154  15.884  1.00  0.00     0.047 A 
ATOM     14  C   UNL     1      32.813  28.341  17.233  1.00  0.00     0.020 A 
ATOM     15  C   UNL     1      32.720  26.915  15.276  1.00  0.00     0.119 A 
ATOM     16  C   UNL     1      33.249  25.857  16.026  1.00  0.00     0.093 A 
ATOM     17  C   UNL     1      33.560  26.034  17.382  1.00  0.00     0.130 A 
BRANCH  15  18
ATOM     18  O   UNL     1      32.406  26.746  13.929  1.00  0.00    -0.508 OA
ATOM     19  H   UNL     1      33.129  26.682  13.221  1.00  0.00     0.293 HD
ENDBRANCH  15  18
BRANCH  17  20
ATOM     20  O   UNL     1      34.040  24.959  18.130  1.00  0.00    -0.507 OA
ATOM     21  H   UNL     1      34.957  24.979  18.562  1.00  0.00     0.293 HD
ENDBRANCH  17  20
ENDBRANCH   1  12
BRANCH   2  22
ATOM     22  O   UNL     1      33.329  29.917  19.182  1.00  0.00    -0.502 OA
ATOM     23  H   UNL     1      33.548  29.967  18.194  1.00  0.00     0.293 HD
ENDBRANCH   2  22
BRANCH   6  24
ATOM     24  O   UNL     1      34.673  29.126  24.147  1.00  0.00    -0.507 OA
ATOM     25  H   UNL     1      33.833  29.603  24.452  1.00  0.00     0.293 HD
ENDBRANCH   6  24
BRANCH   8  26
ATOM     26  O   UNL     1      35.124  24.307  24.252  1.00  0.00    -0.508 OA
ATOM     27  H   UNL     1      34.855  23.398  23.895  1.00  0.00     0.293 HD
ENDBRANCH   8  26
TORSDOF 6
ENDMDL
