MODEL 1
REMARK VINA RESULT:    -2.883      0.000      0.000
REMARK INTER + INTRA:          -4.755
REMARK INTER:                  -4.063
REMARK INTRA:                  -0.692
REMARK UNBOUND:                -0.692
REMARK SMILES C=CCCCCCCC(=O)[O-]
REMARK SMILES IDX 6 1 7 2 8 3 9 4 10 5 11 6 5 7 4 8 3 9 2 10 1 11
REMARK H PARENT
REMARK Flexibility Score: inf
ROOT
ATOM      1  C   UNL     1      31.573  -6.267   0.818  1.00  0.00     0.000 C 
ENDROOT
BRANCH   1   2
ATOM      2  C   UNL     1      31.219  -4.773   0.925  1.00  0.00     0.006 C 
BRANCH   2   3
ATOM      3  C   UNL     1      30.019  -4.507   1.842  1.00  0.00     0.053 C 
BRANCH   3   4
ATOM      4  C   UNL     1      29.363  -3.212   1.481  1.00  0.00     0.041 C 
ATOM      5  O   UNL     1      29.391  -2.242   2.283  1.00  0.00    -0.550 OA
ATOM      6  O   UNL     1      28.678  -3.092   0.278  1.00  0.00    -0.550 OA
ENDBRANCH   3   4
ENDBRANCH   2   3
ENDBRANCH   1   2
BRANCH   1   7
ATOM      7  C   UNL     1      31.115  -7.133   2.005  1.00  0.00     0.000 C 
BRANCH   7   8
ATOM      8  C   UNL     1      32.245  -7.418   3.009  1.00  0.00     0.004 C 
BRANCH   8   9
ATOM      9  C   UNL     1      32.289  -6.379   4.138  1.00  0.00     0.027 C 
BRANCH   9  10
ATOM     10  C   UNL     1      33.620  -5.679   4.194  1.00  0.00    -0.035 C 
ATOM     11  C   UNL     1      33.830  -4.508   3.586  1.00  0.00     0.004 C 
ENDBRANCH   9  10
ENDBRANCH   8   9
ENDBRANCH   7   8
ENDBRANCH   1   7
TORSDOF 7
ENDMDL
MODEL 2
REMARK VINA RESULT:    -2.881      2.847      4.405
REMARK INTER + INTRA:          -4.752
REMARK INTER:                  -3.960
REMARK INTRA:                  -0.791
REMARK UNBOUND:                -0.692
REMARK SMILES C=CCCCCCCC(=O)[O-]
REMARK SMILES IDX 6 1 7 2 8 3 9 4 10 5 11 6 5 7 4 8 3 9 2 10 1 11
REMARK H PARENT
REMARK Flexibility Score: inf
ROOT
ATOM      1  C   UNL     1      30.795  -4.074   0.980  1.00  0.00     0.000 C 
ENDROOT
BRANCH   1   2
ATOM      2  C   UNL     1      29.449  -3.789   1.670  1.00  0.00     0.006 C 
BRANCH   2   3
ATOM      3  C   UNL     1      29.129  -2.292   1.762  1.00  0.00     0.053 C 
BRANCH   3   4
ATOM      4  C   UNL     1      28.234  -1.879   0.637  1.00  0.00     0.041 C 
ATOM      5  O   UNL     1      28.675  -1.842  -0.542  1.00  0.00    -0.550 OA
ATOM      6  O   UNL     1      26.927  -1.487   0.895  1.00  0.00    -0.550 OA
ENDBRANCH   3   4
ENDBRANCH   2   3
ENDBRANCH   1   2
BRANCH   1   7
ATOM      7  C   UNL     1      31.974  -3.213   1.469  1.00  0.00     0.000 C 
BRANCH   7   8
ATOM      8  C   UNL     1      32.824  -2.651   0.317  1.00  0.00     0.004 C 
BRANCH   8   9
ATOM      9  C   UNL     1      32.161  -1.439  -0.350  1.00  0.00     0.027 C 
BRANCH   9  10
ATOM     10  C   UNL     1      32.054  -0.275   0.599  1.00  0.00    -0.035 C 
ATOM     11  C   UNL     1      31.064   0.618   0.514  1.00  0.00     0.004 C 
ENDBRANCH   9  10
ENDBRANCH   8   9
ENDBRANCH   7   8
ENDBRANCH   1   7
TORSDOF 7
ENDMDL
MODEL 3
REMARK VINA RESULT:    -2.872      1.966      3.708
REMARK INTER + INTRA:          -4.739
REMARK INTER:                  -4.272
REMARK INTRA:                  -0.468
REMARK UNBOUND:                -0.692
REMARK SMILES C=CCCCCCCC(=O)[O-]
REMARK SMILES IDX 6 1 7 2 8 3 9 4 10 5 11 6 5 7 4 8 3 9 2 10 1 11
REMARK H PARENT
REMARK Flexibility Score: inf
ROOT
ATOM      1  C   UNL     1      29.464  -2.276   1.884  1.00  0.00     0.000 C 
ENDROOT
BRANCH   1   2
ATOM      2  C   UNL     1      29.697  -1.523   0.562  1.00  0.00     0.006 C 
BRANCH   2   3
ATOM      3  C   UNL     1      28.515  -0.629   0.168  1.00  0.00     0.053 C 
BRANCH   3   4
ATOM      4  C   UNL     1      27.266  -1.442   0.037  1.00  0.00     0.041 C 
ATOM      5  O   UNL     1      27.190  -2.349  -0.833  1.00  0.00    -0.550 OA
ATOM      6  O   UNL     1      26.168  -1.166   0.841  1.00  0.00    -0.550 OA
ENDBRANCH   3   4
ENDBRANCH   2   3
ENDBRANCH   1   2
BRANCH   1   7
ATOM      7  C   UNL     1      29.448  -3.811   1.766  1.00  0.00     0.000 C 
BRANCH   7   8
ATOM      8  C   UNL     1      30.458  -4.343   0.735  1.00  0.00     0.004 C 
BRANCH   8   9
ATOM      9  C   UNL     1      31.121  -5.646   1.197  1.00  0.00     0.027 C 
BRANCH   9  10
ATOM     10  C   UNL     1      30.698  -6.019   2.593  1.00  0.00    -0.035 C 
ATOM     11  C   UNL     1      31.579  -6.406   3.520  1.00  0.00     0.004 C 
ENDBRANCH   9  10
ENDBRANCH   8   9
ENDBRANCH   7   8
ENDBRANCH   1   7
TORSDOF 7
ENDMDL
MODEL 4
REMARK VINA RESULT:    -2.856      2.152      2.818
REMARK INTER + INTRA:          -4.717
REMARK INTER:                  -4.169
REMARK INTRA:                  -0.547
REMARK UNBOUND:                -0.692
REMARK SMILES C=CCCCCCCC(=O)[O-]
REMARK SMILES IDX 6 1 7 2 8 3 9 4 10 5 11 6 5 7 4 8 3 9 2 10 1 11
REMARK H PARENT
REMARK Flexibility Score: inf
ROOT
ATOM      1  C   UNL     1      29.504  -3.786   1.778  1.00  0.00     0.000 C 
ENDROOT
BRANCH   1   2
ATOM      2  C   UNL     1      29.813  -2.296   1.546  1.00  0.00     0.006 C 
BRANCH   2   3
ATOM      3  C   UNL     1      31.240  -2.053   1.041  1.00  0.00     0.053 C 
BRANCH   3   4
ATOM      4  C   UNL     1      31.424  -0.616   0.667  1.00  0.00     0.041 C 
ATOM      5  O   UNL     1      32.560  -0.189   0.332  1.00  0.00    -0.550 OA
ATOM      6  O   UNL     1      30.351   0.263   0.736  1.00  0.00    -0.550 OA
ENDBRANCH   3   4
ENDBRANCH   2   3
ENDBRANCH   1   2
BRANCH   1   7
ATOM      7  C   UNL     1      30.644  -4.753   1.413  1.00  0.00     0.000 C 
BRANCH   7   8
ATOM      8  C   UNL     1      30.706  -5.982   2.336  1.00  0.00     0.004 C 
BRANCH   8   9
ATOM      9  C   UNL     1      31.981  -5.999   3.189  1.00  0.00     0.027 C 
BRANCH   9  10
ATOM     10  C   UNL     1      32.999  -5.012   2.683  1.00  0.00    -0.035 C 
ATOM     11  C   UNL     1      33.846  -4.386   3.506  1.00  0.00     0.004 C 
ENDBRANCH   9  10
ENDBRANCH   8   9
ENDBRANCH   7   8
ENDBRANCH   1   7
TORSDOF 7
ENDMDL
MODEL 5
REMARK VINA RESULT:    -2.837      4.256      5.316
REMARK INTER + INTRA:          -4.689
REMARK INTER:                  -3.977
REMARK INTRA:                  -0.712
REMARK UNBOUND:                -0.692
REMARK SMILES C=CCCCCCCC(=O)[O-]
REMARK SMILES IDX 6 1 7 2 8 3 9 4 10 5 11 6 5 7 4 8 3 9 2 10 1 11
REMARK H PARENT
REMARK Flexibility Score: inf
ROOT
ATOM      1  C   UNL     1      28.895  -2.910  -0.549  1.00  0.00     0.000 C 
ENDROOT
BRANCH   1   2
ATOM      2  C   UNL     1      27.675  -2.245  -1.212  1.00  0.00     0.006 C 
BRANCH   2   3
ATOM      3  C   UNL     1      27.693  -0.716  -1.101  1.00  0.00     0.053 C 
BRANCH   3   4
ATOM      4  C   UNL     1      26.407  -0.220  -0.517  1.00  0.00     0.041 C 
ATOM      5  O   UNL     1      26.134  -0.441   0.693  1.00  0.00    -0.550 OA
ATOM      6  O   UNL     1      25.488   0.442  -1.320  1.00  0.00    -0.550 OA
ENDBRANCH   3   4
ENDBRANCH   2   3
ENDBRANCH   1   2
BRANCH   1   7
ATOM      7  C   UNL     1      28.839  -2.990   0.987  1.00  0.00     0.000 C 
BRANCH   7   8
ATOM      8  C   UNL     1      29.838  -2.043   1.673  1.00  0.00     0.004 C 
BRANCH   8   9
ATOM      9  C   UNL     1      31.192  -2.013   0.952  1.00  0.00     0.027 C 
BRANCH   9  10
ATOM     10  C   UNL     1      31.610  -0.606   0.617  1.00  0.00    -0.035 C 
ATOM     11  C   UNL     1      30.742   0.410   0.624  1.00  0.00     0.004 C 
ENDBRANCH   9  10
ENDBRANCH   8   9
ENDBRANCH   7   8
ENDBRANCH   1   7
TORSDOF 7
ENDMDL
MODEL 6
REMARK VINA RESULT:    -2.820      3.067      5.254
REMARK INTER + INTRA:          -4.665
REMARK INTER:                  -4.086
REMARK INTRA:                  -0.579
REMARK UNBOUND:                -0.692
REMARK SMILES C=CCCCCCCC(=O)[O-]
REMARK SMILES IDX 6 1 7 2 8 3 9 4 10 5 11 6 5 7 4 8 3 9 2 10 1 11
REMARK H PARENT
REMARK Flexibility Score: inf
ROOT
ATOM      1  C   UNL     1      29.480  -2.238   1.817  1.00  0.00     0.000 C 
ENDROOT
BRANCH   1   2
ATOM      2  C   UNL     1      29.335  -3.771   1.816  1.00  0.00     0.006 C 
BRANCH   2   3
ATOM      3  C   UNL     1      30.501  -4.481   1.117  1.00  0.00     0.053 C 
BRANCH   3   4
ATOM      4  C   UNL     1      30.944  -5.667   1.914  1.00  0.00     0.041 C 
ATOM      5  O   UNL     1      30.306  -6.011   2.944  1.00  0.00    -0.550 OA
ATOM      6  O   UNL     1      32.089  -6.362   1.548  1.00  0.00    -0.550 OA
ENDBRANCH   3   4
ENDBRANCH   2   3
ENDBRANCH   1   2
BRANCH   1   7
ATOM      7  C   UNL     1      28.823  -1.520   0.626  1.00  0.00     0.000 C 
BRANCH   7   8
ATOM      8  C   UNL     1      29.828  -0.717  -0.218  1.00  0.00     0.004 C 
BRANCH   8   9
ATOM      9  C   UNL     1      30.780   0.112   0.654  1.00  0.00     0.027 C 
BRANCH   9  10
ATOM     10  C   UNL     1      32.222  -0.173   0.325  1.00  0.00    -0.035 C 
ATOM     11  C   UNL     1      32.639  -1.393  -0.026  1.00  0.00     0.004 C 
ENDBRANCH   9  10
ENDBRANCH   8   9
ENDBRANCH   7   8
ENDBRANCH   1   7
TORSDOF 7
ENDMDL
MODEL 7
REMARK VINA RESULT:    -2.797      3.535      5.481
REMARK INTER + INTRA:          -4.633
REMARK INTER:                  -3.966
REMARK INTRA:                  -0.667
REMARK UNBOUND:                -0.692
REMARK SMILES C=CCCCCCCC(=O)[O-]
REMARK SMILES IDX 6 1 7 2 8 3 9 4 10 5 11 6 5 7 4 8 3 9 2 10 1 11
REMARK H PARENT
REMARK Flexibility Score: inf
ROOT
ATOM      1  C   UNL     1      29.450  -0.835  -1.137  1.00  0.00     0.000 C 
ENDROOT
BRANCH   1   2
ATOM      2  C   UNL     1      28.014  -0.373  -1.441  1.00  0.00     0.006 C 
BRANCH   2   3
ATOM      3  C   UNL     1      26.953  -1.175  -0.676  1.00  0.00     0.053 C 
BRANCH   3   4
ATOM      4  C   UNL     1      26.258  -0.303   0.321  1.00  0.00     0.041 C 
ATOM      5  O   UNL     1      25.355  -0.780   1.058  1.00  0.00    -0.550 OA
ATOM      6  O   UNL     1      26.573   1.047   0.403  1.00  0.00    -0.550 OA
ENDBRANCH   3   4
ENDBRANCH   2   3
ENDBRANCH   1   2
BRANCH   1   7
ATOM      7  C   UNL     1      30.007  -0.380   0.224  1.00  0.00     0.000 C 
BRANCH   7   8
ATOM      8  C   UNL     1      30.552  -1.545   1.068  1.00  0.00     0.004 C 
BRANCH   8   9
ATOM      9  C   UNL     1      29.447  -2.233   1.881  1.00  0.00     0.027 C 
BRANCH   9  10
ATOM     10  C   UNL     1      29.435  -3.721   1.650  1.00  0.00    -0.035 C 
ATOM     11  C   UNL     1      30.285  -4.312   0.805  1.00  0.00     0.004 C 
ENDBRANCH   9  10
ENDBRANCH   8   9
ENDBRANCH   7   8
ENDBRANCH   1   7
TORSDOF 7
ENDMDL
MODEL 8
REMARK VINA RESULT:    -2.796      2.322      4.352
REMARK INTER + INTRA:          -4.631
REMARK INTER:                  -4.071
REMARK INTRA:                  -0.560
REMARK UNBOUND:                -0.692
REMARK SMILES C=CCCCCCCC(=O)[O-]
REMARK SMILES IDX 6 1 7 2 8 3 9 4 10 5 11 6 5 7 4 8 3 9 2 10 1 11
REMARK H PARENT
REMARK Flexibility Score: inf
ROOT
ATOM      1  C   UNL     1      30.252  -1.531   0.948  1.00  0.00     0.000 C 
ENDROOT
BRANCH   1   2
ATOM      2  C   UNL     1      29.440  -0.477   0.174  1.00  0.00     0.006 C 
BRANCH   2   3
ATOM      3  C   UNL     1      27.933  -0.766   0.173  1.00  0.00     0.053 C 
BRANCH   3   4
ATOM      4  C   UNL     1      27.524  -1.398  -1.120  1.00  0.00     0.041 C 
ATOM      5  O   UNL     1      27.736  -2.623  -1.320  1.00  0.00    -0.550 OA
ATOM      6  O   UNL     1      26.954  -0.625  -2.123  1.00  0.00    -0.550 OA
ENDBRANCH   3   4
ENDBRANCH   2   3
ENDBRANCH   1   2
BRANCH   1   7
ATOM      7  C   UNL     1      29.464  -2.303   2.020  1.00  0.00     0.000 C 
BRANCH   7   8
ATOM      8  C   UNL     1      29.316  -3.799   1.694  1.00  0.00     0.004 C 
BRANCH   8   9
ATOM      9  C   UNL     1      30.434  -4.301   0.771  1.00  0.00     0.027 C 
BRANCH   9  10
ATOM     10  C   UNL     1      31.109  -5.523   1.334  1.00  0.00    -0.035 C 
ATOM     11  C   UNL     1      30.691  -6.106   2.461  1.00  0.00     0.004 C 
ENDBRANCH   9  10
ENDBRANCH   8   9
ENDBRANCH   7   8
ENDBRANCH   1   7
TORSDOF 7
ENDMDL
MODEL 9
REMARK VINA RESULT:    -2.793      4.353      5.901
REMARK INTER + INTRA:          -4.628
REMARK INTER:                  -3.797
REMARK INTRA:                  -0.831
REMARK UNBOUND:                -0.692
REMARK SMILES C=CCCCCCCC(=O)[O-]
REMARK SMILES IDX 6 1 7 2 8 3 9 4 10 5 11 6 5 7 4 8 3 9 2 10 1 11
REMARK H PARENT
REMARK Flexibility Score: inf
ROOT
ATOM      1  C   UNL     1      29.542  -1.874   1.446  1.00  0.00     0.000 C 
ENDROOT
BRANCH   1   2
ATOM      2  C   UNL     1      28.437  -2.654   0.711  1.00  0.00     0.006 C 
BRANCH   2   3
ATOM      3  C   UNL     1      27.746  -1.828  -0.381  1.00  0.00     0.053 C 
BRANCH   3   4
ATOM      4  C   UNL     1      26.890  -0.765   0.233  1.00  0.00     0.041 C 
ATOM      5  O   UNL     1      27.201   0.449   0.107  1.00  0.00    -0.550 OA
ATOM      6  O   UNL     1      25.777  -1.116   0.985  1.00  0.00    -0.550 OA
ENDBRANCH   3   4
ENDBRANCH   2   3
ENDBRANCH   1   2
BRANCH   1   7
ATOM      7  C   UNL     1      30.961  -2.068   0.884  1.00  0.00     0.000 C 
BRANCH   7   8
ATOM      8  C   UNL     1      31.706  -0.740   0.667  1.00  0.00     0.004 C 
BRANCH   8   9
ATOM      9  C   UNL     1      30.749   0.459   0.628  1.00  0.00     0.027 C 
BRANCH   9  10
ATOM     10  C   UNL     1      30.790   1.156  -0.706  1.00  0.00    -0.035 C 
ATOM     11  C   UNL     1      30.174   0.660  -1.783  1.00  0.00     0.004 C 
ENDBRANCH   9  10
ENDBRANCH   8   9
ENDBRANCH   7   8
ENDBRANCH   1   7
TORSDOF 7
ENDMDL
