MODEL 1
REMARK VINA RESULT:    -5.716      0.000      0.000
REMARK INTER + INTRA:         -11.404
REMARK INTER:                 -10.393
REMARK INTRA:                  -1.011
REMARK UNBOUND:                -1.011
REMARK SMILES CCCCCCCCCCCCCCCC(=O)[O-]
REMARK SMILES IDX 9 1 10 2 11 3 12 4 13 5 14 6 15 7 16 8 17 9 18 10 8 11 7 12
REMARK SMILES IDX 6 13 5 14 4 15 3 16 2 17 1 18
REMARK H PARENT
REMARK Flexibility Score: inf
ROOT
ATOM      1  C   UNL     1     103.963 312.817 196.637  1.00  0.00     0.000 C 
ENDROOT
BRANCH   1   2
ATOM      2  C   UNL     1     103.839 311.894 197.863  1.00  0.00     0.000 C 
BRANCH   2   3
ATOM      3  C   UNL     1     103.577 312.673 199.163  1.00  0.00     0.000 C 
BRANCH   3   4
ATOM      4  C   UNL     1     103.623 311.773 200.411  1.00  0.00     0.000 C 
BRANCH   4   5
ATOM      5  C   UNL     1     102.221 311.409 200.928  1.00  0.00     0.000 C 
BRANCH   5   6
ATOM      6  C   UNL     1     102.226 310.976 202.405  1.00  0.00     0.006 C 
BRANCH   6   7
ATOM      7  C   UNL     1     103.617 311.105 203.040  1.00  0.00     0.053 C 
BRANCH   7   8
ATOM      8  C   UNL     1     103.580 310.856 204.516  1.00  0.00     0.041 C 
ATOM      9  O   UNL     1     104.586 311.114 205.229  1.00  0.00    -0.550 OA
ATOM     10  O   UNL     1     102.423 310.366 205.111  1.00  0.00    -0.550 OA
ENDBRANCH   7   8
ENDBRANCH   6   7
ENDBRANCH   5   6
ENDBRANCH   4   5
ENDBRANCH   3   4
ENDBRANCH   2   3
ENDBRANCH   1   2
BRANCH   1  11
ATOM     11  C   UNL     1     104.680 312.137 195.458  1.00  0.00     0.000 C 
BRANCH  11  12
ATOM     12  C   UNL     1     103.697 311.553 194.427  1.00  0.00    -0.000 C 
BRANCH  12  13
ATOM     13  C   UNL     1     104.334 311.377 193.039  1.00  0.00    -0.000 C 
BRANCH  13  14
ATOM     14  C   UNL     1     105.712 312.049 192.926  1.00  0.00    -0.000 C 
BRANCH  14  15
ATOM     15  C   UNL     1     105.695 313.158 191.863  1.00  0.00    -0.000 C 
BRANCH  15  16
ATOM     16  C   UNL     1     104.272 313.520 191.408  1.00  0.00    -0.000 C 
BRANCH  16  17
ATOM     17  C   UNL     1     103.879 314.956 191.784  1.00  0.00    -0.003 C 
ATOM     18  C   UNL     1     103.607 315.076 193.281  1.00  0.00     0.004 C 
ENDBRANCH  16  17
ENDBRANCH  15  16
ENDBRANCH  14  15
ENDBRANCH  13  14
ENDBRANCH  12  13
ENDBRANCH  11  12
ENDBRANCH   1  11
TORSDOF 14
ENDMDL
MODEL 2
REMARK VINA RESULT:    -5.708     19.661     20.668
REMARK INTER + INTRA:         -11.390
REMARK INTER:                 -10.466
REMARK INTRA:                  -0.924
REMARK UNBOUND:                -1.011
REMARK SMILES CCCCCCCCCCCCCCCC(=O)[O-]
REMARK SMILES IDX 9 1 10 2 11 3 12 4 13 5 14 6 15 7 16 8 17 9 18 10 8 11 7 12
REMARK SMILES IDX 6 13 5 14 4 15 3 16 2 17 1 18
REMARK H PARENT
REMARK Flexibility Score: inf
ROOT
ATOM      1  C   UNL     1      86.847 326.346 196.253  1.00  0.00     0.000 C 
ENDROOT
BRANCH   1   2
ATOM      2  C   UNL     1      88.315 326.100 196.646  1.00  0.00     0.000 C 
BRANCH   2   3
ATOM      3  C   UNL     1      88.522 324.741 197.337  1.00  0.00     0.000 C 
BRANCH   3   4
ATOM      4  C   UNL     1      88.804 324.881 198.843  1.00  0.00     0.000 C 
BRANCH   4   5
ATOM      5  C   UNL     1      89.134 326.327 199.250  1.00  0.00     0.000 C 
BRANCH   5   6
ATOM      6  C   UNL     1      89.756 326.422 200.655  1.00  0.00     0.006 C 
BRANCH   6   7
ATOM      7  C   UNL     1      88.863 325.783 201.727  1.00  0.00     0.053 C 
BRANCH   7   8
ATOM      8  C   UNL     1      89.256 326.214 203.107  1.00  0.00     0.041 C 
ATOM      9  O   UNL     1      90.056 327.173 203.269  1.00  0.00    -0.550 OA
ATOM     10  O   UNL     1      88.715 325.574 204.216  1.00  0.00    -0.550 OA
ENDBRANCH   7   8
ENDBRANCH   6   7
ENDBRANCH   5   6
ENDBRANCH   4   5
ENDBRANCH   3   4
ENDBRANCH   2   3
ENDBRANCH   1   2
BRANCH   1  11
ATOM     11  C   UNL     1      86.671 326.573 194.742  1.00  0.00     0.000 C 
BRANCH  11  12
ATOM     12  C   UNL     1      88.005 326.512 193.976  1.00  0.00    -0.000 C 
BRANCH  12  13
ATOM     13  C   UNL     1      88.035 325.385 192.932  1.00  0.00    -0.000 C 
BRANCH  13  14
ATOM     14  C   UNL     1      86.821 324.447 193.033  1.00  0.00    -0.000 C 
BRANCH  14  15
ATOM     15  C   UNL     1      86.602 323.691 191.714  1.00  0.00    -0.000 C 
BRANCH  15  16
ATOM     16  C   UNL     1      87.908 323.131 191.128  1.00  0.00    -0.000 C 
BRANCH  16  17
ATOM     17  C   UNL     1      87.901 323.097 189.593  1.00  0.00    -0.003 C 
ATOM     18  C   UNL     1      89.239 323.563 189.027  1.00  0.00     0.004 C 
ENDBRANCH  16  17
ENDBRANCH  15  16
ENDBRANCH  14  15
ENDBRANCH  13  14
ENDBRANCH  12  13
ENDBRANCH  11  12
ENDBRANCH   1  11
TORSDOF 14
ENDMDL
MODEL 3
REMARK VINA RESULT:    -5.676     19.469     22.035
REMARK INTER + INTRA:         -11.333
REMARK INTER:                 -10.301
REMARK INTRA:                  -1.032
REMARK UNBOUND:                -1.011
REMARK SMILES CCCCCCCCCCCCCCCC(=O)[O-]
REMARK SMILES IDX 9 1 10 2 11 3 12 4 13 5 14 6 15 7 16 8 17 9 18 10 8 11 7 12
REMARK SMILES IDX 6 13 5 14 4 15 3 16 2 17 1 18
REMARK H PARENT
REMARK Flexibility Score: inf
ROOT
ATOM      1  C   UNL     1      87.947 326.589 194.008  1.00  0.00     0.000 C 
ENDROOT
BRANCH   1   2
ATOM      2  C   UNL     1      88.087 325.534 192.896  1.00  0.00     0.000 C 
BRANCH   2   3
ATOM      3  C   UNL     1      88.266 324.111 193.452  1.00  0.00     0.000 C 
BRANCH   3   4
ATOM      4  C   UNL     1      88.197 323.034 192.354  1.00  0.00     0.000 C 
BRANCH   4   5
ATOM      5  C   UNL     1      87.418 323.504 191.115  1.00  0.00     0.000 C 
BRANCH   5   6
ATOM      6  C   UNL     1      88.236 323.383 189.817  1.00  0.00     0.006 C 
BRANCH   6   7
ATOM      7  C   UNL     1      89.198 322.188 189.850  1.00  0.00     0.053 C 
BRANCH   7   8
ATOM      8  C   UNL     1      89.917 322.016 188.547  1.00  0.00     0.041 C 
ATOM      9  O   UNL     1      89.512 321.170 187.706  1.00  0.00    -0.550 OA
ATOM     10  O   UNL     1      91.016 322.812 188.248  1.00  0.00    -0.550 OA
ENDBRANCH   7   8
ENDBRANCH   6   7
ENDBRANCH   5   6
ENDBRANCH   4   5
ENDBRANCH   3   4
ENDBRANCH   2   3
ENDBRANCH   1   2
BRANCH   1  11
ATOM     11  C   UNL     1      86.568 326.549 194.688  1.00  0.00     0.000 C 
BRANCH  11  12
ATOM     12  C   UNL     1      86.664 326.303 196.205  1.00  0.00    -0.000 C 
BRANCH  12  13
ATOM     13  C   UNL     1      88.118 326.195 196.694  1.00  0.00    -0.000 C 
BRANCH  13  14
ATOM     14  C   UNL     1      88.474 324.786 197.194  1.00  0.00    -0.000 C 
BRANCH  14  15
ATOM     15  C   UNL     1      88.878 324.817 198.675  1.00  0.00    -0.000 C 
BRANCH  15  16
ATOM     16  C   UNL     1      89.072 326.246 199.208  1.00  0.00    -0.000 C 
BRANCH  16  17
ATOM     17  C   UNL     1      89.795 326.280 200.561  1.00  0.00    -0.003 C 
ATOM     18  C   UNL     1      88.810 326.109 201.715  1.00  0.00     0.004 C 
ENDBRANCH  16  17
ENDBRANCH  15  16
ENDBRANCH  14  15
ENDBRANCH  13  14
ENDBRANCH  12  13
ENDBRANCH  11  12
ENDBRANCH   1  11
TORSDOF 14
ENDMDL
MODEL 4
REMARK VINA RESULT:    -5.668      1.587      2.440
REMARK INTER + INTRA:         -11.317
REMARK INTER:                 -10.494
REMARK INTRA:                  -0.823
REMARK UNBOUND:                -1.011
REMARK SMILES CCCCCCCCCCCCCCCC(=O)[O-]
REMARK SMILES IDX 9 1 10 2 11 3 12 4 13 5 14 6 15 7 16 8 17 9 18 10 8 11 7 12
REMARK SMILES IDX 6 13 5 14 4 15 3 16 2 17 1 18
REMARK H PARENT
REMARK Flexibility Score: inf
ROOT
ATOM      1  C   UNL     1     105.244 311.899 195.623  1.00  0.00     0.000 C 
ENDROOT
BRANCH   1   2
ATOM      2  C   UNL     1     103.752 312.211 195.836  1.00  0.00     0.000 C 
BRANCH   2   3
ATOM      3  C   UNL     1     103.524 313.326 196.871  1.00  0.00     0.000 C 
BRANCH   3   4
ATOM      4  C   UNL     1     103.994 312.927 198.281  1.00  0.00     0.000 C 
BRANCH   4   5
ATOM      5  C   UNL     1     103.410 311.580 198.739  1.00  0.00     0.000 C 
BRANCH   5   6
ATOM      6  C   UNL     1     102.970 311.594 200.214  1.00  0.00     0.006 C 
BRANCH   6   7
ATOM      7  C   UNL     1     104.126 311.948 201.159  1.00  0.00     0.053 C 
BRANCH   7   8
ATOM      8  C   UNL     1     103.847 311.516 202.566  1.00  0.00     0.041 C 
ATOM      9  O   UNL     1     104.568 311.931 203.512  1.00  0.00    -0.550 OA
ATOM     10  O   UNL     1     102.773 310.677 202.836  1.00  0.00    -0.550 OA
ENDBRANCH   7   8
ENDBRANCH   6   7
ENDBRANCH   5   6
ENDBRANCH   4   5
ENDBRANCH   3   4
ENDBRANCH   2   3
ENDBRANCH   1   2
BRANCH   1  11
ATOM     11  C   UNL     1     105.623 311.822 194.134  1.00  0.00     0.000 C 
BRANCH  11  12
ATOM     12  C   UNL     1     104.446 311.380 193.246  1.00  0.00    -0.000 C 
BRANCH  12  13
ATOM     13  C   UNL     1     104.178 312.359 192.091  1.00  0.00    -0.000 C 
BRANCH  13  14
ATOM     14  C   UNL     1     103.914 313.793 192.576  1.00  0.00    -0.000 C 
BRANCH  14  15
ATOM     15  C   UNL     1     103.919 314.779 191.398  1.00  0.00    -0.000 C 
BRANCH  15  16
ATOM     16  C   UNL     1     103.866 314.073 190.034  1.00  0.00    -0.000 C 
BRANCH  16  17
ATOM     17  C   UNL     1     103.113 314.890 188.975  1.00  0.00    -0.003 C 
ATOM     18  C   UNL     1     104.083 315.589 188.027  1.00  0.00     0.004 C 
ENDBRANCH  16  17
ENDBRANCH  15  16
ENDBRANCH  14  15
ENDBRANCH  13  14
ENDBRANCH  12  13
ENDBRANCH  11  12
ENDBRANCH   1  11
TORSDOF 14
ENDMDL
MODEL 5
REMARK VINA RESULT:    -5.645     19.794     20.648
REMARK INTER + INTRA:         -11.276
REMARK INTER:                 -10.289
REMARK INTRA:                  -0.987
REMARK UNBOUND:                -1.011
REMARK SMILES CCCCCCCCCCCCCCCC(=O)[O-]
REMARK SMILES IDX 9 1 10 2 11 3 12 4 13 5 14 6 15 7 16 8 17 9 18 10 8 11 7 12
REMARK SMILES IDX 6 13 5 14 4 15 3 16 2 17 1 18
REMARK H PARENT
REMARK Flexibility Score: inf
ROOT
ATOM      1  C   UNL     1      89.271 324.739 198.332  1.00  0.00     0.000 C 
ENDROOT
BRANCH   1   2
ATOM      2  C   UNL     1      89.021 326.035 199.123  1.00  0.00     0.000 C 
BRANCH   2   3
ATOM      3  C   UNL     1      89.637 325.995 200.532  1.00  0.00     0.000 C 
BRANCH   3   4
ATOM      4  C   UNL     1      88.595 326.229 201.640  1.00  0.00     0.000 C 
BRANCH   4   5
ATOM      5  C   UNL     1      88.618 325.129 202.714  1.00  0.00     0.000 C 
BRANCH   5   6
ATOM      6  C   UNL     1      89.128 325.638 204.074  1.00  0.00     0.006 C 
BRANCH   6   7
ATOM      7  C   UNL     1      89.385 327.150 204.066  1.00  0.00     0.053 C 
BRANCH   7   8
ATOM      8  C   UNL     1      90.825 327.471 204.325  1.00  0.00     0.041 C 
ATOM      9  O   UNL     1      91.656 327.471 203.378  1.00  0.00    -0.550 OA
ATOM     10  O   UNL     1      91.244 327.800 205.608  1.00  0.00    -0.550 OA
ENDBRANCH   7   8
ENDBRANCH   6   7
ENDBRANCH   5   6
ENDBRANCH   4   5
ENDBRANCH   3   4
ENDBRANCH   2   3
ENDBRANCH   1   2
BRANCH   1  11
ATOM     11  C   UNL     1      88.366 324.619 197.094  1.00  0.00     0.000 C 
BRANCH  11  12
ATOM     12  C   UNL     1      87.927 325.990 196.549  1.00  0.00    -0.000 C 
BRANCH  12  13
ATOM     13  C   UNL     1      88.856 326.509 195.439  1.00  0.00    -0.000 C 
BRANCH  13  14
ATOM     14  C   UNL     1      88.120 326.750 194.112  1.00  0.00    -0.000 C 
BRANCH  14  15
ATOM     15  C   UNL     1      86.702 326.161 194.157  1.00  0.00    -0.000 C 
BRANCH  15  16
ATOM     16  C   UNL     1      86.506 325.010 193.158  1.00  0.00    -0.000 C 
BRANCH  16  17
ATOM     17  C   UNL     1      87.817 324.282 192.829  1.00  0.00    -0.003 C 
ATOM     18  C   UNL     1      88.027 324.184 191.320  1.00  0.00     0.004 C 
ENDBRANCH  16  17
ENDBRANCH  15  16
ENDBRANCH  14  15
ENDBRANCH  13  14
ENDBRANCH  12  13
ENDBRANCH  11  12
ENDBRANCH   1  11
TORSDOF 14
ENDMDL
MODEL 6
REMARK VINA RESULT:    -5.622     19.012     20.473
REMARK INTER + INTRA:         -11.234
REMARK INTER:                  -9.718
REMARK INTRA:                  -1.516
REMARK UNBOUND:                -1.011
REMARK SMILES CCCCCCCCCCCCCCCC(=O)[O-]
REMARK SMILES IDX 9 1 10 2 11 3 12 4 13 5 14 6 15 7 16 8 17 9 18 10 8 11 7 12
REMARK SMILES IDX 6 13 5 14 4 15 3 16 2 17 1 18
REMARK H PARENT
REMARK Flexibility Score: inf
ROOT
ATOM      1  C   UNL     1      88.839 326.479 195.495  1.00  0.00     0.000 C 
ENDROOT
BRANCH   1   2
ATOM      2  C   UNL     1      87.823 326.157 196.606  1.00  0.00     0.000 C 
BRANCH   2   3
ATOM      3  C   UNL     1      88.435 326.258 198.013  1.00  0.00     0.000 C 
BRANCH   3   4
ATOM      4  C   UNL     1      88.969 324.907 198.523  1.00  0.00     0.000 C 
BRANCH   4   5
ATOM      5  C   UNL     1      89.581 325.007 199.930  1.00  0.00     0.000 C 
BRANCH   5   6
ATOM      6  C   UNL     1      89.728 326.462 200.411  1.00  0.00     0.006 C 
BRANCH   6   7
ATOM      7  C   UNL     1      90.846 326.617 201.451  1.00  0.00     0.053 C 
BRANCH   7   8
ATOM      8  C   UNL     1      90.304 326.967 202.803  1.00  0.00     0.041 C 
ATOM      9  O   UNL     1      89.094 326.752 203.077  1.00  0.00    -0.550 OA
ATOM     10  O   UNL     1      91.144 327.504 203.771  1.00  0.00    -0.550 OA
ENDBRANCH   7   8
ENDBRANCH   6   7
ENDBRANCH   5   6
ENDBRANCH   4   5
ENDBRANCH   3   4
ENDBRANCH   2   3
ENDBRANCH   1   2
BRANCH   1  11
ATOM     11  C   UNL     1      88.163 326.769 194.143  1.00  0.00     0.000 C 
BRANCH  11  12
ATOM     12  C   UNL     1      86.684 326.345 194.120  1.00  0.00    -0.000 C 
BRANCH  12  13
ATOM     13  C   UNL     1      86.442 325.092 193.263  1.00  0.00    -0.000 C 
BRANCH  13  14
ATOM     14  C   UNL     1      87.660 324.715 192.404  1.00  0.00    -0.000 C 
BRANCH  14  15
ATOM     15  C   UNL     1      88.316 323.426 192.921  1.00  0.00    -0.000 C 
BRANCH  15  16
ATOM     16  C   UNL     1      87.713 322.945 194.251  1.00  0.00    -0.000 C 
BRANCH  16  17
ATOM     17  C   UNL     1      88.757 322.843 195.371  1.00  0.00    -0.003 C 
ATOM     18  C   UNL     1      88.449 321.677 196.306  1.00  0.00     0.004 C 
ENDBRANCH  16  17
ENDBRANCH  15  16
ENDBRANCH  14  15
ENDBRANCH  13  14
ENDBRANCH  12  13
ENDBRANCH  11  12
ENDBRANCH   1  11
TORSDOF 14
ENDMDL
MODEL 7
REMARK VINA RESULT:    -5.539      5.990     10.649
REMARK INTER + INTRA:         -11.083
REMARK INTER:                 -10.449
REMARK INTRA:                  -0.634
REMARK UNBOUND:                -1.011
REMARK SMILES CCCCCCCCCCCCCCCC(=O)[O-]
REMARK SMILES IDX 9 1 10 2 11 3 12 4 13 5 14 6 15 7 16 8 17 9 18 10 8 11 7 12
REMARK SMILES IDX 6 13 5 14 4 15 3 16 2 17 1 18
REMARK H PARENT
REMARK Flexibility Score: inf
ROOT
ATOM      1  C   UNL     1     103.495 311.924 194.749  1.00  0.00     0.000 C 
ENDROOT
BRANCH   1   2
ATOM      2  C   UNL     1     104.132 311.463 193.426  1.00  0.00     0.000 C 
BRANCH   2   3
ATOM      3  C   UNL     1     105.545 312.033 193.221  1.00  0.00     0.000 C 
BRANCH   3   4
ATOM      4  C   UNL     1     105.587 313.137 192.148  1.00  0.00     0.000 C 
BRANCH   4   5
ATOM      5  C   UNL     1     104.241 313.307 191.424  1.00  0.00     0.000 C 
BRANCH   5   6
ATOM      6  C   UNL     1     104.032 314.734 190.887  1.00  0.00     0.006 C 
BRANCH   6   7
ATOM      7  C   UNL     1     103.837 314.756 189.365  1.00  0.00     0.053 C 
BRANCH   7   8
ATOM      8  C   UNL     1     104.806 315.680 188.693  1.00  0.00     0.041 C 
ATOM      9  O   UNL     1     105.735 316.215 189.354  1.00  0.00    -0.550 OA
ATOM     10  O   UNL     1     104.700 315.928 187.330  1.00  0.00    -0.550 OA
ENDBRANCH   7   8
ENDBRANCH   6   7
ENDBRANCH   5   6
ENDBRANCH   4   5
ENDBRANCH   3   4
ENDBRANCH   2   3
ENDBRANCH   1   2
BRANCH   1  11
ATOM     11  C   UNL     1     104.493 311.910 195.920  1.00  0.00     0.000 C 
BRANCH  11  12
ATOM     12  C   UNL     1     103.887 311.320 197.206  1.00  0.00    -0.000 C 
BRANCH  12  13
ATOM     13  C   UNL     1     103.605 312.392 198.271  1.00  0.00    -0.000 C 
BRANCH  13  14
ATOM     14  C   UNL     1     103.807 311.874 199.704  1.00  0.00    -0.000 C 
BRANCH  14  15
ATOM     15  C   UNL     1     102.481 311.872 200.478  1.00  0.00    -0.000 C 
BRANCH  15  16
ATOM     16  C   UNL     1     102.610 311.243 201.875  1.00  0.00    -0.000 C 
BRANCH  16  17
ATOM     17  C   UNL     1     103.931 311.606 202.567  1.00  0.00    -0.003 C 
ATOM     18  C   UNL     1     104.146 310.760 203.819  1.00  0.00     0.004 C 
ENDBRANCH  16  17
ENDBRANCH  15  16
ENDBRANCH  14  15
ENDBRANCH  13  14
ENDBRANCH  12  13
ENDBRANCH  11  12
ENDBRANCH   1  11
TORSDOF 14
ENDMDL
MODEL 8
REMARK VINA RESULT:    -5.533     20.254     22.398
REMARK INTER + INTRA:         -11.072
REMARK INTER:                 -10.102
REMARK INTRA:                  -0.970
REMARK UNBOUND:                -1.011
REMARK SMILES CCCCCCCCCCCCCCCC(=O)[O-]
REMARK SMILES IDX 9 1 10 2 11 3 12 4 13 5 14 6 15 7 16 8 17 9 18 10 8 11 7 12
REMARK SMILES IDX 6 13 5 14 4 15 3 16 2 17 1 18
REMARK H PARENT
REMARK Flexibility Score: inf
ROOT
ATOM      1  C   UNL     1      88.864 325.078 196.014  1.00  0.00     0.000 C 
ENDROOT
BRANCH   1   2
ATOM      2  C   UNL     1      88.868 326.500 195.426  1.00  0.00     0.000 C 
BRANCH   2   3
ATOM      3  C   UNL     1      88.200 326.569 194.042  1.00  0.00     0.000 C 
BRANCH   3   4
ATOM      4  C   UNL     1      86.778 325.979 194.043  1.00  0.00     0.000 C 
BRANCH   4   5
ATOM      5  C   UNL     1      86.615 324.829 193.035  1.00  0.00     0.000 C 
BRANCH   5   6
ATOM      6  C   UNL     1      87.835 324.672 192.111  1.00  0.00     0.006 C 
BRANCH   6   7
ATOM      7  C   UNL     1      88.182 323.199 191.857  1.00  0.00     0.053 C 
BRANCH   7   8
ATOM      8  C   UNL     1      88.020 322.830 190.414  1.00  0.00     0.041 C 
ATOM      9  O   UNL     1      86.871 322.645 189.931  1.00  0.00    -0.550 OA
ATOM     10  O   UNL     1      89.137 322.719 189.595  1.00  0.00    -0.550 OA
ENDBRANCH   7   8
ENDBRANCH   6   7
ENDBRANCH   5   6
ENDBRANCH   4   5
ENDBRANCH   3   4
ENDBRANCH   2   3
ENDBRANCH   1   2
BRANCH   1  11
ATOM     11  C   UNL     1      88.595 325.067 197.529  1.00  0.00     0.000 C 
BRANCH  11  12
ATOM     12  C   UNL     1      88.658 326.474 198.149  1.00  0.00    -0.000 C 
BRANCH  12  13
ATOM     13  C   UNL     1      89.335 326.481 199.529  1.00  0.00    -0.000 C 
BRANCH  13  14
ATOM     14  C   UNL     1      88.636 325.556 200.540  1.00  0.00    -0.000 C 
BRANCH  14  15
ATOM     15  C   UNL     1      88.940 325.991 201.981  1.00  0.00    -0.000 C 
BRANCH  15  16
ATOM     16  C   UNL     1      90.284 326.727 202.107  1.00  0.00    -0.000 C 
BRANCH  16  17
ATOM     17  C   UNL     1      90.576 327.182 203.544  1.00  0.00    -0.003 C 
ATOM     18  C   UNL     1      89.286 327.325 204.348  1.00  0.00     0.004 C 
ENDBRANCH  16  17
ENDBRANCH  15  16
ENDBRANCH  14  15
ENDBRANCH  13  14
ENDBRANCH  12  13
ENDBRANCH  11  12
ENDBRANCH   1  11
TORSDOF 14
ENDMDL
MODEL 9
REMARK VINA RESULT:    -5.506     19.336     20.668
REMARK INTER + INTRA:         -11.023
REMARK INTER:                  -9.899
REMARK INTRA:                  -1.124
REMARK UNBOUND:                -1.011
REMARK SMILES CCCCCCCCCCCCCCCC(=O)[O-]
REMARK SMILES IDX 9 1 10 2 11 3 12 4 13 5 14 6 15 7 16 8 17 9 18 10 8 11 7 12
REMARK SMILES IDX 6 13 5 14 4 15 3 16 2 17 1 18
REMARK H PARENT
REMARK Flexibility Score: inf
ROOT
ATOM      1  C   UNL     1      88.123 326.139 196.579  1.00  0.00     0.000 C 
ENDROOT
BRANCH   1   2
ATOM      2  C   UNL     1      88.651 326.795 197.868  1.00  0.00     0.000 C 
BRANCH   2   3
ATOM      3  C   UNL     1      88.864 325.778 199.002  1.00  0.00     0.000 C 
BRANCH   3   4
ATOM      4  C   UNL     1      89.555 326.399 200.230  1.00  0.00     0.000 C 
BRANCH   4   5
ATOM      5  C   UNL     1      88.800 326.115 201.539  1.00  0.00     0.000 C 
BRANCH   5   6
ATOM      6  C   UNL     1      89.735 326.032 202.758  1.00  0.00     0.006 C 
BRANCH   6   7
ATOM      7  C   UNL     1      89.291 326.965 203.892  1.00  0.00     0.053 C 
BRANCH   7   8
ATOM      8  C   UNL     1      89.246 326.256 205.211  1.00  0.00     0.041 C 
ATOM      9  O   UNL     1      89.550 325.036 205.286  1.00  0.00    -0.550 OA
ATOM     10  O   UNL     1      88.898 326.950 206.363  1.00  0.00    -0.550 OA
ENDBRANCH   7   8
ENDBRANCH   6   7
ENDBRANCH   5   6
ENDBRANCH   4   5
ENDBRANCH   3   4
ENDBRANCH   2   3
ENDBRANCH   1   2
BRANCH   1  11
ATOM     11  C   UNL     1      88.984 326.478 195.350  1.00  0.00     0.000 C 
BRANCH  11  12
ATOM     12  C   UNL     1      88.139 326.730 194.089  1.00  0.00    -0.000 C 
BRANCH  12  13
ATOM     13  C   UNL     1      86.672 326.307 194.267  1.00  0.00    -0.000 C 
BRANCH  13  14
ATOM     14  C   UNL     1      86.301 325.078 193.422  1.00  0.00    -0.000 C 
BRANCH  14  15
ATOM     15  C   UNL     1      87.464 324.673 192.504  1.00  0.00    -0.000 C 
BRANCH  15  16
ATOM     16  C   UNL     1      87.827 323.184 192.628  1.00  0.00    -0.000 C 
BRANCH  16  17
ATOM     17  C   UNL     1      87.619 322.641 194.049  1.00  0.00    -0.003 C 
ATOM     18  C   UNL     1      88.851 322.883 194.915  1.00  0.00     0.004 C 
ENDBRANCH  16  17
ENDBRANCH  15  16
ENDBRANCH  14  15
ENDBRANCH  13  14
ENDBRANCH  12  13
ENDBRANCH  11  12
ENDBRANCH   1  11
TORSDOF 14
ENDMDL
