MODEL 1
REMARK VINA RESULT:    -6.753      0.000      0.000
REMARK INTER + INTRA:          -9.663
REMARK INTER:                  -9.121
REMARK INTRA:                  -0.542
REMARK UNBOUND:                -0.542
REMARK SMILES COc1ccc(-c2cc(=O)c3c(OC)c(OC)c(OC)c(OC)c3o2)cc1
REMARK SMILES IDX 7 1 8 2 9 3 10 4 11 5 24 6 25 7 21 8 18 9 15 10 12 11 6 12
REMARK SMILES IDX 3 13 4 14 27 15 5 16 26 17 2 18 1 19 22 20 23 21 13 22 14 23
REMARK SMILES IDX 19 24 20 25 16 26 17 27
REMARK H PARENT
REMARK Flexibility Score: inf
ROOT
ATOM      1  C   UNL     1      13.067 -78.495  30.863  1.00  0.00     0.138 A 
ATOM      2  C   UNL     1      12.119 -77.519  30.543  1.00  0.00     0.100 A 
ATOM      3  C   UNL     1      11.718 -76.610  31.520  1.00  0.00     0.197 A 
ATOM      4  O   UNL     1      10.858 -75.741  31.216  1.00  0.00    -0.289 OA
ATOM      5  C   UNL     1      12.278 -76.679  32.817  1.00  0.00     0.115 A 
ATOM      6  C   UNL     1      13.258 -77.673  33.056  1.00  0.00     0.188 A 
ATOM      7  O   UNL     1      13.594 -78.517  32.083  1.00  0.00    -0.452 OA
ATOM      8  C   UNL     1      13.860 -77.784  34.329  1.00  0.00     0.209 A 
ATOM      9  C   UNL     1      13.488 -76.897  35.357  1.00  0.00     0.211 A 
ATOM     10  C   UNL     1      12.487 -75.919  35.137  1.00  0.00     0.208 A 
ATOM     11  C   UNL     1      11.870 -75.823  33.868  1.00  0.00     0.179 A 
ENDROOT
BRANCH   1  12
ATOM     12  C   UNL     1      13.503 -79.511  29.870  1.00  0.00     0.018 A 
ATOM     13  C   UNL     1      14.264 -81.447  27.961  1.00  0.00     0.118 A 
ATOM     14  C   UNL     1      15.014 -80.266  28.114  1.00  0.00     0.047 A 
ATOM     15  C   UNL     1      13.132 -81.645  28.758  1.00  0.00     0.047 A 
ATOM     16  C   UNL     1      14.635 -79.306  29.057  1.00  0.00     0.016 A 
ATOM     17  C   UNL     1      12.754 -80.687  29.701  1.00  0.00     0.016 A 
BRANCH  13  18
ATOM     18  O   UNL     1      14.606 -82.442  27.032  1.00  0.00    -0.497 OA
ATOM     19  C   UNL     1      14.264 -83.818  27.169  1.00  0.00     0.278 C 
ENDBRANCH  13  18
ENDBRANCH   1  12
BRANCH   8  20
ATOM     20  O   UNL     1      14.812 -78.773  34.641  1.00  0.00    -0.490 OA
ATOM     21  C   UNL     1      14.549 -80.134  34.956  1.00  0.00     0.278 C 
ENDBRANCH   8  20
BRANCH  11  22
ATOM     22  O   UNL     1      10.859 -74.876  33.612  1.00  0.00    -0.492 OA
ATOM     23  C   UNL     1       9.491 -75.006  33.986  1.00  0.00     0.278 C 
ENDBRANCH  11  22
BRANCH   9  24
ATOM     24  O   UNL     1      14.101 -77.000  36.611  1.00  0.00    -0.490 OA
ATOM     25  C   UNL     1      13.586 -77.807  37.669  1.00  0.00     0.279 C 
ENDBRANCH   9  24
BRANCH  10  26
ATOM     26  O   UNL     1      12.094 -74.993  36.125  1.00  0.00    -0.490 OA
ATOM     27  C   UNL     1      11.138 -75.191  37.164  1.00  0.00     0.278 C 
ENDBRANCH  10  26
TORSDOF 6
ENDMDL
MODEL 2
REMARK VINA RESULT:    -6.658      0.578      1.096
REMARK INTER + INTRA:          -9.536
REMARK INTER:                  -8.956
REMARK INTRA:                  -0.580
REMARK UNBOUND:                -0.542
REMARK SMILES COc1ccc(-c2cc(=O)c3c(OC)c(OC)c(OC)c(OC)c3o2)cc1
REMARK SMILES IDX 7 1 8 2 9 3 10 4 11 5 24 6 25 7 21 8 18 9 15 10 12 11 6 12
REMARK SMILES IDX 3 13 4 14 27 15 5 16 26 17 2 18 1 19 22 20 23 21 13 22 14 23
REMARK SMILES IDX 19 24 20 25 16 26 17 27
REMARK H PARENT
REMARK Flexibility Score: inf
ROOT
ATOM      1  C   UNL     1      13.174 -78.543  30.935  1.00  0.00     0.138 A 
ATOM      2  C   UNL     1      12.303 -77.481  30.673  1.00  0.00     0.100 A 
ATOM      3  C   UNL     1      11.977 -76.596  31.699  1.00  0.00     0.197 A 
ATOM      4  O   UNL     1      11.186 -75.649  31.446  1.00  0.00    -0.289 OA
ATOM      5  C   UNL     1      12.536 -76.775  32.986  1.00  0.00     0.115 A 
ATOM      6  C   UNL     1      13.437 -77.852  33.165  1.00  0.00     0.188 A 
ATOM      7  O   UNL     1      13.703 -78.669  32.148  1.00  0.00    -0.452 OA
ATOM      8  C   UNL     1      14.034 -78.076  34.426  1.00  0.00     0.209 A 
ATOM      9  C   UNL     1      13.736 -77.216  35.501  1.00  0.00     0.211 A 
ATOM     10  C   UNL     1      12.813 -76.154  35.340  1.00  0.00     0.208 A 
ATOM     11  C   UNL     1      12.200 -75.945  34.082  1.00  0.00     0.179 A 
ENDROOT
BRANCH   1  12
ATOM     12  C   UNL     1      13.526 -79.536  29.888  1.00  0.00     0.018 A 
ATOM     13  C   UNL     1      14.263 -81.421  27.919  1.00  0.00     0.118 A 
ATOM     14  C   UNL     1      13.109 -81.622  28.700  1.00  0.00     0.047 A 
ATOM     15  C   UNL     1      15.046 -80.283  28.137  1.00  0.00     0.047 A 
ATOM     16  C   UNL     1      12.747 -80.690  29.676  1.00  0.00     0.016 A 
ATOM     17  C   UNL     1      14.683 -79.351  29.112  1.00  0.00     0.016 A 
BRANCH  13  18
ATOM     18  O   UNL     1      14.666 -82.325  26.924  1.00  0.00    -0.497 OA
ATOM     19  C   UNL     1      13.916 -83.470  26.530  1.00  0.00     0.278 C 
ENDBRANCH  13  18
ENDBRANCH   1  12
BRANCH   8  20
ATOM     20  O   UNL     1      14.907 -79.150  34.679  1.00  0.00    -0.490 OA
ATOM     21  C   UNL     1      14.540 -80.480  35.020  1.00  0.00     0.278 C 
ENDBRANCH   8  20
BRANCH  11  22
ATOM     22  O   UNL     1      11.264 -74.911  33.884  1.00  0.00    -0.492 OA
ATOM     23  C   UNL     1       9.917 -74.916  34.344  1.00  0.00     0.278 C 
ENDBRANCH  11  22
BRANCH   9  24
ATOM     24  O   UNL     1      14.344 -77.431  36.744  1.00  0.00    -0.490 OA
ATOM     25  C   UNL     1      15.531 -76.758  37.160  1.00  0.00     0.279 C 
ENDBRANCH   9  24
BRANCH  10  26
ATOM     26  O   UNL     1      12.498 -75.253  36.377  1.00  0.00    -0.490 OA
ATOM     27  C   UNL     1      11.707 -75.511  37.535  1.00  0.00     0.278 C 
ENDBRANCH  10  26
TORSDOF 6
ENDMDL
MODEL 3
REMARK VINA RESULT:    -5.829      1.438      3.636
REMARK INTER + INTRA:          -8.416
REMARK INTER:                  -7.891
REMARK INTRA:                  -0.525
REMARK UNBOUND:                -0.542
REMARK SMILES COc1ccc(-c2cc(=O)c3c(OC)c(OC)c(OC)c(OC)c3o2)cc1
REMARK SMILES IDX 7 1 8 2 9 3 10 4 11 5 24 6 25 7 21 8 18 9 15 10 12 11 6 12
REMARK SMILES IDX 3 13 4 14 27 15 5 16 26 17 2 18 1 19 22 20 23 21 13 22 14 23
REMARK SMILES IDX 19 24 20 25 16 26 17 27
REMARK H PARENT
REMARK Flexibility Score: inf
ROOT
ATOM      1  C   UNL     1      13.495 -79.189  30.571  1.00  0.00     0.138 A 
ATOM      2  C   UNL     1      14.235 -79.274  31.756  1.00  0.00     0.100 A 
ATOM      3  C   UNL     1      13.918 -78.434  32.820  1.00  0.00     0.197 A 
ATOM      4  O   UNL     1      14.599 -78.521  33.877  1.00  0.00    -0.289 OA
ATOM      5  C   UNL     1      12.851 -77.514  32.697  1.00  0.00     0.115 A 
ATOM      6  C   UNL     1      12.126 -77.510  31.481  1.00  0.00     0.188 A 
ATOM      7  O   UNL     1      12.482 -78.332  30.496  1.00  0.00    -0.452 OA
ATOM      8  C   UNL     1      11.044 -76.620  31.303  1.00  0.00     0.209 A 
ATOM      9  C   UNL     1      10.683 -75.743  32.344  1.00  0.00     0.211 A 
ATOM     10  C   UNL     1      11.421 -75.718  33.553  1.00  0.00     0.208 A 
ATOM     11  C   UNL     1      12.518 -76.595  33.721  1.00  0.00     0.179 A 
ENDROOT
BRANCH   1  12
ATOM     12  C   UNL     1      13.814 -80.035  29.393  1.00  0.00     0.018 A 
ATOM     13  C   UNL     1      14.349 -81.654  27.142  1.00  0.00     0.118 A 
ATOM     14  C   UNL     1      15.046 -80.445  27.332  1.00  0.00     0.047 A 
ATOM     15  C   UNL     1      13.380 -82.037  28.075  1.00  0.00     0.047 A 
ATOM     16  C   UNL     1      14.778 -79.644  28.445  1.00  0.00     0.016 A 
ATOM     17  C   UNL     1      13.113 -81.236  29.188  1.00  0.00     0.016 A 
BRANCH  13  18
ATOM     18  O   UNL     1      14.585 -82.495  26.044  1.00  0.00    -0.497 OA
ATOM     19  C   UNL     1      14.252 -83.880  26.009  1.00  0.00     0.278 C 
ENDBRANCH  13  18
ENDBRANCH   1  12
BRANCH   8  20
ATOM     20  O   UNL     1      10.308 -76.540  30.106  1.00  0.00    -0.490 OA
ATOM     21  C   UNL     1       9.367 -77.489  29.623  1.00  0.00     0.278 C 
ENDBRANCH   8  20
BRANCH  11  22
ATOM     22  O   UNL     1      13.288 -76.591  34.901  1.00  0.00    -0.492 OA
ATOM     23  C   UNL     1      14.201 -75.570  35.288  1.00  0.00     0.278 C 
ENDBRANCH  11  22
BRANCH   9  24
ATOM     24  O   UNL     1       9.598 -74.875  32.169  1.00  0.00    -0.490 OA
ATOM     25  C   UNL     1       8.318 -75.094  32.759  1.00  0.00     0.279 C 
ENDBRANCH   9  24
BRANCH  10  26
ATOM     26  O   UNL     1      11.088 -74.876  34.633  1.00  0.00    -0.490 OA
ATOM     27  C   UNL     1      10.360 -75.225  35.808  1.00  0.00     0.278 C 
ENDBRANCH  10  26
TORSDOF 6
ENDMDL
MODEL 4
REMARK VINA RESULT:    -5.243      2.592      9.069
REMARK INTER + INTRA:          -7.624
REMARK INTER:                  -7.136
REMARK INTRA:                  -0.488
REMARK UNBOUND:                -0.542
REMARK SMILES COc1ccc(-c2cc(=O)c3c(OC)c(OC)c(OC)c(OC)c3o2)cc1
REMARK SMILES IDX 7 1 8 2 9 3 10 4 11 5 24 6 25 7 21 8 18 9 15 10 12 11 6 12
REMARK SMILES IDX 3 13 4 14 27 15 5 16 26 17 2 18 1 19 22 20 23 21 13 22 14 23
REMARK SMILES IDX 19 24 20 25 16 26 17 27
REMARK H PARENT
REMARK Flexibility Score: inf
ROOT
ATOM      1  C   UNL     1      13.089 -79.605  30.060  1.00  0.00     0.138 A 
ATOM      2  C   UNL     1      14.330 -80.132  29.686  1.00  0.00     0.100 A 
ATOM      3  C   UNL     1      14.378 -81.191  28.782  1.00  0.00     0.197 A 
ATOM      4  O   UNL     1      15.504 -81.656  28.461  1.00  0.00    -0.289 OA
ATOM      5  C   UNL     1      13.177 -81.714  28.247  1.00  0.00     0.115 A 
ATOM      6  C   UNL     1      11.962 -81.107  28.647  1.00  0.00     0.188 A 
ATOM      7  O   UNL     1      11.981 -80.103  29.520  1.00  0.00    -0.452 OA
ATOM      8  C   UNL     1      10.732 -81.581  28.139  1.00  0.00     0.209 A 
ATOM      9  C   UNL     1      10.720 -82.654  27.227  1.00  0.00     0.211 A 
ATOM     10  C   UNL     1      11.928 -83.288  26.845  1.00  0.00     0.208 A 
ATOM     11  C   UNL     1      13.157 -82.826  27.371  1.00  0.00     0.179 A 
ENDROOT
BRANCH   1  12
ATOM     12  C   UNL     1      12.979 -78.501  31.047  1.00  0.00     0.018 A 
ATOM     13  C   UNL     1      12.840 -76.391  32.919  1.00  0.00     0.118 A 
ATOM     14  C   UNL     1      11.901 -76.479  31.874  1.00  0.00     0.047 A 
ATOM     15  C   UNL     1      13.850 -77.354  33.011  1.00  0.00     0.047 A 
ATOM     16  C   UNL     1      11.972 -77.522  30.946  1.00  0.00     0.016 A 
ATOM     17  C   UNL     1      13.921 -78.397  32.085  1.00  0.00     0.016 A 
BRANCH  13  18
ATOM     18  O   UNL     1      12.808 -75.366  33.876  1.00  0.00    -0.497 OA
ATOM     19  C   UNL     1      12.902 -75.580  35.282  1.00  0.00     0.278 C 
ENDBRANCH  13  18
ENDBRANCH   1  12
BRANCH   8  20
ATOM     20  O   UNL     1       9.489 -81.046  28.525  1.00  0.00    -0.490 OA
ATOM     21  C   UNL     1       8.751 -80.039  27.846  1.00  0.00     0.278 C 
ENDBRANCH   8  20
BRANCH  11  22
ATOM     22  O   UNL     1      14.379 -83.439  27.030  1.00  0.00    -0.492 OA
ATOM     23  C   UNL     1      14.722 -84.796  27.287  1.00  0.00     0.278 C 
ENDBRANCH  11  22
BRANCH   9  24
ATOM     24  O   UNL     1       9.499 -83.107  26.714  1.00  0.00    -0.490 OA
ATOM     25  C   UNL     1       8.961 -82.663  25.470  1.00  0.00     0.279 C 
ENDBRANCH   9  24
BRANCH  10  26
ATOM     26  O   UNL     1      11.972 -84.350  25.920  1.00  0.00    -0.490 OA
ATOM     27  C   UNL     1      12.292 -84.274  24.533  1.00  0.00     0.278 C 
ENDBRANCH  10  26
TORSDOF 6
ENDMDL
MODEL 5
REMARK VINA RESULT:    -4.246      1.372      1.682
REMARK INTER + INTRA:          -6.277
REMARK INTER:                  -5.735
REMARK INTRA:                  -0.543
REMARK UNBOUND:                -0.542
REMARK SMILES COc1ccc(-c2cc(=O)c3c(OC)c(OC)c(OC)c(OC)c3o2)cc1
REMARK SMILES IDX 7 1 8 2 9 3 10 4 11 5 24 6 25 7 21 8 18 9 15 10 12 11 6 12
REMARK SMILES IDX 3 13 4 14 27 15 5 16 26 17 2 18 1 19 22 20 23 21 13 22 14 23
REMARK SMILES IDX 19 24 20 25 16 26 17 27
REMARK H PARENT
REMARK Flexibility Score: inf
ROOT
ATOM      1  C   UNL     1      12.814 -79.493  29.942  1.00  0.00     0.138 A 
ATOM      2  C   UNL     1      11.770 -78.712  29.436  1.00  0.00     0.100 A 
ATOM      3  C   UNL     1      11.311 -77.624  30.176  1.00  0.00     0.197 A 
ATOM      4  O   UNL     1      10.366 -76.935  29.708  1.00  0.00    -0.289 OA
ATOM      5  C   UNL     1      11.909 -77.318  31.421  1.00  0.00     0.115 A 
ATOM      6  C   UNL     1      12.983 -78.133  31.851  1.00  0.00     0.188 A 
ATOM      7  O   UNL     1      13.372 -79.163  31.103  1.00  0.00    -0.452 OA
ATOM      8  C   UNL     1      13.625 -77.870  33.081  1.00  0.00     0.209 A 
ATOM      9  C   UNL     1      13.198 -76.787  33.874  1.00  0.00     0.211 A 
ATOM     10  C   UNL     1      12.104 -75.984  33.467  1.00  0.00     0.208 A 
ATOM     11  C   UNL     1      11.449 -76.263  32.245  1.00  0.00     0.179 A 
ENDROOT
BRANCH   1  12
ATOM     12  C   UNL     1      13.318 -80.685  29.212  1.00  0.00     0.018 A 
ATOM     13  C   UNL     1      14.222 -82.942  27.777  1.00  0.00     0.118 A 
ATOM     14  C   UNL     1      15.136 -81.971  28.225  1.00  0.00     0.047 A 
ATOM     15  C   UNL     1      12.859 -82.770  28.040  1.00  0.00     0.047 A 
ATOM     16  C   UNL     1      14.687 -80.852  28.933  1.00  0.00     0.016 A 
ATOM     17  C   UNL     1      12.411 -81.653  28.749  1.00  0.00     0.016 A 
BRANCH  13  18
ATOM     18  O   UNL     1      14.623 -84.084  27.067  1.00  0.00    -0.497 OA
ATOM     19  C   UNL     1      13.980 -84.563  25.889  1.00  0.00     0.278 C 
ENDBRANCH  13  18
ENDBRANCH   1  12
BRANCH   8  20
ATOM     20  O   UNL     1      14.673 -78.665  33.583  1.00  0.00    -0.490 OA
ATOM     21  C   UNL     1      14.543 -79.851  34.354  1.00  0.00     0.278 C 
ENDBRANCH   8  20
BRANCH  11  22
ATOM     22  O   UNL     1      10.347 -75.499  31.812  1.00  0.00    -0.492 OA
ATOM     23  C   UNL     1       9.025 -75.587  32.332  1.00  0.00     0.278 C 
ENDBRANCH  11  22
BRANCH   9  24
ATOM     24  O   UNL     1      13.850 -76.520  35.084  1.00  0.00    -0.490 OA
ATOM     25  C   UNL     1      14.806 -75.474  35.242  1.00  0.00     0.279 C 
ENDBRANCH   9  24
BRANCH  10  26
ATOM     26  O   UNL     1      11.653 -74.876  34.212  1.00  0.00    -0.490 OA
ATOM     27  C   UNL     1      11.022 -74.894  35.491  1.00  0.00     0.278 C 
ENDBRANCH  10  26
TORSDOF 6
ENDMDL
