MODEL 1
REMARK VINA RESULT:    -4.515      0.000      0.000
REMARK INTER + INTRA:          -4.873
REMARK INTER:                  -4.779
REMARK INTRA:                  -0.094
REMARK UNBOUND:                -0.094
REMARK SMILES C=C(C)[C@H]1CC=C(C)C(=O)C1
REMARK SMILES IDX 8 1 7 2 6 3 5 4 4 5 11 6 9 7 10 8 2 9 1 10 3 11
REMARK H PARENT
REMARK Flexibility Score: inf
ROOT
ATOM      1  C   UNL     1      16.716  29.384  43.969  1.00  0.00     0.048 C 
ATOM      2  C   UNL     1      17.905  28.575  43.533  1.00  0.00    -0.012 C 
ATOM      3  C   UNL     1      19.124  28.854  44.028  1.00  0.00    -0.019 C 
ATOM      4  C   UNL     1      20.350  28.087  43.611  1.00  0.00     0.036 C 
ATOM      5  C   UNL     1      20.005  26.620  43.295  1.00  0.00     0.025 C 
ATOM      6  C   UNL     1      18.886  26.547  42.240  1.00  0.00     0.089 C 
ATOM      7  C   UNL     1      17.713  27.393  42.655  1.00  0.00     0.158 C 
ATOM      8  O   UNL     1      16.566  27.108  42.218  1.00  0.00    -0.295 OA
ENDROOT
BRANCH   5   9
ATOM      9  C   UNL     1      21.237  25.840  42.855  1.00  0.00    -0.077 C 
ATOM     10  C   UNL     1      22.340  25.836  43.620  1.00  0.00     0.008 C 
ATOM     11  C   UNL     1      21.251  25.057  41.565  1.00  0.00     0.039 C 
ENDBRANCH   5   9
TORSDOF 1
ENDMDL
MODEL 2
REMARK VINA RESULT:    -4.511      1.050      1.368
REMARK INTER + INTRA:          -4.869
REMARK INTER:                  -4.770
REMARK INTRA:                  -0.098
REMARK UNBOUND:                -0.094
REMARK SMILES C=C(C)[C@H]1CC=C(C)C(=O)C1
REMARK SMILES IDX 8 1 7 2 6 3 5 4 4 5 11 6 9 7 10 8 2 9 1 10 3 11
REMARK H PARENT
REMARK Flexibility Score: inf
ROOT
ATOM      1  C   UNL     1      15.598  28.519  43.463  1.00  0.00     0.048 C 
ATOM      2  C   UNL     1      17.061  28.219  43.288  1.00  0.00    -0.012 C 
ATOM      3  C   UNL     1      17.982  29.073  43.769  1.00  0.00    -0.019 C 
ATOM      4  C   UNL     1      19.458  28.829  43.605  1.00  0.00     0.036 C 
ATOM      5  C   UNL     1      19.777  27.323  43.617  1.00  0.00     0.025 C 
ATOM      6  C   UNL     1      18.944  26.591  42.549  1.00  0.00     0.089 C 
ATOM      7  C   UNL     1      17.485  26.925  42.695  1.00  0.00     0.158 C 
ATOM      8  O   UNL     1      16.622  26.108  42.276  1.00  0.00    -0.295 OA
ENDROOT
BRANCH   5   9
ATOM      9  C   UNL     1      21.267  27.066  43.433  1.00  0.00    -0.077 C 
ATOM     10  C   UNL     1      22.073  28.055  43.014  1.00  0.00     0.008 C 
ATOM     11  C   UNL     1      21.872  25.713  43.715  1.00  0.00     0.039 C 
ENDBRANCH   5   9
TORSDOF 1
ENDMDL
MODEL 3
REMARK VINA RESULT:    -4.473      2.450      4.773
REMARK INTER + INTRA:          -4.828
REMARK INTER:                  -4.729
REMARK INTRA:                  -0.099
REMARK UNBOUND:                -0.094
REMARK SMILES C=C(C)[C@H]1CC=C(C)C(=O)C1
REMARK SMILES IDX 8 1 7 2 6 3 5 4 4 5 11 6 9 7 10 8 2 9 1 10 3 11
REMARK H PARENT
REMARK Flexibility Score: inf
ROOT
ATOM      1  C   UNL     1      24.205  27.493  42.866  1.00  0.00     0.048 C 
ATOM      2  C   UNL     1      22.705  27.581  42.840  1.00  0.00    -0.012 C 
ATOM      3  C   UNL     1      21.968  26.639  43.455  1.00  0.00    -0.019 C 
ATOM      4  C   UNL     1      20.463  26.670  43.443  1.00  0.00     0.036 C 
ATOM      5  C   UNL     1      19.938  28.117  43.427  1.00  0.00     0.025 C 
ATOM      6  C   UNL     1      20.545  28.894  42.245  1.00  0.00     0.089 C 
ATOM      7  C   UNL     1      22.044  28.770  42.245  1.00  0.00     0.158 C 
ATOM      8  O   UNL     1      22.735  29.672  41.700  1.00  0.00    -0.295 OA
ENDROOT
BRANCH   5   9
ATOM      9  C   UNL     1      18.416  28.158  43.397  1.00  0.00    -0.077 C 
ATOM     10  C   UNL     1      17.721  27.067  43.039  1.00  0.00     0.008 C 
ATOM     11  C   UNL     1      17.656  29.409  43.766  1.00  0.00     0.039 C 
ENDBRANCH   5   9
TORSDOF 1
ENDMDL
MODEL 4
REMARK VINA RESULT:    -4.428      1.888      4.680
REMARK INTER + INTRA:          -4.781
REMARK INTER:                  -4.682
REMARK INTRA:                  -0.098
REMARK UNBOUND:                -0.094
REMARK SMILES C=C(C)[C@H]1CC=C(C)C(=O)C1
REMARK SMILES IDX 8 1 7 2 6 3 5 4 4 5 11 6 9 7 10 8 2 9 1 10 3 11
REMARK H PARENT
REMARK Flexibility Score: inf
ROOT
ATOM      1  C   UNL     1      21.136  24.781  41.367  1.00  0.00     0.048 C 
ATOM      2  C   UNL     1      20.183  25.866  41.786  1.00  0.00    -0.012 C 
ATOM      3  C   UNL     1      19.039  26.052  41.105  1.00  0.00    -0.019 C 
ATOM      4  C   UNL     1      18.060  27.135  41.471  1.00  0.00     0.036 C 
ATOM      5  C   UNL     1      18.060  27.392  42.989  1.00  0.00     0.025 C 
ATOM      6  C   UNL     1      19.485  27.707  43.479  1.00  0.00     0.089 C 
ATOM      7  C   UNL     1      20.447  26.645  43.022  1.00  0.00     0.158 C 
ATOM      8  O   UNL     1      21.502  26.446  43.683  1.00  0.00    -0.295 OA
ENDROOT
BRANCH   5   9
ATOM      9  C   UNL     1      17.085  28.500  43.367  1.00  0.00    -0.077 C 
ATOM     10  C   UNL     1      17.547  29.688  43.789  1.00  0.00     0.008 C 
ATOM     11  C   UNL     1      15.592  28.297  43.277  1.00  0.00     0.039 C 
ENDBRANCH   5   9
TORSDOF 1
ENDMDL
MODEL 5
REMARK VINA RESULT:    -4.386      1.566      2.370
REMARK INTER + INTRA:          -4.737
REMARK INTER:                  -4.643
REMARK INTRA:                  -0.094
REMARK UNBOUND:                -0.094
REMARK SMILES C=C(C)[C@H]1CC=C(C)C(=O)C1
REMARK SMILES IDX 8 1 7 2 6 3 5 4 4 5 11 6 9 7 10 8 2 9 1 10 3 11
REMARK H PARENT
REMARK Flexibility Score: inf
ROOT
ATOM      1  C   UNL     1      15.396  28.521  42.841  1.00  0.00     0.048 C 
ATOM      2  C   UNL     1      16.835  28.170  43.098  1.00  0.00    -0.012 C 
ATOM      3  C   UNL     1      17.326  26.996  42.664  1.00  0.00    -0.019 C 
ATOM      4  C   UNL     1      18.753  26.587  42.912  1.00  0.00     0.036 C 
ATOM      5  C   UNL     1      19.686  27.812  42.925  1.00  0.00     0.025 C 
ATOM      6  C   UNL     1      19.193  28.850  43.949  1.00  0.00     0.089 C 
ATOM      7  C   UNL     1      17.740  29.169  43.720  1.00  0.00     0.158 C 
ATOM      8  O   UNL     1      17.290  30.285  44.095  1.00  0.00    -0.295 OA
ENDROOT
BRANCH   5   9
ATOM      9  C   UNL     1      21.131  27.410  43.193  1.00  0.00    -0.077 C 
ATOM     10  C   UNL     1      22.116  28.312  43.056  1.00  0.00     0.008 C 
ATOM     11  C   UNL     1      21.490  26.008  43.619  1.00  0.00     0.039 C 
ENDBRANCH   5   9
TORSDOF 1
ENDMDL
MODEL 6
REMARK VINA RESULT:    -4.126      2.456      4.682
REMARK INTER + INTRA:          -4.461
REMARK INTER:                  -4.370
REMARK INTRA:                  -0.091
REMARK UNBOUND:                -0.094
REMARK SMILES C=C(C)[C@H]1CC=C(C)C(=O)C1
REMARK SMILES IDX 8 1 7 2 6 3 5 4 4 5 11 6 9 7 10 8 2 9 1 10 3 11
REMARK H PARENT
REMARK Flexibility Score: inf
ROOT
ATOM      1  C   UNL     1      24.126  27.320  41.990  1.00  0.00     0.048 C 
ATOM      2  C   UNL     1      22.707  27.555  42.427  1.00  0.00    -0.012 C 
ATOM      3  C   UNL     1      22.033  28.625  41.970  1.00  0.00    -0.019 C 
ATOM      4  C   UNL     1      20.618  28.916  42.391  1.00  0.00     0.036 C 
ATOM      5  C   UNL     1      19.837  27.614  42.649  1.00  0.00     0.025 C 
ATOM      6  C   UNL     1      20.580  26.739  43.675  1.00  0.00     0.089 C 
ATOM      7  C   UNL     1      22.013  26.541  43.261  1.00  0.00     0.158 C 
ATOM      8  O   UNL     1      22.632  25.518  43.661  1.00  0.00    -0.295 OA
ENDROOT
BRANCH   5   9
ATOM      9  C   UNL     1      18.408  27.899  43.093  1.00  0.00    -0.077 C 
ATOM     10  C   UNL     1      17.450  26.977  42.908  1.00  0.00     0.008 C 
ATOM     11  C   UNL     1      18.035  29.207  43.747  1.00  0.00     0.039 C 
ENDBRANCH   5   9
TORSDOF 1
ENDMDL
MODEL 7
REMARK VINA RESULT:    -3.976      1.986      4.701
REMARK INTER + INTRA:          -4.302
REMARK INTER:                  -4.206
REMARK INTRA:                  -0.096
REMARK UNBOUND:                -0.094
REMARK SMILES C=C(C)[C@H]1CC=C(C)C(=O)C1
REMARK SMILES IDX 8 1 7 2 6 3 5 4 4 5 11 6 9 7 10 8 2 9 1 10 3 11
REMARK H PARENT
REMARK Flexibility Score: inf
ROOT
ATOM      1  C   UNL     1      20.736  28.480  43.232  1.00  0.00     0.048 C 
ATOM      2  C   UNL     1      19.254  28.239  43.295  1.00  0.00    -0.012 C 
ATOM      3  C   UNL     1      18.443  29.185  43.802  1.00  0.00    -0.019 C 
ATOM      4  C   UNL     1      16.954  28.988  43.905  1.00  0.00     0.036 C 
ATOM      5  C   UNL     1      16.429  28.112  42.753  1.00  0.00     0.025 C 
ATOM      6  C   UNL     1      17.191  26.775  42.706  1.00  0.00     0.089 C 
ATOM      7  C   UNL     1      18.677  27.014  42.687  1.00  0.00     0.158 C 
ATOM      8  O   UNL     1      19.432  26.142  42.180  1.00  0.00    -0.295 OA
ENDROOT
BRANCH   5   9
ATOM      9  C   UNL     1      14.926  27.891  42.860  1.00  0.00    -0.077 C 
ATOM     10  C   UNL     1      14.291  27.131  41.953  1.00  0.00     0.008 C 
ATOM     11  C   UNL     1      14.119  28.510  43.974  1.00  0.00     0.039 C 
ENDBRANCH   5   9
TORSDOF 1
ENDMDL
MODEL 8
REMARK VINA RESULT:    -3.964      1.683      4.247
REMARK INTER + INTRA:          -4.289
REMARK INTER:                  -4.193
REMARK INTRA:                  -0.096
REMARK UNBOUND:                -0.094
REMARK SMILES C=C(C)[C@H]1CC=C(C)C(=O)C1
REMARK SMILES IDX 8 1 7 2 6 3 5 4 4 5 11 6 9 7 10 8 2 9 1 10 3 11
REMARK H PARENT
REMARK Flexibility Score: inf
ROOT
ATOM      1  C   UNL     1      22.861  26.705  42.578  1.00  0.00     0.048 C 
ATOM      2  C   UNL     1      21.429  27.049  42.881  1.00  0.00    -0.012 C 
ATOM      3  C   UNL     1      21.143  28.124  43.637  1.00  0.00    -0.019 C 
ATOM      4  C   UNL     1      19.728  28.502  43.985  1.00  0.00     0.036 C 
ATOM      5  C   UNL     1      18.758  28.124  42.850  1.00  0.00     0.025 C 
ATOM      6  C   UNL     1      18.893  26.630  42.505  1.00  0.00     0.089 C 
ATOM      7  C   UNL     1      20.332  26.275  42.245  1.00  0.00     0.158 C 
ATOM      8  O   UNL     1      20.598  25.289  41.507  1.00  0.00    -0.295 OA
ENDROOT
BRANCH   5   9
ATOM      9  C   UNL     1      17.321  28.485  43.202  1.00  0.00    -0.077 C 
ATOM     10  C   UNL     1      17.059  29.607  43.892  1.00  0.00     0.008 C 
ATOM     11  C   UNL     1      16.166  27.607  42.787  1.00  0.00     0.039 C 
ENDBRANCH   5   9
TORSDOF 1
ENDMDL
MODEL 9
REMARK VINA RESULT:    -3.928      2.106      5.321
REMARK INTER + INTRA:          -4.251
REMARK INTER:                  -4.153
REMARK INTRA:                  -0.098
REMARK UNBOUND:                -0.094
REMARK SMILES C=C(C)[C@H]1CC=C(C)C(=O)C1
REMARK SMILES IDX 8 1 7 2 6 3 5 4 4 5 11 6 9 7 10 8 2 9 1 10 3 11
REMARK H PARENT
REMARK Flexibility Score: inf
ROOT
ATOM      1  C   UNL     1      20.077  26.593  42.831  1.00  0.00     0.048 C 
ATOM      2  C   UNL     1      18.715  27.230  42.814  1.00  0.00    -0.012 C 
ATOM      3  C   UNL     1      17.729  26.686  42.079  1.00  0.00    -0.019 C 
ATOM      4  C   UNL     1      16.354  27.294  42.012  1.00  0.00     0.036 C 
ATOM      5  C   UNL     1      15.985  27.977  43.342  1.00  0.00     0.025 C 
ATOM      6  C   UNL     1      17.060  29.010  43.730  1.00  0.00     0.089 C 
ATOM      7  C   UNL     1      18.428  28.384  43.704  1.00  0.00     0.158 C 
ATOM      8  O   UNL     1      19.341  28.874  44.421  1.00  0.00    -0.295 OA
ENDROOT
BRANCH   5   9
ATOM      9  C   UNL     1      14.602  28.612  43.279  1.00  0.00    -0.077 C 
ATOM     10  C   UNL     1      14.140  29.103  42.118  1.00  0.00     0.008 C 
ATOM     11  C   UNL     1      13.722  28.702  44.501  1.00  0.00     0.039 C 
ENDBRANCH   5   9
TORSDOF 1
ENDMDL
