MODEL 1
REMARK VINA RESULT:    33.913      0.000      0.000
REMARK INTER + INTRA:          39.593
REMARK INTER:                  39.860
REMARK INTRA:                  -0.267
REMARK UNBOUND:                -0.267
REMARK SMILES O=c1cc(-c2ccc(O)c(O)c2)oc2cc(O)cc(O)c12
REMARK SMILES IDX 4 1 3 2 2 3 1 4 21 5 19 6 18 7 16 8 15 9 14 10 13 11 5 12
REMARK SMILES IDX 6 13 7 14 8 15 12 16 10 17 9 18 11 20 20 22 17 24
REMARK H PARENT 9 19 11 21 20 23 17 25
REMARK Flexibility Score: inf
ROOT
ATOM      1  C   UNL     1      96.245  74.293  54.454  1.00  0.00     0.138 A 
ATOM      2  C   UNL     1      96.011  73.688  55.697  1.00  0.00     0.100 A 
ATOM      3  C   UNL     1      96.207  72.315  55.844  1.00  0.00     0.197 A 
ATOM      4  O   UNL     1      96.049  71.811  56.986  1.00  0.00    -0.289 OA
ATOM      5  C   UNL     1      96.608  71.539  54.732  1.00  0.00     0.107 A 
ATOM      6  C   UNL     1      96.800  70.125  54.755  1.00  0.00     0.134 A 
ATOM      7  C   UNL     1      97.312  69.480  53.621  1.00  0.00     0.093 A 
ATOM      8  C   UNL     1      97.583  70.186  52.450  1.00  0.00     0.123 A 
ATOM      9  C   UNL     1      97.349  71.560  52.400  1.00  0.00     0.094 A 
ATOM     10  C   UNL     1      96.871  72.239  53.523  1.00  0.00     0.146 A 
ATOM     11  O   UNL     1      96.675  73.550  53.439  1.00  0.00    -0.456 OA
ENDROOT
BRANCH   1  12
ATOM     12  C   UNL     1      96.052  75.750  54.242  1.00  0.00     0.021 A 
ATOM     13  C   UNL     1      97.041  76.649  54.676  1.00  0.00     0.016 A 
ATOM     14  C   UNL     1      96.886  78.024  54.480  1.00  0.00     0.051 A 
ATOM     15  C   UNL     1      95.746  78.523  53.839  1.00  0.00     0.157 A 
ATOM     16  C   UNL     1      94.913  76.258  53.585  1.00  0.00     0.062 A 
ATOM     17  C   UNL     1      94.757  77.635  53.387  1.00  0.00     0.158 A 
BRANCH  15  18
ATOM     18  O   UNL     1      95.594  79.896  53.648  1.00  0.00    -0.504 OA
ATOM     19  H   UNL     1      95.216  80.494  54.372  1.00  0.00     0.293 HD
ENDBRANCH  15  18
BRANCH  17  20
ATOM     20  O   UNL     1      93.615  78.100  52.735  1.00  0.00    -0.504 OA
ATOM     21  H   UNL     1      92.724  77.622  52.804  1.00  0.00     0.293 HD
ENDBRANCH  17  20
ENDBRANCH   1  12
BRANCH   6  22
ATOM     22  O   UNL     1      96.482  69.310  55.845  1.00  0.00    -0.507 OA
ATOM     23  H   UNL     1      97.122  69.055  56.580  1.00  0.00     0.293 HD
ENDBRANCH   6  22
BRANCH   8  24
ATOM     24  O   UNL     1      98.078  69.508  51.337  1.00  0.00    -0.508 OA
ATOM     25  H   UNL     1      98.152  69.958  50.433  1.00  0.00     0.293 HD
ENDBRANCH   8  24
TORSDOF 5
ENDMDL
MODEL 2
REMARK VINA RESULT:    34.289      3.273      6.728
REMARK INTER + INTRA:          40.036
REMARK INTER:                  40.315
REMARK INTRA:                  -0.280
REMARK UNBOUND:                -0.267
REMARK SMILES O=c1cc(-c2ccc(O)c(O)c2)oc2cc(O)cc(O)c12
REMARK SMILES IDX 4 1 3 2 2 3 1 4 21 5 19 6 18 7 16 8 15 9 14 10 13 11 5 12
REMARK SMILES IDX 6 13 7 14 8 15 12 16 10 17 9 18 11 20 20 22 17 24
REMARK H PARENT 9 19 11 21 20 23 17 25
REMARK Flexibility Score: inf
ROOT
ATOM      1  C   UNL     1      96.518  72.918  55.490  1.00  0.00     0.138 A 
ATOM      2  C   UNL     1      97.501  73.799  55.962  1.00  0.00     0.100 A 
ATOM      3  C   UNL     1      97.209  74.654  57.026  1.00  0.00     0.197 A 
ATOM      4  O   UNL     1      98.130  75.390  57.466  1.00  0.00    -0.289 OA
ATOM      5  C   UNL     1      95.915  74.648  57.598  1.00  0.00     0.107 A 
ATOM      6  C   UNL     1      95.492  75.503  58.659  1.00  0.00     0.134 A 
ATOM      7  C   UNL     1      94.222  75.326  59.223  1.00  0.00     0.093 A 
ATOM      8  C   UNL     1      93.340  74.367  58.728  1.00  0.00     0.123 A 
ATOM      9  C   UNL     1      93.724  73.560  57.656  1.00  0.00     0.094 A 
ATOM     10  C   UNL     1      94.996  73.689  57.093  1.00  0.00     0.146 A 
ATOM     11  O   UNL     1      95.328  72.893  56.082  1.00  0.00    -0.456 OA
ENDROOT
BRANCH   1  12
ATOM     12  C   UNL     1      96.775  71.988  54.362  1.00  0.00     0.021 A 
ATOM     13  C   UNL     1      96.323  70.659  54.445  1.00  0.00     0.016 A 
ATOM     14  C   UNL     1      96.546  69.767  53.393  1.00  0.00     0.051 A 
ATOM     15  C   UNL     1      97.213  70.189  52.237  1.00  0.00     0.157 A 
ATOM     16  C   UNL     1      97.434  72.409  53.191  1.00  0.00     0.062 A 
ATOM     17  C   UNL     1      97.656  71.517  52.135  1.00  0.00     0.158 A 
BRANCH  15  18
ATOM     18  O   UNL     1      97.434  69.294  51.190  1.00  0.00    -0.504 OA
ATOM     19  H   UNL     1      98.069  69.513  50.431  1.00  0.00     0.293 HD
ENDBRANCH  15  18
BRANCH  17  20
ATOM     20  O   UNL     1      98.314  71.971  50.992  1.00  0.00    -0.504 OA
ATOM     21  H   UNL     1      99.230  72.403  51.035  1.00  0.00     0.293 HD
ENDBRANCH  17  20
ENDBRANCH   1  12
BRANCH   6  22
ATOM     22  O   UNL     1      96.263  76.551  59.173  1.00  0.00    -0.507 OA
ATOM     23  H   UNL     1      96.572  76.623  60.130  1.00  0.00     0.293 HD
ENDBRANCH   6  22
BRANCH   8  24
ATOM     24  O   UNL     1      92.080  74.229  59.305  1.00  0.00    -0.508 OA
ATOM     25  H   UNL     1      91.631  73.324  59.387  1.00  0.00     0.293 HD
ENDBRANCH   8  24
TORSDOF 5
ENDMDL
MODEL 3
REMARK VINA RESULT:    34.698      3.301      6.579
REMARK INTER + INTRA:          40.516
REMARK INTER:                  40.808
REMARK INTRA:                  -0.292
REMARK UNBOUND:                -0.267
REMARK SMILES O=c1cc(-c2ccc(O)c(O)c2)oc2cc(O)cc(O)c12
REMARK SMILES IDX 4 1 3 2 2 3 1 4 21 5 19 6 18 7 16 8 15 9 14 10 13 11 5 12
REMARK SMILES IDX 6 13 7 14 8 15 12 16 10 17 9 18 11 20 20 22 17 24
REMARK H PARENT 9 19 11 21 20 23 17 25
REMARK Flexibility Score: inf
ROOT
ATOM      1  C   UNL     1      96.113  72.599  55.559  1.00  0.00     0.138 A 
ATOM      2  C   UNL     1      94.853  72.354  56.123  1.00  0.00     0.100 A 
ATOM      3  C   UNL     1      94.422  73.119  57.208  1.00  0.00     0.197 A 
ATOM      4  O   UNL     1      93.263  72.918  57.653  1.00  0.00    -0.289 OA
ATOM      5  C   UNL     1      95.272  74.112  57.749  1.00  0.00     0.107 A 
ATOM      6  C   UNL     1      94.954  74.925  58.879  1.00  0.00     0.134 A 
ATOM      7  C   UNL     1      95.825  75.956  59.253  1.00  0.00     0.093 A 
ATOM      8  C   UNL     1      97.027  76.166  58.578  1.00  0.00     0.123 A 
ATOM      9  C   UNL     1      97.372  75.343  57.506  1.00  0.00     0.094 A 
ATOM     10  C   UNL     1      96.510  74.328  57.086  1.00  0.00     0.146 A 
ATOM     11  O   UNL     1      96.869  73.574  56.052  1.00  0.00    -0.456 OA
ENDROOT
BRANCH   1  12
ATOM     12  C   UNL     1      96.621  71.815  54.405  1.00  0.00     0.021 A 
ATOM     13  C   UNL     1      96.484  70.416  54.406  1.00  0.00     0.016 A 
ATOM     14  C   UNL     1      96.947  69.657  53.328  1.00  0.00     0.051 A 
ATOM     15  C   UNL     1      97.543  70.282  52.227  1.00  0.00     0.157 A 
ATOM     16  C   UNL     1      97.210  72.439  53.288  1.00  0.00     0.062 A 
ATOM     17  C   UNL     1      97.673  71.680  52.206  1.00  0.00     0.158 A 
BRANCH  15  18
ATOM     18  O   UNL     1      98.005  69.520  51.154  1.00  0.00    -0.504 OA
ATOM     19  H   UNL     1      97.555  69.554  50.247  1.00  0.00     0.293 HD
ENDBRANCH  15  18
BRANCH  17  20
ATOM     20  O   UNL     1      98.253  72.334  51.119  1.00  0.00    -0.504 OA
ATOM     21  H   UNL     1      98.976  71.903  50.555  1.00  0.00     0.293 HD
ENDBRANCH  17  20
ENDBRANCH   1  12
BRANCH   6  22
ATOM     22  O   UNL     1      93.820  74.747  59.676  1.00  0.00    -0.507 OA
ATOM     23  H   UNL     1      93.758  74.988  60.653  1.00  0.00     0.293 HD
ENDBRANCH   6  22
BRANCH   8  24
ATOM     24  O   UNL     1      97.876  77.192  58.988  1.00  0.00    -0.508 OA
ATOM     25  H   UNL     1      98.585  77.042  59.696  1.00  0.00     0.293 HD
ENDBRANCH   8  24
TORSDOF 5
ENDMDL
MODEL 4
REMARK VINA RESULT:    35.337      3.244      3.943
REMARK INTER + INTRA:          41.268
REMARK INTER:                  41.553
REMARK INTRA:                  -0.285
REMARK UNBOUND:                -0.267
REMARK SMILES O=c1cc(-c2ccc(O)c(O)c2)oc2cc(O)cc(O)c12
REMARK SMILES IDX 4 1 3 2 2 3 1 4 21 5 19 6 18 7 16 8 15 9 14 10 13 11 5 12
REMARK SMILES IDX 6 13 7 14 8 15 12 16 10 17 9 18 11 20 20 22 17 24
REMARK H PARENT 9 19 11 21 20 23 17 25
REMARK Flexibility Score: inf
ROOT
ATOM      1  C   UNL     1      96.384  72.422  55.230  1.00  0.00     0.138 A 
ATOM      2  C   UNL     1      96.043  71.063  55.276  1.00  0.00     0.100 A 
ATOM      3  C   UNL     1      96.350  70.236  54.195  1.00  0.00     0.197 A 
ATOM      4  O   UNL     1      96.088  69.010  54.292  1.00  0.00    -0.289 OA
ATOM      5  C   UNL     1      96.973  70.782  53.048  1.00  0.00     0.107 A 
ATOM      6  C   UNL     1      97.297  70.043  51.871  1.00  0.00     0.134 A 
ATOM      7  C   UNL     1      98.019  70.664  50.844  1.00  0.00     0.093 A 
ATOM      8  C   UNL     1      98.377  72.009  50.924  1.00  0.00     0.123 A 
ATOM      9  C   UNL     1      98.019  72.755  52.048  1.00  0.00     0.094 A 
ATOM     10  C   UNL     1      97.329  72.157  53.104  1.00  0.00     0.146 A 
ATOM     11  O   UNL     1      97.018  72.898  54.163  1.00  0.00    -0.456 OA
ENDROOT
BRANCH   1  12
ATOM     12  C   UNL     1      96.080  73.346  56.351  1.00  0.00     0.021 A 
ATOM     13  C   UNL     1      96.976  74.387  56.652  1.00  0.00     0.016 A 
ATOM     14  C   UNL     1      96.708  75.274  57.697  1.00  0.00     0.051 A 
ATOM     15  C   UNL     1      95.537  75.144  58.453  1.00  0.00     0.157 A 
ATOM     16  C   UNL     1      94.897  73.228  57.107  1.00  0.00     0.062 A 
ATOM     17  C   UNL     1      94.626  74.118  58.154  1.00  0.00     0.158 A 
BRANCH  15  18
ATOM     18  O   UNL     1      95.274  76.030  59.497  1.00  0.00    -0.504 OA
ATOM     19  H   UNL     1      95.713  76.942  59.542  1.00  0.00     0.293 HD
ENDBRANCH  15  18
BRANCH  17  20
ATOM     20  O   UNL     1      93.446  73.967  58.882  1.00  0.00    -0.504 OA
ATOM     21  H   UNL     1      92.535  73.969  58.437  1.00  0.00     0.293 HD
ENDBRANCH  17  20
ENDBRANCH   1  12
BRANCH   6  22
ATOM     22  O   UNL     1      96.914  68.717  51.650  1.00  0.00    -0.507 OA
ATOM     23  H   UNL     1      95.964  68.405  51.523  1.00  0.00     0.293 HD
ENDBRANCH   6  22
BRANCH   8  24
ATOM     24  O   UNL     1      99.082  72.597  49.876  1.00  0.00    -0.508 OA
ATOM     25  H   UNL     1      98.616  73.157  49.172  1.00  0.00     0.293 HD
ENDBRANCH   8  24
TORSDOF 5
ENDMDL
