MODEL 1
REMARK VINA RESULT:    -3.711      0.000      0.000
REMARK INTER + INTRA:          -4.731
REMARK INTER:                  -4.579
REMARK INTRA:                  -0.152
REMARK UNBOUND:                -0.152
REMARK SMILES CCCCCC(=O)[O-]
REMARK SMILES IDX 4 1 5 2 6 3 7 4 8 5 3 6 2 7 1 8
REMARK H PARENT
REMARK Flexibility Score: inf
ROOT
ATOM      1  C   UNL     1     -17.611  57.594   0.744  1.00  0.00     0.006 C 
ENDROOT
BRANCH   1   2
ATOM      2  C   UNL     1     -17.947  56.140   0.402  1.00  0.00     0.053 C 
BRANCH   2   3
ATOM      3  C   UNL     1     -17.121  55.669  -0.754  1.00  0.00     0.041 C 
ATOM      4  O   UNL     1     -17.110  56.321  -1.831  1.00  0.00    -0.550 OA
ATOM      5  O   UNL     1     -16.326  54.537  -0.624  1.00  0.00    -0.550 OA
ENDBRANCH   2   3
ENDBRANCH   1   2
BRANCH   1   6
ATOM      6  C   UNL     1     -16.158  57.723   1.227  1.00  0.00     0.000 C 
BRANCH   6   7
ATOM      7  C   UNL     1     -15.388  58.831   0.494  1.00  0.00    -0.003 C 
ATOM      8  C   UNL     1     -14.039  59.143   1.141  1.00  0.00     0.004 C 
ENDBRANCH   6   7
ENDBRANCH   1   6
TORSDOF 4
ENDMDL
MODEL 2
REMARK VINA RESULT:    -3.685      4.518      5.063
REMARK INTER + INTRA:          -4.698
REMARK INTER:                  -4.589
REMARK INTRA:                  -0.110
REMARK UNBOUND:                -0.152
REMARK SMILES CCCCCC(=O)[O-]
REMARK SMILES IDX 4 1 5 2 6 3 7 4 8 5 3 6 2 7 1 8
REMARK H PARENT
REMARK Flexibility Score: inf
ROOT
ATOM      1  C   UNL     1     -18.906  54.163  -3.075  1.00  0.00     0.006 C 
ENDROOT
BRANCH   1   2
ATOM      2  C   UNL     1     -19.957  53.223  -2.479  1.00  0.00     0.053 C 
BRANCH   2   3
ATOM      3  C   UNL     1     -19.557  52.796  -1.101  1.00  0.00     0.041 C 
ATOM      4  O   UNL     1     -19.160  53.648  -0.264  1.00  0.00    -0.550 OA
ATOM      5  O   UNL     1     -19.670  51.462  -0.727  1.00  0.00    -0.550 OA
ENDBRANCH   2   3
ENDBRANCH   1   2
BRANCH   1   6
ATOM      6  C   UNL     1     -19.465  55.585  -3.229  1.00  0.00     0.000 C 
BRANCH   6   7
ATOM      7  C   UNL     1     -18.386  56.605  -3.622  1.00  0.00    -0.003 C 
ATOM      8  C   UNL     1     -16.979  56.008  -3.623  1.00  0.00     0.004 C 
ENDBRANCH   6   7
ENDBRANCH   1   6
TORSDOF 4
ENDMDL
MODEL 3
REMARK VINA RESULT:    -3.676      0.727      1.326
REMARK INTER + INTRA:          -4.687
REMARK INTER:                  -4.577
REMARK INTRA:                  -0.110
REMARK UNBOUND:                -0.152
REMARK SMILES CCCCCC(=O)[O-]
REMARK SMILES IDX 4 1 5 2 6 3 7 4 8 5 3 6 2 7 1 8
REMARK H PARENT
REMARK Flexibility Score: inf
ROOT
ATOM      1  C   UNL     1     -17.377  57.209   0.605  1.00  0.00     0.006 C 
ENDROOT
BRANCH   1   2
ATOM      2  C   UNL     1     -17.767  55.796   0.164  1.00  0.00     0.053 C 
BRANCH   2   3
ATOM      3  C   UNL     1     -17.534  55.621  -1.304  1.00  0.00     0.041 C 
ATOM      4  O   UNL     1     -16.970  54.582  -1.736  1.00  0.00    -0.550 OA
ATOM      5  O   UNL     1     -17.984  56.584  -2.199  1.00  0.00    -0.550 OA
ENDBRANCH   2   3
ENDBRANCH   1   2
BRANCH   1   6
ATOM      6  C   UNL     1     -15.857  57.411   0.522  1.00  0.00     0.000 C 
BRANCH   6   7
ATOM      7  C   UNL     1     -15.456  58.893   0.541  1.00  0.00    -0.003 C 
ATOM      8  C   UNL     1     -14.076  59.127   1.153  1.00  0.00     0.004 C 
ENDBRANCH   6   7
ENDBRANCH   1   6
TORSDOF 4
ENDMDL
MODEL 4
REMARK VINA RESULT:    -3.643      4.529      5.182
REMARK INTER + INTRA:          -4.647
REMARK INTER:                  -4.544
REMARK INTRA:                  -0.103
REMARK UNBOUND:                -0.152
REMARK SMILES CCCCCC(=O)[O-]
REMARK SMILES IDX 4 1 5 2 6 3 7 4 8 5 3 6 2 7 1 8
REMARK H PARENT
REMARK Flexibility Score: inf
ROOT
ATOM      1  C   UNL     1     -19.041  54.161  -2.913  1.00  0.00     0.006 C 
ENDROOT
BRANCH   1   2
ATOM      2  C   UNL     1     -20.012  53.104  -2.381  1.00  0.00     0.053 C 
BRANCH   2   3
ATOM      3  C   UNL     1     -19.539  52.573  -1.063  1.00  0.00     0.041 C 
ATOM      4  O   UNL     1     -19.826  51.398  -0.715  1.00  0.00    -0.550 OA
ATOM      5  O   UNL     1     -18.740  53.360  -0.243  1.00  0.00    -0.550 OA
ENDBRANCH   2   3
ENDBRANCH   1   2
BRANCH   1   6
ATOM      6  C   UNL     1     -19.679  55.558  -2.883  1.00  0.00     0.000 C 
BRANCH   6   7
ATOM      7  C   UNL     1     -18.849  56.602  -3.644  1.00  0.00    -0.003 C 
ATOM      8  C   UNL     1     -17.360  56.263  -3.684  1.00  0.00     0.004 C 
ENDBRANCH   6   7
ENDBRANCH   1   6
TORSDOF 4
ENDMDL
MODEL 5
REMARK VINA RESULT:    -3.606      4.753      5.310
REMARK INTER + INTRA:          -4.601
REMARK INTER:                  -4.432
REMARK INTRA:                  -0.170
REMARK UNBOUND:                -0.152
REMARK SMILES CCCCCC(=O)[O-]
REMARK SMILES IDX 4 1 5 2 6 3 7 4 8 5 3 6 2 7 1 8
REMARK H PARENT
REMARK Flexibility Score: inf
ROOT
ATOM      1  C   UNL     1     -18.926  53.747  -3.203  1.00  0.00     0.006 C 
ENDROOT
BRANCH   1   2
ATOM      2  C   UNL     1     -19.782  52.972  -2.198  1.00  0.00     0.053 C 
BRANCH   2   3
ATOM      3  C   UNL     1     -20.959  53.792  -1.770  1.00  0.00     0.041 C 
ATOM      4  O   UNL     1     -21.345  54.762  -2.474  1.00  0.00    -0.550 OA
ATOM      5  O   UNL     1     -21.660  53.454  -0.619  1.00  0.00    -0.550 OA
ENDBRANCH   2   3
ENDBRANCH   1   2
BRANCH   1   6
ATOM      6  C   UNL     1     -17.759  54.455  -2.500  1.00  0.00     0.000 C 
BRANCH   6   7
ATOM      7  C   UNL     1     -17.259  55.682  -3.276  1.00  0.00    -0.003 C 
ATOM      8  C   UNL     1     -18.391  56.614  -3.707  1.00  0.00     0.004 C 
ENDBRANCH   6   7
ENDBRANCH   1   6
TORSDOF 4
ENDMDL
MODEL 6
REMARK VINA RESULT:    -3.568      4.914      6.122
REMARK INTER + INTRA:          -4.554
REMARK INTER:                  -4.395
REMARK INTRA:                  -0.160
REMARK UNBOUND:                -0.152
REMARK SMILES CCCCCC(=O)[O-]
REMARK SMILES IDX 4 1 5 2 6 3 7 4 8 5 3 6 2 7 1 8
REMARK H PARENT
REMARK Flexibility Score: inf
ROOT
ATOM      1  C   UNL     1     -19.779  53.679  -2.952  1.00  0.00     0.006 C 
ENDROOT
BRANCH   1   2
ATOM      2  C   UNL     1     -18.576  54.621  -3.044  1.00  0.00     0.053 C 
BRANCH   2   3
ATOM      3  C   UNL     1     -19.019  56.004  -3.404  1.00  0.00     0.041 C 
ATOM      4  O   UNL     1     -20.233  56.324  -3.311  1.00  0.00    -0.550 OA
ATOM      5  O   UNL     1     -18.083  56.954  -3.794  1.00  0.00    -0.550 OA
ENDBRANCH   2   3
ENDBRANCH   1   2
BRANCH   1   6
ATOM      6  C   UNL     1     -19.640  52.725  -1.755  1.00  0.00     0.000 C 
BRANCH   6   7
ATOM      7  C   UNL     1     -20.748  52.923  -0.711  1.00  0.00    -0.003 C 
ATOM      8  C   UNL     1     -21.968  53.654  -1.271  1.00  0.00     0.004 C 
ENDBRANCH   6   7
ENDBRANCH   1   6
TORSDOF 4
ENDMDL
MODEL 7
REMARK VINA RESULT:    -3.502      4.714      5.556
REMARK INTER + INTRA:          -4.473
REMARK INTER:                  -4.367
REMARK INTRA:                  -0.106
REMARK UNBOUND:                -0.152
REMARK SMILES CCCCCC(=O)[O-]
REMARK SMILES IDX 4 1 5 2 6 3 7 4 8 5 3 6 2 7 1 8
REMARK H PARENT
REMARK Flexibility Score: inf
ROOT
ATOM      1  C   UNL     1     -20.775  56.536  -3.280  1.00  0.00     0.006 C 
ENDROOT
BRANCH   1   2
ATOM      2  C   UNL     1     -21.906  55.506  -3.225  1.00  0.00     0.053 C 
BRANCH   2   3
ATOM      3  C   UNL     1     -22.148  55.068  -1.814  1.00  0.00     0.041 C 
ATOM      4  O   UNL     1     -22.523  55.901  -0.948  1.00  0.00    -0.550 OA
ATOM      5  O   UNL     1     -22.007  53.730  -1.468  1.00  0.00    -0.550 OA
ENDBRANCH   2   3
ENDBRANCH   1   2
BRANCH   1   6
ATOM      6  C   UNL     1     -19.421  55.883  -2.961  1.00  0.00     0.000 C 
BRANCH   6   7
ATOM      7  C   UNL     1     -18.309  56.328  -3.922  1.00  0.00    -0.003 C 
ATOM      8  C   UNL     1     -16.998  56.646  -3.205  1.00  0.00     0.004 C 
ENDBRANCH   6   7
ENDBRANCH   1   6
TORSDOF 4
ENDMDL
MODEL 8
REMARK VINA RESULT:    -3.401      5.000      6.380
REMARK INTER + INTRA:          -4.349
REMARK INTER:                  -4.210
REMARK INTRA:                  -0.139
REMARK UNBOUND:                -0.152
REMARK SMILES CCCCCC(=O)[O-]
REMARK SMILES IDX 4 1 5 2 6 3 7 4 8 5 3 6 2 7 1 8
REMARK H PARENT
REMARK Flexibility Score: inf
ROOT
ATOM      1  C   UNL     1     -21.847  55.438  -3.327  1.00  0.00     0.006 C 
ENDROOT
BRANCH   1   2
ATOM      2  C   UNL     1     -20.868  56.613  -3.261  1.00  0.00     0.053 C 
BRANCH   2   3
ATOM      3  C   UNL     1     -19.455  56.123  -3.311  1.00  0.00     0.041 C 
ATOM      4  O   UNL     1     -18.528  56.898  -3.663  1.00  0.00    -0.550 OA
ATOM      5  O   UNL     1     -19.157  54.823  -2.920  1.00  0.00    -0.550 OA
ENDBRANCH   2   3
ENDBRANCH   1   2
BRANCH   1   6
ATOM      6  C   UNL     1     -22.587  55.264  -1.991  1.00  0.00     0.000 C 
BRANCH   6   7
ATOM      7  C   UNL     1     -22.257  53.932  -1.303  1.00  0.00    -0.003 C 
ATOM      8  C   UNL     1     -22.580  53.940   0.191  1.00  0.00     0.004 C 
ENDBRANCH   6   7
ENDBRANCH   1   6
TORSDOF 4
ENDMDL
MODEL 9
REMARK VINA RESULT:    -3.306      3.474      4.400
REMARK INTER + INTRA:          -4.232
REMARK INTER:                  -4.006
REMARK INTRA:                  -0.225
REMARK UNBOUND:                -0.152
REMARK SMILES CCCCCC(=O)[O-]
REMARK SMILES IDX 4 1 5 2 6 3 7 4 8 5 3 6 2 7 1 8
REMARK H PARENT
REMARK Flexibility Score: inf
ROOT
ATOM      1  C   UNL     1     -18.228  54.231  -2.533  1.00  0.00     0.006 C 
ENDROOT
BRANCH   1   2
ATOM      2  C   UNL     1     -18.818  53.859  -1.170  1.00  0.00     0.053 C 
BRANCH   2   3
ATOM      3  C   UNL     1     -18.241  54.725  -0.095  1.00  0.00     0.041 C 
ATOM      4  O   UNL     1     -17.252  54.328   0.576  1.00  0.00    -0.550 OA
ATOM      5  O   UNL     1     -18.764  55.993   0.132  1.00  0.00    -0.550 OA
ENDBRANCH   2   3
ENDBRANCH   1   2
BRANCH   1   6
ATOM      6  C   UNL     1     -19.143  55.215  -3.278  1.00  0.00     0.000 C 
BRANCH   6   7
ATOM      7  C   UNL     1     -18.418  56.509  -3.675  1.00  0.00    -0.003 C 
ATOM      8  C   UNL     1     -16.926  56.479  -3.344  1.00  0.00     0.004 C 
ENDBRANCH   6   7
ENDBRANCH   1   6
TORSDOF 4
ENDMDL
