MODEL 1
REMARK VINA RESULT:    -6.458      0.000      0.000
REMARK INTER + INTRA:          -7.836
REMARK INTER:                  -7.591
REMARK INTRA:                  -0.245
REMARK UNBOUND:                -0.245
REMARK SMILES O=c1c(O)c(-c2ccc(O)cc2)oc2cc(O)cc(O)c12
REMARK SMILES IDX 5 1 3 2 2 3 1 4 21 5 19 6 18 7 16 8 15 9 14 10 13 11 6 12
REMARK SMILES IDX 7 13 8 14 9 15 12 16 11 17 10 18 4 20 20 22 17 24
REMARK H PARENT 10 19 4 21 20 23 17 25
REMARK Flexibility Score: inf
ROOT
ATOM      1  C   UNL     1      18.865  -1.537 -17.138  1.00  0.00     0.180 A 
ATOM      2  C   UNL     1      18.145  -0.797 -16.185  1.00  0.00     0.208 A 
ATOM      3  C   UNL     1      17.404  -1.482 -15.208  1.00  0.00     0.238 A 
ATOM      4  O   UNL     1      16.806  -0.816 -14.324  1.00  0.00    -0.285 OA
ATOM      5  C   UNL     1      17.380  -2.898 -15.208  1.00  0.00     0.111 A 
ATOM      6  C   UNL     1      16.631  -3.695 -14.290  1.00  0.00     0.134 A 
ATOM      7  C   UNL     1      16.784  -5.087 -14.299  1.00  0.00     0.093 A 
ATOM      8  C   UNL     1      17.606  -5.715 -15.235  1.00  0.00     0.123 A 
ATOM      9  C   UNL     1      18.297  -4.949 -16.175  1.00  0.00     0.094 A 
ATOM     10  C   UNL     1      18.193  -3.556 -16.167  1.00  0.00     0.146 A 
ATOM     11  O   UNL     1      18.874  -2.864 -17.071  1.00  0.00    -0.452 OA
ENDROOT
BRANCH   1  12
ATOM     12  C   UNL     1      19.648  -0.886 -18.213  1.00  0.00     0.021 A 
ATOM     13  C   UNL     1      19.175  -0.834 -19.536  1.00  0.00     0.016 A 
ATOM     14  C   UNL     1      19.944  -0.235 -20.540  1.00  0.00     0.047 A 
ATOM     15  C   UNL     1      21.200   0.307 -20.235  1.00  0.00     0.115 A 
ATOM     16  C   UNL     1      20.917  -0.358 -17.921  1.00  0.00     0.016 A 
ATOM     17  C   UNL     1      21.684   0.240 -18.926  1.00  0.00     0.047 A 
BRANCH  15  18
ATOM     18  O   UNL     1      21.973   0.907 -21.226  1.00  0.00    -0.508 OA
ATOM     19  H   UNL     1      22.231   1.886 -21.176  1.00  0.00     0.293 HD
ENDBRANCH  15  18
ENDBRANCH   1  12
BRANCH   2  20
ATOM     20  O   UNL     1      18.201   0.599 -16.190  1.00  0.00    -0.502 OA
ATOM     21  H   UNL     1      18.037   1.154 -15.357  1.00  0.00     0.293 HD
ENDBRANCH   2  20
BRANCH   6  22
ATOM     22  O   UNL     1      15.710  -3.175 -13.375  1.00  0.00    -0.507 OA
ATOM     23  H   UNL     1      15.911  -2.984 -12.406  1.00  0.00     0.293 HD
ENDBRANCH   6  22
BRANCH   8  24
ATOM     24  O   UNL     1      17.723  -7.103 -15.225  1.00  0.00    -0.508 OA
ATOM     25  H   UNL     1      16.913  -7.703 -15.121  1.00  0.00     0.293 HD
ENDBRANCH   8  24
TORSDOF 5
ENDMDL
MODEL 2
REMARK VINA RESULT:    -6.036      1.168      3.103
REMARK INTER + INTRA:          -7.339
REMARK INTER:                  -7.129
REMARK INTRA:                  -0.210
REMARK UNBOUND:                -0.245
REMARK SMILES O=c1c(O)c(-c2ccc(O)cc2)oc2cc(O)cc(O)c12
REMARK SMILES IDX 5 1 3 2 2 3 1 4 21 5 19 6 18 7 16 8 15 9 14 10 13 11 6 12
REMARK SMILES IDX 7 13 8 14 9 15 12 16 11 17 10 18 4 20 20 22 17 24
REMARK H PARENT 10 19 4 21 20 23 17 25
REMARK Flexibility Score: inf
ROOT
ATOM      1  C   UNL     1      18.990  -2.354 -17.562  1.00  0.00     0.180 A 
ATOM      2  C   UNL     1      18.934  -3.743 -17.766  1.00  0.00     0.208 A 
ATOM      3  C   UNL     1      18.300  -4.547 -16.805  1.00  0.00     0.238 A 
ATOM      4  O   UNL     1      18.205  -5.784 -17.019  1.00  0.00    -0.285 OA
ATOM      5  C   UNL     1      17.744  -3.954 -15.646  1.00  0.00     0.111 A 
ATOM      6  C   UNL     1      17.115  -4.677 -14.589  1.00  0.00     0.134 A 
ATOM      7  C   UNL     1      16.484  -3.977 -13.552  1.00  0.00     0.093 A 
ATOM      8  C   UNL     1      16.519  -2.583 -13.500  1.00  0.00     0.123 A 
ATOM      9  C   UNL     1      17.183  -1.868 -14.498  1.00  0.00     0.094 A 
ATOM     10  C   UNL     1      17.790  -2.538 -15.564  1.00  0.00     0.146 A 
ATOM     11  O   UNL     1      18.402  -1.821 -16.497  1.00  0.00    -0.452 OA
ENDROOT
BRANCH   1  12
ATOM     12  C   UNL     1      19.663  -1.444 -18.517  1.00  0.00     0.021 A 
ATOM     13  C   UNL     1      20.888  -0.828 -18.204  1.00  0.00     0.016 A 
ATOM     14  C   UNL     1      21.493   0.046 -19.112  1.00  0.00     0.047 A 
ATOM     15  C   UNL     1      20.875   0.327 -20.338  1.00  0.00     0.115 A 
ATOM     16  C   UNL     1      19.041  -1.142 -19.740  1.00  0.00     0.016 A 
ATOM     17  C   UNL     1      19.648  -0.267 -20.647  1.00  0.00     0.047 A 
BRANCH  15  18
ATOM     18  O   UNL     1      21.469   1.194 -21.251  1.00  0.00    -0.508 OA
ATOM     19  H   UNL     1      22.468   1.179 -21.425  1.00  0.00     0.293 HD
ENDBRANCH  15  18
ENDBRANCH   1  12
BRANCH   2  20
ATOM     20  O   UNL     1      19.469  -4.305 -18.928  1.00  0.00    -0.502 OA
ATOM     21  H   UNL     1      19.389  -5.293 -19.142  1.00  0.00     0.293 HD
ENDBRANCH   2  20
BRANCH   6  22
ATOM     22  O   UNL     1      17.103  -6.072 -14.495  1.00  0.00    -0.507 OA
ATOM     23  H   UNL     1      17.922  -6.645 -14.361  1.00  0.00     0.293 HD
ENDBRANCH   6  22
BRANCH   8  24
ATOM     24  O   UNL     1      15.895  -1.919 -12.447  1.00  0.00    -0.508 OA
ATOM     25  H   UNL     1      15.728  -2.375 -11.557  1.00  0.00     0.293 HD
ENDBRANCH   8  24
TORSDOF 5
ENDMDL
MODEL 3
REMARK VINA RESULT:    -5.904      9.134     12.843
REMARK INTER + INTRA:          -7.184
REMARK INTER:                  -7.580
REMARK INTRA:                   0.396
REMARK UNBOUND:                -0.245
REMARK SMILES O=c1c(O)c(-c2ccc(O)cc2)oc2cc(O)cc(O)c12
REMARK SMILES IDX 5 1 3 2 2 3 1 4 21 5 19 6 18 7 16 8 15 9 14 10 13 11 6 12
REMARK SMILES IDX 7 13 8 14 9 15 12 16 11 17 10 18 4 20 20 22 17 24
REMARK H PARENT 10 19 4 21 20 23 17 25
REMARK Flexibility Score: inf
ROOT
ATOM      1  C   UNL     1      10.747  -6.764  -9.287  1.00  0.00     0.180 A 
ATOM      2  C   UNL     1       9.828  -7.816  -9.443  1.00  0.00     0.208 A 
ATOM      3  C   UNL     1       8.798  -7.966  -8.501  1.00  0.00     0.238 A 
ATOM      4  O   UNL     1       7.946  -8.875  -8.676  1.00  0.00    -0.285 OA
ATOM      5  C   UNL     1       8.710  -7.072  -7.407  1.00  0.00     0.111 A 
ATOM      6  C   UNL     1       7.731  -7.155  -6.371  1.00  0.00     0.134 A 
ATOM      7  C   UNL     1       7.657  -6.140  -5.408  1.00  0.00     0.093 A 
ATOM      8  C   UNL     1       8.567  -5.083  -5.404  1.00  0.00     0.123 A 
ATOM      9  C   UNL     1       9.565  -5.024  -6.378  1.00  0.00     0.094 A 
ATOM     10  C   UNL     1       9.641  -6.002  -7.373  1.00  0.00     0.146 A 
ATOM     11  O   UNL     1      10.598  -5.904  -8.286  1.00  0.00    -0.452 OA
ENDROOT
BRANCH   1  12
ATOM     12  C   UNL     1      11.874  -6.558 -10.225  1.00  0.00     0.021 A 
ATOM     13  C   UNL     1      12.330  -7.592 -11.063  1.00  0.00     0.016 A 
ATOM     14  C   UNL     1      13.413  -7.380 -11.923  1.00  0.00     0.047 A 
ATOM     15  C   UNL     1      14.061  -6.138 -11.946  1.00  0.00     0.115 A 
ATOM     16  C   UNL     1      12.543  -5.322 -10.241  1.00  0.00     0.016 A 
ATOM     17  C   UNL     1      13.625  -5.113 -11.102  1.00  0.00     0.047 A 
BRANCH  15  18
ATOM     18  O   UNL     1      15.138  -5.915 -12.800  1.00  0.00    -0.508 OA
ATOM     19  H   UNL     1      15.975  -6.485 -12.757  1.00  0.00     0.293 HD
ENDBRANCH  15  18
ENDBRANCH   1  12
BRANCH   2  20
ATOM     20  O   UNL     1       9.921  -8.673 -10.544  1.00  0.00    -0.502 OA
ATOM     21  H   UNL     1      10.171  -9.651 -10.452  1.00  0.00     0.293 HD
ENDBRANCH   2  20
BRANCH   6  22
ATOM     22  O   UNL     1       6.833  -8.217  -6.227  1.00  0.00    -0.507 OA
ATOM     23  H   UNL     1       7.012  -9.163  -6.526  1.00  0.00     0.293 HD
ENDBRANCH   6  22
BRANCH   8  24
ATOM     24  O   UNL     1       8.473  -4.099  -4.422  1.00  0.00    -0.508 OA
ATOM     25  H   UNL     1       8.099  -3.180  -4.627  1.00  0.00     0.293 HD
ENDBRANCH   8  24
TORSDOF 5
ENDMDL
MODEL 4
REMARK VINA RESULT:    -5.836      7.010      9.072
REMARK INTER + INTRA:          -7.104
REMARK INTER:                  -6.830
REMARK INTRA:                  -0.274
REMARK UNBOUND:                -0.245
REMARK SMILES O=c1c(O)c(-c2ccc(O)cc2)oc2cc(O)cc(O)c12
REMARK SMILES IDX 5 1 3 2 2 3 1 4 21 5 19 6 18 7 16 8 15 9 14 10 13 11 6 12
REMARK SMILES IDX 7 13 8 14 9 15 12 16 11 17 10 18 4 20 20 22 17 24
REMARK H PARENT 10 19 4 21 20 23 17 25
REMARK Flexibility Score: inf
ROOT
ATOM      1  C   UNL     1      18.307  -2.120  -8.620  1.00  0.00     0.180 A 
ATOM      2  C   UNL     1      17.651  -0.879  -8.688  1.00  0.00     0.208 A 
ATOM      3  C   UNL     1      16.570  -0.726  -9.570  1.00  0.00     0.238 A 
ATOM      4  O   UNL     1      15.952   0.370  -9.586  1.00  0.00    -0.285 OA
ATOM      5  C   UNL     1      16.169  -1.812 -10.386  1.00  0.00     0.111 A 
ATOM      6  C   UNL     1      15.112  -1.757 -11.345  1.00  0.00     0.134 A 
ATOM      7  C   UNL     1      14.715  -2.928 -12.003  1.00  0.00     0.093 A 
ATOM      8  C   UNL     1      15.379  -4.135 -11.787  1.00  0.00     0.123 A 
ATOM      9  C   UNL     1      16.452  -4.187 -10.896  1.00  0.00     0.094 A 
ATOM     10  C   UNL     1      16.847  -3.044 -10.197  1.00  0.00     0.146 A 
ATOM     11  O   UNL     1      17.865  -3.138  -9.351  1.00  0.00    -0.452 OA
ENDROOT
BRANCH   1  12
ATOM     12  C   UNL     1      19.470  -2.350  -7.733  1.00  0.00     0.021 A 
ATOM     13  C   UNL     1      19.303  -2.672  -6.374  1.00  0.00     0.016 A 
ATOM     14  C   UNL     1      20.417  -2.861  -5.550  1.00  0.00     0.047 A 
ATOM     15  C   UNL     1      21.710  -2.717  -6.070  1.00  0.00     0.115 A 
ATOM     16  C   UNL     1      20.770  -2.188  -8.241  1.00  0.00     0.016 A 
ATOM     17  C   UNL     1      21.882  -2.377  -7.415  1.00  0.00     0.047 A 
BRANCH  15  18
ATOM     18  O   UNL     1      22.827  -2.904  -5.259  1.00  0.00    -0.508 OA
ATOM     19  H   UNL     1      23.687  -2.392  -5.416  1.00  0.00     0.293 HD
ENDBRANCH  15  18
ENDBRANCH   1  12
BRANCH   2  20
ATOM     20  O   UNL     1      18.050   0.172  -7.857  1.00  0.00    -0.502 OA
ATOM     21  H   UNL     1      18.626   0.028  -7.035  1.00  0.00     0.293 HD
ENDBRANCH   2  20
BRANCH   6  22
ATOM     22  O   UNL     1      14.444  -0.583 -11.704  1.00  0.00    -0.507 OA
ATOM     23  H   UNL     1      13.742  -0.520 -12.426  1.00  0.00     0.293 HD
ENDBRANCH   6  22
BRANCH   8  24
ATOM     24  O   UNL     1      14.967  -5.277 -12.470  1.00  0.00    -0.508 OA
ATOM     25  H   UNL     1      13.994  -5.558 -12.496  1.00  0.00     0.293 HD
ENDBRANCH   8  24
TORSDOF 5
ENDMDL
MODEL 5
REMARK VINA RESULT:    -5.819      9.514     12.636
REMARK INTER + INTRA:          -7.085
REMARK INTER:                  -6.809
REMARK INTRA:                  -0.276
REMARK UNBOUND:                -0.245
REMARK SMILES O=c1c(O)c(-c2ccc(O)cc2)oc2cc(O)cc(O)c12
REMARK SMILES IDX 5 1 3 2 2 3 1 4 21 5 19 6 18 7 16 8 15 9 14 10 13 11 6 12
REMARK SMILES IDX 7 13 8 14 9 15 12 16 11 17 10 18 4 20 20 22 17 24
REMARK H PARENT 10 19 4 21 20 23 17 25
REMARK Flexibility Score: inf
ROOT
ATOM      1  C   UNL     1      10.276  -6.652 -10.161  1.00  0.00     0.180 A 
ATOM      2  C   UNL     1      10.194  -6.993  -8.801  1.00  0.00     0.208 A 
ATOM      3  C   UNL     1       9.237  -6.356  -7.995  1.00  0.00     0.238 A 
ATOM      4  O   UNL     1       9.131  -6.705  -6.790  1.00  0.00    -0.285 OA
ATOM      5  C   UNL     1       8.385  -5.373  -8.556  1.00  0.00     0.111 A 
ATOM      6  C   UNL     1       7.407  -4.635  -7.824  1.00  0.00     0.134 A 
ATOM      7  C   UNL     1       6.531  -3.783  -8.507  1.00  0.00     0.093 A 
ATOM      8  C   UNL     1       6.641  -3.591  -9.884  1.00  0.00     0.123 A 
ATOM      9  C   UNL     1       7.632  -4.262 -10.601  1.00  0.00     0.094 A 
ATOM     10  C   UNL     1       8.497  -5.147  -9.952  1.00  0.00     0.146 A 
ATOM     11  O   UNL     1       9.419  -5.774 -10.672  1.00  0.00    -0.452 OA
ENDROOT
BRANCH   1  12
ATOM     12  C   UNL     1      11.275  -7.262 -11.068  1.00  0.00     0.021 A 
ATOM     13  C   UNL     1      10.959  -8.378 -11.863  1.00  0.00     0.016 A 
ATOM     14  C   UNL     1      11.927  -8.952 -12.693  1.00  0.00     0.047 A 
ATOM     15  C   UNL     1      13.225  -8.426 -12.729  1.00  0.00     0.115 A 
ATOM     16  C   UNL     1      12.585  -6.754 -11.095  1.00  0.00     0.016 A 
ATOM     17  C   UNL     1      13.551  -7.330 -11.927  1.00  0.00     0.047 A 
BRANCH  15  18
ATOM     18  O   UNL     1      14.196  -8.989 -13.554  1.00  0.00    -0.508 OA
ATOM     19  H   UNL     1      14.722  -9.808 -13.271  1.00  0.00     0.293 HD
ENDBRANCH  15  18
ENDBRANCH   1  12
BRANCH   2  20
ATOM     20  O   UNL     1      11.029  -7.981  -8.272  1.00  0.00    -0.502 OA
ATOM     21  H   UNL     1      10.687  -8.710  -7.656  1.00  0.00     0.293 HD
ENDBRANCH   2  20
BRANCH   6  22
ATOM     22  O   UNL     1       7.273  -4.683  -6.433  1.00  0.00    -0.507 OA
ATOM     23  H   UNL     1       7.959  -5.070  -5.803  1.00  0.00     0.293 HD
ENDBRANCH   6  22
BRANCH   8  24
ATOM     24  O   UNL     1       5.762  -2.723 -10.529  1.00  0.00    -0.508 OA
ATOM     25  H   UNL     1       5.412  -1.888 -10.074  1.00  0.00     0.293 HD
ENDBRANCH   8  24
TORSDOF 5
ENDMDL
MODEL 6
REMARK VINA RESULT:    -5.773      9.412     12.622
REMARK INTER + INTRA:          -7.030
REMARK INTER:                  -6.746
REMARK INTRA:                  -0.284
REMARK UNBOUND:                -0.245
REMARK SMILES O=c1c(O)c(-c2ccc(O)cc2)oc2cc(O)cc(O)c12
REMARK SMILES IDX 5 1 3 2 2 3 1 4 21 5 19 6 18 7 16 8 15 9 14 10 13 11 6 12
REMARK SMILES IDX 7 13 8 14 9 15 12 16 11 17 10 18 4 20 20 22 17 24
REMARK H PARENT 10 19 4 21 20 23 17 25
REMARK Flexibility Score: inf
ROOT
ATOM      1  C   UNL     1      10.451  -6.401  -9.964  1.00  0.00     0.180 A 
ATOM      2  C   UNL     1       9.359  -5.850 -10.656  1.00  0.00     0.208 A 
ATOM      3  C   UNL     1       8.326  -5.243  -9.925  1.00  0.00     0.238 A 
ATOM      4  O   UNL     1       7.378  -4.703 -10.552  1.00  0.00    -0.285 OA
ATOM      5  C   UNL     1       8.389  -5.209  -8.511  1.00  0.00     0.111 A 
ATOM      6  C   UNL     1       7.379  -4.655  -7.668  1.00  0.00     0.134 A 
ATOM      7  C   UNL     1       7.606  -4.558  -6.289  1.00  0.00     0.093 A 
ATOM      8  C   UNL     1       8.777  -5.053  -5.716  1.00  0.00     0.123 A 
ATOM      9  C   UNL     1       9.746  -5.650  -6.524  1.00  0.00     0.094 A 
ATOM     10  C   UNL     1       9.563  -5.729  -7.907  1.00  0.00     0.146 A 
ATOM     11  O   UNL     1      10.513  -6.295  -8.641  1.00  0.00    -0.452 OA
ENDROOT
BRANCH   1  12
ATOM     12  C   UNL     1      11.566  -7.079 -10.663  1.00  0.00     0.021 A 
ATOM     13  C   UNL     1      12.661  -6.356 -11.172  1.00  0.00     0.016 A 
ATOM     14  C   UNL     1      13.690  -7.016 -11.851  1.00  0.00     0.047 A 
ATOM     15  C   UNL     1      13.633  -8.403 -12.040  1.00  0.00     0.115 A 
ATOM     16  C   UNL     1      11.507  -8.467 -10.875  1.00  0.00     0.016 A 
ATOM     17  C   UNL     1      12.539  -9.124 -11.554  1.00  0.00     0.047 A 
BRANCH  15  18
ATOM     18  O   UNL     1      14.653  -9.071 -12.712  1.00  0.00    -0.508 OA
ATOM     19  H   UNL     1      15.598  -8.704 -12.742  1.00  0.00     0.293 HD
ENDBRANCH  15  18
ENDBRANCH   1  12
BRANCH   2  20
ATOM     20  O   UNL     1       9.328  -5.875 -12.053  1.00  0.00    -0.502 OA
ATOM     21  H   UNL     1      10.035  -6.347 -12.605  1.00  0.00     0.293 HD
ENDBRANCH   2  20
BRANCH   6  22
ATOM     22  O   UNL     1       6.133  -4.215  -8.127  1.00  0.00    -0.507 OA
ATOM     23  H   UNL     1       5.655  -4.588  -8.932  1.00  0.00     0.293 HD
ENDBRANCH   6  22
BRANCH   8  24
ATOM     24  O   UNL     1       8.964  -4.954  -4.339  1.00  0.00    -0.508 OA
ATOM     25  H   UNL     1       9.343  -4.115  -3.915  1.00  0.00     0.293 HD
ENDBRANCH   8  24
TORSDOF 5
ENDMDL
MODEL 7
REMARK VINA RESULT:    -5.691      7.482     12.378
REMARK INTER + INTRA:          -6.934
REMARK INTER:                  -6.645
REMARK INTRA:                  -0.289
REMARK UNBOUND:                -0.245
REMARK SMILES O=c1c(O)c(-c2ccc(O)cc2)oc2cc(O)cc(O)c12
REMARK SMILES IDX 5 1 3 2 2 3 1 4 21 5 19 6 18 7 16 8 15 9 14 10 13 11 6 12
REMARK SMILES IDX 7 13 8 14 9 15 12 16 11 17 10 18 4 20 20 22 17 24
REMARK H PARENT 10 19 4 21 20 23 17 25
REMARK Flexibility Score: inf
ROOT
ATOM      1  C   UNL     1      11.096  -6.122  -9.592  1.00  0.00     0.180 A 
ATOM      2  C   UNL     1      11.123  -7.371 -10.234  1.00  0.00     0.208 A 
ATOM      3  C   UNL     1      12.157  -7.648 -11.142  1.00  0.00     0.238 A 
ATOM      4  O   UNL     1      12.206  -8.788 -11.673  1.00  0.00    -0.285 OA
ATOM      5  C   UNL     1      13.142  -6.666 -11.409  1.00  0.00     0.111 A 
ATOM      6  C   UNL     1      14.211  -6.825 -12.341  1.00  0.00     0.134 A 
ATOM      7  C   UNL     1      15.203  -5.839 -12.428  1.00  0.00     0.093 A 
ATOM      8  C   UNL     1      15.128  -4.673 -11.667  1.00  0.00     0.123 A 
ATOM      9  C   UNL     1      14.054  -4.481 -10.796  1.00  0.00     0.094 A 
ATOM     10  C   UNL     1      13.069  -5.463 -10.661  1.00  0.00     0.146 A 
ATOM     11  O   UNL     1      12.071  -5.247  -9.814  1.00  0.00    -0.452 OA
ENDROOT
BRANCH   1  12
ATOM     12  C   UNL     1      10.024  -5.747  -8.641  1.00  0.00     0.021 A 
ATOM     13  C   UNL     1       8.789  -5.243  -9.090  1.00  0.00     0.016 A 
ATOM     14  C   UNL     1       7.801  -4.873  -8.172  1.00  0.00     0.047 A 
ATOM     15  C   UNL     1       8.039  -4.989  -6.796  1.00  0.00     0.115 A 
ATOM     16  C   UNL     1      10.262  -5.841  -7.260  1.00  0.00     0.016 A 
ATOM     17  C   UNL     1       9.272  -5.470  -6.344  1.00  0.00     0.047 A 
BRANCH  15  18
ATOM     18  O   UNL     1       7.062  -4.626  -5.873  1.00  0.00    -0.508 OA
ATOM     19  H   UNL     1       6.809  -3.655  -5.723  1.00  0.00     0.293 HD
ENDBRANCH  15  18
ENDBRANCH   1  12
BRANCH   2  20
ATOM     20  O   UNL     1      10.153  -8.334  -9.939  1.00  0.00    -0.502 OA
ATOM     21  H   UNL     1       9.463  -8.205  -9.209  1.00  0.00     0.293 HD
ENDBRANCH   2  20
BRANCH   6  22
ATOM     22  O   UNL     1      14.332  -7.909 -13.216  1.00  0.00    -0.507 OA
ATOM     23  H   UNL     1      14.506  -7.830 -14.206  1.00  0.00     0.293 HD
ENDBRANCH   6  22
BRANCH   8  24
ATOM     24  O   UNL     1      16.123  -3.706 -11.791  1.00  0.00    -0.508 OA
ATOM     25  H   UNL     1      15.921  -2.720 -11.678  1.00  0.00     0.293 HD
ENDBRANCH   8  24
TORSDOF 5
ENDMDL
MODEL 8
REMARK VINA RESULT:    -5.632      1.317      3.074
REMARK INTER + INTRA:          -6.865
REMARK INTER:                  -6.697
REMARK INTRA:                  -0.168
REMARK UNBOUND:                -0.245
REMARK SMILES O=c1c(O)c(-c2ccc(O)cc2)oc2cc(O)cc(O)c12
REMARK SMILES IDX 5 1 3 2 2 3 1 4 21 5 19 6 18 7 16 8 15 9 14 10 13 11 6 12
REMARK SMILES IDX 7 13 8 14 9 15 12 16 11 17 10 18 4 20 20 22 17 24
REMARK H PARENT 10 19 4 21 20 23 17 25
REMARK Flexibility Score: inf
ROOT
ATOM      1  C   UNL     1      19.061  -1.446 -17.487  1.00  0.00     0.180 A 
ATOM      2  C   UNL     1      18.901  -2.841 -17.453  1.00  0.00     0.208 A 
ATOM      3  C   UNL     1      18.196  -3.421 -16.387  1.00  0.00     0.238 A 
ATOM      4  O   UNL     1      18.009  -4.665 -16.390  1.00  0.00    -0.285 OA
ATOM      5  C   UNL     1      17.673  -2.599 -15.359  1.00  0.00     0.111 A 
ATOM      6  C   UNL     1      16.977  -3.083 -14.210  1.00  0.00     0.134 A 
ATOM      7  C   UNL     1      16.390  -2.171 -13.324  1.00  0.00     0.093 A 
ATOM      8  C   UNL     1      16.531  -0.796 -13.508  1.00  0.00     0.123 A 
ATOM      9  C   UNL     1      17.260  -0.312 -14.595  1.00  0.00     0.094 A 
ATOM     10  C   UNL     1      17.826  -1.197 -15.516  1.00  0.00     0.146 A 
ATOM     11  O   UNL     1      18.503  -0.697 -16.542  1.00  0.00    -0.452 OA
ENDROOT
BRANCH   1  12
ATOM     12  C   UNL     1      19.813  -0.765 -18.565  1.00  0.00     0.021 A 
ATOM     13  C   UNL     1      19.326  -0.720 -19.884  1.00  0.00     0.016 A 
ATOM     14  C   UNL     1      20.067  -0.092 -20.891  1.00  0.00     0.047 A 
ATOM     15  C   UNL     1      21.308   0.487 -20.595  1.00  0.00     0.115 A 
ATOM     16  C   UNL     1      21.068  -0.199 -18.282  1.00  0.00     0.016 A 
ATOM     17  C   UNL     1      21.806   0.429 -19.290  1.00  0.00     0.047 A 
BRANCH  15  18
ATOM     18  O   UNL     1      22.053   1.117 -21.589  1.00  0.00    -0.508 OA
ATOM     19  H   UNL     1      22.536   1.991 -21.415  1.00  0.00     0.293 HD
ENDBRANCH  15  18
ENDBRANCH   1  12
BRANCH   2  20
ATOM     20  O   UNL     1      19.406  -3.632 -18.490  1.00  0.00    -0.502 OA
ATOM     21  H   UNL     1      19.436  -3.314 -19.452  1.00  0.00     0.293 HD
ENDBRANCH   2  20
BRANCH   6  22
ATOM     22  O   UNL     1      16.857  -4.436 -13.882  1.00  0.00    -0.507 OA
ATOM     23  H   UNL     1      15.981  -4.920 -13.753  1.00  0.00     0.293 HD
ENDBRANCH   6  22
BRANCH   8  24
ATOM     24  O   UNL     1      15.947   0.083 -12.598  1.00  0.00    -0.508 OA
ATOM     25  H   UNL     1      14.958   0.038 -12.377  1.00  0.00     0.293 HD
ENDBRANCH   8  24
TORSDOF 5
ENDMDL
MODEL 9
REMARK VINA RESULT:    -5.575      2.329      6.681
REMARK INTER + INTRA:          -6.797
REMARK INTER:                  -6.509
REMARK INTRA:                  -0.289
REMARK UNBOUND:                -0.245
REMARK SMILES O=c1c(O)c(-c2ccc(O)cc2)oc2cc(O)cc(O)c12
REMARK SMILES IDX 5 1 3 2 2 3 1 4 21 5 19 6 18 7 16 8 15 9 14 10 13 11 6 12
REMARK SMILES IDX 7 13 8 14 9 15 12 16 11 17 10 18 4 20 20 22 17 24
REMARK H PARENT 10 19 4 21 20 23 17 25
REMARK Flexibility Score: inf
ROOT
ATOM      1  C   UNL     1      18.470  -0.645 -15.832  1.00  0.00     0.180 A 
ATOM      2  C   UNL     1      19.602  -0.021 -15.281  1.00  0.00     0.208 A 
ATOM      3  C   UNL     1      20.687   0.285 -16.117  1.00  0.00     0.238 A 
ATOM      4  O   UNL     1      21.675   0.893 -15.628  1.00  0.00    -0.285 OA
ATOM      5  C   UNL     1      20.634  -0.053 -17.491  1.00  0.00     0.111 A 
ATOM      6  C   UNL     1      21.693   0.173 -18.421  1.00  0.00     0.134 A 
ATOM      7  C   UNL     1      21.482  -0.081 -19.783  1.00  0.00     0.093 A 
ATOM      8  C   UNL     1      20.276  -0.615 -20.237  1.00  0.00     0.123 A 
ATOM      9  C   UNL     1      19.255  -0.895 -19.327  1.00  0.00     0.094 A 
ATOM     10  C   UNL     1      19.423  -0.618 -17.968  1.00  0.00     0.146 A 
ATOM     11  O   UNL     1      18.425  -0.889 -17.137  1.00  0.00    -0.452 OA
ENDROOT
BRANCH   1  12
ATOM     12  C   UNL     1      17.298  -1.020 -15.010  1.00  0.00     0.021 A 
ATOM     13  C   UNL     1      16.244  -0.117 -14.780  1.00  0.00     0.016 A 
ATOM     14  C   UNL     1      15.158  -0.486 -13.979  1.00  0.00     0.047 A 
ATOM     15  C   UNL     1      15.118  -1.756 -13.388  1.00  0.00     0.115 A 
ATOM     16  C   UNL     1      17.259  -2.284 -14.397  1.00  0.00     0.016 A 
ATOM     17  C   UNL     1      16.172  -2.651 -13.597  1.00  0.00     0.047 A 
BRANCH  15  18
ATOM     18  O   UNL     1      14.041  -2.135 -12.591  1.00  0.00    -0.508 OA
ATOM     19  H   UNL     1      13.114  -1.752 -12.736  1.00  0.00     0.293 HD
ENDBRANCH  15  18
ENDBRANCH   1  12
BRANCH   2  20
ATOM     20  O   UNL     1      19.624   0.324 -13.926  1.00  0.00    -0.502 OA
ATOM     21  H   UNL     1      18.784   0.356 -13.359  1.00  0.00     0.293 HD
ENDBRANCH   2  20
BRANCH   6  22
ATOM     22  O   UNL     1      22.969   0.617 -18.061  1.00  0.00    -0.507 OA
ATOM     23  H   UNL     1      23.464   1.368 -18.516  1.00  0.00     0.293 HD
ENDBRANCH   6  22
BRANCH   8  24
ATOM     24  O   UNL     1      20.106  -0.870 -21.596  1.00  0.00    -0.508 OA
ATOM     25  H   UNL     1      19.538  -0.267 -22.181  1.00  0.00     0.293 HD
ENDBRANCH   8  24
TORSDOF 5
ENDMDL
