MODEL 1
REMARK VINA RESULT:    15.444      0.000      0.000
REMARK INTER + INTRA:          24.158
REMARK INTER:                  23.570
REMARK INTRA:                   0.587
REMARK UNBOUND:                 0.587
REMARK SMILES CC1=CCC[C@H](C)C(=O)C[C@@H](C(C)C)C(=O)C1
REMARK SMILES IDX 8 1 9 2 6 3 7 4 5 5 4 6 3 7 2 8 1 9 10 11 11 12 15 13 16 14
REMARK SMILES IDX 17 15 12 17 13 18 14 19
REMARK H PARENT
REMARK Flexibility Score: 70.00
ROOT
ATOM      1  C   UNL     1      20.725  16.621 -11.543  1.00  0.00     0.136 C 
ATOM      2  O   UNL     1      21.212  15.514 -11.728  1.00  0.00    -0.299 OA
ENDROOT
BRANCH   1   3
ATOM      3  C   UNL     1      21.640  17.820 -11.378  1.00  0.00     0.053 C 
ATOM      4  C   UNL     1      23.110  17.381 -11.405  1.00  0.00     0.016 C 
BRANCH   3   5
ATOM      5  C   UNL     1      21.359  18.872 -12.475  1.00  0.00     0.015 C 
BRANCH   5   6
ATOM      6  C   UNL     1      21.190  20.284 -11.881  1.00  0.00     0.028 C 
BRANCH   6   7
ATOM      7  C   UNL     1      20.060  21.061 -12.509  1.00  0.00    -0.028 C 
ATOM      8  C   UNL     1      18.749  20.710 -12.466  1.00  0.00    -0.070 CG0
ATOM      9  C   UNL     1      17.727  21.632 -13.081  1.00  0.00     0.039 C 
ATOM     10  G   UNL     1      18.251  19.378 -11.928  1.00  0.00     0.000 G0
ENDBRANCH   6   7
ENDBRANCH   5   6
ENDBRANCH   3   5
ENDBRANCH   1   3
BRANCH   1  11
ATOM     11  C   UNL     1      19.221  16.757 -11.469  1.00  0.00     0.087 C 
BRANCH  11  12
ATOM     12  C   UNL     1      18.579  16.958 -12.867  1.00  0.00     0.066 C 
BRANCH  12  13
ATOM     13  C   UNL     1      17.973  18.348 -13.001  1.00  0.00     0.140 C 
ATOM     14  O   UNL     1      17.326  18.649 -13.994  1.00  0.00    -0.299 OA
BRANCH  13  15
ATOM     15  C   UNL     1      18.220  19.385 -11.931  1.00  0.00     0.106 CG0
ATOM     16  G   UNL     1      18.743  20.709 -12.464  1.00  0.00     0.000 G0
ENDBRANCH  13  15
ENDBRANCH  12  13
BRANCH  12  17
ATOM     17  C   UNL     1      17.556  15.838 -13.250  1.00  0.00    -0.006 C 
ATOM     18  C   UNL     1      16.386  15.698 -12.258  1.00  0.00     0.008 C 
ATOM     19  C   UNL     1      18.249  14.478 -13.429  1.00  0.00     0.008 C 
ENDBRANCH  12  17
ENDBRANCH  11  12
ENDBRANCH   1  11
TORSDOF 1
ENDMDL
MODEL 2
REMARK VINA RESULT:    15.651      1.676      3.821
REMARK INTER + INTRA:          24.473
REMARK INTER:                  21.160
REMARK INTRA:                   3.313
REMARK UNBOUND:                 0.587
REMARK SMILES CC1=CCC[C@H](C)C(=O)C[C@@H](C(C)C)C(=O)C1
REMARK SMILES IDX 8 1 9 2 6 3 7 4 5 5 4 6 3 7 2 8 1 9 10 11 11 12 15 13 16 14
REMARK SMILES IDX 17 15 12 17 13 18 14 19
REMARK H PARENT
REMARK Flexibility Score: 70.00
ROOT
ATOM      1  C   UNL     1      17.837  19.794 -13.172  1.00  0.00     0.136 C 
ATOM      2  O   UNL     1      16.767  20.092 -13.686  1.00  0.00    -0.299 OA
ENDROOT
BRANCH   1   3
ATOM      3  C   UNL     1      18.487  20.753 -12.193  1.00  0.00     0.053 C 
ATOM      4  C   UNL     1      18.235  20.298 -10.749  1.00  0.00     0.016 C 
BRANCH   3   5
ATOM      5  C   UNL     1      20.001  20.874 -12.477  1.00  0.00     0.015 C 
BRANCH   5   6
ATOM      6  C   UNL     1      20.587  19.552 -13.012  1.00  0.00     0.028 C 
BRANCH   6   7
ATOM      7  C   UNL     1      21.645  18.964 -12.113  1.00  0.00    -0.028 C 
ATOM      8  C   UNL     1      21.678  17.678 -11.678  1.00  0.00    -0.070 CG0
ATOM      9  C   UNL     1      22.845  17.220 -10.841  1.00  0.00     0.039 C 
ATOM     10  G   UNL     1      20.544  16.688 -11.893  1.00  0.00     0.000 G0
ENDBRANCH   6   7
ENDBRANCH   5   6
ENDBRANCH   3   5
ENDBRANCH   1   3
BRANCH   1  11
ATOM     11  C   UNL     1      18.487  18.480 -13.542  1.00  0.00     0.087 C 
BRANCH  11  12
ATOM     12  C   UNL     1      18.099  17.336 -12.568  1.00  0.00     0.066 C 
BRANCH  12  13
ATOM     13  C   UNL     1      19.169  17.130 -11.505  1.00  0.00     0.140 C 
ATOM     14  O   UNL     1      18.939  17.399 -10.334  1.00  0.00    -0.299 OA
BRANCH  13  15
ATOM     15  C   UNL     1      20.544  16.649 -11.901  1.00  0.00     0.106 CG0
ATOM     16  G   UNL     1      21.645  17.672 -11.675  1.00  0.00     0.000 G0
ENDBRANCH  13  15
ENDBRANCH  12  13
BRANCH  12  17
ATOM     17  C   UNL     1      17.732  15.998 -13.292  1.00  0.00    -0.006 C 
ATOM     18  C   UNL     1      16.440  15.342 -12.769  1.00  0.00     0.008 C 
ATOM     19  C   UNL     1      18.888  14.988 -13.229  1.00  0.00     0.008 C 
ENDBRANCH  12  17
ENDBRANCH  11  12
ENDBRANCH   1  11
TORSDOF 1
ENDMDL
MODEL 3
REMARK VINA RESULT:    15.654      2.307      4.887
REMARK INTER + INTRA:          24.478
REMARK INTER:                  23.081
REMARK INTRA:                   1.397
REMARK UNBOUND:                 0.587
REMARK SMILES CC1=CCC[C@H](C)C(=O)C[C@@H](C(C)C)C(=O)C1
REMARK SMILES IDX 8 1 9 2 6 3 7 4 5 5 4 6 3 7 2 8 1 9 10 11 11 12 15 13 16 14
REMARK SMILES IDX 17 15 12 17 13 18 14 19
REMARK H PARENT
REMARK Flexibility Score: 70.00
ROOT
ATOM      1  C   UNL     1      18.903  16.125 -12.757  1.00  0.00     0.136 C 
ATOM      2  O   UNL     1      19.944  16.034 -12.120  1.00  0.00    -0.299 OA
ENDROOT
BRANCH   1   3
ATOM      3  C   UNL     1      18.349  14.899 -13.459  1.00  0.00     0.053 C 
ATOM      4  C   UNL     1      19.279  13.697 -13.251  1.00  0.00     0.016 C 
BRANCH   3   5
ATOM      5  C   UNL     1      16.922  14.585 -12.956  1.00  0.00     0.015 C 
BRANCH   5   6
ATOM      6  C   UNL     1      16.189  15.859 -12.492  1.00  0.00     0.028 C 
BRANCH   6   7
ATOM      7  C   UNL     1      15.584  15.730 -11.116  1.00  0.00    -0.028 C 
ATOM      8  C   UNL     1      16.131  16.215  -9.972  1.00  0.00    -0.070 CG0
ATOM      9  C   UNL     1      15.368  16.069  -8.680  1.00  0.00     0.039 C 
ATOM     10  G   UNL     1      17.529  16.807  -9.892  1.00  0.00     0.000 G0
ENDBRANCH   6   7
ENDBRANCH   5   6
ENDBRANCH   3   5
ENDBRANCH   1   3
BRANCH   1  11
ATOM     11  C   UNL     1      18.207  17.465 -12.838  1.00  0.00     0.087 C 
BRANCH  11  12
ATOM     12  C   UNL     1      18.606  18.406 -11.671  1.00  0.00     0.066 C 
BRANCH  12  13
ATOM     13  C   UNL     1      17.713  18.188 -10.457  1.00  0.00     0.140 C 
ATOM     14  O   UNL     1      17.168  19.137  -9.911  1.00  0.00    -0.299 OA
BRANCH  13  15
ATOM     15  C   UNL     1      17.542  16.802  -9.885  1.00  0.00     0.106 CG0
ATOM     16  G   UNL     1      16.127  16.257  -9.997  1.00  0.00     0.000 G0
ENDBRANCH  13  15
ENDBRANCH  12  13
BRANCH  12  17
ATOM     17  C   UNL     1      18.674  19.914 -12.081  1.00  0.00    -0.006 C 
ATOM     18  C   UNL     1      17.818  20.262 -13.314  1.00  0.00     0.008 C 
ATOM     19  C   UNL     1      20.122  20.372 -12.311  1.00  0.00     0.008 C 
ENDBRANCH  12  17
ENDBRANCH  11  12
ENDBRANCH   1  11
TORSDOF 1
ENDMDL
MODEL 4
REMARK VINA RESULT:    16.413      1.973      4.920
REMARK INTER + INTRA:          25.636
REMARK INTER:                  24.356
REMARK INTRA:                   1.280
REMARK UNBOUND:                 0.587
REMARK SMILES CC1=CCC[C@H](C)C(=O)C[C@@H](C(C)C)C(=O)C1
REMARK SMILES IDX 8 1 9 2 6 3 7 4 5 5 4 6 3 7 2 8 1 9 10 11 11 12 15 13 16 14
REMARK SMILES IDX 17 15 12 17 13 18 14 19
REMARK H PARENT
REMARK Flexibility Score: 70.00
ROOT
ATOM      1  C   UNL     1      17.368  16.910 -13.223  1.00  0.00     0.136 C 
ATOM      2  O   UNL     1      16.291  17.490 -13.272  1.00  0.00    -0.299 OA
ENDROOT
BRANCH   1   3
ATOM      3  C   UNL     1      17.406  15.435 -12.869  1.00  0.00     0.053 C 
ATOM      4  C   UNL     1      16.080  14.760 -13.243  1.00  0.00     0.016 C 
BRANCH   3   5
ATOM      5  C   UNL     1      18.596  14.741 -13.569  1.00  0.00     0.015 C 
BRANCH   5   6
ATOM      6  C   UNL     1      19.677  14.308 -12.560  1.00  0.00     0.028 C 
BRANCH   6   7
ATOM      7  C   UNL     1      20.782  15.323 -12.401  1.00  0.00    -0.028 C 
ATOM      8  C   UNL     1      20.822  16.294 -11.453  1.00  0.00    -0.070 CG0
ATOM      9  C   UNL     1      22.033  17.189 -11.377  1.00  0.00     0.039 C 
ATOM     10  G   UNL     1      19.664  16.610 -10.521  1.00  0.00     0.000 G0
ENDBRANCH   6   7
ENDBRANCH   5   6
ENDBRANCH   3   5
ENDBRANCH   1   3
BRANCH   1  11
ATOM     11  C   UNL     1      18.633  17.690 -13.502  1.00  0.00     0.087 C 
BRANCH  11  12
ATOM     12  C   UNL     1      19.102  18.511 -12.272  1.00  0.00     0.066 C 
BRANCH  12  13
ATOM     13  C   UNL     1      18.791  17.783 -10.972  1.00  0.00     0.140 C 
ATOM     14  O   UNL     1      17.857  18.142 -10.270  1.00  0.00    -0.299 OA
BRANCH  13  15
ATOM     15  C   UNL     1      19.675  16.648 -10.513  1.00  0.00     0.106 CG0
ATOM     16  G   UNL     1      20.809  16.322 -11.470  1.00  0.00     0.000 G0
ENDBRANCH  13  15
ENDBRANCH  12  13
BRANCH  12  17
ATOM     17  C   UNL     1      18.564  19.980 -12.261  1.00  0.00    -0.006 C 
ATOM     18  C   UNL     1      17.694  20.333 -13.482  1.00  0.00     0.008 C 
ATOM     19  C   UNL     1      19.706  20.999 -12.127  1.00  0.00     0.008 C 
ENDBRANCH  12  17
ENDBRANCH  11  12
ENDBRANCH   1  11
TORSDOF 1
ENDMDL
MODEL 5
REMARK VINA RESULT:    16.646      1.837      4.180
REMARK INTER + INTRA:          25.992
REMARK INTER:                  25.278
REMARK INTRA:                   0.714
REMARK UNBOUND:                 0.587
REMARK SMILES CC1=CCC[C@H](C)C(=O)C[C@@H](C(C)C)C(=O)C1
REMARK SMILES IDX 8 1 9 2 6 3 7 4 5 5 4 6 3 7 2 8 1 9 10 11 11 12 15 13 16 14
REMARK SMILES IDX 17 15 12 17 13 18 14 19
REMARK H PARENT
REMARK Flexibility Score: 70.00
ROOT
ATOM      1  C   UNL     1      21.525  18.736 -12.070  1.00  0.00     0.136 C 
ATOM      2  O   UNL     1      22.179  19.695 -11.682  1.00  0.00    -0.299 OA
ENDROOT
BRANCH   1   3
ATOM      3  C   UNL     1      22.030  17.331 -11.803  1.00  0.00     0.053 C 
ATOM      4  C   UNL     1      23.048  17.337 -10.655  1.00  0.00     0.016 C 
BRANCH   3   5
ATOM      5  C   UNL     1      20.851  16.382 -11.490  1.00  0.00     0.015 C 
BRANCH   5   6
ATOM      6  C   UNL     1      20.477  15.517 -12.709  1.00  0.00     0.028 C 
BRANCH   6   7
ATOM      7  C   UNL     1      19.066  14.987 -12.651  1.00  0.00    -0.028 C 
ATOM      8  C   UNL     1      17.947  15.712 -12.906  1.00  0.00    -0.070 CG0
ATOM      9  C   UNL     1      16.608  15.019 -12.878  1.00  0.00     0.039 C 
ATOM     10  G   UNL     1      17.947  17.218 -13.112  1.00  0.00     0.000 G0
ENDBRANCH   6   7
ENDBRANCH   5   6
ENDBRANCH   3   5
ENDBRANCH   1   3
BRANCH   1  11
ATOM     11  C   UNL     1      20.236  18.985 -12.821  1.00  0.00     0.087 C 
BRANCH  11  12
ATOM     12  C   UNL     1      19.036  19.226 -11.868  1.00  0.00     0.066 C 
BRANCH  12  13
ATOM     13  C   UNL     1      18.095  18.029 -11.852  1.00  0.00     0.140 C 
ATOM     14  O   UNL     1      17.541  17.690 -10.816  1.00  0.00    -0.299 OA
BRANCH  13  15
ATOM     15  C   UNL     1      17.887  17.216 -13.108  1.00  0.00     0.106 CG0
ATOM     16  G   UNL     1      17.955  15.714 -12.889  1.00  0.00     0.000 G0
ENDBRANCH  13  15
ENDBRANCH  12  13
BRANCH  12  17
ATOM     17  C   UNL     1      18.274  20.563 -12.151  1.00  0.00    -0.006 C 
ATOM     18  C   UNL     1      17.186  20.441 -13.235  1.00  0.00     0.008 C 
ATOM     19  C   UNL     1      19.243  21.698 -12.516  1.00  0.00     0.008 C 
ENDBRANCH  12  17
ENDBRANCH  11  12
ENDBRANCH   1  11
TORSDOF 1
ENDMDL
MODEL 6
REMARK VINA RESULT:    16.946      1.631      3.775
REMARK INTER + INTRA:          26.449
REMARK INTER:                  24.058
REMARK INTRA:                   2.391
REMARK UNBOUND:                 0.587
REMARK SMILES CC1=CCC[C@H](C)C(=O)C[C@@H](C(C)C)C(=O)C1
REMARK SMILES IDX 8 1 9 2 6 3 7 4 5 5 4 6 3 7 2 8 1 9 10 11 11 12 15 13 16 14
REMARK SMILES IDX 17 15 12 17 13 18 14 19
REMARK H PARENT
REMARK Flexibility Score: 70.00
ROOT
ATOM      1  C   UNL     1      18.334  18.743 -12.572  1.00  0.00     0.136 C 
ATOM      2  O   UNL     1      17.926  18.604 -11.427  1.00  0.00    -0.299 OA
ENDROOT
BRANCH   1   3
ATOM      3  C   UNL     1      18.583  20.139 -13.110  1.00  0.00     0.053 C 
ATOM      4  C   UNL     1      17.368  21.039 -12.845  1.00  0.00     0.016 C 
BRANCH   3   5
ATOM      5  C   UNL     1      19.862  20.741 -12.486  1.00  0.00     0.015 C 
BRANCH   5   6
ATOM      6  C   UNL     1      20.411  19.858 -11.349  1.00  0.00     0.028 C 
BRANCH   6   7
ATOM      7  C   UNL     1      21.619  19.050 -11.754  1.00  0.00    -0.028 C 
ATOM      8  C   UNL     1      21.701  17.695 -11.723  1.00  0.00    -0.070 CG0
ATOM      9  C   UNL     1      22.955  17.029 -12.230  1.00  0.00     0.039 C 
ATOM     10  G   UNL     1      20.640  16.801 -11.102  1.00  0.00     0.000 G0
ENDBRANCH   6   7
ENDBRANCH   5   6
ENDBRANCH   3   5
ENDBRANCH   1   3
BRANCH   1  11
ATOM     11  C   UNL     1      18.564  17.514 -13.422  1.00  0.00     0.087 C 
BRANCH  11  12
ATOM     12  C   UNL     1      18.554  16.208 -12.584  1.00  0.00     0.066 C 
BRANCH  12  13
ATOM     13  C   UNL     1      19.947  15.871 -12.073  1.00  0.00     0.140 C 
ATOM     14  O   UNL     1      20.494  14.830 -12.407  1.00  0.00    -0.299 OA
BRANCH  13  15
ATOM     15  C   UNL     1      20.638  16.795 -11.098  1.00  0.00     0.106 CG0
ATOM     16  G   UNL     1      21.710  17.668 -11.730  1.00  0.00     0.000 G0
ENDBRANCH  13  15
ENDBRANCH  12  13
BRANCH  12  17
ATOM     17  C   UNL     1      17.896  14.997 -13.325  1.00  0.00    -0.006 C 
ATOM     18  C   UNL     1      16.387  14.848 -13.055  1.00  0.00     0.008 C 
ATOM     19  C   UNL     1      18.614  13.679 -12.999  1.00  0.00     0.008 C 
ENDBRANCH  12  17
ENDBRANCH  11  12
ENDBRANCH   1  11
TORSDOF 1
ENDMDL
