MODEL 1
REMARK VINA RESULT:    -2.223      0.000      0.000
REMARK INTER + INTRA:          -2.762
REMARK INTER:                  -2.613
REMARK INTRA:                  -0.149
REMARK UNBOUND:                -0.149
REMARK SMILES O=C([O-])CCC(=O)[O-]
REMARK SMILES IDX 4 1 2 2 1 3 3 4 5 5 6 6 7 7 8 8
REMARK H PARENT
REMARK Flexibility Score: inf
ROOT
ATOM      1  C   UNL     1      15.875  -9.454  27.962  1.00  0.00     0.059 C 
ENDROOT
BRANCH   1   2
ATOM      2  C   UNL     1      16.257  -8.426  26.945  1.00  0.00     0.042 C 
ATOM      3  O   UNL     1      15.876  -7.233  27.076  1.00  0.00    -0.550 OA
ATOM      4  O   UNL     1      16.990  -8.795  25.825  1.00  0.00    -0.550 OA
ENDBRANCH   1   2
BRANCH   1   5
ATOM      5  C   UNL     1      16.030  -8.892  29.377  1.00  0.00     0.059 C 
BRANCH   5   6
ATOM      6  C   UNL     1      17.471  -8.866  29.775  1.00  0.00     0.042 C 
ATOM      7  O   UNL     1      18.120  -9.941  29.878  1.00  0.00    -0.550 OA
ATOM      8  O   UNL     1      18.087  -7.658  30.078  1.00  0.00    -0.550 OA
ENDBRANCH   5   6
ENDBRANCH   1   5
TORSDOF 3
ENDMDL
MODEL 2
REMARK VINA RESULT:    -2.161      1.454      2.233
REMARK INTER + INTRA:          -2.689
REMARK INTER:                  -2.655
REMARK INTRA:                  -0.033
REMARK UNBOUND:                -0.149
REMARK SMILES O=C([O-])CCC(=O)[O-]
REMARK SMILES IDX 4 1 2 2 1 3 3 4 5 5 6 6 7 7 8 8
REMARK H PARENT
REMARK Flexibility Score: inf
ROOT
ATOM      1  C   UNL     1      17.574  -8.624  26.794  1.00  0.00     0.059 C 
ENDROOT
BRANCH   1   2
ATOM      2  C   UNL     1      17.327  -8.431  25.331  1.00  0.00     0.042 C 
ATOM      3  O   UNL     1      16.173  -8.599  24.856  1.00  0.00    -0.550 OA
ATOM      4  O   UNL     1      18.381  -8.114  24.484  1.00  0.00    -0.550 OA
ENDBRANCH   1   2
BRANCH   1   5
ATOM      5  C   UNL     1      16.251  -8.675  27.559  1.00  0.00     0.059 C 
BRANCH   5   6
ATOM      6  C   UNL     1      16.498  -8.910  29.016  1.00  0.00     0.042 C 
ATOM      7  O   UNL     1      16.656  -7.935  29.797  1.00  0.00    -0.550 OA
ATOM      8  O   UNL     1      16.600 -10.207  29.502  1.00  0.00    -0.550 OA
ENDBRANCH   5   6
ENDBRANCH   1   5
TORSDOF 3
ENDMDL
MODEL 3
REMARK VINA RESULT:    -2.160      1.450      3.885
REMARK INTER + INTRA:          -2.687
REMARK INTER:                  -2.654
REMARK INTRA:                  -0.033
REMARK UNBOUND:                -0.149
REMARK SMILES O=C([O-])CCC(=O)[O-]
REMARK SMILES IDX 4 1 2 2 1 3 3 4 5 5 6 6 7 7 8 8
REMARK H PARENT
REMARK Flexibility Score: inf
ROOT
ATOM      1  C   UNL     1      16.223  -8.661  27.584  1.00  0.00     0.059 C 
ENDROOT
BRANCH   1   2
ATOM      2  C   UNL     1      16.463  -8.936  29.035  1.00  0.00     0.042 C 
ATOM      3  O   UNL     1      16.582  -7.983  29.849  1.00  0.00    -0.550 OA
ATOM      4  O   UNL     1      16.604 -10.244  29.480  1.00  0.00    -0.550 OA
ENDBRANCH   1   2
BRANCH   1   5
ATOM      5  C   UNL     1      17.544  -8.669  26.812  1.00  0.00     0.059 C 
BRANCH   5   6
ATOM      6  C   UNL     1      17.300  -8.432  25.355  1.00  0.00     0.042 C 
ATOM      7  O   UNL     1      16.137  -8.535  24.882  1.00  0.00    -0.550 OA
ATOM      8  O   UNL     1      18.364  -8.142  24.511  1.00  0.00    -0.550 OA
ENDBRANCH   5   6
ENDBRANCH   1   5
TORSDOF 3
ENDMDL
MODEL 4
REMARK VINA RESULT:    -0.018      1.347      1.898
REMARK INTER + INTRA:          -0.170
REMARK INTER:                  -0.077
REMARK INTRA:                  -0.092
REMARK UNBOUND:                -0.149
REMARK SMILES O=C([O-])CCC(=O)[O-]
REMARK SMILES IDX 4 1 2 2 1 3 3 4 5 5 6 6 7 7 8 8
REMARK H PARENT
REMARK Flexibility Score: inf
ROOT
ATOM      1  C   UNL     1      17.516  -9.182  26.787  1.00  0.00     0.059 C 
ENDROOT
BRANCH   1   2
ATOM      2  C   UNL     1      16.524  -8.359  26.027  1.00  0.00     0.042 C 
ATOM      3  O   UNL     1      16.307  -8.594  24.809  1.00  0.00    -0.550 OA
ATOM      4  O   UNL     1      15.877  -7.300  26.650  1.00  0.00    -0.550 OA
ENDBRANCH   1   2
BRANCH   1   5
ATOM      5  C   UNL     1      18.141  -8.361  27.916  1.00  0.00     0.059 C 
BRANCH   5   6
ATOM      6  C   UNL     1      17.644  -8.834  29.245  1.00  0.00     0.042 C 
ATOM      7  O   UNL     1      18.442  -9.342  30.076  1.00  0.00    -0.550 OA
ATOM      8  O   UNL     1      16.290  -8.757  29.547  1.00  0.00    -0.550 OA
ENDBRANCH   5   6
ENDBRANCH   1   5
TORSDOF 3
ENDMDL
MODEL 5
REMARK VINA RESULT:     0.175     18.131     19.461
REMARK INTER + INTRA:           0.057
REMARK INTER:                   0.157
REMARK INTRA:                  -0.100
REMARK UNBOUND:                -0.149
REMARK SMILES O=C([O-])CCC(=O)[O-]
REMARK SMILES IDX 4 1 2 2 1 3 3 4 5 5 6 6 7 7 8 8
REMARK H PARENT
REMARK Flexibility Score: inf
ROOT
ATOM      1  C   UNL     1      28.680 -15.052  15.710  1.00  0.00     0.059 C 
ENDROOT
BRANCH   1   2
ATOM      2  C   UNL     1      29.045 -15.454  17.104  1.00  0.00     0.042 C 
ATOM      3  O   UNL     1      28.721 -16.590  17.539  1.00  0.00    -0.550 OA
ATOM      4  O   UNL     1      29.696 -14.556  17.938  1.00  0.00    -0.550 OA
ENDBRANCH   1   2
BRANCH   1   5
ATOM      5  C   UNL     1      27.925 -16.180  15.005  1.00  0.00     0.059 C 
BRANCH   5   6
ATOM      6  C   UNL     1      28.685 -16.650  13.806  1.00  0.00     0.042 C 
ATOM      7  O   UNL     1      28.088 -16.846  12.714  1.00  0.00    -0.550 OA
ATOM      8  O   UNL     1      30.044 -16.917  13.906  1.00  0.00    -0.550 OA
ENDBRANCH   5   6
ENDBRANCH   1   5
TORSDOF 3
ENDMDL
MODEL 6
REMARK VINA RESULT:     0.196     18.113     19.157
REMARK INTER + INTRA:           0.082
REMARK INTER:                   0.186
REMARK INTRA:                  -0.104
REMARK UNBOUND:                -0.149
REMARK SMILES O=C([O-])CCC(=O)[O-]
REMARK SMILES IDX 4 1 2 2 1 3 3 4 5 5 6 6 7 7 8 8
REMARK H PARENT
REMARK Flexibility Score: inf
ROOT
ATOM      1  C   UNL     1      27.920 -16.160  15.016  1.00  0.00     0.059 C 
ENDROOT
BRANCH   1   2
ATOM      2  C   UNL     1      28.716 -16.652  13.849  1.00  0.00     0.042 C 
ATOM      3  O   UNL     1      28.137 -16.971  12.777  1.00  0.00    -0.550 OA
ATOM      4  O   UNL     1      30.091 -16.808  13.961  1.00  0.00    -0.550 OA
ENDBRANCH   1   2
BRANCH   1   5
ATOM      5  C   UNL     1      28.635 -14.993  15.699  1.00  0.00     0.059 C 
BRANCH   5   6
ATOM      6  C   UNL     1      29.041 -15.368  17.088  1.00  0.00     0.042 C 
ATOM      7  O   UNL     1      28.769 -16.512  17.541  1.00  0.00    -0.550 OA
ATOM      8  O   UNL     1      29.678 -14.439  17.901  1.00  0.00    -0.550 OA
ENDBRANCH   5   6
ENDBRANCH   1   5
TORSDOF 3
ENDMDL
