MODEL 1
REMARK VINA RESULT:    -3.493      0.000      0.000
REMARK INTER + INTRA:          -4.185
REMARK INTER:                  -4.106
REMARK INTRA:                  -0.079
REMARK UNBOUND:                -0.079
REMARK SMILES CCCCC(=O)[O-]
REMARK SMILES IDX 4 1 5 2 6 3 7 4 3 5 2 6 1 7
REMARK H PARENT
REMARK Flexibility Score: inf
ROOT
ATOM      1  C   UNL     1      13.449  13.611  69.594  1.00  0.00     0.053 C 
ENDROOT
BRANCH   1   2
ATOM      2  C   UNL     1      13.864  14.959  69.088  1.00  0.00     0.041 C 
ATOM      3  O   UNL     1      14.483  15.756  69.842  1.00  0.00    -0.550 OA
ATOM      4  O   UNL     1      13.537  15.349  67.795  1.00  0.00    -0.550 OA
ENDBRANCH   1   2
BRANCH   1   5
ATOM      5  C   UNL     1      12.146  13.133  68.938  1.00  0.00     0.006 C 
BRANCH   5   6
ATOM      6  C   UNL     1      10.915  13.439  69.802  1.00  0.00    -0.003 C 
ATOM      7  C   UNL     1      11.274  13.455  71.285  1.00  0.00     0.004 C 
ENDBRANCH   5   6
ENDBRANCH   1   5
TORSDOF 3
ENDMDL
MODEL 2
REMARK VINA RESULT:    -3.453      2.313      3.318
REMARK INTER + INTRA:          -4.138
REMARK INTER:                  -4.029
REMARK INTRA:                  -0.108
REMARK UNBOUND:                -0.079
REMARK SMILES CCCCC(=O)[O-]
REMARK SMILES IDX 4 1 5 2 6 3 7 4 3 5 2 6 1 7
REMARK H PARENT
REMARK Flexibility Score: inf
ROOT
ATOM      1  C   UNL     1      12.864  13.445  69.287  1.00  0.00     0.053 C 
ENDROOT
BRANCH   1   2
ATOM      2  C   UNL     1      11.601  13.548  70.086  1.00  0.00     0.041 C 
ATOM      3  O   UNL     1      11.650  13.636  71.341  1.00  0.00    -0.550 OA
ATOM      4  O   UNL     1      10.368  13.511  69.447  1.00  0.00    -0.550 OA
ENDBRANCH   1   2
BRANCH   1   5
ATOM      5  C   UNL     1      13.370  14.824  68.840  1.00  0.00     0.006 C 
BRANCH   5   6
ATOM      6  C   UNL     1      14.370  15.426  69.837  1.00  0.00    -0.003 C 
ATOM      7  C   UNL     1      15.256  14.345  70.449  1.00  0.00     0.004 C 
ENDBRANCH   5   6
ENDBRANCH   1   5
TORSDOF 3
ENDMDL
MODEL 3
REMARK VINA RESULT:    -3.426      1.032      1.972
REMARK INTER + INTRA:          -4.106
REMARK INTER:                  -3.999
REMARK INTRA:                  -0.107
REMARK UNBOUND:                -0.079
REMARK SMILES CCCCC(=O)[O-]
REMARK SMILES IDX 4 1 5 2 6 3 7 4 3 5 2 6 1 7
REMARK H PARENT
REMARK Flexibility Score: inf
ROOT
ATOM      1  C   UNL     1      12.743  13.418  69.127  1.00  0.00     0.053 C 
ENDROOT
BRANCH   1   2
ATOM      2  C   UNL     1      13.321  14.716  68.651  1.00  0.00     0.041 C 
ATOM      3  O   UNL     1      12.940  15.219  67.562  1.00  0.00    -0.550 OA
ATOM      4  O   UNL     1      14.307  15.353  69.395  1.00  0.00    -0.550 OA
ENDBRANCH   1   2
BRANCH   1   5
ATOM      5  C   UNL     1      11.492  13.632  69.989  1.00  0.00     0.006 C 
BRANCH   5   6
ATOM      6  C   UNL     1      10.196  13.455  69.185  1.00  0.00    -0.003 C 
ATOM      7  C   UNL     1      10.382  12.446  68.056  1.00  0.00     0.004 C 
ENDBRANCH   5   6
ENDBRANCH   1   5
TORSDOF 3
ENDMDL
MODEL 4
REMARK VINA RESULT:    -3.420      2.443      3.737
REMARK INTER + INTRA:          -4.099
REMARK INTER:                  -4.031
REMARK INTRA:                  -0.068
REMARK UNBOUND:                -0.079
REMARK SMILES CCCCC(=O)[O-]
REMARK SMILES IDX 4 1 5 2 6 3 7 4 3 5 2 6 1 7
REMARK H PARENT
REMARK Flexibility Score: inf
ROOT
ATOM      1  C   UNL     1      12.125  13.119  68.750  1.00  0.00     0.053 C 
ENDROOT
BRANCH   1   2
ATOM      2  C   UNL     1      10.889  13.255  69.585  1.00  0.00     0.041 C 
ATOM      3  O   UNL     1       9.752  13.200  69.049  1.00  0.00    -0.550 OA
ATOM      4  O   UNL     1      10.994  13.476  70.953  1.00  0.00    -0.550 OA
ENDBRANCH   1   2
BRANCH   1   5
ATOM      5  C   UNL     1      13.377  13.584  69.504  1.00  0.00     0.006 C 
BRANCH   5   6
ATOM      6  C   UNL     1      13.811  14.999  69.094  1.00  0.00    -0.003 C 
ATOM      7  C   UNL     1      13.240  15.375  67.730  1.00  0.00     0.004 C 
ENDBRANCH   5   6
ENDBRANCH   1   5
TORSDOF 3
ENDMDL
MODEL 5
REMARK VINA RESULT:    -3.405      1.775      2.601
REMARK INTER + INTRA:          -4.081
REMARK INTER:                  -3.942
REMARK INTRA:                  -0.138
REMARK UNBOUND:                -0.079
REMARK SMILES CCCCC(=O)[O-]
REMARK SMILES IDX 4 1 5 2 6 3 7 4 3 5 2 6 1 7
REMARK H PARENT
REMARK Flexibility Score: inf
ROOT
ATOM      1  C   UNL     1      12.076  14.046  68.792  1.00  0.00     0.053 C 
ENDROOT
BRANCH   1   2
ATOM      2  C   UNL     1      12.440  15.323  68.098  1.00  0.00     0.041 C 
ATOM      3  O   UNL     1      11.795  16.379  68.333  1.00  0.00    -0.550 OA
ATOM      4  O   UNL     1      13.471  15.341  67.167  1.00  0.00    -0.550 OA
ENDBRANCH   1   2
BRANCH   1   5
ATOM      5  C   UNL     1      13.281  13.421  69.506  1.00  0.00     0.006 C 
BRANCH   5   6
ATOM      6  C   UNL     1      13.903  14.374  70.537  1.00  0.00    -0.003 C 
ATOM      7  C   UNL     1      15.404  14.528  70.310  1.00  0.00     0.004 C 
ENDBRANCH   5   6
ENDBRANCH   1   5
TORSDOF 3
ENDMDL
MODEL 6
REMARK VINA RESULT:    -3.366      2.094      3.712
REMARK INTER + INTRA:          -4.035
REMARK INTER:                  -3.989
REMARK INTRA:                  -0.046
REMARK UNBOUND:                -0.079
REMARK SMILES CCCCC(=O)[O-]
REMARK SMILES IDX 4 1 5 2 6 3 7 4 3 5 2 6 1 7
REMARK H PARENT
REMARK Flexibility Score: inf
ROOT
ATOM      1  C   UNL     1      13.479  14.686  70.088  1.00  0.00     0.053 C 
ENDROOT
BRANCH   1   2
ATOM      2  C   UNL     1      12.914  14.179  68.796  1.00  0.00     0.041 C 
ATOM      3  O   UNL     1      12.398  13.032  68.736  1.00  0.00    -0.550 OA
ATOM      4  O   UNL     1      12.988  14.961  67.650  1.00  0.00    -0.550 OA
ENDBRANCH   1   2
BRANCH   1   5
ATOM      5  C   UNL     1      14.888  15.264  69.906  1.00  0.00     0.006 C 
BRANCH   5   6
ATOM      6  C   UNL     1      15.983  14.248  70.258  1.00  0.00    -0.003 C 
ATOM      7  C   UNL     1      17.282  14.561  69.520  1.00  0.00     0.004 C 
ENDBRANCH   5   6
ENDBRANCH   1   5
TORSDOF 3
ENDMDL
MODEL 7
REMARK VINA RESULT:    -3.336      2.229      3.059
REMARK INTER + INTRA:          -4.001
REMARK INTER:                  -3.879
REMARK INTRA:                  -0.122
REMARK UNBOUND:                -0.079
REMARK SMILES CCCCC(=O)[O-]
REMARK SMILES IDX 4 1 5 2 6 3 7 4 3 5 2 6 1 7
REMARK H PARENT
REMARK Flexibility Score: inf
ROOT
ATOM      1  C   UNL     1      13.036  13.528  69.954  1.00  0.00     0.053 C 
ENDROOT
BRANCH   1   2
ATOM      2  C   UNL     1      12.197  14.129  71.041  1.00  0.00     0.041 C 
ATOM      3  O   UNL     1      12.432  15.296  71.451  1.00  0.00    -0.550 OA
ATOM      4  O   UNL     1      11.178  13.387  71.625  1.00  0.00    -0.550 OA
ENDBRANCH   1   2
BRANCH   1   5
ATOM      5  C   UNL     1      12.227  13.300  68.671  1.00  0.00     0.006 C 
BRANCH   5   6
ATOM      6  C   UNL     1      11.874  14.616  67.964  1.00  0.00    -0.003 C 
ATOM      7  C   UNL     1      13.134  15.378  67.562  1.00  0.00     0.004 C 
ENDBRANCH   5   6
ENDBRANCH   1   5
TORSDOF 3
ENDMDL
MODEL 8
REMARK VINA RESULT:    -3.322      2.344      2.883
REMARK INTER + INTRA:          -3.984
REMARK INTER:                  -3.865
REMARK INTRA:                  -0.119
REMARK UNBOUND:                -0.079
REMARK SMILES CCCCC(=O)[O-]
REMARK SMILES IDX 4 1 5 2 6 3 7 4 3 5 2 6 1 7
REMARK H PARENT
REMARK Flexibility Score: inf
ROOT
ATOM      1  C   UNL     1      12.787  13.492  69.791  1.00  0.00     0.053 C 
ENDROOT
BRANCH   1   2
ATOM      2  C   UNL     1      12.016  13.999  70.972  1.00  0.00     0.041 C 
ATOM      3  O   UNL     1      12.124  15.201  71.330  1.00  0.00    -0.550 OA
ATOM      4  O   UNL     1      11.205  13.135  71.697  1.00  0.00    -0.550 OA
ENDBRANCH   1   2
BRANCH   1   5
ATOM      5  C   UNL     1      12.241  14.051  68.471  1.00  0.00     0.006 C 
BRANCH   5   6
ATOM      6  C   UNL     1      10.729  13.831  68.328  1.00  0.00    -0.003 C 
ATOM      7  C   UNL     1      10.415  12.375  67.996  1.00  0.00     0.004 C 
ENDBRANCH   5   6
ENDBRANCH   1   5
TORSDOF 3
ENDMDL
MODEL 9
REMARK VINA RESULT:    -3.274     15.414     15.939
REMARK INTER + INTRA:          -3.927
REMARK INTER:                  -3.889
REMARK INTRA:                  -0.038
REMARK UNBOUND:                -0.079
REMARK SMILES CCCCC(=O)[O-]
REMARK SMILES IDX 4 1 5 2 6 3 7 4 3 5 2 6 1 7
REMARK H PARENT
REMARK Flexibility Score: inf
ROOT
ATOM      1  C   UNL     1      21.046   1.865  65.480  1.00  0.00     0.053 C 
ENDROOT
BRANCH   1   2
ATOM      2  C   UNL     1      21.269   1.408  64.070  1.00  0.00     0.041 C 
ATOM      3  O   UNL     1      21.074   2.197  63.109  1.00  0.00    -0.550 OA
ATOM      4  O   UNL     1      21.657   0.098  63.816  1.00  0.00    -0.550 OA
ENDBRANCH   1   2
BRANCH   1   5
ATOM      5  C   UNL     1      19.818   1.194  66.109  1.00  0.00     0.006 C 
BRANCH   5   6
ATOM      6  C   UNL     1      20.166   0.441  67.401  1.00  0.00    -0.003 C 
ATOM      7  C   UNL     1      18.912   0.130  68.211  1.00  0.00     0.004 C 
ENDBRANCH   5   6
ENDBRANCH   1   5
TORSDOF 3
ENDMDL
