MODEL 1
REMARK VINA RESULT:    -1.437      0.000      0.000
REMARK INTER + INTRA:          -3.226
REMARK INTER:                  -2.613
REMARK INTRA:                  -0.614
REMARK UNBOUND:                -0.614
REMARK SMILES CCCCCCCCCCCCCCCC(=O)[O-]
REMARK SMILES IDX 9 1 10 2 11 3 12 4 13 5 14 6 15 7 16 8 17 9 18 10 8 11 7 12
REMARK SMILES IDX 6 13 5 14 4 15 3 16 2 17 1 18
REMARK H PARENT
REMARK Flexibility Score: inf
ROOT
ATOM      1  C   UNL     1     -10.965 -10.325  -4.185  1.00  0.00     0.000 C 
ENDROOT
BRANCH   1   2
ATOM      2  C   UNL     1     -10.966 -10.043  -2.673  1.00  0.00     0.000 C 
BRANCH   2   3
ATOM      3  C   UNL     1     -11.070  -8.542  -2.351  1.00  0.00     0.000 C 
BRANCH   3   4
ATOM      4  C   UNL     1     -10.365  -8.170  -1.037  1.00  0.00     0.000 C 
BRANCH   4   5
ATOM      5  C   UNL     1      -8.896  -8.627  -1.000  1.00  0.00     0.000 C 
BRANCH   5   6
ATOM      6  C   UNL     1      -8.047  -7.974  -2.102  1.00  0.00     0.006 C 
BRANCH   6   7
ATOM      7  C   UNL     1      -6.916  -8.887  -2.594  1.00  0.00     0.053 C 
BRANCH   7   8
ATOM      8  C   UNL     1      -5.870  -9.039  -1.537  1.00  0.00     0.041 C 
ATOM      9  O   UNL     1      -5.662  -8.110  -0.713  1.00  0.00    -0.550 OA
ATOM     10  O   UNL     1      -5.089 -10.186  -1.492  1.00  0.00    -0.550 OA
ENDBRANCH   7   8
ENDBRANCH   6   7
ENDBRANCH   5   6
ENDBRANCH   4   5
ENDBRANCH   3   4
ENDBRANCH   2   3
ENDBRANCH   1   2
BRANCH   1  11
ATOM     11  C   UNL     1     -10.708 -11.807  -4.508  1.00  0.00     0.000 C 
BRANCH  11  12
ATOM     12  C   UNL     1     -10.270 -12.026  -5.966  1.00  0.00    -0.000 C 
BRANCH  12  13
ATOM     13  C   UNL     1     -10.946 -11.046  -6.940  1.00  0.00    -0.000 C 
BRANCH  13  14
ATOM     14  C   UNL     1     -11.125 -11.639  -8.347  1.00  0.00    -0.000 C 
BRANCH  14  15
ATOM     15  C   UNL     1     -10.188 -10.998  -9.387  1.00  0.00    -0.000 C 
BRANCH  15  16
ATOM     16  C   UNL     1     -10.658 -11.261 -10.834  1.00  0.00    -0.000 C 
BRANCH  16  17
ATOM     17  C   UNL     1      -9.535 -11.143 -11.877  1.00  0.00    -0.003 C 
ATOM     18  C   UNL     1      -9.539  -9.804 -12.613  1.00  0.00     0.004 C 
ENDBRANCH  16  17
ENDBRANCH  15  16
ENDBRANCH  14  15
ENDBRANCH  13  14
ENDBRANCH  12  13
ENDBRANCH  11  12
ENDBRANCH   1  11
TORSDOF 14
ENDMDL
MODEL 2
REMARK VINA RESULT:     1.373     10.671     13.477
REMARK INTER + INTRA:           1.884
REMARK INTER:                   2.255
REMARK INTRA:                  -0.371
REMARK UNBOUND:                -0.614
REMARK SMILES CCCCCCCCCCCCCCCC(=O)[O-]
REMARK SMILES IDX 9 1 10 2 11 3 12 4 13 5 14 6 15 7 16 8 17 9 18 10 8 11 7 12
REMARK SMILES IDX 6 13 5 14 4 15 3 16 2 17 1 18
REMARK H PARENT
REMARK Flexibility Score: inf
ROOT
ATOM      1  C   UNL     1      -2.423  -5.754 -13.220  1.00  0.00     0.000 C 
ENDROOT
BRANCH   1   2
ATOM      2  C   UNL     1      -1.706  -4.646 -14.011  1.00  0.00     0.000 C 
BRANCH   2   3
ATOM      3  C   UNL     1      -0.178  -4.830 -14.033  1.00  0.00     0.000 C 
BRANCH   3   4
ATOM      4  C   UNL     1       0.569  -3.622 -13.447  1.00  0.00     0.000 C 
BRANCH   4   5
ATOM      5  C   UNL     1       1.929  -3.377 -14.125  1.00  0.00     0.000 C 
BRANCH   5   6
ATOM      6  C   UNL     1       2.773  -2.323 -13.392  1.00  0.00     0.006 C 
BRANCH   6   7
ATOM      7  C   UNL     1       4.145  -2.109 -14.045  1.00  0.00     0.053 C 
BRANCH   7   8
ATOM      8  C   UNL     1       5.191  -2.909 -13.336  1.00  0.00     0.041 C 
ATOM      9  O   UNL     1       6.128  -3.444 -13.986  1.00  0.00    -0.550 OA
ATOM     10  O   UNL     1       5.105  -3.107 -11.965  1.00  0.00    -0.550 OA
ENDBRANCH   7   8
ENDBRANCH   6   7
ENDBRANCH   5   6
ENDBRANCH   4   5
ENDBRANCH   3   4
ENDBRANCH   2   3
ENDBRANCH   1   2
BRANCH   1  11
ATOM     11  C   UNL     1      -3.301  -6.644 -14.117  1.00  0.00     0.000 C 
BRANCH  11  12
ATOM     12  C   UNL     1      -4.319  -7.471 -13.313  1.00  0.00    -0.000 C 
BRANCH  12  13
ATOM     13  C   UNL     1      -4.633  -8.825 -13.971  1.00  0.00    -0.000 C 
BRANCH  13  14
ATOM     14  C   UNL     1      -5.811  -9.550 -13.301  1.00  0.00    -0.000 C 
BRANCH  14  15
ATOM     15  C   UNL     1      -6.314 -10.752 -14.120  1.00  0.00    -0.000 C 
BRANCH  15  16
ATOM     16  C   UNL     1      -7.725 -11.204 -13.684  1.00  0.00    -0.000 C 
BRANCH  16  17
ATOM     17  C   UNL     1      -7.853 -11.449 -12.171  1.00  0.00    -0.003 C 
ATOM     18  C   UNL     1      -9.052 -10.737 -11.549  1.00  0.00     0.004 C 
ENDBRANCH  16  17
ENDBRANCH  15  16
ENDBRANCH  14  15
ENDBRANCH  13  14
ENDBRANCH  12  13
ENDBRANCH  11  12
ENDBRANCH   1  11
TORSDOF 14
ENDMDL
