MODEL 1
REMARK VINA RESULT:    -4.217      0.000      0.000
REMARK INTER + INTRA:          -6.425
REMARK INTER:                  -6.436
REMARK INTRA:                   0.011
REMARK UNBOUND:                 0.011
REMARK SMILES CC1=CCC[C@@H](C)C(=O)C[C@H](C(C)C)C(=O)C1
REMARK SMILES IDX 8 1 9 2 6 3 7 4 5 5 4 6 3 7 2 8 1 9 10 11 11 12 15 13 16 14
REMARK SMILES IDX 17 15 12 17 13 18 14 19
REMARK H PARENT
REMARK Flexibility Score: 70.00
ROOT
ATOM      1  C   UNL     1     -41.087  17.040  16.372  1.00  0.00     0.136 C 
ATOM      2  O   UNL     1     -41.295  16.369  17.372  1.00  0.00    -0.299 OA
ENDROOT
BRANCH   1   3
ATOM      3  C   UNL     1     -42.139  18.044  15.933  1.00  0.00     0.053 C 
ATOM      4  C   UNL     1     -43.403  17.923  16.795  1.00  0.00     0.016 C 
BRANCH   3   5
ATOM      5  C   UNL     1     -42.466  17.892  14.434  1.00  0.00     0.015 C 
BRANCH   5   6
ATOM      6  C   UNL     1     -41.976  19.101  13.613  1.00  0.00     0.028 C 
BRANCH   6   7
ATOM      7  C   UNL     1     -41.645  18.709  12.196  1.00  0.00    -0.028 C 
ATOM      8  C   UNL     1     -40.518  18.063  11.819  1.00  0.00    -0.070 CG0
ATOM      9  C   UNL     1     -40.349  17.722  10.360  1.00  0.00     0.039 C 
ATOM     10  G   UNL     1     -39.421  17.659  12.791  1.00  0.00     0.000 G0
ENDBRANCH   6   7
ENDBRANCH   5   6
ENDBRANCH   3   5
ENDBRANCH   1   3
BRANCH   1  11
ATOM     11  C   UNL     1     -39.828  16.800  15.563  1.00  0.00     0.087 C 
BRANCH  11  12
ATOM     12  C   UNL     1     -39.918  15.667  14.506  1.00  0.00     0.066 C 
BRANCH  12  13
ATOM     13  C   UNL     1     -39.454  16.167  13.143  1.00  0.00     0.140 C 
ATOM     14  O   UNL     1     -39.074  15.344  12.322  1.00  0.00    -0.299 OA
BRANCH  13  15
ATOM     15  C   UNL     1     -39.405  17.638  12.791  1.00  0.00     0.106 CG0
ATOM     16  G   UNL     1     -40.519  18.046  11.840  1.00  0.00     0.000 G0
ENDBRANCH  13  15
ENDBRANCH  12  13
BRANCH  12  17
ATOM     17  C   UNL     1     -39.276  14.302  14.921  1.00  0.00    -0.006 C 
ATOM     18  C   UNL     1     -40.293  13.427  15.678  1.00  0.00     0.008 C 
ATOM     19  C   UNL     1     -38.034  14.486  15.814  1.00  0.00     0.008 C 
ENDBRANCH  12  17
ENDBRANCH  11  12
ENDBRANCH   1  11
TORSDOF 1
ENDMDL
MODEL 2
REMARK VINA RESULT:    -4.167      1.601      3.912
REMARK INTER + INTRA:          -6.348
REMARK INTER:                  -6.136
REMARK INTRA:                  -0.212
REMARK UNBOUND:                 0.011
REMARK SMILES CC1=CCC[C@@H](C)C(=O)C[C@H](C(C)C)C(=O)C1
REMARK SMILES IDX 8 1 9 2 6 3 7 4 5 5 4 6 3 7 2 8 1 9 10 11 11 12 15 13 16 14
REMARK SMILES IDX 17 15 12 17 13 18 14 19
REMARK H PARENT
REMARK Flexibility Score: 70.00
ROOT
ATOM      1  C   UNL     1     -40.340  16.036  15.979  1.00  0.00     0.136 C 
ATOM      2  O   UNL     1     -39.940  16.309  17.100  1.00  0.00    -0.299 OA
ENDROOT
BRANCH   1   3
ATOM      3  C   UNL     1     -39.437  15.239  15.054  1.00  0.00     0.053 C 
ATOM      4  C   UNL     1     -39.285  13.794  15.549  1.00  0.00     0.016 C 
BRANCH   3   5
ATOM      5  C   UNL     1     -38.064  15.921  14.888  1.00  0.00     0.015 C 
BRANCH   5   6
ATOM      6  C   UNL     1     -38.115  17.077  13.870  1.00  0.00     0.028 C 
BRANCH   6   7
ATOM      7  C   UNL     1     -38.921  16.706  12.652  1.00  0.00    -0.028 C 
ATOM      8  C   UNL     1     -39.998  17.390  12.204  1.00  0.00    -0.070 CG0
ATOM      9  C   UNL     1     -40.682  16.900  10.952  1.00  0.00     0.039 C 
ATOM     10  G   UNL     1     -40.549  18.628  12.894  1.00  0.00     0.000 G0
ENDBRANCH   6   7
ENDBRANCH   5   6
ENDBRANCH   3   5
ENDBRANCH   1   3
BRANCH   1  11
ATOM     11  C   UNL     1     -41.685  16.561  15.518  1.00  0.00     0.087 C 
BRANCH  11  12
ATOM     12  C   UNL     1     -41.742  18.083  15.220  1.00  0.00     0.066 C 
BRANCH  12  13
ATOM     13  C   UNL     1     -41.800  18.334  13.718  1.00  0.00     0.140 C 
ATOM     14  O   UNL     1     -42.884  18.254  13.157  1.00  0.00    -0.299 OA
BRANCH  13  15
ATOM     15  C   UNL     1     -40.564  18.629  12.896  1.00  0.00     0.106 CG0
ATOM     16  G   UNL     1     -39.998  17.386  12.227  1.00  0.00     0.000 G0
ENDBRANCH  13  15
ENDBRANCH  12  13
BRANCH  12  17
ATOM     17  C   UNL     1     -42.811  18.892  16.028  1.00  0.00    -0.006 C 
ATOM     18  C   UNL     1     -42.178  19.543  17.272  1.00  0.00     0.008 C 
ATOM     19  C   UNL     1     -43.989  18.012  16.486  1.00  0.00     0.008 C 
ENDBRANCH  12  17
ENDBRANCH  11  12
ENDBRANCH   1  11
TORSDOF 1
ENDMDL
MODEL 3
REMARK VINA RESULT:    -4.023      1.937      4.261
REMARK INTER + INTRA:          -6.129
REMARK INTER:                  -6.003
REMARK INTRA:                  -0.126
REMARK UNBOUND:                 0.011
REMARK SMILES CC1=CCC[C@@H](C)C(=O)C[C@H](C(C)C)C(=O)C1
REMARK SMILES IDX 8 1 9 2 6 3 7 4 5 5 4 6 3 7 2 8 1 9 10 11 11 12 15 13 16 14
REMARK SMILES IDX 17 15 12 17 13 18 14 19
REMARK H PARENT
REMARK Flexibility Score: 70.00
ROOT
ATOM      1  C   UNL     1     -42.215  18.807  13.604  1.00  0.00     0.136 C 
ATOM      2  O   UNL     1     -42.314  19.922  13.115  1.00  0.00    -0.299 OA
ENDROOT
BRANCH   1   3
ATOM      3  C   UNL     1     -42.781  18.565  14.993  1.00  0.00     0.053 C 
ATOM      4  C   UNL     1     -42.219  19.581  15.997  1.00  0.00     0.016 C 
BRANCH   3   5
ATOM      5  C   UNL     1     -42.524  17.118  15.458  1.00  0.00     0.015 C 
BRANCH   5   6
ATOM      6  C   UNL     1     -41.199  16.989  16.236  1.00  0.00     0.028 C 
BRANCH   6   7
ATOM      7  C   UNL     1     -40.611  15.609  16.103  1.00  0.00    -0.028 C 
ATOM      8  C   UNL     1     -39.497  15.312  15.394  1.00  0.00    -0.070 CG0
ATOM      9  C   UNL     1     -39.025  13.880  15.381  1.00  0.00     0.039 C 
ATOM     10  G   UNL     1     -38.698  16.347  14.619  1.00  0.00     0.000 G0
ENDBRANCH   6   7
ENDBRANCH   5   6
ENDBRANCH   3   5
ENDBRANCH   1   3
BRANCH   1  11
ATOM     11  C   UNL     1     -41.470  17.724  12.849  1.00  0.00     0.087 C 
BRANCH  11  12
ATOM     12  C   UNL     1     -39.926  17.874  12.815  1.00  0.00     0.066 C 
BRANCH  12  13
ATOM     13  C   UNL     1     -39.251  16.565  13.206  1.00  0.00     0.140 C 
ATOM     14  O   UNL     1     -39.198  15.669  12.376  1.00  0.00    -0.299 OA
BRANCH  13  15
ATOM     15  C   UNL     1     -38.690  16.322  14.591  1.00  0.00     0.106 CG0
ATOM     16  G   UNL     1     -39.509  15.314  15.382  1.00  0.00     0.000 G0
ENDBRANCH  13  15
ENDBRANCH  12  13
BRANCH  12  17
ATOM     17  C   UNL     1     -39.336  18.515  11.514  1.00  0.00    -0.006 C 
ATOM     18  C   UNL     1     -38.721  19.895  11.816  1.00  0.00     0.008 C 
ATOM     19  C   UNL     1     -40.398  18.687  10.413  1.00  0.00     0.008 C 
ENDBRANCH  12  17
ENDBRANCH  11  12
ENDBRANCH   1  11
TORSDOF 1
ENDMDL
MODEL 4
REMARK VINA RESULT:    -3.983      1.877      4.395
REMARK INTER + INTRA:          -6.068
REMARK INTER:                  -6.033
REMARK INTRA:                  -0.034
REMARK UNBOUND:                 0.011
REMARK SMILES CC1=CCC[C@@H](C)C(=O)C[C@H](C(C)C)C(=O)C1
REMARK SMILES IDX 8 1 9 2 6 3 7 4 5 5 4 6 3 7 2 8 1 9 10 11 11 12 15 13 16 14
REMARK SMILES IDX 17 15 12 17 13 18 14 19
REMARK H PARENT
REMARK Flexibility Score: 70.00
ROOT
ATOM      1  C   UNL     1     -39.321  15.641  14.019  1.00  0.00     0.136 C 
ATOM      2  O   UNL     1     -39.358  14.782  13.152  1.00  0.00    -0.299 OA
ENDROOT
BRANCH   1   3
ATOM      3  C   UNL     1     -39.353  15.212  15.475  1.00  0.00     0.053 C 
ATOM      4  C   UNL     1     -40.209  13.951  15.655  1.00  0.00     0.016 C 
BRANCH   3   5
ATOM      5  C   UNL     1     -39.843  16.355  16.386  1.00  0.00     0.015 C 
BRANCH   5   6
ATOM      6  C   UNL     1     -41.379  16.483  16.374  1.00  0.00     0.028 C 
BRANCH   6   7
ATOM      7  C   UNL     1     -41.814  17.924  16.439  1.00  0.00    -0.028 C 
ATOM      8  C   UNL     1     -42.292  18.632  15.390  1.00  0.00    -0.070 CG0
ATOM      9  C   UNL     1     -42.708  20.062  15.628  1.00  0.00     0.039 C 
ATOM     10  G   UNL     1     -42.436  18.059  13.989  1.00  0.00     0.000 G0
ENDBRANCH   6   7
ENDBRANCH   5   6
ENDBRANCH   3   5
ENDBRANCH   1   3
BRANCH   1  11
ATOM     11  C   UNL     1     -39.319  17.103  13.620  1.00  0.00     0.087 C 
BRANCH  11  12
ATOM     12  C   UNL     1     -40.320  17.492  12.500  1.00  0.00     0.066 C 
BRANCH  12  13
ATOM     13  C   UNL     1     -41.363  18.470  13.029  1.00  0.00     0.140 C 
ATOM     14  O   UNL     1     -41.284  19.643  12.689  1.00  0.00    -0.299 OA
BRANCH  13  15
ATOM     15  C   UNL     1     -42.456  18.052  13.988  1.00  0.00     0.106 CG0
ATOM     16  G   UNL     1     -42.268  18.640  15.377  1.00  0.00     0.000 G0
ENDBRANCH  13  15
ENDBRANCH  12  13
BRANCH  12  17
ATOM     17  C   UNL     1     -39.679  17.938  11.143  1.00  0.00    -0.006 C 
ATOM     18  C   UNL     1     -39.721  16.790  10.117  1.00  0.00     0.008 C 
ATOM     19  C   UNL     1     -38.216  18.390  11.307  1.00  0.00     0.008 C 
ENDBRANCH  12  17
ENDBRANCH  11  12
ENDBRANCH   1  11
TORSDOF 1
ENDMDL
MODEL 5
REMARK VINA RESULT:    -3.836      1.628      4.007
REMARK INTER + INTRA:          -5.843
REMARK INTER:                  -5.886
REMARK INTRA:                   0.043
REMARK UNBOUND:                 0.011
REMARK SMILES CC1=CCC[C@@H](C)C(=O)C[C@H](C(C)C)C(=O)C1
REMARK SMILES IDX 8 1 9 2 6 3 7 4 5 5 4 6 3 7 2 8 1 9 10 11 11 12 15 13 16 14
REMARK SMILES IDX 17 15 12 17 13 18 14 19
REMARK H PARENT
REMARK Flexibility Score: 70.00
ROOT
ATOM      1  C   UNL     1     -38.809  17.179  12.963  1.00  0.00     0.136 C 
ATOM      2  O   UNL     1     -37.677  17.442  13.338  1.00  0.00    -0.299 OA
ENDROOT
BRANCH   1   3
ATOM      3  C   UNL     1     -39.375  17.924  11.767  1.00  0.00     0.053 C 
ATOM      4  C   UNL     1     -38.251  18.392  10.833  1.00  0.00     0.016 C 
BRANCH   3   5
ATOM      5  C   UNL     1     -40.263  19.104  12.210  1.00  0.00     0.015 C 
BRANCH   5   6
ATOM      6  C   UNL     1     -41.689  18.647  12.574  1.00  0.00     0.028 C 
BRANCH   6   7
ATOM      7  C   UNL     1     -42.140  19.235  13.886  1.00  0.00    -0.028 C 
ATOM      8  C   UNL     1     -42.293  18.533  15.032  1.00  0.00    -0.070 CG0
ATOM      9  C   UNL     1     -42.731  19.278  16.268  1.00  0.00     0.039 C 
ATOM     10  G   UNL     1     -42.038  17.038  15.139  1.00  0.00     0.000 G0
ENDBRANCH   6   7
ENDBRANCH   5   6
ENDBRANCH   3   5
ENDBRANCH   1   3
BRANCH   1  11
ATOM     11  C   UNL     1     -39.639  16.178  13.742  1.00  0.00     0.087 C 
BRANCH  11  12
ATOM     12  C   UNL     1     -39.478  16.233  15.285  1.00  0.00     0.066 C 
BRANCH  12  13
ATOM     13  C   UNL     1     -40.765  16.720  15.941  1.00  0.00     0.140 C 
ATOM     14  O   UNL     1     -40.789  16.834  17.159  1.00  0.00    -0.299 OA
BRANCH  13  15
ATOM     15  C   UNL     1     -42.018  17.021  15.147  1.00  0.00     0.106 CG0
ATOM     16  G   UNL     1     -42.287  18.513  15.028  1.00  0.00     0.000 G0
ENDBRANCH  13  15
ENDBRANCH  12  13
BRANCH  12  17
ATOM     17  C   UNL     1     -38.888  14.946  15.951  1.00  0.00    -0.006 C 
ATOM     18  C   UNL     1     -37.360  14.886  15.765  1.00  0.00     0.008 C 
ATOM     19  C   UNL     1     -39.499  13.655  15.375  1.00  0.00     0.008 C 
ENDBRANCH  12  17
ENDBRANCH  11  12
ENDBRANCH   1  11
TORSDOF 1
ENDMDL
MODEL 6
REMARK VINA RESULT:    -3.743      2.772      5.233
REMARK INTER + INTRA:          -5.701
REMARK INTER:                  -5.440
REMARK INTRA:                  -0.261
REMARK UNBOUND:                 0.011
REMARK SMILES CC1=CCC[C@@H](C)C(=O)C[C@H](C(C)C)C(=O)C1
REMARK SMILES IDX 8 1 9 2 6 3 7 4 5 5 4 6 3 7 2 8 1 9 10 11 11 12 15 13 16 14
REMARK SMILES IDX 17 15 12 17 13 18 14 19
REMARK H PARENT
REMARK Flexibility Score: 70.00
ROOT
ATOM      1  C   UNL     1     -38.361  15.226  10.317  1.00  0.00     0.136 C 
ATOM      2  O   UNL     1     -37.938  14.095  10.504  1.00  0.00    -0.299 OA
ENDROOT
BRANCH   1   3
ATOM      3  C   UNL     1     -37.655  16.113   9.307  1.00  0.00     0.053 C 
ATOM      4  C   UNL     1     -37.325  15.331   8.029  1.00  0.00     0.016 C 
BRANCH   3   5
ATOM      5  C   UNL     1     -36.392  16.756   9.913  1.00  0.00     0.015 C 
BRANCH   5   6
ATOM      6  C   UNL     1     -36.583  18.261  10.182  1.00  0.00     0.028 C 
BRANCH   6   7
ATOM      7  C   UNL     1     -37.792  18.802   9.463  1.00  0.00    -0.028 C 
ATOM      8  C   UNL     1     -38.907  19.264  10.072  1.00  0.00    -0.070 CG0
ATOM      9  C   UNL     1     -40.022  19.796   9.206  1.00  0.00     0.039 C 
ATOM     10  G   UNL     1     -39.091  19.281  11.581  1.00  0.00     0.000 G0
ENDBRANCH   6   7
ENDBRANCH   5   6
ENDBRANCH   3   5
ENDBRANCH   1   3
BRANCH   1  11
ATOM     11  C   UNL     1     -39.523  15.733  11.147  1.00  0.00     0.087 C 
BRANCH  11  12
ATOM     12  C   UNL     1     -39.149  16.704  12.298  1.00  0.00     0.066 C 
BRANCH  12  13
ATOM     13  C   UNL     1     -39.836  18.052  12.108  1.00  0.00     0.140 C 
ATOM     14  O   UNL     1     -41.034  18.131  12.341  1.00  0.00    -0.299 OA
BRANCH  13  15
ATOM     15  C   UNL     1     -39.101  19.273  11.599  1.00  0.00     0.106 CG0
ATOM     16  G   UNL     1     -38.912  19.253  10.090  1.00  0.00     0.000 G0
ENDBRANCH  13  15
ENDBRANCH  12  13
BRANCH  12  17
ATOM     17  C   UNL     1     -39.298  16.128  13.746  1.00  0.00    -0.006 C 
ATOM     18  C   UNL     1     -38.021  16.382  14.569  1.00  0.00     0.008 C 
ATOM     19  C   UNL     1     -39.586  14.616  13.748  1.00  0.00     0.008 C 
ENDBRANCH  12  17
ENDBRANCH  11  12
ENDBRANCH   1  11
TORSDOF 1
ENDMDL
MODEL 7
REMARK VINA RESULT:    -3.602      3.312      5.437
REMARK INTER + INTRA:          -5.486
REMARK INTER:                  -5.641
REMARK INTRA:                   0.155
REMARK UNBOUND:                 0.011
REMARK SMILES CC1=CCC[C@@H](C)C(=O)C[C@H](C(C)C)C(=O)C1
REMARK SMILES IDX 8 1 9 2 6 3 7 4 5 5 4 6 3 7 2 8 1 9 10 11 11 12 15 13 16 14
REMARK SMILES IDX 17 15 12 17 13 18 14 19
REMARK H PARENT
REMARK Flexibility Score: 70.00
ROOT
ATOM      1  C   UNL     1     -39.369  15.225  11.028  1.00  0.00     0.136 C 
ATOM      2  O   UNL     1     -40.341  14.495  10.908  1.00  0.00    -0.299 OA
ENDROOT
BRANCH   1   3
ATOM      3  C   UNL     1     -39.470  16.431  11.947  1.00  0.00     0.053 C 
ATOM      4  C   UNL     1     -39.895  16.007  13.360  1.00  0.00     0.016 C 
BRANCH   3   5
ATOM      5  C   UNL     1     -40.425  17.495  11.371  1.00  0.00     0.015 C 
BRANCH   5   6
ATOM      6  C   UNL     1     -39.681  18.790  10.990  1.00  0.00     0.028 C 
BRANCH   6   7
ATOM      7  C   UNL     1     -38.507  19.042  11.900  1.00  0.00    -0.028 C 
ATOM      8  C   UNL     1     -37.210  18.905  11.540  1.00  0.00    -0.070 CG0
ATOM      9  C   UNL     1     -36.151  19.219  12.566  1.00  0.00     0.039 C 
ATOM     10  G   UNL     1     -36.769  18.456  10.156  1.00  0.00     0.000 G0
ENDBRANCH   6   7
ENDBRANCH   5   6
ENDBRANCH   3   5
ENDBRANCH   1   3
BRANCH   1  11
ATOM     11  C   UNL     1     -38.125  14.954  10.207  1.00  0.00     0.087 C 
BRANCH  11  12
ATOM     12  C   UNL     1     -37.659  16.119   9.295  1.00  0.00     0.066 C 
BRANCH  12  13
ATOM     13  C   UNL     1     -36.612  16.970  10.004  1.00  0.00     0.140 C 
ATOM     14  O   UNL     1     -35.649  16.406  10.506  1.00  0.00    -0.299 OA
BRANCH  13  15
ATOM     15  C   UNL     1     -36.745  18.471  10.147  1.00  0.00     0.106 CG0
ATOM     16  G   UNL     1     -37.206  18.884  11.536  1.00  0.00     0.000 G0
ENDBRANCH  13  15
ENDBRANCH  12  13
BRANCH  12  17
ATOM     17  C   UNL     1     -37.252  15.718   7.837  1.00  0.00    -0.006 C 
ATOM     18  C   UNL     1     -36.878  14.226   7.766  1.00  0.00     0.008 C 
ATOM     19  C   UNL     1     -36.062  16.543   7.313  1.00  0.00     0.008 C 
ENDBRANCH  12  17
ENDBRANCH  11  12
ENDBRANCH   1  11
TORSDOF 1
ENDMDL
MODEL 8
REMARK VINA RESULT:    -3.585      1.935      4.657
REMARK INTER + INTRA:          -5.460
REMARK INTER:                  -5.700
REMARK INTRA:                   0.239
REMARK UNBOUND:                 0.011
REMARK SMILES CC1=CCC[C@@H](C)C(=O)C[C@H](C(C)C)C(=O)C1
REMARK SMILES IDX 8 1 9 2 6 3 7 4 5 5 4 6 3 7 2 8 1 9 10 11 11 12 15 13 16 14
REMARK SMILES IDX 17 15 12 17 13 18 14 19
REMARK H PARENT
REMARK Flexibility Score: 70.00
ROOT
ATOM      1  C   UNL     1     -41.801  18.482  13.712  1.00  0.00     0.136 C 
ATOM      2  O   UNL     1     -42.849  18.005  13.304  1.00  0.00    -0.299 OA
ENDROOT
BRANCH   1   3
ATOM      3  C   UNL     1     -40.722  18.843  12.706  1.00  0.00     0.053 C 
ATOM      4  C   UNL     1     -41.270  18.793  11.274  1.00  0.00     0.016 C 
BRANCH   3   5
ATOM      5  C   UNL     1     -39.485  17.936  12.863  1.00  0.00     0.015 C 
BRANCH   5   6
ATOM      6  C   UNL     1     -39.869  16.445  12.935  1.00  0.00     0.028 C 
BRANCH   6   7
ATOM      7  C   UNL     1     -38.926  15.673  13.820  1.00  0.00    -0.028 C 
ATOM      8  C   UNL     1     -39.263  15.118  15.007  1.00  0.00    -0.070 CG0
ATOM      9  C   UNL     1     -38.204  14.355  15.761  1.00  0.00     0.039 C 
ATOM     10  G   UNL     1     -40.654  15.220  15.612  1.00  0.00     0.000 G0
ENDBRANCH   6   7
ENDBRANCH   5   6
ENDBRANCH   3   5
ENDBRANCH   1   3
BRANCH   1  11
ATOM     11  C   UNL     1     -41.580  18.631  15.204  1.00  0.00     0.087 C 
BRANCH  11  12
ATOM     12  C   UNL     1     -42.059  17.437  16.072  1.00  0.00     0.066 C 
BRANCH  12  13
ATOM     13  C   UNL     1     -40.899  16.497  16.379  1.00  0.00     0.140 C 
ATOM     14  O   UNL     1     -40.105  16.820  17.252  1.00  0.00    -0.299 OA
BRANCH  13  15
ATOM     15  C   UNL     1     -40.673  15.211  15.615  1.00  0.00     0.106 CG0
ATOM     16  G   UNL     1     -39.275  15.123  15.024  1.00  0.00     0.000 G0
ENDBRANCH  13  15
ENDBRANCH  12  13
BRANCH  12  17
ATOM     17  C   UNL     1     -42.906  17.815  17.334  1.00  0.00    -0.006 C 
ATOM     18  C   UNL     1     -44.327  18.250  16.928  1.00  0.00     0.008 C 
ATOM     19  C   UNL     1     -42.264  18.951  18.151  1.00  0.00     0.008 C 
ENDBRANCH  12  17
ENDBRANCH  11  12
ENDBRANCH   1  11
TORSDOF 1
ENDMDL
MODEL 9
REMARK VINA RESULT:    -3.391      2.258      4.212
REMARK INTER + INTRA:          -5.165
REMARK INTER:                  -5.749
REMARK INTRA:                   0.584
REMARK UNBOUND:                 0.011
REMARK SMILES CC1=CCC[C@@H](C)C(=O)C[C@H](C(C)C)C(=O)C1
REMARK SMILES IDX 8 1 9 2 6 3 7 4 5 5 4 6 3 7 2 8 1 9 10 11 11 12 15 13 16 14
REMARK SMILES IDX 17 15 12 17 13 18 14 19
REMARK H PARENT
REMARK Flexibility Score: 70.00
ROOT
ATOM      1  C   UNL     1     -37.086  17.532  12.483  1.00  0.00     0.136 C 
ATOM      2  O   UNL     1     -36.292  16.750  11.983  1.00  0.00    -0.299 OA
ENDROOT
BRANCH   1   3
ATOM      3  C   UNL     1     -37.042  18.989  12.058  1.00  0.00     0.053 C 
ATOM      4  C   UNL     1     -36.095  19.794  12.959  1.00  0.00     0.016 C 
BRANCH   3   5
ATOM      5  C   UNL     1     -38.453  19.609  12.035  1.00  0.00     0.015 C 
BRANCH   5   6
ATOM      6  C   UNL     1     -39.070  19.584  10.623  1.00  0.00     0.028 C 
BRANCH   6   7
ATOM      7  C   UNL     1     -38.434  18.525   9.760  1.00  0.00    -0.028 C 
ATOM      8  C   UNL     1     -38.849  17.239   9.688  1.00  0.00    -0.070 CG0
ATOM      9  C   UNL     1     -38.116  16.307   8.755  1.00  0.00     0.039 C 
ATOM     10  G   UNL     1     -40.016  16.690  10.493  1.00  0.00     0.000 G0
ENDBRANCH   6   7
ENDBRANCH   5   6
ENDBRANCH   3   5
ENDBRANCH   1   3
BRANCH   1  11
ATOM     11  C   UNL     1     -38.035  17.045  13.560  1.00  0.00     0.087 C 
BRANCH  11  12
ATOM     12  C   UNL     1     -39.506  16.840  13.111  1.00  0.00     0.066 C 
BRANCH  12  13
ATOM     13  C   UNL     1     -39.564  16.054  11.806  1.00  0.00     0.140 C 
ATOM     14  O   UNL     1     -39.200  14.887  11.815  1.00  0.00    -0.299 OA
BRANCH  13  15
ATOM     15  C   UNL     1     -40.010  16.678  10.501  1.00  0.00     0.106 CG0
ATOM     16  G   UNL     1     -38.848  17.244   9.700  1.00  0.00     0.000 G0
ENDBRANCH  13  15
ENDBRANCH  12  13
BRANCH  12  17
ATOM     17  C   UNL     1     -40.480  16.296  14.209  1.00  0.00    -0.006 C 
ATOM     18  C   UNL     1     -41.155  17.457  14.964  1.00  0.00     0.008 C 
ATOM     19  C   UNL     1     -39.763  15.401  15.237  1.00  0.00     0.008 C 
ENDBRANCH  12  17
ENDBRANCH  11  12
ENDBRANCH   1  11
TORSDOF 1
ENDMDL
