MODEL 1
REMARK VINA RESULT:    -7.940      0.000      0.000
REMARK INTER + INTRA:          -8.172
REMARK INTER:                  -8.172
REMARK INTRA:                   0.000
REMARK UNBOUND:                 0.000
REMARK SMILES O=c1ccc2ccc(O)cc2o1
REMARK SMILES IDX 6 1 7 2 8 3 10 4 11 5 5 6 4 7 3 8 2 9 1 10 12 11 9 12
REMARK H PARENT 9 13
REMARK Flexibility Score: inf
ROOT
ATOM      1  C   UNL     1      34.406  25.190  19.369  1.00  0.00     0.016 A 
ATOM      2  C   UNL     1      34.296  25.989  20.511  1.00  0.00     0.047 A 
ATOM      3  C   UNL     1      33.739  27.275  20.424  1.00  0.00     0.119 A 
ATOM      4  C   UNL     1      33.292  27.760  19.190  1.00  0.00     0.094 A 
ATOM      5  C   UNL     1      33.399  26.967  18.042  1.00  0.00     0.142 A 
ATOM      6  C   UNL     1      33.959  25.673  18.131  1.00  0.00     0.018 A 
ATOM      7  C   UNL     1      34.051  24.905  16.967  1.00  0.00     0.019 A 
ATOM      8  C   UNL     1      33.591  25.432  15.760  1.00  0.00     0.094 A 
ATOM      9  C   UNL     1      33.048  26.721  15.747  1.00  0.00     0.336 A 
ATOM     10  O   UNL     1      32.628  27.215  14.668  1.00  0.00    -0.246 OA
ATOM     11  O   UNL     1      32.972  27.432  16.870  1.00  0.00    -0.423 OA
ENDROOT
BRANCH   3  12
ATOM     12  O   UNL     1      33.628  28.076  21.558  1.00  0.00    -0.508 OA
ATOM     13  H   UNL     1      34.312  28.038  22.304  1.00  0.00     0.293 HD
ENDBRANCH   3  12
TORSDOF 1
ENDMDL
MODEL 2
REMARK VINA RESULT:    -7.867      0.797      4.220
REMARK INTER + INTRA:          -8.097
REMARK INTER:                  -8.097
REMARK INTRA:                   0.000
REMARK UNBOUND:                 0.000
REMARK SMILES O=c1ccc2ccc(O)cc2o1
REMARK SMILES IDX 6 1 7 2 8 3 10 4 11 5 5 6 4 7 3 8 2 9 1 10 12 11 9 12
REMARK H PARENT 9 13
REMARK Flexibility Score: inf
ROOT
ATOM      1  C   UNL     1      34.028  24.899  17.065  1.00  0.00     0.016 A 
ATOM      2  C   UNL     1      33.592  25.393  15.831  1.00  0.00     0.047 A 
ATOM      3  C   UNL     1      33.084  26.697  15.731  1.00  0.00     0.119 A 
ATOM      4  C   UNL     1      33.012  27.508  16.869  1.00  0.00     0.094 A 
ATOM      5  C   UNL     1      33.446  27.022  18.108  1.00  0.00     0.142 A 
ATOM      6  C   UNL     1      33.958  25.709  18.207  1.00  0.00     0.018 A 
ATOM      7  C   UNL     1      34.383  25.253  19.458  1.00  0.00     0.019 A 
ATOM      8  C   UNL     1      34.292  26.099  20.563  1.00  0.00     0.094 A 
ATOM      9  C   UNL     1      33.775  27.388  20.389  1.00  0.00     0.336 A 
ATOM     10  O   UNL     1      33.684  28.166  21.374  1.00  0.00    -0.246 OA
ATOM     11  O   UNL     1      33.376  27.797  19.187  1.00  0.00    -0.423 OA
ENDROOT
BRANCH   3  12
ATOM     12  O   UNL     1      32.647  27.194  14.505  1.00  0.00    -0.508 OA
ATOM     13  H   UNL     1      32.800  28.159  14.239  1.00  0.00     0.293 HD
ENDBRANCH   3  12
TORSDOF 1
ENDMDL
MODEL 3
REMARK VINA RESULT:    -7.357      1.204      1.551
REMARK INTER + INTRA:          -7.572
REMARK INTER:                  -7.572
REMARK INTRA:                   0.000
REMARK UNBOUND:                 0.000
REMARK SMILES O=c1ccc2ccc(O)cc2o1
REMARK SMILES IDX 6 1 7 2 8 3 10 4 11 5 5 6 4 7 3 8 2 9 1 10 12 11 9 12
REMARK H PARENT 9 13
REMARK Flexibility Score: inf
ROOT
ATOM      1  C   UNL     1      34.108  24.800  17.930  1.00  0.00     0.016 A 
ATOM      2  C   UNL     1      34.381  24.829  19.302  1.00  0.00     0.047 A 
ATOM      3  C   UNL     1      34.149  25.997  20.045  1.00  0.00     0.119 A 
ATOM      4  C   UNL     1      33.645  27.138  19.412  1.00  0.00     0.094 A 
ATOM      5  C   UNL     1      33.371  27.120  18.040  1.00  0.00     0.142 A 
ATOM      6  C   UNL     1      33.603  25.943  17.294  1.00  0.00     0.018 A 
ATOM      7  C   UNL     1      33.319  25.955  15.925  1.00  0.00     0.019 A 
ATOM      8  C   UNL     1      32.817  27.118  15.340  1.00  0.00     0.094 A 
ATOM      9  C   UNL     1      32.612  28.245  16.142  1.00  0.00     0.336 A 
ATOM     10  O   UNL     1      32.160  29.304  15.632  1.00  0.00    -0.246 OA
ATOM     11  O   UNL     1      32.891  28.208  17.443  1.00  0.00    -0.423 OA
ENDROOT
BRANCH   3  12
ATOM     12  O   UNL     1      34.419  26.031  21.411  1.00  0.00    -0.508 OA
ATOM     13  H   UNL     1      35.368  26.018  21.765  1.00  0.00     0.293 HD
ENDBRANCH   3  12
TORSDOF 1
ENDMDL
MODEL 4
REMARK VINA RESULT:    -7.290      1.891      5.113
REMARK INTER + INTRA:          -7.503
REMARK INTER:                  -7.503
REMARK INTRA:                   0.000
REMARK UNBOUND:                 0.000
REMARK SMILES O=c1ccc2ccc(O)cc2o1
REMARK SMILES IDX 6 1 7 2 8 3 10 4 11 5 5 6 4 7 3 8 2 9 1 10 12 11 9 12
REMARK H PARENT 9 13
REMARK Flexibility Score: inf
ROOT
ATOM      1  C   UNL     1      33.132  27.380  18.578  1.00  0.00     0.016 A 
ATOM      2  C   UNL     1      33.275  26.493  17.507  1.00  0.00     0.047 A 
ATOM      3  C   UNL     1      33.927  25.263  17.688  1.00  0.00     0.119 A 
ATOM      4  C   UNL     1      34.438  24.923  18.946  1.00  0.00     0.094 A 
ATOM      5  C   UNL     1      34.301  25.805  20.024  1.00  0.00     0.142 A 
ATOM      6  C   UNL     1      33.643  27.042  19.839  1.00  0.00     0.018 A 
ATOM      7  C   UNL     1      33.521  27.901  20.935  1.00  0.00     0.019 A 
ATOM      8  C   UNL     1      34.047  27.517  22.169  1.00  0.00     0.094 A 
ATOM      9  C   UNL     1      34.685  26.277  22.277  1.00  0.00     0.336 A 
ATOM     10  O   UNL     1      35.166  25.912  23.382  1.00  0.00    -0.246 OA
ATOM     11  O   UNL     1      34.788  25.477  21.218  1.00  0.00    -0.423 OA
ENDROOT
BRANCH   3  12
ATOM     12  O   UNL     1      34.072  24.376  16.625  1.00  0.00    -0.508 OA
ATOM     13  H   UNL     1      33.635  24.547  15.727  1.00  0.00     0.293 HD
ENDBRANCH   3  12
TORSDOF 1
ENDMDL
MODEL 5
REMARK VINA RESULT:    -7.147      1.747      3.958
REMARK INTER + INTRA:          -7.355
REMARK INTER:                  -7.355
REMARK INTRA:                   0.000
REMARK UNBOUND:                 0.000
REMARK SMILES O=c1ccc2ccc(O)cc2o1
REMARK SMILES IDX 6 1 7 2 8 3 10 4 11 5 5 6 4 7 3 8 2 9 1 10 12 11 9 12
REMARK H PARENT 9 13
REMARK Flexibility Score: inf
ROOT
ATOM      1  C   UNL     1      32.944  26.525  15.461  1.00  0.00     0.016 A 
ATOM      2  C   UNL     1      32.551  27.844  15.214  1.00  0.00     0.047 A 
ATOM      3  C   UNL     1      32.564  28.791  16.250  1.00  0.00     0.119 A 
ATOM      4  C   UNL     1      32.971  28.415  17.535  1.00  0.00     0.094 A 
ATOM      5  C   UNL     1      33.365  27.097  17.791  1.00  0.00     0.142 A 
ATOM      6  C   UNL     1      33.352  26.145  16.748  1.00  0.00     0.018 A 
ATOM      7  C   UNL     1      33.752  24.836  17.035  1.00  0.00     0.019 A 
ATOM      8  C   UNL     1      34.149  24.511  18.331  1.00  0.00     0.094 A 
ATOM      9  C   UNL     1      34.137  25.506  19.314  1.00  0.00     0.336 A 
ATOM     10  O   UNL     1      34.491  25.231  20.490  1.00  0.00    -0.246 OA
ATOM     11  O   UNL     1      33.751  26.745  19.015  1.00  0.00    -0.423 OA
ENDROOT
BRANCH   3  12
ATOM     12  O   UNL     1      32.174  30.107  16.010  1.00  0.00    -0.508 OA
ATOM     13  H   UNL     1      31.201  30.355  15.876  1.00  0.00     0.293 HD
ENDBRANCH   3  12
TORSDOF 1
ENDMDL
MODEL 6
REMARK VINA RESULT:    -7.142      1.027      1.258
REMARK INTER + INTRA:          -7.350
REMARK INTER:                  -7.350
REMARK INTRA:                   0.000
REMARK UNBOUND:                 0.000
REMARK SMILES O=c1ccc2ccc(O)cc2o1
REMARK SMILES IDX 6 1 7 2 8 3 10 4 11 5 5 6 4 7 3 8 2 9 1 10 12 11 9 12
REMARK H PARENT 9 13
REMARK Flexibility Score: inf
ROOT
ATOM      1  C   UNL     1      34.770  25.009  20.441  1.00  0.00     0.016 A 
ATOM      2  C   UNL     1      34.750  25.749  21.627  1.00  0.00     0.047 A 
ATOM      3  C   UNL     1      34.229  27.052  21.639  1.00  0.00     0.119 A 
ATOM      4  C   UNL     1      33.729  27.615  20.459  1.00  0.00     0.094 A 
ATOM      5  C   UNL     1      33.746  26.882  19.267  1.00  0.00     0.142 A 
ATOM      6  C   UNL     1      34.270  25.570  19.257  1.00  0.00     0.018 A 
ATOM      7  C   UNL     1      34.273  24.863  18.051  1.00  0.00     0.019 A 
ATOM      8  C   UNL     1      33.764  25.468  16.902  1.00  0.00     0.094 A 
ATOM      9  C   UNL     1      33.261  26.770  16.987  1.00  0.00     0.336 A 
ATOM     10  O   UNL     1      32.797  27.332  15.961  1.00  0.00    -0.246 OA
ATOM     11  O   UNL     1      33.270  27.422  18.148  1.00  0.00    -0.423 OA
ENDROOT
BRANCH   3  12
ATOM     12  O   UNL     1      34.206  27.795  22.817  1.00  0.00    -0.508 OA
ATOM     13  H   UNL     1      34.290  27.352  23.725  1.00  0.00     0.293 HD
ENDBRANCH   3  12
TORSDOF 1
ENDMDL
MODEL 7
REMARK VINA RESULT:    -6.999      2.412      3.039
REMARK INTER + INTRA:          -7.204
REMARK INTER:                  -7.204
REMARK INTRA:                   0.000
REMARK UNBOUND:                 0.000
REMARK SMILES O=c1ccc2ccc(O)cc2o1
REMARK SMILES IDX 6 1 7 2 8 3 10 4 11 5 5 6 4 7 3 8 2 9 1 10 12 11 9 12
REMARK H PARENT 9 13
REMARK Flexibility Score: inf
ROOT
ATOM      1  C   UNL     1      33.651  27.553  20.105  1.00  0.00     0.016 A 
ATOM      2  C   UNL     1      34.412  27.629  21.276  1.00  0.00     0.047 A 
ATOM      3  C   UNL     1      35.156  26.520  21.709  1.00  0.00     0.119 A 
ATOM      4  C   UNL     1      35.137  25.334  20.968  1.00  0.00     0.094 A 
ATOM      5  C   UNL     1      34.378  25.249  19.794  1.00  0.00     0.142 A 
ATOM      6  C   UNL     1      33.630  26.366  19.360  1.00  0.00     0.018 A 
ATOM      7  C   UNL     1      32.883  26.250  18.184  1.00  0.00     0.019 A 
ATOM      8  C   UNL     1      32.896  25.046  17.480  1.00  0.00     0.094 A 
ATOM      9  C   UNL     1      33.661  23.982  17.970  1.00  0.00     0.336 A 
ATOM     10  O   UNL     1      33.686  22.888  17.349  1.00  0.00    -0.246 OA
ATOM     11  O   UNL     1      34.364  24.119  19.093  1.00  0.00    -0.423 OA
ENDROOT
BRANCH   3  12
ATOM     12  O   UNL     1      35.915  26.589  22.875  1.00  0.00    -0.508 OA
ATOM     13  H   UNL     1      36.754  26.035  22.996  1.00  0.00     0.293 HD
ENDBRANCH   3  12
TORSDOF 1
ENDMDL
MODEL 8
REMARK VINA RESULT:    -6.885      1.792      3.579
REMARK INTER + INTRA:          -7.087
REMARK INTER:                  -7.087
REMARK INTRA:                   0.000
REMARK UNBOUND:                 0.000
REMARK SMILES O=c1ccc2ccc(O)cc2o1
REMARK SMILES IDX 6 1 7 2 8 3 10 4 11 5 5 6 4 7 3 8 2 9 1 10 12 11 9 12
REMARK H PARENT 9 13
REMARK Flexibility Score: inf
ROOT
ATOM      1  C   UNL     1      34.248  25.822  20.021  1.00  0.00     0.016 A 
ATOM      2  C   UNL     1      34.349  24.659  19.252  1.00  0.00     0.047 A 
ATOM      3  C   UNL     1      33.827  24.625  17.950  1.00  0.00     0.119 A 
ATOM      4  C   UNL     1      33.202  25.758  17.418  1.00  0.00     0.094 A 
ATOM      5  C   UNL     1      33.097  26.927  18.181  1.00  0.00     0.142 A 
ATOM      6  C   UNL     1      33.624  26.960  19.492  1.00  0.00     0.018 A 
ATOM      7  C   UNL     1      33.503  28.141  20.229  1.00  0.00     0.019 A 
ATOM      8  C   UNL     1      32.872  29.245  19.654  1.00  0.00     0.094 A 
ATOM      9  C   UNL     1      32.375  29.140  18.351  1.00  0.00     0.336 A 
ATOM     10  O   UNL     1      31.802  30.125  17.816  1.00  0.00    -0.246 OA
ATOM     11  O   UNL     1      32.502  28.003  17.671  1.00  0.00    -0.423 OA
ENDROOT
BRANCH   3  12
ATOM     12  O   UNL     1      33.923  23.469  17.179  1.00  0.00    -0.508 OA
ATOM     13  H   UNL     1      33.574  22.578  17.513  1.00  0.00     0.293 HD
ENDBRANCH   3  12
TORSDOF 1
ENDMDL
