MODEL 1
REMARK VINA RESULT:    -5.235      0.000      0.000
REMARK INTER + INTRA:         -17.361
REMARK INTER:                 -13.192
REMARK INTRA:                  -4.170
REMARK UNBOUND:                -4.170
REMARK SMILES CCCCCCCCCCCCCCCCCCCCCCCCCCCC(=O)[O-]
REMARK SMILES IDX 15 1 16 2 17 3 18 4 19 5 20 6 21 7 22 8 23 9 24 10 25 11
REMARK SMILES IDX 26 12 27 13 28 14 29 15 30 16 14 17 13 18 12 19 11 20 10 21
REMARK SMILES IDX 9 22 8 23 7 24 6 25 5 26 4 27 3 28 2 29 1 30
REMARK H PARENT
REMARK Flexibility Score: inf
ROOT
ATOM      1  C   UNL     1      15.230 -29.695  23.150  1.00  0.00     0.000 C 
ENDROOT
BRANCH   1   2
ATOM      2  C   UNL     1      13.924 -30.376  22.691  1.00  0.00     0.000 C 
BRANCH   2   3
ATOM      3  C   UNL     1      13.953 -30.942  21.258  1.00  0.00     0.000 C 
BRANCH   3   4
ATOM      4  C   UNL     1      14.106 -32.474  21.165  1.00  0.00     0.000 C 
BRANCH   4   5
ATOM      5  C   UNL     1      14.890 -33.126  22.318  1.00  0.00     0.000 C 
BRANCH   5   6
ATOM      6  C   UNL     1      15.654 -34.389  21.883  1.00  0.00     0.000 C 
BRANCH   6   7
ATOM      7  C   UNL     1      15.374 -34.785  20.420  1.00  0.00     0.000 C 
BRANCH   7   8
ATOM      8  C   UNL     1      16.459 -34.366  19.406  1.00  0.00     0.000 C 
BRANCH   8   9
ATOM      9  C   UNL     1      17.622 -35.365  19.242  1.00  0.00     0.000 C 
BRANCH   9  10
ATOM     10  C   UNL     1      17.261 -36.834  19.531  1.00  0.00     0.000 C 
BRANCH  10  11
ATOM     11  C   UNL     1      17.949 -37.443  20.769  1.00  0.00     0.000 C 
BRANCH  11  12
ATOM     12  C   UNL     1      18.638 -36.424  21.699  1.00  0.00     0.006 C 
BRANCH  12  13
ATOM     13  C   UNL     1      19.084 -36.999  23.054  1.00  0.00     0.053 C 
BRANCH  13  14
ATOM     14  C   UNL     1      18.742 -36.086  24.192  1.00  0.00     0.041 C 
ATOM     15  O   UNL     1      18.498 -34.869  23.976  1.00  0.00    -0.550 OA
ATOM     16  O   UNL     1      18.657 -36.587  25.485  1.00  0.00    -0.550 OA
ENDBRANCH  13  14
ENDBRANCH  12  13
ENDBRANCH  11  12
ENDBRANCH  10  11
ENDBRANCH   9  10
ENDBRANCH   8   9
ENDBRANCH   7   8
ENDBRANCH   6   7
ENDBRANCH   5   6
ENDBRANCH   4   5
ENDBRANCH   3   4
ENDBRANCH   2   3
ENDBRANCH   1   2
BRANCH   1  17
ATOM     17  C   UNL     1      16.296 -29.511  22.055  1.00  0.00     0.000 C 
BRANCH  17  18
ATOM     18  C   UNL     1      17.511 -30.435  22.237  1.00  0.00     0.000 C 
BRANCH  18  19
ATOM     19  C   UNL     1      17.836 -31.250  20.971  1.00  0.00     0.000 C 
BRANCH  19  20
ATOM     20  C   UNL     1      18.942 -32.306  21.141  1.00  0.00     0.000 C 
BRANCH  20  21
ATOM     21  C   UNL     1      19.884 -32.000  22.318  1.00  0.00     0.000 C 
BRANCH  21  22
ATOM     22  C   UNL     1      21.199 -31.346  21.860  1.00  0.00    -0.000 C 
BRANCH  22  23
ATOM     23  C   UNL     1      21.206 -29.805  21.994  1.00  0.00    -0.000 C 
BRANCH  23  24
ATOM     24  C   UNL     1      21.033 -29.069  20.652  1.00  0.00    -0.000 C 
BRANCH  24  25
ATOM     25  C   UNL     1      19.822 -28.120  20.591  1.00  0.00    -0.000 C 
BRANCH  25  26
ATOM     26  C   UNL     1      20.060 -26.710  21.175  1.00  0.00    -0.000 C 
BRANCH  26  27
ATOM     27  C   UNL     1      20.751 -25.717  20.224  1.00  0.00    -0.000 C 
BRANCH  27  28
ATOM     28  C   UNL     1      21.961 -25.017  20.868  1.00  0.00    -0.000 C 
BRANCH  28  29
ATOM     29  C   UNL     1      23.264 -25.811  20.690  1.00  0.00    -0.003 C 
ATOM     30  C   UNL     1      23.402 -26.419  19.294  1.00  0.00     0.004 C 
ENDBRANCH  28  29
ENDBRANCH  27  28
ENDBRANCH  26  27
ENDBRANCH  25  26
ENDBRANCH  24  25
ENDBRANCH  23  24
ENDBRANCH  22  23
ENDBRANCH  21  22
ENDBRANCH  20  21
ENDBRANCH  19  20
ENDBRANCH  18  19
ENDBRANCH  17  18
ENDBRANCH   1  17
TORSDOF 26
ENDMDL
MODEL 2
REMARK VINA RESULT:    -5.112      3.269      7.785
REMARK INTER + INTRA:         -17.052
REMARK INTER:                 -12.599
REMARK INTRA:                  -4.453
REMARK UNBOUND:                -4.170
REMARK SMILES CCCCCCCCCCCCCCCCCCCCCCCCCCCC(=O)[O-]
REMARK SMILES IDX 15 1 16 2 17 3 18 4 19 5 20 6 21 7 22 8 23 9 24 10 25 11
REMARK SMILES IDX 26 12 27 13 28 14 29 15 30 16 14 17 13 18 12 19 11 20 10 21
REMARK SMILES IDX 9 22 8 23 7 24 6 25 5 26 4 27 3 28 2 29 1 30
REMARK H PARENT
REMARK Flexibility Score: inf
ROOT
ATOM      1  C   UNL     1      14.155 -32.458  21.126  1.00  0.00     0.000 C 
ENDROOT
BRANCH   1   2
ATOM      2  C   UNL     1      14.835 -31.095  21.375  1.00  0.00     0.000 C 
BRANCH   2   3
ATOM      3  C   UNL     1      15.730 -31.032  22.628  1.00  0.00     0.000 C 
BRANCH   3   4
ATOM      4  C   UNL     1      17.193 -30.621  22.364  1.00  0.00     0.000 C 
BRANCH   4   5
ATOM      5  C   UNL     1      17.755 -31.038  20.992  1.00  0.00     0.000 C 
BRANCH   5   6
ATOM      6  C   UNL     1      18.738 -32.218  21.083  1.00  0.00     0.000 C 
BRANCH   6   7
ATOM      7  C   UNL     1      19.697 -32.109  22.284  1.00  0.00     0.000 C 
BRANCH   7   8
ATOM      8  C   UNL     1      21.116 -31.606  21.949  1.00  0.00     0.000 C 
BRANCH   8   9
ATOM      9  C   UNL     1      21.316 -30.082  22.067  1.00  0.00     0.000 C 
BRANCH   9  10
ATOM     10  C   UNL     1      20.986 -29.284  20.792  1.00  0.00     0.000 C 
BRANCH  10  11
ATOM     11  C   UNL     1      20.056 -28.072  21.004  1.00  0.00     0.000 C 
BRANCH  11  12
ATOM     12  C   UNL     1      20.555 -26.750  20.386  1.00  0.00     0.006 C 
BRANCH  12  13
ATOM     13  C   UNL     1      21.846 -26.201  21.015  1.00  0.00     0.053 C 
BRANCH  13  14
ATOM     14  C   UNL     1      22.863 -25.831  19.978  1.00  0.00     0.041 C 
ATOM     15  O   UNL     1      23.073 -24.621  19.701  1.00  0.00    -0.550 OA
ATOM     16  O   UNL     1      23.605 -26.821  19.346  1.00  0.00    -0.550 OA
ENDBRANCH  13  14
ENDBRANCH  12  13
ENDBRANCH  11  12
ENDBRANCH  10  11
ENDBRANCH   9  10
ENDBRANCH   8   9
ENDBRANCH   7   8
ENDBRANCH   6   7
ENDBRANCH   5   6
ENDBRANCH   4   5
ENDBRANCH   3   4
ENDBRANCH   2   3
ENDBRANCH   1   2
BRANCH   1  17
ATOM     17  C   UNL     1      15.012 -33.691  21.464  1.00  0.00     0.000 C 
BRANCH  17  18
ATOM     18  C   UNL     1      15.226 -34.622  20.258  1.00  0.00     0.000 C 
BRANCH  18  19
ATOM     19  C   UNL     1      16.474 -34.255  19.435  1.00  0.00     0.000 C 
BRANCH  19  20
ATOM     20  C   UNL     1      17.432 -35.424  19.146  1.00  0.00     0.000 C 
BRANCH  20  21
ATOM     21  C   UNL     1      17.061 -36.704  19.915  1.00  0.00     0.000 C 
BRANCH  21  22
ATOM     22  C   UNL     1      18.034 -36.995  21.070  1.00  0.00    -0.000 C 
BRANCH  22  23
ATOM     23  C   UNL     1      18.046 -35.901  22.163  1.00  0.00    -0.000 C 
BRANCH  23  24
ATOM     24  C   UNL     1      18.564 -36.396  23.526  1.00  0.00    -0.000 C 
BRANCH  24  25
ATOM     25  C   UNL     1      17.739 -35.922  24.738  1.00  0.00    -0.000 C 
BRANCH  25  26
ATOM     26  C   UNL     1      16.823 -34.707  24.476  1.00  0.00    -0.000 C 
BRANCH  26  27
ATOM     27  C   UNL     1      17.385 -33.352  24.940  1.00  0.00    -0.000 C 
BRANCH  27  28
ATOM     28  C   UNL     1      18.597 -33.497  25.877  1.00  0.00    -0.000 C 
BRANCH  28  29
ATOM     29  C   UNL     1      19.488 -32.246  25.887  1.00  0.00    -0.003 C 
ATOM     30  C   UNL     1      18.684 -30.946  25.840  1.00  0.00     0.004 C 
ENDBRANCH  28  29
ENDBRANCH  27  28
ENDBRANCH  26  27
ENDBRANCH  25  26
ENDBRANCH  24  25
ENDBRANCH  23  24
ENDBRANCH  22  23
ENDBRANCH  21  22
ENDBRANCH  20  21
ENDBRANCH  19  20
ENDBRANCH  18  19
ENDBRANCH  17  18
ENDBRANCH   1  17
TORSDOF 26
ENDMDL
MODEL 3
REMARK VINA RESULT:    -5.083      3.517      8.727
REMARK INTER + INTRA:         -16.978
REMARK INTER:                 -13.364
REMARK INTRA:                  -3.614
REMARK UNBOUND:                -4.170
REMARK SMILES CCCCCCCCCCCCCCCCCCCCCCCCCCCC(=O)[O-]
REMARK SMILES IDX 15 1 16 2 17 3 18 4 19 5 20 6 21 7 22 8 23 9 24 10 25 11
REMARK SMILES IDX 26 12 27 13 28 14 29 15 30 16 14 17 13 18 12 19 11 20 10 21
REMARK SMILES IDX 9 22 8 23 7 24 6 25 5 26 4 27 3 28 2 29 1 30
REMARK H PARENT
REMARK Flexibility Score: inf
ROOT
ATOM      1  C   UNL     1      14.116 -30.350  23.655  1.00  0.00     0.000 C 
ENDROOT
BRANCH   1   2
ATOM      2  C   UNL     1      14.667 -29.585  22.434  1.00  0.00     0.000 C 
BRANCH   2   3
ATOM      3  C   UNL     1      16.154 -29.842  22.120  1.00  0.00     0.000 C 
BRANCH   3   4
ATOM      4  C   UNL     1      16.960 -30.493  23.262  1.00  0.00     0.000 C 
BRANCH   4   5
ATOM      5  C   UNL     1      17.925 -31.612  22.829  1.00  0.00     0.000 C 
BRANCH   5   6
ATOM      6  C   UNL     1      18.227 -31.589  21.321  1.00  0.00     0.000 C 
BRANCH   6   7
ATOM      7  C   UNL     1      19.729 -31.722  21.007  1.00  0.00     0.000 C 
BRANCH   7   8
ATOM      8  C   UNL     1      20.508 -30.392  20.942  1.00  0.00     0.000 C 
BRANCH   8   9
ATOM      9  C   UNL     1      19.705 -29.142  21.352  1.00  0.00     0.000 C 
BRANCH   9  10
ATOM     10  C   UNL     1      19.908 -27.914  20.444  1.00  0.00     0.000 C 
BRANCH  10  11
ATOM     11  C   UNL     1      21.155 -27.066  20.765  1.00  0.00     0.000 C 
BRANCH  11  12
ATOM     12  C   UNL     1      21.087 -25.601  20.288  1.00  0.00     0.006 C 
BRANCH  12  13
ATOM     13  C   UNL     1      22.236 -24.713  20.795  1.00  0.00     0.053 C 
BRANCH  13  14
ATOM     14  C   UNL     1      23.345 -24.601  19.792  1.00  0.00     0.041 C 
ATOM     15  O   UNL     1      23.370 -25.362  18.789  1.00  0.00    -0.550 OA
ATOM     16  O   UNL     1      24.328 -23.631  19.947  1.00  0.00    -0.550 OA
ENDBRANCH  13  14
ENDBRANCH  12  13
ENDBRANCH  11  12
ENDBRANCH  10  11
ENDBRANCH   9  10
ENDBRANCH   8   9
ENDBRANCH   7   8
ENDBRANCH   6   7
ENDBRANCH   5   6
ENDBRANCH   4   5
ENDBRANCH   3   4
ENDBRANCH   2   3
ENDBRANCH   1   2
BRANCH   1  17
ATOM     17  C   UNL     1      13.502 -31.727  23.344  1.00  0.00     0.000 C 
BRANCH  17  18
ATOM     18  C   UNL     1      14.412 -32.897  23.756  1.00  0.00     0.000 C 
BRANCH  18  19
ATOM     19  C   UNL     1      14.994 -33.653  22.548  1.00  0.00     0.000 C 
BRANCH  19  20
ATOM     20  C   UNL     1      14.603 -33.085  21.173  1.00  0.00     0.000 C 
BRANCH  20  21
ATOM     21  C   UNL     1      15.041 -33.987  20.006  1.00  0.00     0.000 C 
BRANCH  21  22
ATOM     22  C   UNL     1      15.762 -35.258  20.489  1.00  0.00    -0.000 C 
BRANCH  22  23
ATOM     23  C   UNL     1      17.214 -35.383  19.973  1.00  0.00    -0.000 C 
BRANCH  23  24
ATOM     24  C   UNL     1      18.082 -36.350  20.801  1.00  0.00    -0.000 C 
BRANCH  24  25
ATOM     25  C   UNL     1      18.707 -35.730  22.064  1.00  0.00    -0.000 C 
BRANCH  25  26
ATOM     26  C   UNL     1      18.000 -36.084  23.391  1.00  0.00    -0.000 C 
BRANCH  26  27
ATOM     27  C   UNL     1      17.846 -34.916  24.381  1.00  0.00    -0.000 C 
BRANCH  27  28
ATOM     28  C   UNL     1      17.310 -35.363  25.753  1.00  0.00    -0.000 C 
BRANCH  28  29
ATOM     29  C   UNL     1      18.003 -36.631  26.272  1.00  0.00    -0.003 C 
ATOM     30  C   UNL     1      17.014 -37.730  26.662  1.00  0.00     0.004 C 
ENDBRANCH  28  29
ENDBRANCH  27  28
ENDBRANCH  26  27
ENDBRANCH  25  26
ENDBRANCH  24  25
ENDBRANCH  23  24
ENDBRANCH  22  23
ENDBRANCH  21  22
ENDBRANCH  20  21
ENDBRANCH  19  20
ENDBRANCH  18  19
ENDBRANCH  17  18
ENDBRANCH   1  17
TORSDOF 26
ENDMDL
MODEL 4
REMARK VINA RESULT:    -5.064      2.955      7.798
REMARK INTER + INTRA:         -16.931
REMARK INTER:                 -12.739
REMARK INTRA:                  -4.191
REMARK UNBOUND:                -4.170
REMARK SMILES CCCCCCCCCCCCCCCCCCCCCCCCCCCC(=O)[O-]
REMARK SMILES IDX 15 1 16 2 17 3 18 4 19 5 20 6 21 7 22 8 23 9 24 10 25 11
REMARK SMILES IDX 26 12 27 13 28 14 29 15 30 16 14 17 13 18 12 19 11 20 10 21
REMARK SMILES IDX 9 22 8 23 7 24 6 25 5 26 4 27 3 28 2 29 1 30
REMARK H PARENT
REMARK Flexibility Score: inf
ROOT
ATOM      1  C   UNL     1      13.790 -30.276  23.159  1.00  0.00     0.000 C 
ENDROOT
BRANCH   1   2
ATOM      2  C   UNL     1      14.640 -29.139  22.556  1.00  0.00     0.000 C 
BRANCH   2   3
ATOM      3  C   UNL     1      16.109 -29.505  22.266  1.00  0.00     0.000 C 
BRANCH   3   4
ATOM      4  C   UNL     1      16.821 -30.284  23.390  1.00  0.00     0.000 C 
BRANCH   4   5
ATOM      5  C   UNL     1      17.462 -31.617  22.961  1.00  0.00     0.000 C 
BRANCH   5   6
ATOM      6  C   UNL     1      18.864 -31.826  23.558  1.00  0.00     0.000 C 
BRANCH   6   7
ATOM      7  C   UNL     1      19.879 -32.367  22.534  1.00  0.00     0.000 C 
BRANCH   7   8
ATOM      8  C   UNL     1      19.768 -31.766  21.117  1.00  0.00     0.000 C 
BRANCH   8   9
ATOM      9  C   UNL     1      21.009 -30.988  20.637  1.00  0.00     0.000 C 
BRANCH   9  10
ATOM     10  C   UNL     1      21.047 -29.505  21.054  1.00  0.00     0.000 C 
BRANCH  10  11
ATOM     11  C   UNL     1      19.668 -28.871  21.327  1.00  0.00     0.000 C 
BRANCH  11  12
ATOM     12  C   UNL     1      19.306 -27.679  20.417  1.00  0.00     0.006 C 
BRANCH  12  13
ATOM     13  C   UNL     1      20.391 -26.593  20.329  1.00  0.00     0.053 C 
BRANCH  13  14
ATOM     14  C   UNL     1      20.433 -25.739  21.560  1.00  0.00     0.041 C 
ATOM     15  O   UNL     1      21.229 -26.015  22.496  1.00  0.00    -0.550 OA
ATOM     16  O   UNL     1      19.619 -24.617  21.656  1.00  0.00    -0.550 OA
ENDBRANCH  13  14
ENDBRANCH  12  13
ENDBRANCH  11  12
ENDBRANCH  10  11
ENDBRANCH   9  10
ENDBRANCH   8   9
ENDBRANCH   7   8
ENDBRANCH   6   7
ENDBRANCH   5   6
ENDBRANCH   4   5
ENDBRANCH   3   4
ENDBRANCH   2   3
ENDBRANCH   1   2
BRANCH   1  17
ATOM     17  C   UNL     1      12.738 -30.882  22.214  1.00  0.00     0.000 C 
BRANCH  17  18
ATOM     18  C   UNL     1      13.360 -31.680  21.055  1.00  0.00     0.000 C 
BRANCH  18  19
ATOM     19  C   UNL     1      14.249 -32.840  21.540  1.00  0.00     0.000 C 
BRANCH  19  20
ATOM     20  C   UNL     1      14.786 -33.759  20.429  1.00  0.00     0.000 C 
BRANCH  20  21
ATOM     21  C   UNL     1      16.254 -34.164  20.646  1.00  0.00     0.000 C 
BRANCH  21  22
ATOM     22  C   UNL     1      16.972 -34.491  19.325  1.00  0.00    -0.000 C 
BRANCH  22  23
ATOM     23  C   UNL     1      18.156 -35.472  19.487  1.00  0.00    -0.000 C 
BRANCH  23  24
ATOM     24  C   UNL     1      17.762 -36.813  20.133  1.00  0.00    -0.000 C 
BRANCH  24  25
ATOM     25  C   UNL     1      18.291 -37.017  21.565  1.00  0.00    -0.000 C 
BRANCH  25  26
ATOM     26  C   UNL     1      19.272 -35.934  22.065  1.00  0.00    -0.000 C 
BRANCH  26  27
ATOM     27  C   UNL     1      19.207 -35.640  23.574  1.00  0.00    -0.000 C 
BRANCH  27  28
ATOM     28  C   UNL     1      18.103 -36.436  24.291  1.00  0.00    -0.000 C 
BRANCH  28  29
ATOM     29  C   UNL     1      17.209 -35.547  25.168  1.00  0.00    -0.003 C 
ATOM     30  C   UNL     1      16.356 -34.575  24.352  1.00  0.00     0.004 C 
ENDBRANCH  28  29
ENDBRANCH  27  28
ENDBRANCH  26  27
ENDBRANCH  25  26
ENDBRANCH  24  25
ENDBRANCH  23  24
ENDBRANCH  22  23
ENDBRANCH  21  22
ENDBRANCH  20  21
ENDBRANCH  19  20
ENDBRANCH  18  19
ENDBRANCH  17  18
ENDBRANCH   1  17
TORSDOF 26
ENDMDL
MODEL 5
REMARK VINA RESULT:    -5.051      2.906      6.907
REMARK INTER + INTRA:         -16.899
REMARK INTER:                 -11.752
REMARK INTRA:                  -5.147
REMARK UNBOUND:                -4.170
REMARK SMILES CCCCCCCCCCCCCCCCCCCCCCCCCCCC(=O)[O-]
REMARK SMILES IDX 15 1 16 2 17 3 18 4 19 5 20 6 21 7 22 8 23 9 24 10 25 11
REMARK SMILES IDX 26 12 27 13 28 14 29 15 30 16 14 17 13 18 12 19 11 20 10 21
REMARK SMILES IDX 9 22 8 23 7 24 6 25 5 26 4 27 3 28 2 29 1 30
REMARK H PARENT
REMARK Flexibility Score: inf
ROOT
ATOM      1  C   UNL     1      19.034 -31.953  21.430  1.00  0.00     0.000 C 
ENDROOT
BRANCH   1   2
ATOM      2  C   UNL     1      20.528 -31.690  21.150  1.00  0.00     0.000 C 
BRANCH   2   3
ATOM      3  C   UNL     1      21.289 -30.979  22.287  1.00  0.00     0.000 C 
BRANCH   3   4
ATOM      4  C   UNL     1      22.331 -31.848  23.018  1.00  0.00     0.000 C 
BRANCH   4   5
ATOM      5  C   UNL     1      22.193 -31.886  24.552  1.00  0.00     0.000 C 
BRANCH   5   6
ATOM      6  C   UNL     1      20.886 -32.550  25.017  1.00  0.00     0.000 C 
BRANCH   6   7
ATOM      7  C   UNL     1      19.862 -31.540  25.568  1.00  0.00     0.000 C 
BRANCH   7   8
ATOM      8  C   UNL     1      18.462 -32.116  25.864  1.00  0.00     0.000 C 
BRANCH   8   9
ATOM      9  C   UNL     1      18.358 -33.653  25.793  1.00  0.00     0.000 C 
BRANCH   9  10
ATOM     10  C   UNL     1      16.986 -34.191  25.343  1.00  0.00     0.000 C 
BRANCH  10  11
ATOM     11  C   UNL     1      16.800 -35.713  25.501  1.00  0.00     0.000 C 
BRANCH  11  12
ATOM     12  C   UNL     1      17.947 -36.438  26.232  1.00  0.00     0.006 C 
BRANCH  12  13
ATOM     13  C   UNL     1      17.547 -37.777  26.874  1.00  0.00     0.053 C 
BRANCH  13  14
ATOM     14  C   UNL     1      17.239 -37.631  28.333  1.00  0.00     0.041 C 
ATOM     15  O   UNL     1      16.046 -37.524  28.721  1.00  0.00    -0.550 OA
ATOM     16  O   UNL     1      18.268 -37.653  29.267  1.00  0.00    -0.550 OA
ENDBRANCH  13  14
ENDBRANCH  12  13
ENDBRANCH  11  12
ENDBRANCH  10  11
ENDBRANCH   9  10
ENDBRANCH   8   9
ENDBRANCH   7   8
ENDBRANCH   6   7
ENDBRANCH   5   6
ENDBRANCH   4   5
ENDBRANCH   3   4
ENDBRANCH   2   3
ENDBRANCH   1   2
BRANCH   1  17
ATOM     17  C   UNL     1      18.726 -33.266  22.173  1.00  0.00     0.000 C 
BRANCH  17  18
ATOM     18  C   UNL     1      19.793 -34.350  21.946  1.00  0.00     0.000 C 
BRANCH  18  19
ATOM     19  C   UNL     1      19.448 -35.680  22.640  1.00  0.00     0.000 C 
BRANCH  19  20
ATOM     20  C   UNL     1      18.089 -36.286  22.248  1.00  0.00     0.000 C 
BRANCH  20  21
ATOM     21  C   UNL     1      18.176 -37.199  21.013  1.00  0.00     0.000 C 
BRANCH  21  22
ATOM     22  C   UNL     1      17.223 -36.755  19.889  1.00  0.00    -0.000 C 
BRANCH  22  23
ATOM     23  C   UNL     1      17.490 -35.319  19.379  1.00  0.00    -0.000 C 
BRANCH  23  24
ATOM     24  C   UNL     1      16.261 -34.395  19.466  1.00  0.00    -0.000 C 
BRANCH  24  25
ATOM     25  C   UNL     1      15.243 -34.782  20.555  1.00  0.00    -0.000 C 
BRANCH  25  26
ATOM     26  C   UNL     1      15.098 -33.768  21.711  1.00  0.00    -0.000 C 
BRANCH  26  27
ATOM     27  C   UNL     1      14.253 -32.524  21.387  1.00  0.00    -0.000 C 
BRANCH  27  28
ATOM     28  C   UNL     1      13.959 -31.662  22.627  1.00  0.00    -0.000 C 
BRANCH  28  29
ATOM     29  C   UNL     1      15.156 -31.582  23.587  1.00  0.00    -0.003 C 
ATOM     30  C   UNL     1      16.168 -30.510  23.184  1.00  0.00     0.004 C 
ENDBRANCH  28  29
ENDBRANCH  27  28
ENDBRANCH  26  27
ENDBRANCH  25  26
ENDBRANCH  24  25
ENDBRANCH  23  24
ENDBRANCH  22  23
ENDBRANCH  21  22
ENDBRANCH  20  21
ENDBRANCH  19  20
ENDBRANCH  18  19
ENDBRANCH  17  18
ENDBRANCH   1  17
TORSDOF 26
ENDMDL
MODEL 6
REMARK VINA RESULT:    -5.007      3.011      6.121
REMARK INTER + INTRA:         -16.787
REMARK INTER:                 -11.527
REMARK INTRA:                  -5.260
REMARK UNBOUND:                -4.170
REMARK SMILES CCCCCCCCCCCCCCCCCCCCCCCCCCCC(=O)[O-]
REMARK SMILES IDX 15 1 16 2 17 3 18 4 19 5 20 6 21 7 22 8 23 9 24 10 25 11
REMARK SMILES IDX 26 12 27 13 28 14 29 15 30 16 14 17 13 18 12 19 11 20 10 21
REMARK SMILES IDX 9 22 8 23 7 24 6 25 5 26 4 27 3 28 2 29 1 30
REMARK H PARENT
REMARK Flexibility Score: inf
ROOT
ATOM      1  C   UNL     1      15.414 -33.498  23.861  1.00  0.00     0.000 C 
ENDROOT
BRANCH   1   2
ATOM      2  C   UNL     1      15.385 -34.243  22.511  1.00  0.00     0.000 C 
BRANCH   2   3
ATOM      3  C   UNL     1      14.673 -33.494  21.367  1.00  0.00     0.000 C 
BRANCH   3   4
ATOM      4  C   UNL     1      14.999 -34.006  19.950  1.00  0.00     0.000 C 
BRANCH   4   5
ATOM      5  C   UNL     1      16.108 -35.072  19.876  1.00  0.00     0.000 C 
BRANCH   5   6
ATOM      6  C   UNL     1      17.415 -34.532  19.270  1.00  0.00     0.000 C 
BRANCH   6   7
ATOM      7  C   UNL     1      18.352 -33.909  20.322  1.00  0.00     0.000 C 
BRANCH   7   8
ATOM      8  C   UNL     1      18.404 -32.367  20.326  1.00  0.00     0.000 C 
BRANCH   8   9
ATOM      9  C   UNL     1      17.893 -31.697  21.617  1.00  0.00     0.000 C 
BRANCH   9  10
ATOM     10  C   UNL     1      17.001 -30.461  21.398  1.00  0.00     0.000 C 
BRANCH  10  11
ATOM     11  C   UNL     1      16.059 -30.121  22.571  1.00  0.00     0.000 C 
BRANCH  11  12
ATOM     12  C   UNL     1      14.582 -29.912  22.181  1.00  0.00     0.006 C 
BRANCH  12  13
ATOM     13  C   UNL     1      13.687 -29.408  23.325  1.00  0.00     0.053 C 
BRANCH  13  14
ATOM     14  C   UNL     1      12.230 -29.542  23.000  1.00  0.00     0.041 C 
ATOM     15  O   UNL     1      11.838 -30.438  22.206  1.00  0.00    -0.550 OA
ATOM     16  O   UNL     1      11.302 -28.702  23.603  1.00  0.00    -0.550 OA
ENDBRANCH  13  14
ENDBRANCH  12  13
ENDBRANCH  11  12
ENDBRANCH  10  11
ENDBRANCH   9  10
ENDBRANCH   8   9
ENDBRANCH   7   8
ENDBRANCH   6   7
ENDBRANCH   5   6
ENDBRANCH   4   5
ENDBRANCH   3   4
ENDBRANCH   2   3
ENDBRANCH   1   2
BRANCH   1  17
ATOM     17  C   UNL     1      16.797 -33.401  24.529  1.00  0.00     0.000 C 
BRANCH  17  18
ATOM     18  C   UNL     1      16.915 -34.264  25.797  1.00  0.00     0.000 C 
BRANCH  18  19
ATOM     19  C   UNL     1      16.918 -35.773  25.492  1.00  0.00     0.000 C 
BRANCH  19  20
ATOM     20  C   UNL     1      18.260 -36.485  25.738  1.00  0.00     0.000 C 
BRANCH  20  21
ATOM     21  C   UNL     1      18.807 -37.179  24.479  1.00  0.00     0.000 C 
BRANCH  21  22
ATOM     22  C   UNL     1      18.735 -36.277  23.235  1.00  0.00    -0.000 C 
BRANCH  22  23
ATOM     23  C   UNL     1      20.084 -36.134  22.492  1.00  0.00    -0.000 C 
BRANCH  23  24
ATOM     24  C   UNL     1      21.033 -35.102  23.128  1.00  0.00    -0.000 C 
BRANCH  24  25
ATOM     25  C   UNL     1      20.327 -33.972  23.903  1.00  0.00    -0.000 C 
BRANCH  25  26
ATOM     26  C   UNL     1      20.685 -32.540  23.450  1.00  0.00    -0.000 C 
BRANCH  26  27
ATOM     27  C   UNL     1      21.829 -32.445  22.425  1.00  0.00    -0.000 C 
BRANCH  27  28
ATOM     28  C   UNL     1      21.597 -31.348  21.370  1.00  0.00    -0.000 C 
BRANCH  28  29
ATOM     29  C   UNL     1      21.370 -29.965  21.999  1.00  0.00    -0.003 C 
ATOM     30  C   UNL     1      20.444 -29.080  21.165  1.00  0.00     0.004 C 
ENDBRANCH  28  29
ENDBRANCH  27  28
ENDBRANCH  26  27
ENDBRANCH  25  26
ENDBRANCH  24  25
ENDBRANCH  23  24
ENDBRANCH  22  23
ENDBRANCH  21  22
ENDBRANCH  20  21
ENDBRANCH  19  20
ENDBRANCH  18  19
ENDBRANCH  17  18
ENDBRANCH   1  17
TORSDOF 26
ENDMDL
MODEL 7
REMARK VINA RESULT:    -4.991      3.737      6.386
REMARK INTER + INTRA:         -16.748
REMARK INTER:                 -11.107
REMARK INTRA:                  -5.641
REMARK UNBOUND:                -4.170
REMARK SMILES CCCCCCCCCCCCCCCCCCCCCCCCCCCC(=O)[O-]
REMARK SMILES IDX 15 1 16 2 17 3 18 4 19 5 20 6 21 7 22 8 23 9 24 10 25 11
REMARK SMILES IDX 26 12 27 13 28 14 29 15 30 16 14 17 13 18 12 19 11 20 10 21
REMARK SMILES IDX 9 22 8 23 7 24 6 25 5 26 4 27 3 28 2 29 1 30
REMARK H PARENT
REMARK Flexibility Score: inf
ROOT
ATOM      1  C   UNL     1      14.998 -33.669  21.089  1.00  0.00     0.000 C 
ENDROOT
BRANCH   1   2
ATOM      2  C   UNL     1      15.379 -34.343  19.754  1.00  0.00     0.000 C 
BRANCH   2   3
ATOM      3  C   UNL     1      16.080 -35.709  19.889  1.00  0.00     0.000 C 
BRANCH   3   4
ATOM      4  C   UNL     1      17.520 -35.760  19.341  1.00  0.00     0.000 C 
BRANCH   4   5
ATOM      5  C   UNL     1      18.430 -34.597  19.778  1.00  0.00     0.000 C 
BRANCH   5   6
ATOM      6  C   UNL     1      18.870 -34.702  21.248  1.00  0.00     0.000 C 
BRANCH   6   7
ATOM      7  C   UNL     1      19.066 -33.328  21.916  1.00  0.00     0.000 C 
BRANCH   7   8
ATOM      8  C   UNL     1      19.046 -32.121  20.956  1.00  0.00     0.000 C 
BRANCH   8   9
ATOM      9  C   UNL     1      17.801 -31.218  21.064  1.00  0.00     0.000 C 
BRANCH   9  10
ATOM     10  C   UNL     1      17.202 -31.106  22.478  1.00  0.00     0.000 C 
BRANCH  10  11
ATOM     11  C   UNL     1      16.597 -29.730  22.822  1.00  0.00     0.000 C 
BRANCH  11  12
ATOM     12  C   UNL     1      15.115 -29.553  22.432  1.00  0.00     0.006 C 
BRANCH  12  13
ATOM     13  C   UNL     1      14.133 -30.397  23.262  1.00  0.00     0.053 C 
BRANCH  13  14
ATOM     14  C   UNL     1      12.706 -30.123  22.894  1.00  0.00     0.041 C 
ATOM     15  O   UNL     1      12.101 -30.884  22.095  1.00  0.00    -0.550 OA
ATOM     16  O   UNL     1      12.035 -29.048  23.465  1.00  0.00    -0.550 OA
ENDBRANCH  13  14
ENDBRANCH  12  13
ENDBRANCH  11  12
ENDBRANCH  10  11
ENDBRANCH   9  10
ENDBRANCH   8   9
ENDBRANCH   7   8
ENDBRANCH   6   7
ENDBRANCH   5   6
ENDBRANCH   4   5
ENDBRANCH   3   4
ENDBRANCH   2   3
ENDBRANCH   1   2
BRANCH   1  17
ATOM     17  C   UNL     1      15.533 -34.367  22.353  1.00  0.00     0.000 C 
BRANCH  17  18
ATOM     18  C   UNL     1      15.000 -33.744  23.654  1.00  0.00     0.000 C 
BRANCH  18  19
ATOM     19  C   UNL     1      15.971 -33.913  24.837  1.00  0.00     0.000 C 
BRANCH  19  20
ATOM     20  C   UNL     1      16.988 -35.057  24.687  1.00  0.00     0.000 C 
BRANCH  20  21
ATOM     21  C   UNL     1      18.332 -34.755  25.373  1.00  0.00     0.000 C 
BRANCH  21  22
ATOM     22  C   UNL     1      18.458 -33.280  25.790  1.00  0.00    -0.000 C 
BRANCH  22  23
ATOM     23  C   UNL     1      19.865 -32.685  25.553  1.00  0.00    -0.000 C 
BRANCH  23  24
ATOM     24  C   UNL     1      19.842 -31.245  25.006  1.00  0.00    -0.000 C 
BRANCH  24  25
ATOM     25  C   UNL     1      20.951 -30.927  23.986  1.00  0.00    -0.000 C 
BRANCH  25  26
ATOM     26  C   UNL     1      22.316 -31.593  24.267  1.00  0.00    -0.000 C 
BRANCH  26  27
ATOM     27  C   UNL     1      23.090 -32.051  23.019  1.00  0.00    -0.000 C 
BRANCH  27  28
ATOM     28  C   UNL     1      22.667 -33.448  22.532  1.00  0.00    -0.000 C 
BRANCH  28  29
ATOM     29  C   UNL     1      22.566 -34.466  23.679  1.00  0.00    -0.003 C 
ATOM     30  C   UNL     1      21.738 -35.696  23.307  1.00  0.00     0.004 C 
ENDBRANCH  28  29
ENDBRANCH  27  28
ENDBRANCH  26  27
ENDBRANCH  25  26
ENDBRANCH  24  25
ENDBRANCH  23  24
ENDBRANCH  22  23
ENDBRANCH  21  22
ENDBRANCH  20  21
ENDBRANCH  19  20
ENDBRANCH  18  19
ENDBRANCH  17  18
ENDBRANCH   1  17
TORSDOF 26
ENDMDL
MODEL 8
REMARK VINA RESULT:    -4.986      3.121      6.241
REMARK INTER + INTRA:         -16.735
REMARK INTER:                 -11.826
REMARK INTRA:                  -4.909
REMARK UNBOUND:                -4.170
REMARK SMILES CCCCCCCCCCCCCCCCCCCCCCCCCCCC(=O)[O-]
REMARK SMILES IDX 15 1 16 2 17 3 18 4 19 5 20 6 21 7 22 8 23 9 24 10 25 11
REMARK SMILES IDX 26 12 27 13 28 14 29 15 30 16 14 17 13 18 12 19 11 20 10 21
REMARK SMILES IDX 9 22 8 23 7 24 6 25 5 26 4 27 3 28 2 29 1 30
REMARK H PARENT
REMARK Flexibility Score: inf
ROOT
ATOM      1  C   UNL     1      15.500 -34.496  19.943  1.00  0.00     0.000 C 
ENDROOT
BRANCH   1   2
ATOM      2  C   UNL     1      16.886 -34.059  19.424  1.00  0.00     0.000 C 
BRANCH   2   3
ATOM      3  C   UNL     1      17.961 -35.163  19.424  1.00  0.00     0.000 C 
BRANCH   3   4
ATOM      4  C   UNL     1      17.420 -36.599  19.578  1.00  0.00     0.000 C 
BRANCH   4   5
ATOM      5  C   UNL     1      17.905 -37.351  20.832  1.00  0.00     0.000 C 
BRANCH   5   6
ATOM      6  C   UNL     1      18.751 -36.469  21.766  1.00  0.00     0.000 C 
BRANCH   6   7
ATOM      7  C   UNL     1      19.044 -37.140  23.122  1.00  0.00     0.000 C 
BRANCH   7   8
ATOM      8  C   UNL     1      19.169 -36.176  24.320  1.00  0.00     0.000 C 
BRANCH   8   9
ATOM      9  C   UNL     1      20.612 -35.875  24.771  1.00  0.00     0.000 C 
BRANCH   9  10
ATOM     10  C   UNL     1      21.170 -34.519  24.299  1.00  0.00     0.000 C 
BRANCH  10  11
ATOM     11  C   UNL     1      21.752 -34.516  22.871  1.00  0.00     0.000 C 
BRANCH  11  12
ATOM     12  C   UNL     1      22.777 -33.399  22.587  1.00  0.00     0.006 C 
BRANCH  12  13
ATOM     13  C   UNL     1      22.187 -31.980  22.585  1.00  0.00     0.053 C 
BRANCH  13  14
ATOM     14  C   UNL     1      22.183 -31.370  23.954  1.00  0.00     0.041 C 
ATOM     15  O   UNL     1      23.265 -31.205  24.577  1.00  0.00    -0.550 OA
ATOM     16  O   UNL     1      20.988 -30.951  24.526  1.00  0.00    -0.550 OA
ENDBRANCH  13  14
ENDBRANCH  12  13
ENDBRANCH  11  12
ENDBRANCH  10  11
ENDBRANCH   9  10
ENDBRANCH   8   9
ENDBRANCH   7   8
ENDBRANCH   6   7
ENDBRANCH   5   6
ENDBRANCH   4   5
ENDBRANCH   3   4
ENDBRANCH   2   3
ENDBRANCH   1   2
BRANCH   1  17
ATOM     17  C   UNL     1      15.077 -33.876  21.287  1.00  0.00     0.000 C 
BRANCH  17  18
ATOM     18  C   UNL     1      15.904 -34.394  22.475  1.00  0.00     0.000 C 
BRANCH  18  19
ATOM     19  C   UNL     1      16.003 -33.373  23.624  1.00  0.00     0.000 C 
BRANCH  19  20
ATOM     20  C   UNL     1      17.412 -32.810  23.876  1.00  0.00     0.000 C 
BRANCH  20  21
ATOM     21  C   UNL     1      18.327 -32.914  22.643  1.00  0.00     0.000 C 
BRANCH  21  22
ATOM     22  C   UNL     1      18.645 -31.537  22.034  1.00  0.00    -0.000 C 
BRANCH  22  23
ATOM     23  C   UNL     1      17.466 -30.918  21.247  1.00  0.00    -0.000 C 
BRANCH  23  24
ATOM     24  C   UNL     1      16.918 -29.623  21.875  1.00  0.00    -0.000 C 
BRANCH  24  25
ATOM     25  C   UNL     1      15.582 -29.788  22.625  1.00  0.00    -0.000 C 
BRANCH  25  26
ATOM     26  C   UNL     1      14.447 -30.445  21.810  1.00  0.00    -0.000 C 
BRANCH  26  27
ATOM     27  C   UNL     1      13.100 -30.566  22.545  1.00  0.00    -0.000 C 
BRANCH  27  28
ATOM     28  C   UNL     1      13.111 -29.891  23.928  1.00  0.00    -0.000 C 
BRANCH  28  29
ATOM     29  C   UNL     1      12.258 -28.614  23.968  1.00  0.00    -0.003 C 
ATOM     30  C   UNL     1      13.097 -27.345  24.119  1.00  0.00     0.004 C 
ENDBRANCH  28  29
ENDBRANCH  27  28
ENDBRANCH  26  27
ENDBRANCH  25  26
ENDBRANCH  24  25
ENDBRANCH  23  24
ENDBRANCH  22  23
ENDBRANCH  21  22
ENDBRANCH  20  21
ENDBRANCH  19  20
ENDBRANCH  18  19
ENDBRANCH  17  18
ENDBRANCH   1  17
TORSDOF 26
ENDMDL
MODEL 9
REMARK VINA RESULT:    -4.959      3.131      7.861
REMARK INTER + INTRA:         -16.668
REMARK INTER:                 -12.760
REMARK INTRA:                  -3.908
REMARK UNBOUND:                -4.170
REMARK SMILES CCCCCCCCCCCCCCCCCCCCCCCCCCCC(=O)[O-]
REMARK SMILES IDX 15 1 16 2 17 3 18 4 19 5 20 6 21 7 22 8 23 9 24 10 25 11
REMARK SMILES IDX 26 12 27 13 28 14 29 15 30 16 14 17 13 18 12 19 11 20 10 21
REMARK SMILES IDX 9 22 8 23 7 24 6 25 5 26 4 27 3 28 2 29 1 30
REMARK H PARENT
REMARK Flexibility Score: inf
ROOT
ATOM      1  C   UNL     1      14.241 -32.848  24.110  1.00  0.00     0.000 C 
ENDROOT
BRANCH   1   2
ATOM      2  C   UNL     1      13.509 -31.544  23.730  1.00  0.00     0.000 C 
BRANCH   2   3
ATOM      3  C   UNL     1      13.496 -31.220  22.223  1.00  0.00     0.000 C 
BRANCH   3   4
ATOM      4  C   UNL     1      14.493 -30.130  21.782  1.00  0.00     0.000 C 
BRANCH   4   5
ATOM      5  C   UNL     1      15.384 -29.563  22.903  1.00  0.00     0.000 C 
BRANCH   5   6
ATOM      6  C   UNL     1      16.796 -30.173  22.910  1.00  0.00     0.000 C 
BRANCH   6   7
ATOM      7  C   UNL     1      17.446 -30.197  21.513  1.00  0.00     0.000 C 
BRANCH   7   8
ATOM      8  C   UNL     1      17.832 -31.596  20.991  1.00  0.00     0.000 C 
BRANCH   8   9
ATOM      9  C   UNL     1      19.248 -32.071  21.372  1.00  0.00     0.000 C 
BRANCH   9  10
ATOM     10  C   UNL     1      20.179 -30.967  21.908  1.00  0.00     0.000 C 
BRANCH  10  11
ATOM     11  C   UNL     1      20.975 -30.205  20.830  1.00  0.00     0.000 C 
BRANCH  11  12
ATOM     12  C   UNL     1      20.729 -28.683  20.792  1.00  0.00     0.006 C 
BRANCH  12  13
ATOM     13  C   UNL     1      21.801 -27.847  21.509  1.00  0.00     0.053 C 
BRANCH  13  14
ATOM     14  C   UNL     1      21.866 -26.445  20.983  1.00  0.00     0.041 C 
ATOM     15  O   UNL     1      22.719 -25.637  21.437  1.00  0.00    -0.550 OA
ATOM     16  O   UNL     1      21.009 -26.043  19.965  1.00  0.00    -0.550 OA
ENDBRANCH  13  14
ENDBRANCH  12  13
ENDBRANCH  11  12
ENDBRANCH  10  11
ENDBRANCH   9  10
ENDBRANCH   8   9
ENDBRANCH   7   8
ENDBRANCH   6   7
ENDBRANCH   5   6
ENDBRANCH   4   5
ENDBRANCH   3   4
ENDBRANCH   2   3
ENDBRANCH   1   2
BRANCH   1  17
ATOM     17  C   UNL     1      14.966 -33.556  22.952  1.00  0.00     0.000 C 
BRANCH  17  18
ATOM     18  C   UNL     1      16.383 -34.023  23.326  1.00  0.00     0.000 C 
BRANCH  18  19
ATOM     19  C   UNL     1      16.872 -33.433  24.662  1.00  0.00     0.000 C 
BRANCH  19  20
ATOM     20  C   UNL     1      17.170 -34.466  25.762  1.00  0.00     0.000 C 
BRANCH  20  21
ATOM     21  C   UNL     1      16.788 -35.900  25.353  1.00  0.00     0.000 C 
BRANCH  21  22
ATOM     22  C   UNL     1      17.062 -36.919  26.472  1.00  0.00    -0.000 C 
BRANCH  22  23
ATOM     23  C   UNL     1      18.304 -37.805  26.216  1.00  0.00    -0.000 C 
BRANCH  23  24
ATOM     24  C   UNL     1      19.344 -37.153  25.287  1.00  0.00    -0.000 C 
BRANCH  24  25
ATOM     25  C   UNL     1      19.696 -37.980  24.035  1.00  0.00    -0.000 C 
BRANCH  25  26
ATOM     26  C   UNL     1      20.062 -37.155  22.783  1.00  0.00    -0.000 C 
BRANCH  26  27
ATOM     27  C   UNL     1      18.955 -36.217  22.271  1.00  0.00    -0.000 C 
BRANCH  27  28
ATOM     28  C   UNL     1      18.011 -36.899  21.265  1.00  0.00    -0.000 C 
BRANCH  28  29
ATOM     29  C   UNL     1      17.249 -35.890  20.392  1.00  0.00    -0.003 C 
ATOM     30  C   UNL     1      18.153 -35.176  19.387  1.00  0.00     0.004 C 
ENDBRANCH  28  29
ENDBRANCH  27  28
ENDBRANCH  26  27
ENDBRANCH  25  26
ENDBRANCH  24  25
ENDBRANCH  23  24
ENDBRANCH  22  23
ENDBRANCH  21  22
ENDBRANCH  20  21
ENDBRANCH  19  20
ENDBRANCH  18  19
ENDBRANCH  17  18
ENDBRANCH   1  17
TORSDOF 26
ENDMDL
