MODEL 1
REMARK VINA RESULT:    21.857      0.000      0.000
REMARK INTER + INTRA:          25.395
REMARK INTER:                  25.690
REMARK INTRA:                  -0.296
REMARK UNBOUND:                -0.296
REMARK SMILES O=c1cc(-c2ccc(O)c(O)c2)oc2cc(O)cc(O)c12
REMARK SMILES IDX 4 1 3 2 2 3 1 4 21 5 19 6 18 7 16 8 15 9 14 10 13 11 5 12
REMARK SMILES IDX 6 13 7 14 8 15 12 16 10 17 9 18 11 20 20 22 17 24
REMARK H PARENT 9 19 11 21 20 23 17 25
REMARK Flexibility Score: inf
ROOT
ATOM      1  C   UNL     1      31.687  48.093  52.967  1.00  0.00     0.138 A 
ATOM      2  C   UNL     1      31.662  48.947  54.078  1.00  0.00     0.100 A 
ATOM      3  C   UNL     1      31.358  50.298  53.903  1.00  0.00     0.197 A 
ATOM      4  O   UNL     1      31.397  51.050  54.911  1.00  0.00    -0.289 OA
ATOM      5  C   UNL     1      31.042  50.787  52.612  1.00  0.00     0.107 A 
ATOM      6  C   UNL     1      30.684  52.137  52.318  1.00  0.00     0.134 A 
ATOM      7  C   UNL     1      30.490  52.526  50.987  1.00  0.00     0.093 A 
ATOM      8  C   UNL     1      30.583  51.600  49.945  1.00  0.00     0.123 A 
ATOM      9  C   UNL     1      30.883  50.269  50.226  1.00  0.00     0.094 A 
ATOM     10  C   UNL     1      31.117  49.859  51.540  1.00  0.00     0.146 A 
ATOM     11  O   UNL     1      31.418  48.582  51.762  1.00  0.00    -0.456 OA
ENDROOT
BRANCH   1  12
ATOM     12  C   UNL     1      32.001  46.647  53.096  1.00  0.00     0.021 A 
ATOM     13  C   UNL     1      31.791  45.794  51.998  1.00  0.00     0.016 A 
ATOM     14  C   UNL     1      32.085  44.432  52.090  1.00  0.00     0.051 A 
ATOM     15  C   UNL     1      32.602  43.900  53.277  1.00  0.00     0.157 A 
ATOM     16  C   UNL     1      32.535  46.107  54.283  1.00  0.00     0.062 A 
ATOM     17  C   UNL     1      32.831  44.739  54.373  1.00  0.00     0.158 A 
BRANCH  15  18
ATOM     18  O   UNL     1      32.896  42.541  53.373  1.00  0.00    -0.504 OA
ATOM     19  H   UNL     1      33.513  42.182  54.092  1.00  0.00     0.293 HD
ENDBRANCH  15  18
BRANCH  17  20
ATOM     20  O   UNL     1      33.357  44.208  55.550  1.00  0.00    -0.504 OA
ATOM     21  H   UNL     1      34.325  43.913  55.613  1.00  0.00     0.293 HD
ENDBRANCH  17  20
ENDBRANCH   1  12
BRANCH   6  22
ATOM     22  O   UNL     1      30.485  53.125  53.288  1.00  0.00    -0.507 OA
ATOM     23  H   UNL     1      31.036  53.964  53.383  1.00  0.00     0.293 HD
ENDBRANCH   6  22
BRANCH   8  24
ATOM     24  O   UNL     1      30.373  51.992  48.625  1.00  0.00    -0.508 OA
ATOM     25  H   UNL     1      30.536  51.358  47.850  1.00  0.00     0.293 HD
ENDBRANCH   8  24
TORSDOF 5
ENDMDL
MODEL 2
REMARK VINA RESULT:    22.959      7.287      9.819
REMARK INTER + INTRA:          26.690
REMARK INTER:                  26.963
REMARK INTRA:                  -0.273
REMARK UNBOUND:                -0.296
REMARK SMILES O=c1cc(-c2ccc(O)c(O)c2)oc2cc(O)cc(O)c12
REMARK SMILES IDX 4 1 3 2 2 3 1 4 21 5 19 6 18 7 16 8 15 9 14 10 13 11 5 12
REMARK SMILES IDX 6 13 7 14 8 15 12 16 10 17 9 18 11 20 20 22 17 24
REMARK H PARENT 9 19 11 21 20 23 17 25
REMARK Flexibility Score: inf
ROOT
ATOM      1  C   UNL     1      33.676  43.074  59.103  1.00  0.00     0.138 A 
ATOM      2  C   UNL     1      34.980  42.563  59.173  1.00  0.00     0.100 A 
ATOM      3  C   UNL     1      35.620  42.144  58.007  1.00  0.00     0.197 A 
ATOM      4  O   UNL     1      36.769  41.639  58.109  1.00  0.00    -0.289 OA
ATOM      5  C   UNL     1      34.964  42.273  56.758  1.00  0.00     0.107 A 
ATOM      6  C   UNL     1      35.532  41.911  55.499  1.00  0.00     0.134 A 
ATOM      7  C   UNL     1      34.749  41.990  54.341  1.00  0.00     0.093 A 
ATOM      8  C   UNL     1      33.439  42.474  54.388  1.00  0.00     0.123 A 
ATOM      9  C   UNL     1      32.893  42.877  55.604  1.00  0.00     0.094 A 
ATOM     10  C   UNL     1      33.636  42.776  56.782  1.00  0.00     0.146 A 
ATOM     11  O   UNL     1      33.070  43.154  57.924  1.00  0.00    -0.456 OA
ENDROOT
BRANCH   1  12
ATOM     12  C   UNL     1      32.948  43.536  60.313  1.00  0.00     0.021 A 
ATOM     13  C   UNL     1      32.641  42.615  61.328  1.00  0.00     0.016 A 
ATOM     14  C   UNL     1      31.964  43.024  62.479  1.00  0.00     0.051 A 
ATOM     15  C   UNL     1      31.591  44.364  62.639  1.00  0.00     0.157 A 
ATOM     16  C   UNL     1      32.581  44.885  60.486  1.00  0.00     0.062 A 
ATOM     17  C   UNL     1      31.903  45.297  61.643  1.00  0.00     0.158 A 
BRANCH  15  18
ATOM     18  O   UNL     1      30.914  44.776  63.785  1.00  0.00    -0.504 OA
ATOM     19  H   UNL     1      30.013  44.387  64.037  1.00  0.00     0.293 HD
ENDBRANCH  15  18
BRANCH  17  20
ATOM     20  O   UNL     1      31.539  46.632  61.811  1.00  0.00    -0.504 OA
ATOM     21  H   UNL     1      30.571  46.929  61.754  1.00  0.00     0.293 HD
ENDBRANCH  17  20
ENDBRANCH   1  12
BRANCH   6  22
ATOM     22  O   UNL     1      36.855  41.492  55.327  1.00  0.00    -0.507 OA
ATOM     23  H   UNL     1      37.658  42.101  55.304  1.00  0.00     0.293 HD
ENDBRANCH   6  22
BRANCH   8  24
ATOM     24  O   UNL     1      32.673  42.564  53.228  1.00  0.00    -0.508 OA
ATOM     25  H   UNL     1      31.720  42.218  53.193  1.00  0.00     0.293 HD
ENDBRANCH   8  24
TORSDOF 5
ENDMDL
