MODEL 1
REMARK VINA RESULT:    -5.713      0.000      0.000
REMARK INTER + INTRA:          -8.015
REMARK INTER:                  -7.216
REMARK INTRA:                  -0.799
REMARK UNBOUND:                -0.799
REMARK SMILES CC(C)[C@@H](C)C=C[C@H](C)[C@H]1CC[C@H]2C3=CC=C4C[C@H](O)CC[C@@]4(C)[C@@H]3CC[C@]12C
REMARK SMILES IDX 8 1 9 2 7 3 6 4 4 5 5 6 2 7 1 8 3 9 10 10 11 11 28 12 12 13
REMARK SMILES IDX 13 14 27 15 29 16 14 17 26 18 25 19 15 20 23 21 16 22 17 23
REMARK SMILES IDX 22 24 24 25 18 26 21 27 19 28 20 29
REMARK H PARENT 20 30
REMARK Flexibility Score: inf
ROOT
ATOM      1  C   UNL     1       7.827   1.253   2.216  1.00  0.00     0.012 C 
ATOM      2  C   UNL     1       8.902   0.276   2.719  1.00  0.00     0.012 C 
ENDROOT
BRANCH   1   3
ATOM      3  C   UNL     1       7.589   2.331   3.254  1.00  0.00    -0.028 C 
ATOM      4  C   UNL     1       7.948   2.189   4.542  1.00  0.00    -0.028 C 
BRANCH   4   5
ATOM      5  C   UNL     1       7.663   3.262   5.568  1.00  0.00     0.011 C 
ATOM      6  C   UNL     1       8.966   3.646   6.284  1.00  0.00     0.012 C 
BRANCH   5   7
ATOM      7  C   UNL     1       6.526   2.802   6.529  1.00  0.00    -0.011 C 
ATOM      8  C   UNL     1       6.390   3.733   7.743  1.00  0.00     0.008 C 
ATOM      9  C   UNL     1       6.664   1.342   6.991  1.00  0.00     0.008 C 
ENDBRANCH   5   7
ENDBRANCH   4   5
ENDBRANCH   1   3
BRANCH   1  10
ATOM     10  C   UNL     1       8.196   1.845   0.819  1.00  0.00     0.002 C 
ATOM     11  C   UNL     1       9.252   0.990   0.071  1.00  0.00     0.005 C 
ATOM     12  C   UNL     1       7.038   2.004  -0.212  1.00  0.00    -0.023 C 
ATOM     13  C   UNL     1       8.927   1.078  -1.427  1.00  0.00     0.009 C 
ATOM     14  C   UNL     1       7.844   2.146  -1.512  1.00  0.00     0.021 C 
ATOM     15  C   UNL     1       6.154   3.279  -0.020  1.00  0.00     0.008 C 
ATOM     16  C   UNL     1       6.136   0.729  -0.221  1.00  0.00     0.012 C 
ATOM     17  C   UNL     1       6.929   2.206  -2.712  1.00  0.00    -0.063 C 
ATOM     18  C   UNL     1       5.762   4.001  -1.342  1.00  0.00     0.009 C 
ATOM     19  C   UNL     1       5.679   3.070  -2.591  1.00  0.00     0.025 C 
ATOM     20  C   UNL     1       7.201   1.589  -3.869  1.00  0.00    -0.000 C 
ATOM     21  C   UNL     1       5.370   3.817  -3.942  1.00  0.00    -0.005 C 
ATOM     22  C   UNL     1       6.353   1.808  -5.052  1.00  0.00    -0.000 C 
ATOM     23  C   UNL     1       5.449   2.804  -5.095  1.00  0.00    -0.061 C 
ATOM     24  C   UNL     1       3.939   4.430  -3.869  1.00  0.00     0.014 C 
ATOM     25  C   UNL     1       6.407   4.935  -4.219  1.00  0.00     0.017 C 
ATOM     26  C   UNL     1       4.740   3.080  -6.403  1.00  0.00     0.063 C 
ATOM     27  C   UNL     1       3.382   4.849  -5.234  1.00  0.00     0.033 C 
ATOM     28  C   UNL     1       3.333   3.651  -6.185  1.00  0.00     0.118 C 
BRANCH  28  29
ATOM     29  O   UNL     1       2.788   4.068  -7.409  1.00  0.00    -0.393 OA
ATOM     30  H   UNL     1       3.292   4.874  -7.692  1.00  0.00     0.210 HD
ENDBRANCH  28  29
ENDBRANCH   1  10
TORSDOF 5
ENDMDL
MODEL 2
REMARK VINA RESULT:    -5.645      3.295      5.763
REMARK INTER + INTRA:          -7.929
REMARK INTER:                  -6.895
REMARK INTRA:                  -1.034
REMARK UNBOUND:                -0.799
REMARK SMILES CC(C)[C@@H](C)C=C[C@H](C)[C@H]1CC[C@H]2C3=CC=C4C[C@H](O)CC[C@@]4(C)[C@@H]3CC[C@]12C
REMARK SMILES IDX 8 1 9 2 7 3 6 4 4 5 5 6 2 7 1 8 3 9 10 10 11 11 28 12 12 13
REMARK SMILES IDX 13 14 27 15 29 16 14 17 26 18 25 19 15 20 23 21 16 22 17 23
REMARK SMILES IDX 22 24 24 25 18 26 21 27 19 28 20 29
REMARK H PARENT 20 30
REMARK Flexibility Score: inf
ROOT
ATOM      1  C   UNL     1       6.829  -0.336  -0.590  1.00  0.00     0.012 C 
ATOM      2  C   UNL     1       7.540  -0.172   0.763  1.00  0.00     0.012 C 
ENDROOT
BRANCH   1   3
ATOM      3  C   UNL     1       6.124  -1.677  -0.639  1.00  0.00    -0.028 C 
ATOM      4  C   UNL     1       4.855  -1.814  -1.062  1.00  0.00    -0.028 C 
BRANCH   4   5
ATOM      5  C   UNL     1       4.159  -3.155  -1.063  1.00  0.00     0.011 C 
ATOM      6  C   UNL     1       5.040  -4.190  -1.779  1.00  0.00     0.012 C 
BRANCH   5   7
ATOM      7  C   UNL     1       2.728  -3.021  -1.663  1.00  0.00    -0.011 C 
ATOM      8  C   UNL     1       1.662  -2.859  -0.570  1.00  0.00     0.008 C 
ATOM      9  C   UNL     1       2.347  -4.170  -2.610  1.00  0.00     0.008 C 
ENDBRANCH   5   7
ENDBRANCH   4   5
ENDBRANCH   1   3
BRANCH   1  10
ATOM     10  C   UNL     1       5.862   0.855  -0.881  1.00  0.00     0.002 C 
ATOM     11  C   UNL     1       5.915   1.945   0.222  1.00  0.00     0.005 C 
ATOM     12  C   UNL     1       6.085   1.643  -2.205  1.00  0.00    -0.023 C 
ATOM     13  C   UNL     1       5.694   3.298  -0.471  1.00  0.00     0.009 C 
ATOM     14  C   UNL     1       5.304   2.930  -1.897  1.00  0.00     0.021 C 
ATOM     15  C   UNL     1       5.480   0.974  -3.482  1.00  0.00     0.008 C 
ATOM     16  C   UNL     1       7.607   1.923  -2.424  1.00  0.00     0.012 C 
ATOM     17  C   UNL     1       5.458   3.937  -3.011  1.00  0.00    -0.063 C 
ATOM     18  C   UNL     1       4.791   1.963  -4.467  1.00  0.00     0.009 C 
ATOM     19  C   UNL     1       5.366   3.414  -4.439  1.00  0.00     0.025 C 
ATOM     20  C   UNL     1       5.611   5.249  -2.793  1.00  0.00    -0.000 C 
ATOM     21  C   UNL     1       4.608   4.433  -5.371  1.00  0.00    -0.005 C 
ATOM     22  C   UNL     1       5.601   6.202  -3.915  1.00  0.00    -0.000 C 
ATOM     23  C   UNL     1       5.193   5.836  -5.143  1.00  0.00    -0.061 C 
ATOM     24  C   UNL     1       4.807   4.008  -6.858  1.00  0.00     0.014 C 
ATOM     25  C   UNL     1       3.096   4.487  -5.038  1.00  0.00     0.017 C 
ATOM     26  C   UNL     1       5.040   6.907  -6.202  1.00  0.00     0.063 C 
ATOM     27  C   UNL     1       4.448   5.108  -7.862  1.00  0.00     0.033 C 
ATOM     28  C   UNL     1       5.292   6.360  -7.614  1.00  0.00     0.118 C 
BRANCH  28  29
ATOM     29  O   UNL     1       4.957   7.329  -8.572  1.00  0.00    -0.393 OA
ATOM     30  H   UNL     1       5.041   6.899  -9.461  1.00  0.00     0.210 HD
ENDBRANCH  28  29
ENDBRANCH   1  10
TORSDOF 5
ENDMDL
MODEL 3
REMARK VINA RESULT:    -5.635      9.408     11.954
REMARK INTER + INTRA:          -7.916
REMARK INTER:                  -7.000
REMARK INTRA:                  -0.917
REMARK UNBOUND:                -0.799
REMARK SMILES CC(C)[C@@H](C)C=C[C@H](C)[C@H]1CC[C@H]2C3=CC=C4C[C@H](O)CC[C@@]4(C)[C@@H]3CC[C@]12C
REMARK SMILES IDX 8 1 9 2 7 3 6 4 4 5 5 6 2 7 1 8 3 9 10 10 11 11 28 12 12 13
REMARK SMILES IDX 13 14 27 15 29 16 14 17 26 18 25 19 15 20 23 21 16 22 17 23
REMARK SMILES IDX 22 24 24 25 18 26 21 27 19 28 20 29
REMARK H PARENT 20 30
REMARK Flexibility Score: inf
ROOT
ATOM      1  C   UNL     1       1.647  -5.867  -4.711  1.00  0.00     0.012 C 
ATOM      2  C   UNL     1       2.871  -6.638  -5.230  1.00  0.00     0.012 C 
ENDROOT
BRANCH   1   3
ATOM      3  C   UNL     1       2.026  -5.073  -3.477  1.00  0.00    -0.028 C 
ATOM      4  C   UNL     1       2.650  -5.625  -2.423  1.00  0.00    -0.028 C 
BRANCH   4   5
ATOM      5  C   UNL     1       2.982  -4.822  -1.186  1.00  0.00     0.011 C 
ATOM      6  C   UNL     1       2.352  -5.491   0.045  1.00  0.00     0.012 C 
BRANCH   5   7
ATOM      7  C   UNL     1       2.564  -3.334  -1.379  1.00  0.00    -0.011 C 
ATOM      8  C   UNL     1       3.767  -2.384  -1.281  1.00  0.00     0.008 C 
ATOM      9  C   UNL     1       1.448  -2.879  -0.425  1.00  0.00     0.008 C 
ENDBRANCH   5   7
ENDBRANCH   4   5
ENDBRANCH   1   3
BRANCH   1  10
ATOM     10  C   UNL     1       1.016  -4.972  -5.824  1.00  0.00     0.002 C 
ATOM     11  C   UNL     1       1.335  -5.486  -7.252  1.00  0.00     0.005 C 
ATOM     12  C   UNL     1      -0.534  -4.816  -5.814  1.00  0.00    -0.023 C 
ATOM     13  C   UNL     1       0.113  -5.173  -8.128  1.00  0.00     0.009 C 
ATOM     14  C   UNL     1      -0.769  -4.302  -7.243  1.00  0.00     0.021 C 
ATOM     15  C   UNL     1      -1.086  -3.764  -4.798  1.00  0.00     0.008 C 
ATOM     16  C   UNL     1      -1.221  -6.198  -5.572  1.00  0.00     0.012 C 
ATOM     17  C   UNL     1      -2.244  -4.170  -7.536  1.00  0.00    -0.063 C 
ATOM     18  C   UNL     1      -2.246  -2.881  -5.345  1.00  0.00     0.009 C 
ATOM     19  C   UNL     1      -3.118  -3.563  -6.445  1.00  0.00     0.025 C 
ATOM     20  C   UNL     1      -2.788  -4.506  -8.713  1.00  0.00    -0.000 C 
ATOM     21  C   UNL     1      -4.234  -2.637  -7.059  1.00  0.00    -0.005 C 
ATOM     22  C   UNL     1      -4.202  -4.212  -8.995  1.00  0.00    -0.000 C 
ATOM     23  C   UNL     1      -4.920  -3.390  -8.210  1.00  0.00    -0.061 C 
ATOM     24  C   UNL     1      -5.276  -2.293  -5.951  1.00  0.00     0.014 C 
ATOM     25  C   UNL     1      -3.630  -1.331  -7.636  1.00  0.00     0.017 C 
ATOM     26  C   UNL     1      -6.311  -2.994  -8.658  1.00  0.00     0.063 C 
ATOM     27  C   UNL     1      -6.588  -1.724  -6.502  1.00  0.00     0.033 C 
ATOM     28  C   UNL     1      -7.240  -2.714  -7.470  1.00  0.00     0.118 C 
BRANCH  28  29
ATOM     29  O   UNL     1      -8.451  -2.171  -7.924  1.00  0.00    -0.393 OA
ATOM     30  H   UNL     1      -8.683  -1.425  -7.314  1.00  0.00     0.210 HD
ENDBRANCH  28  29
ENDBRANCH   1  10
TORSDOF 5
ENDMDL
MODEL 4
REMARK VINA RESULT:    -5.576      7.597      9.115
REMARK INTER + INTRA:          -7.841
REMARK INTER:                  -6.830
REMARK INTRA:                  -1.012
REMARK UNBOUND:                -0.799
REMARK SMILES CC(C)[C@@H](C)C=C[C@H](C)[C@H]1CC[C@H]2C3=CC=C4C[C@H](O)CC[C@@]4(C)[C@@H]3CC[C@]12C
REMARK SMILES IDX 8 1 9 2 7 3 6 4 4 5 5 6 2 7 1 8 3 9 10 10 11 11 28 12 12 13
REMARK SMILES IDX 13 14 27 15 29 16 14 17 26 18 25 19 15 20 23 21 16 22 17 23
REMARK SMILES IDX 22 24 24 25 18 26 21 27 19 28 20 29
REMARK H PARENT 20 30
REMARK Flexibility Score: inf
ROOT
ATOM      1  C   UNL     1       5.990  -3.504  -0.495  1.00  0.00     0.012 C 
ATOM      2  C   UNL     1       7.161  -4.043   0.343  1.00  0.00     0.012 C 
ENDROOT
BRANCH   1   3
ATOM      3  C   UNL     1       6.253  -2.061  -0.874  1.00  0.00    -0.028 C 
ATOM      4  C   UNL     1       5.336  -1.091  -0.715  1.00  0.00    -0.028 C 
BRANCH   4   5
ATOM      5  C   UNL     1       5.605   0.335  -1.139  1.00  0.00     0.011 C 
ATOM      6  C   UNL     1       6.864   0.379  -2.017  1.00  0.00     0.012 C 
BRANCH   5   7
ATOM      7  C   UNL     1       5.671   1.266   0.107  1.00  0.00    -0.011 C 
ATOM      8  C   UNL     1       5.299   2.715  -0.241  1.00  0.00     0.008 C 
ATOM      9  C   UNL     1       7.024   1.225   0.835  1.00  0.00     0.008 C 
ENDBRANCH   5   7
ENDBRANCH   4   5
ENDBRANCH   1   3
BRANCH   1  10
ATOM     10  C   UNL     1       5.712  -4.405  -1.740  1.00  0.00     0.002 C 
ATOM     11  C   UNL     1       6.298  -5.832  -1.583  1.00  0.00     0.005 C 
ATOM     12  C   UNL     1       4.221  -4.647  -2.121  1.00  0.00    -0.023 C 
ATOM     13  C   UNL     1       5.340  -6.795  -2.300  1.00  0.00     0.009 C 
ATOM     14  C   UNL     1       4.364  -5.880  -3.027  1.00  0.00     0.021 C 
ATOM     15  C   UNL     1       3.551  -3.492  -2.934  1.00  0.00     0.008 C 
ATOM     16  C   UNL     1       3.374  -4.956  -0.844  1.00  0.00     0.012 C 
ATOM     17  C   UNL     1       3.011  -6.398  -3.454  1.00  0.00    -0.063 C 
ATOM     18  C   UNL     1       2.630  -3.967  -4.096  1.00  0.00     0.009 C 
ATOM     19  C   UNL     1       1.971  -5.365  -3.873  1.00  0.00     0.025 C 
ATOM     20  C   UNL     1       2.720  -7.702  -3.530  1.00  0.00    -0.000 C 
ATOM     21  C   UNL     1       1.112  -5.882  -5.087  1.00  0.00    -0.005 C 
ATOM     22  C   UNL     1       1.439  -8.151  -4.100  1.00  0.00    -0.000 C 
ATOM     23  C   UNL     1       0.639  -7.312  -4.782  1.00  0.00    -0.061 C 
ATOM     24  C   UNL     1      -0.118  -4.943  -5.276  1.00  0.00     0.014 C 
ATOM     25  C   UNL     1       1.947  -5.924  -6.392  1.00  0.00     0.017 C 
ATOM     26  C   UNL     1      -0.572  -7.881  -5.488  1.00  0.00     0.063 C 
ATOM     27  C   UNL     1      -1.214  -5.542  -6.164  1.00  0.00     0.033 C 
ATOM     28  C   UNL     1      -1.717  -6.864  -5.579  1.00  0.00     0.118 C 
BRANCH  28  29
ATOM     29  O   UNL     1      -2.739  -7.362  -6.400  1.00  0.00    -0.393 OA
ATOM     30  H   UNL     1      -2.717  -8.350  -6.325  1.00  0.00     0.210 HD
ENDBRANCH  28  29
ENDBRANCH   1  10
TORSDOF 5
ENDMDL
MODEL 5
REMARK VINA RESULT:    -5.481      2.833      5.374
REMARK INTER + INTRA:          -7.722
REMARK INTER:                  -6.432
REMARK INTRA:                  -1.290
REMARK UNBOUND:                -0.799
REMARK SMILES CC(C)[C@@H](C)C=C[C@H](C)[C@H]1CC[C@H]2C3=CC=C4C[C@H](O)CC[C@@]4(C)[C@@H]3CC[C@]12C
REMARK SMILES IDX 8 1 9 2 7 3 6 4 4 5 5 6 2 7 1 8 3 9 10 10 11 11 28 12 12 13
REMARK SMILES IDX 13 14 27 15 29 16 14 17 26 18 25 19 15 20 23 21 16 22 17 23
REMARK SMILES IDX 22 24 24 25 18 26 21 27 19 28 20 29
REMARK H PARENT 20 30
REMARK Flexibility Score: inf
ROOT
ATOM      1  C   UNL     1       7.555   0.442   0.007  1.00  0.00     0.012 C 
ATOM      2  C   UNL     1       7.955   0.699   1.469  1.00  0.00     0.012 C 
ENDROOT
BRANCH   1   3
ATOM      3  C   UNL     1       7.216  -1.023  -0.182  1.00  0.00    -0.028 C 
ATOM      4  C   UNL     1       6.004  -1.441  -0.587  1.00  0.00    -0.028 C 
BRANCH   4   5
ATOM      5  C   UNL     1       5.677  -2.910  -0.729  1.00  0.00     0.011 C 
ATOM      6  C   UNL     1       6.964  -3.696  -1.019  1.00  0.00     0.012 C 
BRANCH   5   7
ATOM      7  C   UNL     1       4.558  -3.114  -1.792  1.00  0.00    -0.011 C 
ATOM      8  C   UNL     1       4.765  -2.218  -3.022  1.00  0.00     0.008 C 
ATOM      9  C   UNL     1       3.137  -2.931  -1.234  1.00  0.00     0.008 C 
ENDBRANCH   5   7
ENDBRANCH   4   5
ENDBRANCH   1   3
BRANCH   1  10
ATOM     10  C   UNL     1       6.394   1.383  -0.446  1.00  0.00     0.002 C 
ATOM     11  C   UNL     1       6.173   2.567   0.532  1.00  0.00     0.005 C 
ATOM     12  C   UNL     1       6.536   2.064  -1.840  1.00  0.00    -0.023 C 
ATOM     13  C   UNL     1       5.735   3.774  -0.311  1.00  0.00     0.009 C 
ATOM     14  C   UNL     1       5.505   3.195  -1.701  1.00  0.00     0.021 C 
ATOM     15  C   UNL     1       6.145   1.165  -3.057  1.00  0.00     0.008 C 
ATOM     16  C   UNL     1       7.985   2.616  -2.033  1.00  0.00     0.012 C 
ATOM     17  C   UNL     1       5.525   4.097  -2.912  1.00  0.00    -0.063 C 
ATOM     18  C   UNL     1       5.335   1.895  -4.169  1.00  0.00     0.009 C 
ATOM     19  C   UNL     1       5.616   3.426  -4.278  1.00  0.00     0.025 C 
ATOM     20  C   UNL     1       5.409   5.429  -2.832  1.00  0.00    -0.000 C 
ATOM     21  C   UNL     1       4.731   4.177  -5.342  1.00  0.00    -0.005 C 
ATOM     22  C   UNL     1       5.279   6.243  -4.051  1.00  0.00    -0.000 C 
ATOM     23  C   UNL     1       5.020   5.684  -5.247  1.00  0.00    -0.061 C 
ATOM     24  C   UNL     1       5.092   3.654  -6.765  1.00  0.00     0.014 C 
ATOM     25  C   UNL     1       3.220   3.964  -5.071  1.00  0.00     0.017 C 
ATOM     26  C   UNL     1       4.724   6.592  -6.421  1.00  0.00     0.063 C 
ATOM     27  C   UNL     1       4.585   4.556  -7.895  1.00  0.00     0.033 C 
ATOM     28  C   UNL     1       5.157   5.969  -7.754  1.00  0.00     0.118 C 
BRANCH  28  29
ATOM     29  O   UNL     1       4.696   6.752  -8.823  1.00  0.00    -0.393 OA
ATOM     30  H   UNL     1       3.706   6.770  -8.765  1.00  0.00     0.210 HD
ENDBRANCH  28  29
ENDBRANCH   1  10
TORSDOF 5
ENDMDL
MODEL 6
REMARK VINA RESULT:    -5.433      3.750      9.551
REMARK INTER + INTRA:          -7.662
REMARK INTER:                  -6.663
REMARK INTRA:                  -0.998
REMARK UNBOUND:                -0.799
REMARK SMILES CC(C)[C@@H](C)C=C[C@H](C)[C@H]1CC[C@H]2C3=CC=C4C[C@H](O)CC[C@@]4(C)[C@@H]3CC[C@]12C
REMARK SMILES IDX 8 1 9 2 7 3 6 4 4 5 5 6 2 7 1 8 3 9 10 10 11 11 28 12 12 13
REMARK SMILES IDX 13 14 27 15 29 16 14 17 26 18 25 19 15 20 23 21 16 22 17 23
REMARK SMILES IDX 22 24 24 25 18 26 21 27 19 28 20 29
REMARK H PARENT 20 30
REMARK Flexibility Score: inf
ROOT
ATOM      1  C   UNL     1       5.823   5.613  -7.118  1.00  0.00     0.012 C 
ATOM      2  C   UNL     1       4.407   6.168  -7.343  1.00  0.00     0.012 C 
ENDROOT
BRANCH   1   3
ATOM      3  C   UNL     1       6.802   6.320  -8.033  1.00  0.00    -0.028 C 
ATOM      4  C   UNL     1       7.694   7.220  -7.585  1.00  0.00    -0.028 C 
BRANCH   4   5
ATOM      5  C   UNL     1       8.633   7.944  -8.523  1.00  0.00     0.011 C 
ATOM      6  C   UNL     1       9.982   7.210  -8.565  1.00  0.00     0.012 C 
BRANCH   5   7
ATOM      7  C   UNL     1       8.743   9.445  -8.126  1.00  0.00    -0.011 C 
ATOM      8  C   UNL     1      10.096   9.768  -7.474  1.00  0.00     0.008 C 
ATOM      9  C   UNL     1       7.593   9.931  -7.230  1.00  0.00     0.008 C 
ENDBRANCH   5   7
ENDBRANCH   4   5
ENDBRANCH   1   3
BRANCH   1  10
ATOM     10  C   UNL     1       6.244   5.701  -5.617  1.00  0.00     0.002 C 
ATOM     11  C   UNL     1       5.272   6.572  -4.778  1.00  0.00     0.005 C 
ATOM     12  C   UNL     1       6.333   4.362  -4.825  1.00  0.00    -0.023 C 
ATOM     13  C   UNL     1       5.209   5.952  -3.373  1.00  0.00     0.009 C 
ATOM     14  C   UNL     1       6.301   4.891  -3.383  1.00  0.00     0.021 C 
ATOM     15  C   UNL     1       7.654   3.554  -5.042  1.00  0.00     0.008 C 
ATOM     16  C   UNL     1       5.100   3.457  -5.142  1.00  0.00     0.012 C 
ATOM     17  C   UNL     1       6.264   3.754  -2.390  1.00  0.00    -0.063 C 
ATOM     18  C   UNL     1       8.241   2.914  -3.750  1.00  0.00     0.009 C 
ATOM     19  C   UNL     1       7.182   2.567  -2.657  1.00  0.00     0.025 C 
ATOM     20  C   UNL     1       5.514   3.777  -1.281  1.00  0.00    -0.000 C 
ATOM     21  C   UNL     1       7.789   2.003  -1.318  1.00  0.00    -0.005 C 
ATOM     22  C   UNL     1       5.634   2.711  -0.273  1.00  0.00    -0.000 C 
ATOM     23  C   UNL     1       6.653   1.833  -0.297  1.00  0.00    -0.061 C 
ATOM     24  C   UNL     1       8.460   0.626  -1.603  1.00  0.00     0.014 C 
ATOM     25  C   UNL     1       8.830   2.980  -0.714  1.00  0.00     0.017 C 
ATOM     26  C   UNL     1       6.811   0.878   0.867  1.00  0.00     0.063 C 
ATOM     27  C   UNL     1       8.748  -0.188  -0.337  1.00  0.00     0.033 C 
ATOM     28  C   UNL     1       7.456  -0.447   0.441  1.00  0.00     0.118 C 
BRANCH  28  29
ATOM     29  O   UNL     1       7.756  -1.221   1.572  1.00  0.00    -0.393 OA
ATOM     30  H   UNL     1       6.894  -1.529   1.951  1.00  0.00     0.210 HD
ENDBRANCH  28  29
ENDBRANCH   1  10
TORSDOF 5
ENDMDL
MODEL 7
REMARK VINA RESULT:    -5.171      8.964     13.002
REMARK INTER + INTRA:          -7.330
REMARK INTER:                  -6.011
REMARK INTRA:                  -1.320
REMARK UNBOUND:                -0.799
REMARK SMILES CC(C)[C@@H](C)C=C[C@H](C)[C@H]1CC[C@H]2C3=CC=C4C[C@H](O)CC[C@@]4(C)[C@@H]3CC[C@]12C
REMARK SMILES IDX 8 1 9 2 7 3 6 4 4 5 5 6 2 7 1 8 3 9 10 10 11 11 28 12 12 13
REMARK SMILES IDX 13 14 27 15 29 16 14 17 26 18 25 19 15 20 23 21 16 22 17 23
REMARK SMILES IDX 22 24 24 25 18 26 21 27 19 28 20 29
REMARK H PARENT 20 30
REMARK Flexibility Score: inf
ROOT
ATOM      1  C   UNL     1      -0.421  -6.533  -7.600  1.00  0.00     0.012 C 
ATOM      2  C   UNL     1      -0.824  -7.884  -8.216  1.00  0.00     0.012 C 
ENDROOT
BRANCH   1   3
ATOM      3  C   UNL     1      -1.450  -5.480  -7.957  1.00  0.00    -0.028 C 
ATOM      4  C   UNL     1      -2.307  -4.969  -7.057  1.00  0.00    -0.028 C 
BRANCH   4   5
ATOM      5  C   UNL     1      -3.353  -3.949  -7.446  1.00  0.00     0.011 C 
ATOM      6  C   UNL     1      -3.061  -3.428  -8.861  1.00  0.00     0.012 C 
BRANCH   5   7
ATOM      7  C   UNL     1      -3.444  -2.829  -6.367  1.00  0.00    -0.011 C 
ATOM      8  C   UNL     1      -2.670  -3.198  -5.092  1.00  0.00     0.008 C 
ATOM      9  C   UNL     1      -4.885  -2.428  -6.016  1.00  0.00     0.008 C 
ENDBRANCH   5   7
ENDBRANCH   4   5
ENDBRANCH   1   3
BRANCH   1  10
ATOM     10  C   UNL     1      -0.198  -6.648  -6.059  1.00  0.00     0.002 C 
ATOM     11  C   UNL     1      -0.093  -8.120  -5.581  1.00  0.00     0.005 C 
ATOM     12  C   UNL     1       1.074  -5.967  -5.474  1.00  0.00    -0.023 C 
ATOM     13  C   UNL     1       0.903  -8.145  -4.412  1.00  0.00     0.009 C 
ATOM     14  C   UNL     1       1.166  -6.675  -4.113  1.00  0.00     0.021 C 
ATOM     15  C   UNL     1       0.951  -4.426  -5.238  1.00  0.00     0.008 C 
ATOM     16  C   UNL     1       2.317  -6.267  -6.373  1.00  0.00     0.012 C 
ATOM     17  C   UNL     1       2.415  -6.262  -3.371  1.00  0.00    -0.063 C 
ATOM     18  C   UNL     1       1.587  -3.920  -3.911  1.00  0.00     0.009 C 
ATOM     19  C   UNL     1       2.779  -4.782  -3.391  1.00  0.00     0.025 C 
ATOM     20  C   UNL     1       3.162  -7.121  -2.666  1.00  0.00    -0.000 C 
ATOM     21  C   UNL     1       3.362  -4.320  -2.003  1.00  0.00    -0.005 C 
ATOM     22  C   UNL     1       4.279  -6.637  -1.838  1.00  0.00    -0.000 C 
ATOM     23  C   UNL     1       4.432  -5.330  -1.558  1.00  0.00    -0.061 C 
ATOM     24  C   UNL     1       3.998  -2.906  -2.164  1.00  0.00     0.014 C 
ATOM     25  C   UNL     1       2.261  -4.281  -0.913  1.00  0.00     0.017 C 
ATOM     26  C   UNL     1       5.494  -4.924  -0.559  1.00  0.00     0.063 C 
ATOM     27  C   UNL     1       4.918  -2.514  -1.003  1.00  0.00     0.033 C 
ATOM     28  C   UNL     1       6.055  -3.527  -0.852  1.00  0.00     0.118 C 
BRANCH  28  29
ATOM     29  O   UNL     1       6.891  -3.115   0.198  1.00  0.00    -0.393 OA
ATOM     30  H   UNL     1       7.242  -2.220  -0.045  1.00  0.00     0.210 HD
ENDBRANCH  28  29
ENDBRANCH   1  10
TORSDOF 5
ENDMDL
MODEL 8
REMARK VINA RESULT:    -5.068      4.193      7.852
REMARK INTER + INTRA:          -7.201
REMARK INTER:                  -5.977
REMARK INTRA:                  -1.224
REMARK UNBOUND:                -0.799
REMARK SMILES CC(C)[C@@H](C)C=C[C@H](C)[C@H]1CC[C@H]2C3=CC=C4C[C@H](O)CC[C@@]4(C)[C@@H]3CC[C@]12C
REMARK SMILES IDX 8 1 9 2 7 3 6 4 4 5 5 6 2 7 1 8 3 9 10 10 11 11 28 12 12 13
REMARK SMILES IDX 13 14 27 15 29 16 14 17 26 18 25 19 15 20 23 21 16 22 17 23
REMARK SMILES IDX 22 24 24 25 18 26 21 27 19 28 20 29
REMARK H PARENT 20 30
REMARK Flexibility Score: inf
ROOT
ATOM      1  C   UNL     1       7.901   2.946  -1.216  1.00  0.00     0.012 C 
ATOM      2  C   UNL     1       9.233   3.704  -1.331  1.00  0.00     0.012 C 
ENDROOT
BRANCH   1   3
ATOM      3  C   UNL     1       6.822   3.687  -1.979  1.00  0.00    -0.028 C 
ATOM      4  C   UNL     1       6.802   3.759  -3.321  1.00  0.00    -0.028 C 
BRANCH   4   5
ATOM      5  C   UNL     1       5.738   4.539  -4.059  1.00  0.00     0.011 C 
ATOM      6  C   UNL     1       5.579   5.925  -3.415  1.00  0.00     0.012 C 
BRANCH   5   7
ATOM      7  C   UNL     1       4.416   3.719  -4.127  1.00  0.00    -0.011 C 
ATOM      8  C   UNL     1       4.587   2.424  -4.935  1.00  0.00     0.008 C 
ATOM      9  C   UNL     1       3.219   4.523  -4.660  1.00  0.00     0.008 C 
ENDBRANCH   5   7
ENDBRANCH   4   5
ENDBRANCH   1   3
BRANCH   1  10
ATOM     10  C   UNL     1       8.043   1.461  -1.678  1.00  0.00     0.002 C 
ATOM     11  C   UNL     1       9.372   0.815  -1.204  1.00  0.00     0.005 C 
ATOM     12  C   UNL     1       6.945   0.462  -1.203  1.00  0.00    -0.023 C 
ATOM     13  C   UNL     1       9.078  -0.666  -0.921  1.00  0.00     0.009 C 
ATOM     14  C   UNL     1       7.664  -0.874  -1.446  1.00  0.00     0.021 C 
ATOM     15  C   UNL     1       5.623   0.488  -2.036  1.00  0.00     0.008 C 
ATOM     16  C   UNL     1       6.623   0.684   0.310  1.00  0.00     0.012 C 
ATOM     17  C   UNL     1       6.833  -2.034  -0.950  1.00  0.00    -0.063 C 
ATOM     18  C   UNL     1       5.013  -0.914  -2.328  1.00  0.00     0.009 C 
ATOM     19  C   UNL     1       5.340  -2.000  -1.256  1.00  0.00     0.025 C 
ATOM     20  C   UNL     1       7.358  -3.090  -0.318  1.00  0.00    -0.000 C 
ATOM     21  C   UNL     1       4.797  -3.438  -1.599  1.00  0.00    -0.005 C 
ATOM     22  C   UNL     1       6.525  -4.260   0.005  1.00  0.00    -0.000 C 
ATOM     23  C   UNL     1       5.302  -4.422  -0.532  1.00  0.00    -0.061 C 
ATOM     24  C   UNL     1       3.238  -3.406  -1.599  1.00  0.00     0.014 C 
ATOM     25  C   UNL     1       5.313  -3.923  -2.977  1.00  0.00     0.017 C 
ATOM     26  C   UNL     1       4.577  -5.730  -0.297  1.00  0.00     0.063 C 
ATOM     27  C   UNL     1       2.599  -4.798  -1.544  1.00  0.00     0.033 C 
ATOM     28  C   UNL     1       3.054  -5.550  -0.291  1.00  0.00     0.118 C 
BRANCH  28  29
ATOM     29  O   UNL     1       2.422  -6.802  -0.261  1.00  0.00    -0.393 OA
ATOM     30  H   UNL     1       3.055  -7.437   0.162  1.00  0.00     0.210 HD
ENDBRANCH  28  29
ENDBRANCH   1  10
TORSDOF 5
ENDMDL
MODEL 9
REMARK VINA RESULT:    -4.956      3.577      9.265
REMARK INTER + INTRA:          -7.059
REMARK INTER:                  -5.699
REMARK INTRA:                  -1.360
REMARK UNBOUND:                -0.799
REMARK SMILES CC(C)[C@@H](C)C=C[C@H](C)[C@H]1CC[C@H]2C3=CC=C4C[C@H](O)CC[C@@]4(C)[C@@H]3CC[C@]12C
REMARK SMILES IDX 8 1 9 2 7 3 6 4 4 5 5 6 2 7 1 8 3 9 10 10 11 11 28 12 12 13
REMARK SMILES IDX 13 14 27 15 29 16 14 17 26 18 25 19 15 20 23 21 16 22 17 23
REMARK SMILES IDX 22 24 24 25 18 26 21 27 19 28 20 29
REMARK H PARENT 20 30
REMARK Flexibility Score: inf
ROOT
ATOM      1  C   UNL     1       4.055   6.930  -7.262  1.00  0.00     0.012 C 
ATOM      2  C   UNL     1       4.297   7.288  -8.737  1.00  0.00     0.012 C 
ENDROOT
BRANCH   1   3
ATOM      3  C   UNL     1       2.568   6.799  -7.003  1.00  0.00    -0.028 C 
ATOM      4  C   UNL     1       1.896   5.652  -7.199  1.00  0.00    -0.028 C 
BRANCH   4   5
ATOM      5  C   UNL     1       0.404   5.556  -6.973  1.00  0.00     0.011 C 
ATOM      6  C   UNL     1      -0.122   6.901  -6.448  1.00  0.00     0.012 C 
BRANCH   5   7
ATOM      7  C   UNL     1       0.072   4.345  -6.053  1.00  0.00    -0.011 C 
ATOM      8  C   UNL     1      -0.031   4.758  -4.577  1.00  0.00     0.008 C 
ATOM      9  C   UNL     1       1.049   3.168  -6.208  1.00  0.00     0.008 C 
ENDBRANCH   5   7
ENDBRANCH   4   5
ENDBRANCH   1   3
BRANCH   1  10
ATOM     10  C   UNL     1       4.845   5.649  -6.844  1.00  0.00     0.002 C 
ATOM     11  C   UNL     1       6.247   5.575  -7.504  1.00  0.00     0.005 C 
ATOM     12  C   UNL     1       5.131   5.456  -5.325  1.00  0.00    -0.023 C 
ATOM     13  C   UNL     1       7.188   4.902  -6.493  1.00  0.00     0.009 C 
ATOM     14  C   UNL     1       6.261   4.416  -5.386  1.00  0.00     0.021 C 
ATOM     15  C   UNL     1       3.941   4.866  -4.499  1.00  0.00     0.008 C 
ATOM     16  C   UNL     1       5.607   6.799  -4.684  1.00  0.00     0.012 C 
ATOM     17  C   UNL     1       6.808   4.130  -4.008  1.00  0.00    -0.063 C 
ATOM     18  C   UNL     1       4.352   3.801  -3.441  1.00  0.00     0.009 C 
ATOM     19  C   UNL     1       5.798   3.968  -2.878  1.00  0.00     0.025 C 
ATOM     20  C   UNL     1       8.113   3.961  -3.762  1.00  0.00    -0.000 C 
ATOM     21  C   UNL     1       6.241   2.838  -1.875  1.00  0.00    -0.005 C 
ATOM     22  C   UNL     1       8.575   3.531  -2.432  1.00  0.00    -0.000 C 
ATOM     23  C   UNL     1       7.718   3.057  -1.509  1.00  0.00    -0.061 C 
ATOM     24  C   UNL     1       5.357   2.919  -0.594  1.00  0.00     0.014 C 
ATOM     25  C   UNL     1       6.112   1.432  -2.515  1.00  0.00     0.017 C 
ATOM     26  C   UNL     1       8.282   2.470  -0.233  1.00  0.00     0.063 C 
ATOM     27  C   UNL     1       5.928   2.135   0.593  1.00  0.00     0.033 C 
ATOM     28  C   UNL     1       7.325   2.645   0.953  1.00  0.00     0.118 C 
BRANCH  28  29
ATOM     29  O   UNL     1       7.797   1.926   2.062  1.00  0.00    -0.393 OA
ATOM     30  H   UNL     1       8.151   1.065   1.721  1.00  0.00     0.210 HD
ENDBRANCH  28  29
ENDBRANCH   1  10
TORSDOF 5
ENDMDL
