MODEL 1
REMARK VINA RESULT:    -3.668      0.000      0.000
REMARK INTER + INTRA:          -5.502
REMARK INTER:                  -5.061
REMARK INTRA:                  -0.441
REMARK UNBOUND:                -0.441
REMARK SMILES CCCCCCCCO
REMARK SMILES IDX 5 1 4 2 3 3 2 4 1 5 6 6 7 7 8 8 9 9
REMARK H PARENT 9 10
REMARK Flexibility Score: inf
ROOT
ATOM      1  C   UNL     1     118.167 118.096 117.367  1.00  0.00     0.000 C 
ENDROOT
BRANCH   1   2
ATOM      2  C   UNL     1     118.286 119.612 117.593  1.00  0.00    -0.000 C 
BRANCH   2   3
ATOM      3  C   UNL     1     119.675 120.027 118.102  1.00  0.00    -0.000 C 
BRANCH   3   4
ATOM      4  C   UNL     1     119.562 121.111 119.180  1.00  0.00    -0.003 C 
ATOM      5  C   UNL     1     118.309 120.917 120.030  1.00  0.00     0.004 C 
ENDBRANCH   3   4
ENDBRANCH   2   3
ENDBRANCH   1   2
BRANCH   1   6
ATOM      6  C   UNL     1     118.563 117.279 118.605  1.00  0.00     0.002 C 
BRANCH   6   7
ATOM      7  C   UNL     1     117.376 116.453 119.120  1.00  0.00     0.028 C 
BRANCH   7   8
ATOM      8  C   UNL     1     116.822 117.011 120.435  1.00  0.00     0.156 C 
BRANCH   8   9
ATOM      9  O   UNL     1     116.009 118.129 120.202  1.00  0.00    -0.396 OA
ATOM     10  H   UNL     1     116.110 118.722 120.992  1.00  0.00     0.210 HD
ENDBRANCH   8   9
ENDBRANCH   7   8
ENDBRANCH   6   7
ENDBRANCH   1   6
TORSDOF 7
ENDMDL
MODEL 2
REMARK VINA RESULT:    -3.662      2.239      4.118
REMARK INTER + INTRA:          -5.495
REMARK INTER:                  -5.004
REMARK INTRA:                  -0.491
REMARK UNBOUND:                -0.441
REMARK SMILES CCCCCCCCO
REMARK SMILES IDX 5 1 4 2 3 3 2 4 1 5 6 6 7 7 8 8 9 9
REMARK H PARENT 9 10
REMARK Flexibility Score: inf
ROOT
ATOM      1  C   UNL     1     119.668 119.688 117.421  1.00  0.00     0.000 C 
ENDROOT
BRANCH   1   2
ATOM      2  C   UNL     1     119.239 118.212 117.372  1.00  0.00    -0.000 C 
BRANCH   2   3
ATOM      3  C   UNL     1     117.816 117.991 117.905  1.00  0.00    -0.000 C 
BRANCH   3   4
ATOM      4  C   UNL     1     117.757 116.763 118.820  1.00  0.00    -0.003 C 
ATOM      5  C   UNL     1     118.964 116.711 119.752  1.00  0.00     0.004 C 
ENDBRANCH   3   4
ENDBRANCH   2   3
ENDBRANCH   1   2
BRANCH   1   6
ATOM      6  C   UNL     1     119.160 120.411 118.676  1.00  0.00     0.002 C 
BRANCH   6   7
ATOM      7  C   UNL     1     120.331 120.932 119.521  1.00  0.00     0.028 C 
BRANCH   7   8
ATOM      8  C   UNL     1     120.741 119.928 120.604  1.00  0.00     0.156 C 
BRANCH   8   9
ATOM      9  O   UNL     1     121.743 119.066 120.136  1.00  0.00    -0.396 OA
ATOM     10  H   UNL     1     121.667 118.229 120.664  1.00  0.00     0.210 HD
ENDBRANCH   8   9
ENDBRANCH   7   8
ENDBRANCH   6   7
ENDBRANCH   1   6
TORSDOF 7
ENDMDL
MODEL 3
REMARK VINA RESULT:    -3.651      1.556      3.023
REMARK INTER + INTRA:          -5.479
REMARK INTER:                  -4.991
REMARK INTRA:                  -0.487
REMARK UNBOUND:                -0.441
REMARK SMILES CCCCCCCCO
REMARK SMILES IDX 5 1 4 2 3 3 2 4 1 5 6 6 7 7 8 8 9 9
REMARK H PARENT 9 10
REMARK Flexibility Score: inf
ROOT
ATOM      1  C   UNL     1     119.371 119.295 117.235  1.00  0.00     0.000 C 
ENDROOT
BRANCH   1   2
ATOM      2  C   UNL     1     119.784 117.885 117.689  1.00  0.00    -0.000 C 
BRANCH   2   3
ATOM      3  C   UNL     1     120.527 117.891 119.033  1.00  0.00    -0.000 C 
BRANCH   3   4
ATOM      4  C   UNL     1     120.013 116.772 119.947  1.00  0.00    -0.003 C 
ATOM      5  C   UNL     1     118.562 116.423 119.631  1.00  0.00     0.004 C 
ENDBRANCH   3   4
ENDBRANCH   2   3
ENDBRANCH   1   2
BRANCH   1   6
ATOM      6  C   UNL     1     118.641 120.081 118.333  1.00  0.00     0.002 C 
BRANCH   6   7
ATOM      7  C   UNL     1     117.142 119.749 118.341  1.00  0.00     0.028 C 
BRANCH   7   8
ATOM      8  C   UNL     1     116.562 119.777 119.759  1.00  0.00     0.156 C 
BRANCH   8   9
ATOM      9  O   UNL     1     115.856 118.597 120.035  1.00  0.00    -0.396 OA
ATOM     10  H   UNL     1     116.490 117.847 119.890  1.00  0.00     0.210 HD
ENDBRANCH   8   9
ENDBRANCH   7   8
ENDBRANCH   6   7
ENDBRANCH   1   6
TORSDOF 7
ENDMDL
MODEL 4
REMARK VINA RESULT:    -3.647      1.310      1.828
REMARK INTER + INTRA:          -5.474
REMARK INTER:                  -4.945
REMARK INTRA:                  -0.530
REMARK UNBOUND:                -0.441
REMARK SMILES CCCCCCCCO
REMARK SMILES IDX 5 1 4 2 3 3 2 4 1 5 6 6 7 7 8 8 9 9
REMARK H PARENT 9 10
REMARK Flexibility Score: inf
ROOT
ATOM      1  C   UNL     1     118.239 119.386 117.505  1.00  0.00     0.000 C 
ENDROOT
BRANCH   1   2
ATOM      2  C   UNL     1     119.730 119.714 117.690  1.00  0.00    -0.000 C 
BRANCH   2   3
ATOM      3  C   UNL     1     120.006 120.507 118.976  1.00  0.00    -0.000 C 
BRANCH   3   4
ATOM      4  C   UNL     1     120.701 119.628 120.023  1.00  0.00    -0.003 C 
ATOM      5  C   UNL     1     121.236 118.343 119.399  1.00  0.00     0.004 C 
ENDBRANCH   3   4
ENDBRANCH   2   3
ENDBRANCH   1   2
BRANCH   1   6
ATOM      6  C   UNL     1     117.963 117.876 117.471  1.00  0.00     0.002 C 
BRANCH   6   7
ATOM      7  C   UNL     1     117.716 117.332 118.885  1.00  0.00     0.028 C 
BRANCH   7   8
ATOM      8  C   UNL     1     116.931 118.327 119.748  1.00  0.00     0.156 C 
BRANCH   8   9
ATOM      9  O   UNL     1     115.833 117.703 120.358  1.00  0.00    -0.396 OA
ATOM     10  H   UNL     1     115.085 118.356 120.330  1.00  0.00     0.210 HD
ENDBRANCH   8   9
ENDBRANCH   7   8
ENDBRANCH   6   7
ENDBRANCH   1   6
TORSDOF 7
ENDMDL
MODEL 5
REMARK VINA RESULT:    -3.643      2.387      3.198
REMARK INTER + INTRA:          -5.468
REMARK INTER:                  -5.052
REMARK INTRA:                  -0.417
REMARK UNBOUND:                -0.441
REMARK SMILES CCCCCCCCO
REMARK SMILES IDX 5 1 4 2 3 3 2 4 1 5 6 6 7 7 8 8 9 9
REMARK H PARENT 9 10
REMARK Flexibility Score: inf
ROOT
ATOM      1  C   UNL     1     120.106 119.341 118.333  1.00  0.00     0.000 C 
ENDROOT
BRANCH   1   2
ATOM      2  C   UNL     1     119.398 118.264 117.494  1.00  0.00    -0.000 C 
BRANCH   2   3
ATOM      3  C   UNL     1     117.883 118.224 117.741  1.00  0.00    -0.000 C 
BRANCH   3   4
ATOM      4  C   UNL     1     117.365 119.591 118.202  1.00  0.00    -0.003 C 
ATOM      5  C   UNL     1     116.427 119.452 119.398  1.00  0.00     0.004 C 
ENDBRANCH   3   4
ENDBRANCH   2   3
ENDBRANCH   1   2
BRANCH   1   6
ATOM      6  C   UNL     1     120.923 118.748 119.490  1.00  0.00     0.002 C 
BRANCH   6   7
ATOM      7  C   UNL     1     121.397 117.327 119.155  1.00  0.00     0.028 C 
BRANCH   7   8
ATOM      8  C   UNL     1     121.059 116.337 120.275  1.00  0.00     0.156 C 
BRANCH   8   9
ATOM      9  O   UNL     1     119.696 116.010 120.262  1.00  0.00    -0.396 OA
ATOM     10  H   UNL     1     119.201 116.853 120.438  1.00  0.00     0.210 HD
ENDBRANCH   8   9
ENDBRANCH   7   8
ENDBRANCH   6   7
ENDBRANCH   1   6
TORSDOF 7
ENDMDL
MODEL 6
REMARK VINA RESULT:    -3.632      1.812      3.616
REMARK INTER + INTRA:          -5.453
REMARK INTER:                  -4.913
REMARK INTRA:                  -0.540
REMARK UNBOUND:                -0.441
REMARK SMILES CCCCCCCCO
REMARK SMILES IDX 5 1 4 2 3 3 2 4 1 5 6 6 7 7 8 8 9 9
REMARK H PARENT 9 10
REMARK Flexibility Score: inf
ROOT
ATOM      1  C   UNL     1     119.369 118.173 117.525  1.00  0.00     0.000 C 
ENDROOT
BRANCH   1   2
ATOM      2  C   UNL     1     117.879 117.869 117.752  1.00  0.00    -0.000 C 
BRANCH   2   3
ATOM      3  C   UNL     1     117.637 116.991 118.989  1.00  0.00    -0.000 C 
BRANCH   3   4
ATOM      4  C   UNL     1     117.019 117.809 120.129  1.00  0.00    -0.003 C 
ATOM      5  C   UNL     1     116.370 119.086 119.604  1.00  0.00     0.004 C 
ENDBRANCH   3   4
ENDBRANCH   2   3
ENDBRANCH   1   2
BRANCH   1   6
ATOM      6  C   UNL     1     119.696 119.667 117.659  1.00  0.00     0.002 C 
BRANCH   6   7
ATOM      7  C   UNL     1     120.017 120.030 119.116  1.00  0.00     0.028 C 
BRANCH   7   8
ATOM      8  C   UNL     1     119.339 121.338 119.539  1.00  0.00     0.156 C 
BRANCH   8   9
ATOM      9  O   UNL     1     119.022 121.320 120.905  1.00  0.00    -0.396 OA
ATOM     10  H   UNL     1     118.438 122.106 121.070  1.00  0.00     0.210 HD
ENDBRANCH   8   9
ENDBRANCH   7   8
ENDBRANCH   6   7
ENDBRANCH   1   6
TORSDOF 7
ENDMDL
MODEL 7
REMARK VINA RESULT:    -3.625      2.446      2.903
REMARK INTER + INTRA:          -5.444
REMARK INTER:                  -4.942
REMARK INTRA:                  -0.501
REMARK UNBOUND:                -0.441
REMARK SMILES CCCCCCCCO
REMARK SMILES IDX 5 1 4 2 3 3 2 4 1 5 6 6 7 7 8 8 9 9
REMARK H PARENT 9 10
REMARK Flexibility Score: inf
ROOT
ATOM      1  C   UNL     1     118.269 118.277 117.366  1.00  0.00     0.000 C 
ENDROOT
BRANCH   1   2
ATOM      2  C   UNL     1     117.981 119.751 117.694  1.00  0.00    -0.000 C 
BRANCH   2   3
ATOM      3  C   UNL     1     117.055 119.918 118.907  1.00  0.00    -0.000 C 
BRANCH   3   4
ATOM      4  C   UNL     1     117.745 120.716 120.019  1.00  0.00    -0.003 C 
ATOM      5  C   UNL     1     119.097 121.252 119.556  1.00  0.00     0.004 C 
ENDBRANCH   3   4
ENDBRANCH   2   3
ENDBRANCH   1   2
BRANCH   1   6
ATOM      6  C   UNL     1     119.738 117.895 117.594  1.00  0.00     0.002 C 
BRANCH   6   7
ATOM      7  C   UNL     1     120.011 117.627 119.081  1.00  0.00     0.028 C 
BRANCH   7   8
ATOM      8  C   UNL     1     121.305 118.300 119.551  1.00  0.00     0.156 C 
BRANCH   8   9
ATOM      9  O   UNL     1     121.373 118.333 120.952  1.00  0.00    -0.396 OA
ATOM     10  H   UNL     1     121.312 117.392 121.261  1.00  0.00     0.210 HD
ENDBRANCH   8   9
ENDBRANCH   7   8
ENDBRANCH   6   7
ENDBRANCH   1   6
TORSDOF 7
ENDMDL
MODEL 8
REMARK VINA RESULT:    -3.623      2.289      3.428
REMARK INTER + INTRA:          -5.441
REMARK INTER:                  -4.915
REMARK INTRA:                  -0.526
REMARK UNBOUND:                -0.441
REMARK SMILES CCCCCCCCO
REMARK SMILES IDX 5 1 4 2 3 3 2 4 1 5 6 6 7 7 8 8 9 9
REMARK H PARENT 9 10
REMARK Flexibility Score: inf
ROOT
ATOM      1  C   UNL     1     117.932 119.713 117.761  1.00  0.00     0.000 C 
ENDROOT
BRANCH   1   2
ATOM      2  C   UNL     1     118.296 118.280 117.341  1.00  0.00    -0.000 C 
BRANCH   2   3
ATOM      3  C   UNL     1     119.761 117.929 117.641  1.00  0.00    -0.000 C 
BRANCH   3   4
ATOM      4  C   UNL     1     119.975 117.708 119.142  1.00  0.00    -0.003 C 
ATOM      5  C   UNL     1     121.231 118.422 119.633  1.00  0.00     0.004 C 
ENDBRANCH   3   4
ENDBRANCH   2   3
ENDBRANCH   1   2
BRANCH   1   6
ATOM      6  C   UNL     1     116.832 119.755 118.832  1.00  0.00     0.002 C 
BRANCH   6   7
ATOM      7  C   UNL     1     117.322 120.480 120.093  1.00  0.00     0.028 C 
BRANCH   7   8
ATOM      8  C   UNL     1     118.659 121.192 119.857  1.00  0.00     0.156 C 
BRANCH   8   9
ATOM      9  O   UNL     1     119.377 121.322 121.054  1.00  0.00    -0.396 OA
ATOM     10  H   UNL     1     118.719 121.221 121.792  1.00  0.00     0.210 HD
ENDBRANCH   8   9
ENDBRANCH   7   8
ENDBRANCH   6   7
ENDBRANCH   1   6
TORSDOF 7
ENDMDL
MODEL 9
REMARK VINA RESULT:    -3.588      2.406      3.382
REMARK INTER + INTRA:          -5.392
REMARK INTER:                  -4.868
REMARK INTRA:                  -0.524
REMARK UNBOUND:                -0.441
REMARK SMILES CCCCCCCCO
REMARK SMILES IDX 5 1 4 2 3 3 2 4 1 5 6 6 7 7 8 8 9 9
REMARK H PARENT 9 10
REMARK Flexibility Score: inf
ROOT
ATOM      1  C   UNL     1     120.095 117.559 119.067  1.00  0.00     0.000 C 
ENDROOT
BRANCH   1   2
ATOM      2  C   UNL     1     119.750 118.026 117.644  1.00  0.00    -0.000 C 
BRANCH   2   3
ATOM      3  C   UNL     1     118.240 118.205 117.429  1.00  0.00    -0.000 C 
BRANCH   3   4
ATOM      4  C   UNL     1     117.819 119.657 117.683  1.00  0.00    -0.003 C 
ATOM      5  C   UNL     1     116.779 119.744 118.797  1.00  0.00     0.004 C 
ENDBRANCH   3   4
ENDBRANCH   2   3
ENDBRANCH   1   2
BRANCH   1   6
ATOM      6  C   UNL     1     121.245 118.362 119.692  1.00  0.00     0.002 C 
BRANCH   6   7
ATOM      7  C   UNL     1     120.851 119.834 119.875  1.00  0.00     0.028 C 
BRANCH   7   8
ATOM      8  C   UNL     1     119.784 120.006 120.961  1.00  0.00     0.156 C 
BRANCH   8   9
ATOM      9  O   UNL     1     119.263 121.308 120.951  1.00  0.00    -0.396 OA
ATOM     10  H   UNL     1     119.860 121.848 120.369  1.00  0.00     0.210 HD
ENDBRANCH   8   9
ENDBRANCH   7   8
ENDBRANCH   6   7
ENDBRANCH   1   6
TORSDOF 7
ENDMDL
