MODEL 1
REMARK VINA RESULT:    -1.029      0.000      0.000
REMARK INTER + INTRA:          -1.272
REMARK INTER:                  -1.570
REMARK INTRA:                   0.297
REMARK UNBOUND:                 0.297
REMARK SMILES CC1=CCC[C@@H](C)C(=O)C[C@@H](C(C)C)C(=O)C1
REMARK SMILES IDX 8 1 9 2 6 3 7 4 5 5 4 6 3 7 2 8 1 9 10 11 11 12 15 13 16 14
REMARK SMILES IDX 17 15 12 17 13 18 14 19
REMARK H PARENT
REMARK Flexibility Score: 70.00
ROOT
ATOM      1  C   UNL     1      84.433  31.980  65.386  1.00  0.00     0.136 C 
ATOM      2  O   UNL     1      84.459  32.620  64.346  1.00  0.00    -0.299 OA
ENDROOT
BRANCH   1   3
ATOM      3  C   UNL     1      83.164  31.248  65.796  1.00  0.00     0.053 C 
ATOM      4  C   UNL     1      82.976  31.300  67.321  1.00  0.00     0.016 C 
BRANCH   3   5
ATOM      5  C   UNL     1      83.186  29.784  65.294  1.00  0.00     0.015 C 
BRANCH   5   6
ATOM      6  C   UNL     1      84.298  29.535  64.255  1.00  0.00     0.028 C 
BRANCH   6   7
ATOM      7  C   UNL     1      85.092  28.297  64.585  1.00  0.00    -0.028 C 
ATOM      8  C   UNL     1      86.444  28.244  64.654  1.00  0.00    -0.070 CG0
ATOM      9  C   UNL     1      87.083  26.937  65.048  1.00  0.00     0.039 C 
ATOM     10  G   UNL     1      87.336  29.441  64.351  1.00  0.00     0.000 G0
ENDBRANCH   6   7
ENDBRANCH   5   6
ENDBRANCH   3   5
ENDBRANCH   1   3
BRANCH   1  11
ATOM     11  C   UNL     1      85.666  31.944  66.261  1.00  0.00     0.087 C 
BRANCH  11  12
ATOM     12  C   UNL     1      87.000  31.797  65.474  1.00  0.00     0.066 C 
BRANCH  12  13
ATOM     13  C   UNL     1      87.500  30.359  65.537  1.00  0.00     0.140 C 
ATOM     14  O   UNL     1      88.065  29.958  66.545  1.00  0.00    -0.299 OA
BRANCH  13  15
ATOM     15  C   UNL     1      87.366  29.443  64.346  1.00  0.00     0.106 CG0
ATOM     16  G   UNL     1      86.472  28.246  64.639  1.00  0.00     0.000 G0
ENDBRANCH  13  15
ENDBRANCH  12  13
BRANCH  12  17
ATOM     17  C   UNL     1      88.119  32.810  65.890  1.00  0.00    -0.006 C 
ATOM     18  C   UNL     1      87.967  33.299  67.342  1.00  0.00     0.008 C 
ATOM     19  C   UNL     1      88.124  34.034  64.954  1.00  0.00     0.008 C 
ENDBRANCH  12  17
ENDBRANCH  11  12
ENDBRANCH   1  11
TORSDOF 1
ENDMDL
MODEL 2
REMARK VINA RESULT:    -0.581      2.213      5.144
REMARK INTER + INTRA:          -0.589
REMARK INTER:                  -1.703
REMARK INTRA:                   1.114
REMARK UNBOUND:                 0.297
REMARK SMILES CC1=CCC[C@@H](C)C(=O)C[C@@H](C(C)C)C(=O)C1
REMARK SMILES IDX 8 1 9 2 6 3 7 4 5 5 4 6 3 7 2 8 1 9 10 11 11 12 15 13 16 14
REMARK SMILES IDX 17 15 12 17 13 18 14 19
REMARK H PARENT
REMARK Flexibility Score: 70.00
ROOT
ATOM      1  C   UNL     1      87.479  30.124  64.867  1.00  0.00     0.136 C 
ATOM      2  O   UNL     1      88.037  30.006  63.786  1.00  0.00    -0.299 OA
ENDROOT
BRANCH   1   3
ATOM      3  C   UNL     1      88.115  30.966  65.962  1.00  0.00     0.053 C 
ATOM      4  C   UNL     1      87.393  30.751  67.301  1.00  0.00     0.016 C 
BRANCH   3   5
ATOM      5  C   UNL     1      88.119  32.464  65.573  1.00  0.00     0.015 C 
BRANCH   5   6
ATOM      6  C   UNL     1      86.703  33.076  65.574  1.00  0.00     0.028 C 
BRANCH   6   7
ATOM      7  C   UNL     1      86.271  33.468  64.184  1.00  0.00    -0.028 C 
ATOM      8  C   UNL     1      85.044  33.227  63.662  1.00  0.00    -0.070 CG0
ATOM      9  C   UNL     1      84.755  33.731  62.271  1.00  0.00     0.039 C 
ATOM     10  G   UNL     1      83.957  32.473  64.415  1.00  0.00     0.000 G0
ENDBRANCH   6   7
ENDBRANCH   5   6
ENDBRANCH   3   5
ENDBRANCH   1   3
BRANCH   1  11
ATOM     11  C   UNL     1      86.168  29.408  65.102  1.00  0.00     0.087 C 
BRANCH  11  12
ATOM     12  C   UNL     1      84.955  30.046  64.367  1.00  0.00     0.066 C 
BRANCH  12  13
ATOM     13  C   UNL     1      84.446  31.261  65.133  1.00  0.00     0.140 C 
ATOM     14  O   UNL     1      84.403  31.232  66.355  1.00  0.00    -0.299 OA
BRANCH  13  15
ATOM     15  C   UNL     1      83.932  32.475  64.401  1.00  0.00     0.106 CG0
ATOM     16  G   UNL     1      85.040  33.214  63.664  1.00  0.00     0.000 G0
ENDBRANCH  13  15
ENDBRANCH  12  13
BRANCH  12  17
ATOM     17  C   UNL     1      83.792  29.050  64.039  1.00  0.00    -0.006 C 
ATOM     18  C   UNL     1      82.402  29.700  64.156  1.00  0.00     0.008 C 
ATOM     19  C   UNL     1      83.844  27.823  64.970  1.00  0.00     0.008 C 
ENDBRANCH  12  17
ENDBRANCH  11  12
ENDBRANCH   1  11
TORSDOF 1
ENDMDL
MODEL 3
REMARK VINA RESULT:    -0.296      1.976      3.774
REMARK INTER + INTRA:          -0.154
REMARK INTER:                  -1.389
REMARK INTRA:                   1.236
REMARK UNBOUND:                 0.297
REMARK SMILES CC1=CCC[C@@H](C)C(=O)C[C@@H](C(C)C)C(=O)C1
REMARK SMILES IDX 8 1 9 2 6 3 7 4 5 5 4 6 3 7 2 8 1 9 10 11 11 12 15 13 16 14
REMARK SMILES IDX 17 15 12 17 13 18 14 19
REMARK H PARENT
REMARK Flexibility Score: 70.00
ROOT
ATOM      1  C   UNL     1      86.032  28.421  64.748  1.00  0.00     0.136 C 
ATOM      2  O   UNL     1      86.623  27.358  64.625  1.00  0.00    -0.299 OA
ENDROOT
BRANCH   1   3
ATOM      3  C   UNL     1      84.530  28.432  64.984  1.00  0.00     0.053 C 
ATOM      4  C   UNL     1      83.986  26.998  65.088  1.00  0.00     0.016 C 
BRANCH   3   5
ATOM      5  C   UNL     1      83.803  29.216  63.865  1.00  0.00     0.015 C 
BRANCH   5   6
ATOM      6  C   UNL     1      82.604  30.027  64.397  1.00  0.00     0.028 C 
BRANCH   6   7
ATOM      7  C   UNL     1      82.783  30.384  65.851  1.00  0.00    -0.028 C 
ATOM      8  C   UNL     1      83.463  31.466  66.301  1.00  0.00    -0.070 CG0
ATOM      9  C   UNL     1      83.504  31.708  67.788  1.00  0.00     0.039 C 
ATOM     10  G   UNL     1      84.182  32.437  65.374  1.00  0.00     0.000 G0
ENDBRANCH   6   7
ENDBRANCH   5   6
ENDBRANCH   3   5
ENDBRANCH   1   3
BRANCH   1  11
ATOM     11  C   UNL     1      86.809  29.714  64.643  1.00  0.00     0.087 C 
BRANCH  11  12
ATOM     12  C   UNL     1      86.288  30.847  65.572  1.00  0.00     0.066 C 
BRANCH  12  13
ATOM     13  C   UNL     1      85.439  31.836  64.783  1.00  0.00     0.140 C 
ATOM     14  O   UNL     1      85.798  32.185  63.666  1.00  0.00    -0.299 OA
BRANCH  13  15
ATOM     15  C   UNL     1      84.197  32.441  65.387  1.00  0.00     0.106 CG0
ATOM     16  G   UNL     1      83.474  31.469  66.309  1.00  0.00     0.000 G0
ENDBRANCH  13  15
ENDBRANCH  12  13
BRANCH  12  17
ATOM     17  C   UNL     1      87.399  31.578  66.397  1.00  0.00    -0.006 C 
ATOM     18  C   UNL     1      86.938  31.947  67.819  1.00  0.00     0.008 C 
ATOM     19  C   UNL     1      87.858  32.862  65.679  1.00  0.00     0.008 C 
ENDBRANCH  12  17
ENDBRANCH  11  12
ENDBRANCH   1  11
TORSDOF 1
ENDMDL
MODEL 4
REMARK VINA RESULT:    -0.286      1.882      4.528
REMARK INTER + INTRA:          -0.139
REMARK INTER:                  -0.853
REMARK INTRA:                   0.714
REMARK UNBOUND:                 0.297
REMARK SMILES CC1=CCC[C@@H](C)C(=O)C[C@@H](C(C)C)C(=O)C1
REMARK SMILES IDX 8 1 9 2 6 3 7 4 5 5 4 6 3 7 2 8 1 9 10 11 11 12 15 13 16 14
REMARK SMILES IDX 17 15 12 17 13 18 14 19
REMARK H PARENT
REMARK Flexibility Score: 70.00
ROOT
ATOM      1  C   UNL     1      87.849  30.794  64.697  1.00  0.00     0.136 C 
ATOM      2  O   UNL     1      88.124  31.007  63.526  1.00  0.00    -0.299 OA
ENDROOT
BRANCH   1   3
ATOM      3  C   UNL     1      87.546  31.957  65.630  1.00  0.00     0.053 C 
ATOM      4  C   UNL     1      87.568  31.498  67.096  1.00  0.00     0.016 C 
BRANCH   3   5
ATOM      5  C   UNL     1      86.185  32.606  65.276  1.00  0.00     0.015 C 
BRANCH   5   6
ATOM      6  C   UNL     1      84.999  31.895  65.959  1.00  0.00     0.028 C 
BRANCH   6   7
ATOM      7  C   UNL     1      84.114  31.208  64.951  1.00  0.00    -0.028 C 
ATOM      8  C   UNL     1      84.094  29.871  64.729  1.00  0.00    -0.070 CG0
ATOM      9  C   UNL     1      83.110  29.337  63.719  1.00  0.00     0.039 C 
ATOM     10  G   UNL     1      85.016  28.897  65.449  1.00  0.00     0.000 G0
ENDBRANCH   6   7
ENDBRANCH   5   6
ENDBRANCH   3   5
ENDBRANCH   1   3
BRANCH   1  11
ATOM     11  C   UNL     1      87.836  29.371  65.205  1.00  0.00     0.087 C 
BRANCH  11  12
ATOM     12  C   UNL     1      87.249  28.341  64.198  1.00  0.00     0.066 C 
BRANCH  12  13
ATOM     13  C   UNL     1      85.806  28.008  64.557  1.00  0.00     0.140 C 
ATOM     14  O   UNL     1      85.266  27.033  64.053  1.00  0.00    -0.299 OA
BRANCH  13  15
ATOM     15  C   UNL     1      85.013  28.904  65.475  1.00  0.00     0.106 CG0
ATOM     16  G   UNL     1      84.101  29.852  64.708  1.00  0.00     0.000 G0
ENDBRANCH  13  15
ENDBRANCH  12  13
BRANCH  12  17
ATOM     17  C   UNL     1      88.106  27.044  64.014  1.00  0.00    -0.006 C 
ATOM     18  C   UNL     1      87.912  26.395  62.632  1.00  0.00     0.008 C 
ATOM     19  C   UNL     1      87.765  26.005  65.100  1.00  0.00     0.008 C 
ENDBRANCH  12  17
ENDBRANCH  11  12
ENDBRANCH   1  11
TORSDOF 1
ENDMDL
MODEL 5
REMARK VINA RESULT:     0.767      1.626      3.837
REMARK INTER + INTRA:           1.468
REMARK INTER:                  -1.060
REMARK INTRA:                   2.528
REMARK UNBOUND:                 0.297
REMARK SMILES CC1=CCC[C@@H](C)C(=O)C[C@@H](C(C)C)C(=O)C1
REMARK SMILES IDX 8 1 9 2 6 3 7 4 5 5 4 6 3 7 2 8 1 9 10 11 11 12 15 13 16 14
REMARK SMILES IDX 17 15 12 17 13 18 14 19
REMARK H PARENT
REMARK Flexibility Score: 70.00
ROOT
ATOM      1  C   UNL     1      87.758  29.927  65.472  1.00  0.00     0.136 C 
ATOM      2  O   UNL     1      87.996  30.135  66.653  1.00  0.00    -0.299 OA
ENDROOT
BRANCH   1   3
ATOM      3  C   UNL     1      87.570  28.502  64.976  1.00  0.00     0.053 C 
ATOM      4  C   UNL     1      88.111  28.349  63.545  1.00  0.00     0.016 C 
BRANCH   3   5
ATOM      5  C   UNL     1      86.080  28.086  65.048  1.00  0.00     0.015 C 
BRANCH   5   6
ATOM      6  C   UNL     1      85.152  29.098  64.346  1.00  0.00     0.028 C 
BRANCH   6   7
ATOM      7  C   UNL     1      84.425  29.962  65.344  1.00  0.00    -0.028 C 
ATOM      8  C   UNL     1      84.196  31.289  65.191  1.00  0.00    -0.070 CG0
ATOM      9  C   UNL     1      83.406  31.999  66.260  1.00  0.00     0.039 C 
ATOM     10  G   UNL     1      84.700  32.084  63.994  1.00  0.00     0.000 G0
ENDBRANCH   6   7
ENDBRANCH   5   6
ENDBRANCH   3   5
ENDBRANCH   1   3
BRANCH   1  11
ATOM     11  C   UNL     1      87.675  31.097  64.519  1.00  0.00     0.087 C 
BRANCH  11  12
ATOM     12  C   UNL     1      87.035  32.375  65.134  1.00  0.00     0.066 C 
BRANCH  12  13
ATOM     13  C   UNL     1      85.919  32.896  64.236  1.00  0.00     0.140 C 
ATOM     14  O   UNL     1      85.998  34.021  63.762  1.00  0.00    -0.299 OA
BRANCH  13  15
ATOM     15  C   UNL     1      84.686  32.067  63.979  1.00  0.00     0.106 CG0
ATOM     16  G   UNL     1      84.235  31.306  65.218  1.00  0.00     0.000 G0
ENDBRANCH  13  15
ENDBRANCH  12  13
BRANCH  12  17
ATOM     17  C   UNL     1      88.054  33.508  65.495  1.00  0.00    -0.006 C 
ATOM     18  C   UNL     1      88.122  33.785  67.007  1.00  0.00     0.008 C 
ATOM     19  C   UNL     1      87.695  34.818  64.767  1.00  0.00     0.008 C 
ENDBRANCH  12  17
ENDBRANCH  11  12
ENDBRANCH   1  11
TORSDOF 1
ENDMDL
MODEL 6
REMARK VINA RESULT:     0.775     14.949     16.560
REMARK INTER + INTRA:           1.480
REMARK INTER:                  -0.509
REMARK INTRA:                   1.989
REMARK UNBOUND:                 0.297
REMARK SMILES CC1=CCC[C@@H](C)C(=O)C[C@@H](C(C)C)C(=O)C1
REMARK SMILES IDX 8 1 9 2 6 3 7 4 5 5 4 6 3 7 2 8 1 9 10 11 11 12 15 13 16 14
REMARK SMILES IDX 17 15 12 17 13 18 14 19
REMARK H PARENT
REMARK Flexibility Score: 70.00
ROOT
ATOM      1  C   UNL     1      78.768  35.679  51.699  1.00  0.00     0.136 C 
ATOM      2  O   UNL     1      79.068  36.043  52.826  1.00  0.00    -0.299 OA
ENDROOT
BRANCH   1   3
ATOM      3  C   UNL     1      79.859  35.403  50.675  1.00  0.00     0.053 C 
ATOM      4  C   UNL     1      79.554  36.119  49.350  1.00  0.00     0.016 C 
BRANCH   3   5
ATOM      5  C   UNL     1      80.030  33.881  50.451  1.00  0.00     0.015 C 
BRANCH   5   6
ATOM      6  C   UNL     1      81.007  33.244  51.460  1.00  0.00     0.028 C 
BRANCH   6   7
ATOM      7  C   UNL     1      80.282  32.376  52.456  1.00  0.00    -0.028 C 
ATOM      8  C   UNL     1      78.950  32.128  52.437  1.00  0.00    -0.070 CG0
ATOM      9  C   UNL     1      78.388  31.194  53.477  1.00  0.00     0.039 C 
ATOM     10  G   UNL     1      78.007  32.751  51.416  1.00  0.00     0.000 G0
ENDBRANCH   6   7
ENDBRANCH   5   6
ENDBRANCH   3   5
ENDBRANCH   1   3
BRANCH   1  11
ATOM     11  C   UNL     1      77.309  35.530  51.336  1.00  0.00     0.087 C 
BRANCH  11  12
ATOM     12  C   UNL     1      76.486  34.678  52.344  1.00  0.00     0.066 C 
BRANCH  12  13
ATOM     13  C   UNL     1      76.701  33.192  52.085  1.00  0.00     0.140 C 
ATOM     14  O   UNL     1      75.858  32.385  52.453  1.00  0.00    -0.299 OA
BRANCH  13  15
ATOM     15  C   UNL     1      77.971  32.697  51.440  1.00  0.00     0.106 CG0
ATOM     16  G   UNL     1      78.942  32.113  52.456  1.00  0.00     0.000 G0
ENDBRANCH  13  15
ENDBRANCH  12  13
BRANCH  12  17
ATOM     17  C   UNL     1      74.962  35.033  52.409  1.00  0.00    -0.006 C 
ATOM     18  C   UNL     1      74.554  36.092  51.369  1.00  0.00     0.008 C 
ATOM     19  C   UNL     1      74.579  35.543  53.811  1.00  0.00     0.008 C 
ENDBRANCH  12  17
ENDBRANCH  11  12
ENDBRANCH   1  11
TORSDOF 1
ENDMDL
MODEL 7
REMARK VINA RESULT:     0.958      1.661      4.146
REMARK INTER + INTRA:           1.760
REMARK INTER:                   0.091
REMARK INTRA:                   1.668
REMARK UNBOUND:                 0.297
REMARK SMILES CC1=CCC[C@@H](C)C(=O)C[C@@H](C(C)C)C(=O)C1
REMARK SMILES IDX 8 1 9 2 6 3 7 4 5 5 4 6 3 7 2 8 1 9 10 11 11 12 15 13 16 14
REMARK SMILES IDX 17 15 12 17 13 18 14 19
REMARK H PARENT
REMARK Flexibility Score: 70.00
ROOT
ATOM      1  C   UNL     1      84.134  31.330  65.658  1.00  0.00     0.136 C 
ATOM      2  O   UNL     1      83.483  32.315  65.342  1.00  0.00    -0.299 OA
ENDROOT
BRANCH   1   3
ATOM      3  C   UNL     1      84.366  31.011  67.127  1.00  0.00     0.053 C 
ATOM      4  C   UNL     1      83.605  32.000  68.024  1.00  0.00     0.016 C 
BRANCH   3   5
ATOM      5  C   UNL     1      85.878  31.016  67.459  1.00  0.00     0.015 C 
BRANCH   5   6
ATOM      6  C   UNL     1      86.346  32.363  68.047  1.00  0.00     0.028 C 
BRANCH   6   7
ATOM      7  C   UNL     1      86.927  33.257  66.981  1.00  0.00    -0.028 C 
ATOM      8  C   UNL     1      87.659  32.823  65.926  1.00  0.00    -0.070 CG0
ATOM      9  C   UNL     1      88.123  33.843  64.919  1.00  0.00     0.039 C 
ATOM     10  G   UNL     1      88.029  31.360  65.720  1.00  0.00     0.000 G0
ENDBRANCH   6   7
ENDBRANCH   5   6
ENDBRANCH   3   5
ENDBRANCH   1   3
BRANCH   1  11
ATOM     11  C   UNL     1      84.718  30.453  64.573  1.00  0.00     0.087 C 
BRANCH  11  12
ATOM     12  C   UNL     1      86.071  29.787  64.954  1.00  0.00     0.066 C 
BRANCH  12  13
ATOM     13  C   UNL     1      87.234  30.711  64.614  1.00  0.00     0.140 C 
ATOM     14  O   UNL     1      87.547  30.885  63.444  1.00  0.00    -0.299 OA
BRANCH  13  15
ATOM     15  C   UNL     1      88.047  31.362  65.704  1.00  0.00     0.106 CG0
ATOM     16  G   UNL     1      87.654  32.816  65.925  1.00  0.00     0.000 G0
ENDBRANCH  13  15
ENDBRANCH  12  13
BRANCH  12  17
ATOM     17  C   UNL     1      86.286  28.355  64.358  1.00  0.00    -0.006 C 
ATOM     18  C   UNL     1      85.213  27.353  64.820  1.00  0.00     0.008 C 
ATOM     19  C   UNL     1      87.673  27.805  64.741  1.00  0.00     0.008 C 
ENDBRANCH  12  17
ENDBRANCH  11  12
ENDBRANCH   1  11
TORSDOF 1
ENDMDL
MODEL 8
REMARK VINA RESULT:     1.232      1.956      2.931
REMARK INTER + INTRA:           2.177
REMARK INTER:                  -0.476
REMARK INTRA:                   2.653
REMARK UNBOUND:                 0.297
REMARK SMILES CC1=CCC[C@@H](C)C(=O)C[C@@H](C(C)C)C(=O)C1
REMARK SMILES IDX 8 1 9 2 6 3 7 4 5 5 4 6 3 7 2 8 1 9 10 11 11 12 15 13 16 14
REMARK SMILES IDX 17 15 12 17 13 18 14 19
REMARK H PARENT
REMARK Flexibility Score: 70.00
ROOT
ATOM      1  C   UNL     1      84.630  31.512  65.580  1.00  0.00     0.136 C 
ATOM      2  O   UNL     1      84.376  30.591  64.818  1.00  0.00    -0.299 OA
ENDROOT
BRANCH   1   3
ATOM      3  C   UNL     1      84.627  31.277  67.083  1.00  0.00     0.053 C 
ATOM      4  C   UNL     1      83.227  31.522  67.667  1.00  0.00     0.016 C 
BRANCH   3   5
ATOM      5  C   UNL     1      85.680  32.172  67.781  1.00  0.00     0.015 C 
BRANCH   5   6
ATOM      6  C   UNL     1      87.122  31.821  67.362  1.00  0.00     0.028 C 
BRANCH   6   7
ATOM      7  C   UNL     1      87.194  30.455  66.728  1.00  0.00    -0.028 C 
ATOM      8  C   UNL     1      87.654  30.211  65.477  1.00  0.00    -0.070 CG0
ATOM      9  C   UNL     1      87.709  28.778  65.010  1.00  0.00     0.039 C 
ATOM     10  G   UNL     1      88.113  31.313  64.532  1.00  0.00     0.000 G0
ENDBRANCH   6   7
ENDBRANCH   5   6
ENDBRANCH   3   5
ENDBRANCH   1   3
BRANCH   1  11
ATOM     11  C   UNL     1      84.924  32.881  65.010  1.00  0.00     0.087 C 
BRANCH  11  12
ATOM     12  C   UNL     1      86.104  32.908  63.996  1.00  0.00     0.066 C 
BRANCH  12  13
ATOM     13  C   UNL     1      87.421  32.614  64.703  1.00  0.00     0.140 C 
ATOM     14  O   UNL     1      87.943  33.478  65.395  1.00  0.00    -0.299 OA
BRANCH  13  15
ATOM     15  C   UNL     1      88.125  31.295  64.507  1.00  0.00     0.106 CG0
ATOM     16  G   UNL     1      87.636  30.232  65.481  1.00  0.00     0.000 G0
ENDBRANCH  13  15
ENDBRANCH  12  13
BRANCH  12  17
ATOM     17  C   UNL     1      86.195  34.212  63.134  1.00  0.00    -0.006 C 
ATOM     18  C   UNL     1      86.403  35.475  63.989  1.00  0.00     0.008 C 
ATOM     19  C   UNL     1      84.925  34.395  62.282  1.00  0.00     0.008 C 
ENDBRANCH  12  17
ENDBRANCH  11  12
ENDBRANCH   1  11
TORSDOF 1
ENDMDL
