MODEL 1
REMARK VINA RESULT:    -3.966      0.000      0.000
REMARK INTER + INTRA:          -5.931
REMARK INTER:                  -5.589
REMARK INTRA:                  -0.342
REMARK UNBOUND:                -0.342
REMARK SMILES CCCCCCCCC(=O)[O-]
REMARK SMILES IDX 6 1 7 2 8 3 9 4 10 5 11 6 5 7 4 8 3 9 2 10 1 11
REMARK H PARENT
REMARK Flexibility Score: inf
ROOT
ATOM      1  C   UNL     1     100.805 -69.205   6.563  1.00  0.00     0.000 C 
ENDROOT
BRANCH   1   2
ATOM      2  C   UNL     1      99.888 -69.409   5.344  1.00  0.00     0.006 C 
BRANCH   2   3
ATOM      3  C   UNL     1      99.552 -68.097   4.623  1.00  0.00     0.053 C 
BRANCH   3   4
ATOM      4  C   UNL     1      98.420 -68.302   3.666  1.00  0.00     0.041 C 
ATOM      5  O   UNL     1      98.576 -69.024   2.647  1.00  0.00    -0.550 OA
ATOM      6  O   UNL     1      97.210 -67.654   3.873  1.00  0.00    -0.550 OA
ENDBRANCH   3   4
ENDBRANCH   2   3
ENDBRANCH   1   2
BRANCH   1   7
ATOM      7  C   UNL     1     101.107 -67.735   6.908  1.00  0.00     0.000 C 
BRANCH   7   8
ATOM      8  C   UNL     1     100.940 -67.424   8.405  1.00  0.00    -0.000 C 
BRANCH   8   9
ATOM      9  C   UNL     1     101.046 -68.691   9.280  1.00  0.00    -0.000 C 
BRANCH   9  10
ATOM     10  C   UNL     1     100.283 -68.586  10.610  1.00  0.00    -0.003 C 
ATOM     11  C   UNL     1     100.091 -67.144  11.077  1.00  0.00     0.004 C 
ENDBRANCH   9  10
ENDBRANCH   8   9
ENDBRANCH   7   8
ENDBRANCH   1   7
TORSDOF 7
ENDMDL
MODEL 2
REMARK VINA RESULT:    -3.747      0.887      1.578
REMARK INTER + INTRA:          -5.622
REMARK INTER:                  -5.284
REMARK INTRA:                  -0.338
REMARK UNBOUND:                -0.342
REMARK SMILES CCCCCCCCC(=O)[O-]
REMARK SMILES IDX 6 1 7 2 8 3 9 4 10 5 11 6 5 7 4 8 3 9 2 10 1 11
REMARK H PARENT
REMARK Flexibility Score: inf
ROOT
ATOM      1  C   UNL     1     100.081 -69.508   5.527  1.00  0.00     0.000 C 
ENDROOT
BRANCH   1   2
ATOM      2  C   UNL     1      99.886 -68.256   4.653  1.00  0.00     0.006 C 
BRANCH   2   3
ATOM      3  C   UNL     1      98.457 -68.122   4.113  1.00  0.00     0.053 C 
BRANCH   3   4
ATOM      4  C   UNL     1      98.457 -68.166   2.617  1.00  0.00     0.041 C 
ATOM      5  O   UNL     1      98.421 -67.097   1.953  1.00  0.00    -0.550 OA
ATOM      6  O   UNL     1      98.447 -69.387   1.957  1.00  0.00    -0.550 OA
ENDBRANCH   3   4
ENDBRANCH   2   3
ENDBRANCH   1   2
BRANCH   1   7
ATOM      7  C   UNL     1     100.800 -69.258   6.865  1.00  0.00     0.000 C 
BRANCH   7   8
ATOM      8  C   UNL     1     101.013 -67.764   7.162  1.00  0.00    -0.000 C 
BRANCH   8   9
ATOM      9  C   UNL     1     100.937 -67.453   8.671  1.00  0.00    -0.000 C 
BRANCH   9  10
ATOM     10  C   UNL     1     100.726 -68.699   9.546  1.00  0.00    -0.003 C 
ATOM     11  C   UNL     1     100.220 -68.367  10.949  1.00  0.00     0.004 C 
ENDBRANCH   9  10
ENDBRANCH   8   9
ENDBRANCH   7   8
ENDBRANCH   1   7
TORSDOF 7
ENDMDL
MODEL 3
REMARK VINA RESULT:    -3.711      1.912      3.162
REMARK INTER + INTRA:          -5.572
REMARK INTER:                  -5.358
REMARK INTRA:                  -0.214
REMARK UNBOUND:                -0.342
REMARK SMILES CCCCCCCCC(=O)[O-]
REMARK SMILES IDX 6 1 7 2 8 3 9 4 10 5 11 6 5 7 4 8 3 9 2 10 1 11
REMARK H PARENT
REMARK Flexibility Score: inf
ROOT
ATOM      1  C   UNL     1      98.679 -68.238   4.288  1.00  0.00     0.000 C 
ENDROOT
BRANCH   1   2
ATOM      2  C   UNL     1      98.309 -68.502   2.818  1.00  0.00     0.006 C 
BRANCH   2   3
ATOM      3  C   UNL     1      99.477 -68.255   1.855  1.00  0.00     0.053 C 
BRANCH   3   4
ATOM      4  C   UNL     1      99.124 -68.715   0.476  1.00  0.00     0.041 C 
ATOM      5  O   UNL     1      99.082 -67.891  -0.475  1.00  0.00    -0.550 OA
ATOM      6  O   UNL     1      98.791 -70.044   0.250  1.00  0.00    -0.550 OA
ENDBRANCH   3   4
ENDBRANCH   2   3
ENDBRANCH   1   2
BRANCH   1   7
ATOM      7  C   UNL     1     100.119 -68.620   4.674  1.00  0.00     0.000 C 
BRANCH   7   8
ATOM      8  C   UNL     1     100.185 -69.547   5.899  1.00  0.00    -0.000 C 
BRANCH   8   9
ATOM      9  C   UNL     1     101.343 -69.177   6.850  1.00  0.00    -0.000 C 
BRANCH   9  10
ATOM     10  C   UNL     1     100.958 -68.133   7.911  1.00  0.00    -0.003 C 
ATOM     11  C   UNL     1     100.901 -68.710   9.324  1.00  0.00     0.004 C 
ENDBRANCH   9  10
ENDBRANCH   8   9
ENDBRANCH   7   8
ENDBRANCH   1   7
TORSDOF 7
ENDMDL
MODEL 4
REMARK VINA RESULT:    -3.636      3.231      4.103
REMARK INTER + INTRA:          -5.466
REMARK INTER:                  -4.732
REMARK INTRA:                  -0.733
REMARK UNBOUND:                -0.342
REMARK SMILES CCCCCCCCC(=O)[O-]
REMARK SMILES IDX 6 1 7 2 8 3 9 4 10 5 11 6 5 7 4 8 3 9 2 10 1 11
REMARK H PARENT
REMARK Flexibility Score: inf
ROOT
ATOM      1  C   UNL     1      98.239 -67.388   3.912  1.00  0.00     0.000 C 
ENDROOT
BRANCH   1   2
ATOM      2  C   UNL     1      98.413 -68.504   2.867  1.00  0.00     0.006 C 
BRANCH   2   3
ATOM      3  C   UNL     1      99.451 -68.158   1.791  1.00  0.00     0.053 C 
BRANCH   3   4
ATOM      4  C   UNL     1      99.062 -68.761   0.478  1.00  0.00     0.041 C 
ATOM      5  O   UNL     1      99.053 -68.055  -0.564  1.00  0.00    -0.550 OA
ATOM      6  O   UNL     1      98.660 -70.088   0.414  1.00  0.00    -0.550 OA
ENDBRANCH   3   4
ENDBRANCH   2   3
ENDBRANCH   1   2
BRANCH   1   7
ATOM      7  C   UNL     1      99.523 -66.607   4.247  1.00  0.00     0.000 C 
BRANCH   7   8
ATOM      8  C   UNL     1     100.267 -67.173   5.468  1.00  0.00    -0.000 C 
BRANCH   8   9
ATOM      9  C   UNL     1     101.592 -67.862   5.077  1.00  0.00    -0.000 C 
BRANCH   9  10
ATOM     10  C   UNL     1     101.483 -69.392   4.976  1.00  0.00    -0.003 C 
ATOM     11  C   UNL     1     100.297 -69.960   5.752  1.00  0.00     0.004 C 
ENDBRANCH   9  10
ENDBRANCH   8   9
ENDBRANCH   7   8
ENDBRANCH   1   7
TORSDOF 7
ENDMDL
MODEL 5
REMARK VINA RESULT:    -3.632      2.517      4.494
REMARK INTER + INTRA:          -5.460
REMARK INTER:                  -5.190
REMARK INTRA:                  -0.270
REMARK UNBOUND:                -0.342
REMARK SMILES CCCCCCCCC(=O)[O-]
REMARK SMILES IDX 6 1 7 2 8 3 9 4 10 5 11 6 5 7 4 8 3 9 2 10 1 11
REMARK H PARENT
REMARK Flexibility Score: inf
ROOT
ATOM      1  C   UNL     1      98.626 -67.000   2.305  1.00  0.00     0.000 C 
ENDROOT
BRANCH   1   2
ATOM      2  C   UNL     1      99.496 -68.032   1.565  1.00  0.00     0.006 C 
BRANCH   2   3
ATOM      3  C   UNL     1      99.266 -68.027   0.048  1.00  0.00     0.053 C 
BRANCH   3   4
ATOM      4  C   UNL     1      98.626 -69.307  -0.387  1.00  0.00     0.041 C 
ATOM      5  O   UNL     1      98.577 -70.290   0.399  1.00  0.00    -0.550 OA
ATOM      6  O   UNL     1      98.129 -69.433  -1.677  1.00  0.00    -0.550 OA
ENDBRANCH   3   4
ENDBRANCH   2   3
ENDBRANCH   1   2
BRANCH   1   7
ATOM      7  C   UNL     1      98.125 -67.449   3.690  1.00  0.00     0.000 C 
BRANCH   7   8
ATOM      8  C   UNL     1      98.898 -68.658   4.244  1.00  0.00    -0.000 C 
BRANCH   8   9
ATOM      9  C   UNL     1     100.057 -68.234   5.171  1.00  0.00    -0.000 C 
BRANCH   9  10
ATOM     10  C   UNL     1     100.535 -69.354   6.109  1.00  0.00    -0.003 C 
ATOM     11  C   UNL     1     101.032 -68.835   7.457  1.00  0.00     0.004 C 
ENDBRANCH   9  10
ENDBRANCH   8   9
ENDBRANCH   7   8
ENDBRANCH   1   7
TORSDOF 7
ENDMDL
MODEL 6
REMARK VINA RESULT:    -3.583      3.391      5.955
REMARK INTER + INTRA:          -5.391
REMARK INTER:                  -5.057
REMARK INTRA:                  -0.334
REMARK UNBOUND:                -0.342
REMARK SMILES CCCCCCCCC(=O)[O-]
REMARK SMILES IDX 6 1 7 2 8 3 9 4 10 5 11 6 5 7 4 8 3 9 2 10 1 11
REMARK H PARENT
REMARK Flexibility Score: inf
ROOT
ATOM      1  C   UNL     1     100.971 -67.795   6.616  1.00  0.00     0.000 C 
ENDROOT
BRANCH   1   2
ATOM      2  C   UNL     1     100.973 -67.366   8.094  1.00  0.00     0.006 C 
BRANCH   2   3
ATOM      3  C   UNL     1     101.074 -68.554   9.060  1.00  0.00     0.053 C 
BRANCH   3   4
ATOM      4  C   UNL     1     100.488 -68.196  10.390  1.00  0.00     0.041 C 
ATOM      5  O   UNL     1     100.025 -67.042  10.588  1.00  0.00    -0.550 OA
ATOM      6  O   UNL     1     100.498 -69.121  11.425  1.00  0.00    -0.550 OA
ENDBRANCH   3   4
ENDBRANCH   2   3
ENDBRANCH   1   2
BRANCH   1   7
ATOM      7  C   UNL     1     100.625 -69.276   6.371  1.00  0.00     0.000 C 
BRANCH   7   8
ATOM      8  C   UNL     1      99.745 -69.488   5.128  1.00  0.00    -0.000 C 
BRANCH   8   9
ATOM      9  C   UNL     1      99.607 -68.203   4.284  1.00  0.00    -0.000 C 
BRANCH   9  10
ATOM     10  C   UNL     1      98.422 -68.234   3.305  1.00  0.00    -0.003 C 
ATOM     11  C   UNL     1      97.179 -67.531   3.847  1.00  0.00     0.004 C 
ENDBRANCH   9  10
ENDBRANCH   8   9
ENDBRANCH   7   8
ENDBRANCH   1   7
TORSDOF 7
ENDMDL
MODEL 7
REMARK VINA RESULT:    -3.532      2.214      2.845
REMARK INTER + INTRA:          -5.319
REMARK INTER:                  -4.788
REMARK INTRA:                  -0.531
REMARK UNBOUND:                -0.342
REMARK SMILES CCCCCCCCC(=O)[O-]
REMARK SMILES IDX 6 1 7 2 8 3 9 4 10 5 11 6 5 7 4 8 3 9 2 10 1 11
REMARK H PARENT
REMARK Flexibility Score: inf
ROOT
ATOM      1  C   UNL     1     101.062 -67.068   7.460  1.00  0.00     0.000 C 
ENDROOT
BRANCH   1   2
ATOM      2  C   UNL     1     101.073 -68.602   7.582  1.00  0.00     0.006 C 
BRANCH   2   3
ATOM      3  C   UNL     1     101.945 -69.279   6.517  1.00  0.00     0.053 C 
BRANCH   3   4
ATOM      4  C   UNL     1     101.127 -69.616   5.310  1.00  0.00     0.041 C 
ATOM      5  O   UNL     1     100.264 -70.531   5.365  1.00  0.00    -0.550 OA
ATOM      6  O   UNL     1     101.352 -68.954   4.111  1.00  0.00    -0.550 OA
ENDBRANCH   3   4
ENDBRANCH   2   3
ENDBRANCH   1   2
BRANCH   1   7
ATOM      7  C   UNL     1     101.421 -66.312   8.752  1.00  0.00     0.000 C 
BRANCH   7   8
ATOM      8  C   UNL     1     100.221 -66.140   9.699  1.00  0.00    -0.000 C 
BRANCH   8   9
ATOM      9  C   UNL     1     100.463 -66.798  11.074  1.00  0.00    -0.000 C 
BRANCH   9  10
ATOM     10  C   UNL     1     100.150 -68.303  11.098  1.00  0.00    -0.003 C 
ATOM     11  C   UNL     1     101.394 -69.170  11.284  1.00  0.00     0.004 C 
ENDBRANCH   9  10
ENDBRANCH   8   9
ENDBRANCH   7   8
ENDBRANCH   1   7
TORSDOF 7
ENDMDL
MODEL 8
REMARK VINA RESULT:    -3.407      3.215      4.883
REMARK INTER + INTRA:          -5.143
REMARK INTER:                  -4.501
REMARK INTRA:                  -0.642
REMARK UNBOUND:                -0.342
REMARK SMILES CCCCCCCCC(=O)[O-]
REMARK SMILES IDX 6 1 7 2 8 3 9 4 10 5 11 6 5 7 4 8 3 9 2 10 1 11
REMARK H PARENT
REMARK Flexibility Score: inf
ROOT
ATOM      1  C   UNL     1      99.230 -65.535   2.384  1.00  0.00     0.000 C 
ENDROOT
BRANCH   1   2
ATOM      2  C   UNL     1      98.441 -66.289   1.298  1.00  0.00     0.006 C 
BRANCH   2   3
ATOM      3  C   UNL     1      99.346 -66.918   0.231  1.00  0.00     0.053 C 
BRANCH   3   4
ATOM      4  C   UNL     1      99.894 -68.223   0.715  1.00  0.00     0.041 C 
ATOM      5  O   UNL     1      99.236 -69.284   0.555  1.00  0.00    -0.550 OA
ATOM      6  O   UNL     1     101.108 -68.261   1.387  1.00  0.00    -0.550 OA
ENDBRANCH   3   4
ENDBRANCH   2   3
ENDBRANCH   1   2
BRANCH   1   7
ATOM      7  C   UNL     1      99.104 -66.121   3.802  1.00  0.00     0.000 C 
BRANCH   7   8
ATOM      8  C   UNL     1      98.076 -67.261   3.889  1.00  0.00    -0.000 C 
BRANCH   8   9
ATOM      9  C   UNL     1      98.744 -68.633   4.121  1.00  0.00    -0.000 C 
BRANCH   9  10
ATOM     10  C   UNL     1     100.030 -68.557   4.960  1.00  0.00    -0.003 C 
ATOM     11  C   UNL     1     100.206 -69.752   5.895  1.00  0.00     0.004 C 
ENDBRANCH   9  10
ENDBRANCH   8   9
ENDBRANCH   7   8
ENDBRANCH   1   7
TORSDOF 7
ENDMDL
MODEL 9
REMARK VINA RESULT:    -3.316      1.313      2.092
REMARK INTER + INTRA:          -5.014
REMARK INTER:                  -4.761
REMARK INTRA:                  -0.254
REMARK UNBOUND:                -0.342
REMARK SMILES CCCCCCCCC(=O)[O-]
REMARK SMILES IDX 6 1 7 2 8 3 9 4 10 5 11 6 5 7 4 8 3 9 2 10 1 11
REMARK H PARENT
REMARK Flexibility Score: inf
ROOT
ATOM      1  C   UNL     1     101.090 -68.132   7.663  1.00  0.00     0.000 C 
ENDROOT
BRANCH   1   2
ATOM      2  C   UNL     1     100.614 -69.326   6.815  1.00  0.00     0.006 C 
BRANCH   2   3
ATOM      3  C   UNL     1     101.100 -69.257   5.362  1.00  0.00     0.053 C 
BRANCH   3   4
ATOM      4  C   UNL     1     100.069 -68.602   4.498  1.00  0.00     0.041 C 
ATOM      5  O   UNL     1      99.131 -69.282   4.006  1.00  0.00    -0.550 OA
ATOM      6  O   UNL     1     100.174 -67.251   4.194  1.00  0.00    -0.550 OA
ENDBRANCH   3   4
ENDBRANCH   2   3
ENDBRANCH   1   2
BRANCH   1   7
ATOM      7  C   UNL     1     101.588 -68.496   9.073  1.00  0.00     0.000 C 
BRANCH   7   8
ATOM      8  C   UNL     1     100.446 -68.859  10.037  1.00  0.00    -0.000 C 
BRANCH   8   9
ATOM      9  C   UNL     1     100.265 -67.805  11.151  1.00  0.00    -0.000 C 
BRANCH   9  10
ATOM     10  C   UNL     1     100.484 -66.361  10.671  1.00  0.00    -0.003 C 
ATOM     11  C   UNL     1      99.633 -65.344  11.429  1.00  0.00     0.004 C 
ENDBRANCH   9  10
ENDBRANCH   8   9
ENDBRANCH   7   8
ENDBRANCH   1   7
TORSDOF 7
ENDMDL
