MODEL 1
REMARK VINA RESULT:    -3.807      0.000      0.000
REMARK INTER + INTRA:          -6.144
REMARK INTER:                  -5.809
REMARK INTRA:                  -0.334
REMARK UNBOUND:                -0.334
REMARK SMILES CC1=CCC[C@H](C)C(=O)C[C@H](C(C)C)C(=O)C1
REMARK SMILES IDX 8 1 9 2 6 3 7 4 5 5 4 6 3 7 2 8 1 9 10 11 11 12 15 13 16 14
REMARK SMILES IDX 17 15 12 17 13 18 14 19
REMARK H PARENT
REMARK Flexibility Score: 70.00
ROOT
ATOM      1  C   UNL     1       7.118   1.829  -6.300  1.00  0.00     0.136 C 
ATOM      2  O   UNL     1       6.825   0.644  -6.215  1.00  0.00    -0.299 OA
ENDROOT
BRANCH   1   3
ATOM      3  C   UNL     1       6.689   2.798  -5.209  1.00  0.00     0.053 C 
ATOM      4  C   UNL     1       7.868   3.243  -4.329  1.00  0.00     0.016 C 
BRANCH   3   5
ATOM      5  C   UNL     1       5.936   4.018  -5.786  1.00  0.00     0.015 C 
BRANCH   5   6
ATOM      6  C   UNL     1       6.742   5.338  -5.746  1.00  0.00     0.028 C 
BRANCH   6   7
ATOM      7  C   UNL     1       6.346   6.242  -6.889  1.00  0.00    -0.028 C 
ATOM      8  C   UNL     1       6.790   6.139  -8.165  1.00  0.00    -0.070 CG0
ATOM      9  C   UNL     1       6.226   7.099  -9.183  1.00  0.00     0.039 C 
ATOM     10  G   UNL     1       7.869   5.158  -8.601  1.00  0.00     0.000 G0
ENDBRANCH   6   7
ENDBRANCH   5   6
ENDBRANCH   3   5
ENDBRANCH   1   3
BRANCH   1  11
ATOM     11  C   UNL     1       7.933   2.291  -7.486  1.00  0.00     0.087 C 
BRANCH  11  12
ATOM     12  C   UNL     1       7.071   2.589  -8.743  1.00  0.00     0.066 C 
BRANCH  12  13
ATOM     13  C   UNL     1       7.435   3.926  -9.385  1.00  0.00     0.140 C 
ATOM     14  O   UNL     1       7.380   4.022 -10.602  1.00  0.00    -0.299 OA
BRANCH  13  15
ATOM     15  C   UNL     1       7.889   5.152  -8.611  1.00  0.00     0.106 CG0
ATOM     16  G   UNL     1       6.798   6.120  -8.176  1.00  0.00     0.000 G0
ENDBRANCH  13  15
ENDBRANCH  12  13
BRANCH  12  17
ATOM     17  C   UNL     1       7.101   1.402  -9.758  1.00  0.00    -0.006 C 
ATOM     18  C   UNL     1       8.333   0.515  -9.534  1.00  0.00     0.008 C 
ATOM     19  C   UNL     1       5.831   0.532  -9.763  1.00  0.00     0.008 C 
ENDBRANCH  12  17
ENDBRANCH  11  12
ENDBRANCH   1  11
TORSDOF 1
ENDMDL
MODEL 2
REMARK VINA RESULT:    -3.739      2.177      4.143
REMARK INTER + INTRA:          -6.040
REMARK INTER:                  -5.625
REMARK INTRA:                  -0.415
REMARK UNBOUND:                -0.334
REMARK SMILES CC1=CCC[C@H](C)C(=O)C[C@H](C(C)C)C(=O)C1
REMARK SMILES IDX 8 1 9 2 6 3 7 4 5 5 4 6 3 7 2 8 1 9 10 11 11 12 15 13 16 14
REMARK SMILES IDX 17 15 12 17 13 18 14 19
REMARK H PARENT
REMARK Flexibility Score: 70.00
ROOT
ATOM      1  C   UNL     1       7.976   4.995  -8.140  1.00  0.00     0.136 C 
ATOM      2  O   UNL     1       9.000   5.663  -8.147  1.00  0.00    -0.299 OA
ENDROOT
BRANCH   1   3
ATOM      3  C   UNL     1       6.622   5.679  -8.040  1.00  0.00     0.053 C 
ATOM      4  C   UNL     1       6.619   6.816  -7.005  1.00  0.00     0.016 C 
BRANCH   3   5
ATOM      5  C   UNL     1       6.128   6.182  -9.416  1.00  0.00     0.015 C 
BRANCH   5   6
ATOM      6  C   UNL     1       6.342   5.177 -10.572  1.00  0.00     0.028 C 
BRANCH   6   7
ATOM      7  C   UNL     1       5.084   4.382 -10.831  1.00  0.00    -0.028 C 
ATOM      8  C   UNL     1       4.959   3.038 -10.698  1.00  0.00    -0.070 CG0
ATOM      9  C   UNL     1       3.599   2.434 -10.939  1.00  0.00     0.039 C 
ATOM     10  G   UNL     1       6.129   2.114 -10.388  1.00  0.00     0.000 G0
ENDBRANCH   6   7
ENDBRANCH   5   6
ENDBRANCH   3   5
ENDBRANCH   1   3
BRANCH   1  11
ATOM     11  C   UNL     1       8.090   3.492  -8.263  1.00  0.00     0.087 C 
BRANCH  11  12
ATOM     12  C   UNL     1       6.783   2.746  -7.880  1.00  0.00     0.066 C 
BRANCH  12  13
ATOM     13  C   UNL     1       6.362   1.740  -8.950  1.00  0.00     0.140 C 
ATOM     14  O   UNL     1       6.221   0.569  -8.626  1.00  0.00    -0.299 OA
BRANCH  13  15
ATOM     15  C   UNL     1       6.127   2.090 -10.409  1.00  0.00     0.106 CG0
ATOM     16  G   UNL     1       4.964   3.028 -10.700  1.00  0.00     0.000 G0
ENDBRANCH  13  15
ENDBRANCH  12  13
BRANCH  12  17
ATOM     17  C   UNL     1       6.877   2.110  -6.456  1.00  0.00    -0.006 C 
ATOM     18  C   UNL     1       8.340   1.902  -6.039  1.00  0.00     0.008 C 
ATOM     19  C   UNL     1       6.133   2.891  -5.357  1.00  0.00     0.008 C 
ENDBRANCH  12  17
ENDBRANCH  11  12
ENDBRANCH   1  11
TORSDOF 1
ENDMDL
MODEL 3
REMARK VINA RESULT:    -3.724      1.739      4.208
REMARK INTER + INTRA:          -6.017
REMARK INTER:                  -5.540
REMARK INTRA:                  -0.477
REMARK UNBOUND:                -0.334
REMARK SMILES CC1=CCC[C@H](C)C(=O)C[C@H](C(C)C)C(=O)C1
REMARK SMILES IDX 8 1 9 2 6 3 7 4 5 5 4 6 3 7 2 8 1 9 10 11 11 12 15 13 16 14
REMARK SMILES IDX 17 15 12 17 13 18 14 19
REMARK H PARENT
REMARK Flexibility Score: 70.00
ROOT
ATOM      1  C   UNL     1       7.174   1.863  -6.223  1.00  0.00     0.136 C 
ATOM      2  O   UNL     1       6.803   0.750  -5.879  1.00  0.00    -0.299 OA
ENDROOT
BRANCH   1   3
ATOM      3  C   UNL     1       8.659   2.182  -6.290  1.00  0.00     0.053 C 
ATOM      4  C   UNL     1       9.319   2.174  -4.902  1.00  0.00     0.016 C 
BRANCH   3   5
ATOM      5  C   UNL     1       9.407   1.245  -7.265  1.00  0.00     0.015 C 
BRANCH   5   6
ATOM      6  C   UNL     1       9.236   1.615  -8.757  1.00  0.00     0.028 C 
BRANCH   6   7
ATOM      7  C   UNL     1       8.102   0.833  -9.377  1.00  0.00    -0.028 C 
ATOM      8  C   UNL     1       7.066   1.363 -10.073  1.00  0.00    -0.070 CG0
ATOM      9  C   UNL     1       6.064   0.409 -10.673  1.00  0.00     0.039 C 
ATOM     10  G   UNL     1       6.832   2.860 -10.216  1.00  0.00     0.000 G0
ENDBRANCH   6   7
ENDBRANCH   5   6
ENDBRANCH   3   5
ENDBRANCH   1   3
BRANCH   1  11
ATOM     11  C   UNL     1       6.132   2.889  -6.605  1.00  0.00     0.087 C 
BRANCH  11  12
ATOM     12  C   UNL     1       6.612   3.867  -7.712  1.00  0.00     0.066 C 
BRANCH  12  13
ATOM     13  C   UNL     1       6.030   3.516  -9.080  1.00  0.00     0.140 C 
ATOM     14  O   UNL     1       4.851   3.759  -9.291  1.00  0.00    -0.299 OA
BRANCH  13  15
ATOM     15  C   UNL     1       6.816   2.858 -10.200  1.00  0.00     0.106 CG0
ATOM     16  G   UNL     1       7.072   1.364 -10.059  1.00  0.00     0.000 G0
ENDBRANCH  13  15
ENDBRANCH  12  13
BRANCH  12  17
ATOM     17  C   UNL     1       6.363   5.357  -7.313  1.00  0.00    -0.006 C 
ATOM     18  C   UNL     1       6.754   5.610  -5.851  1.00  0.00     0.008 C 
ATOM     19  C   UNL     1       7.060   6.387  -8.220  1.00  0.00     0.008 C 
ENDBRANCH  12  17
ENDBRANCH  11  12
ENDBRANCH   1  11
TORSDOF 1
ENDMDL
MODEL 4
REMARK VINA RESULT:    -3.639      1.913      2.514
REMARK INTER + INTRA:          -5.888
REMARK INTER:                  -5.543
REMARK INTRA:                  -0.345
REMARK UNBOUND:                -0.334
REMARK SMILES CC1=CCC[C@H](C)C(=O)C[C@H](C(C)C)C(=O)C1
REMARK SMILES IDX 8 1 9 2 6 3 7 4 5 5 4 6 3 7 2 8 1 9 10 11 11 12 15 13 16 14
REMARK SMILES IDX 17 15 12 17 13 18 14 19
REMARK H PARENT
REMARK Flexibility Score: 70.00
ROOT
ATOM      1  C   UNL     1       7.462   4.183  -7.508  1.00  0.00     0.136 C 
ATOM      2  O   UNL     1       8.623   4.527  -7.685  1.00  0.00    -0.299 OA
ENDROOT
BRANCH   1   3
ATOM      3  C   UNL     1       6.684   4.718  -6.316  1.00  0.00     0.053 C 
ATOM      4  C   UNL     1       7.123   4.066  -4.994  1.00  0.00     0.016 C 
BRANCH   3   5
ATOM      5  C   UNL     1       6.757   6.258  -6.224  1.00  0.00     0.015 C 
BRANCH   5   6
ATOM      6  C   UNL     1       5.992   6.998  -7.347  1.00  0.00     0.028 C 
BRANCH   6   7
ATOM      7  C   UNL     1       6.953   7.667  -8.301  1.00  0.00    -0.028 C 
ATOM      8  C   UNL     1       6.983   7.489  -9.644  1.00  0.00    -0.070 CG0
ATOM      9  C   UNL     1       7.978   8.300 -10.436  1.00  0.00     0.039 C 
ATOM     10  G   UNL     1       6.118   6.471 -10.375  1.00  0.00     0.000 G0
ENDBRANCH   6   7
ENDBRANCH   5   6
ENDBRANCH   3   5
ENDBRANCH   1   3
BRANCH   1  11
ATOM     11  C   UNL     1       6.822   3.250  -8.510  1.00  0.00     0.087 C 
BRANCH  11  12
ATOM     12  C   UNL     1       5.833   3.968  -9.469  1.00  0.00     0.066 C 
BRANCH  12  13
ATOM     13  C   UNL     1       6.528   5.024 -10.325  1.00  0.00     0.140 C 
ATOM     14  O   UNL     1       7.504   4.693 -10.982  1.00  0.00    -0.299 OA
BRANCH  13  15
ATOM     15  C   UNL     1       6.102   6.480 -10.400  1.00  0.00     0.106 CG0
ATOM     16  G   UNL     1       6.968   7.478  -9.645  1.00  0.00     0.000 G0
ENDBRANCH  13  15
ENDBRANCH  12  13
BRANCH  12  17
ATOM     17  C   UNL     1       5.010   2.946 -10.319  1.00  0.00    -0.006 C 
ATOM     18  C   UNL     1       5.438   1.504 -10.016  1.00  0.00     0.008 C 
ATOM     19  C   UNL     1       3.483   3.075 -10.171  1.00  0.00     0.008 C 
ENDBRANCH  12  17
ENDBRANCH  11  12
ENDBRANCH   1  11
TORSDOF 1
ENDMDL
MODEL 5
REMARK VINA RESULT:    -3.536     15.142     16.882
REMARK INTER + INTRA:          -5.731
REMARK INTER:                  -5.151
REMARK INTRA:                  -0.581
REMARK UNBOUND:                -0.334
REMARK SMILES CC1=CCC[C@H](C)C(=O)C[C@H](C(C)C)C(=O)C1
REMARK SMILES IDX 8 1 9 2 6 3 7 4 5 5 4 6 3 7 2 8 1 9 10 11 11 12 15 13 16 14
REMARK SMILES IDX 17 15 12 17 13 18 14 19
REMARK H PARENT
REMARK Flexibility Score: 70.00
ROOT
ATOM      1  C   UNL     1      -7.897  10.900  -4.692  1.00  0.00     0.136 C 
ATOM      2  O   UNL     1      -7.545  10.033  -3.903  1.00  0.00    -0.299 OA
ENDROOT
BRANCH   1   3
ATOM      3  C   UNL     1      -8.672  12.111  -4.195  1.00  0.00     0.053 C 
ATOM      4  C   UNL     1     -10.120  11.760  -3.817  1.00  0.00     0.016 C 
BRANCH   3   5
ATOM      5  C   UNL     1      -7.949  12.816  -3.025  1.00  0.00     0.015 C 
BRANCH   5   6
ATOM      6  C   UNL     1      -7.012  13.967  -3.460  1.00  0.00     0.028 C 
BRANCH   6   7
ATOM      7  C   UNL     1      -5.594  13.473  -3.619  1.00  0.00    -0.028 C 
ATOM      8  C   UNL     1      -4.895  13.444  -4.780  1.00  0.00    -0.070 CG0
ATOM      9  C   UNL     1      -3.463  12.975  -4.724  1.00  0.00     0.039 C 
ATOM     10  G   UNL     1      -5.500  13.792  -6.133  1.00  0.00     0.000 G0
ENDBRANCH   6   7
ENDBRANCH   5   6
ENDBRANCH   3   5
ENDBRANCH   1   3
BRANCH   1  11
ATOM     11  C   UNL     1      -7.519  10.752  -6.147  1.00  0.00     0.087 C 
BRANCH  11  12
ATOM     12  C   UNL     1      -7.443  12.108  -6.901  1.00  0.00     0.066 C 
BRANCH  12  13
ATOM     13  C   UNL     1      -6.014  12.642  -6.979  1.00  0.00     0.140 C 
ATOM     14  O   UNL     1      -5.233  12.106  -7.752  1.00  0.00    -0.299 OA
BRANCH  13  15
ATOM     15  C   UNL     1      -5.483  13.789  -6.138  1.00  0.00     0.106 CG0
ATOM     16  G   UNL     1      -4.903  13.420  -4.780  1.00  0.00     0.000 G0
ENDBRANCH  13  15
ENDBRANCH  12  13
BRANCH  12  17
ATOM     17  C   UNL     1      -8.137  12.030  -8.299  1.00  0.00    -0.006 C 
ATOM     18  C   UNL     1      -9.514  11.360  -8.196  1.00  0.00     0.008 C 
ATOM     19  C   UNL     1      -8.274  13.383  -9.020  1.00  0.00     0.008 C 
ENDBRANCH  12  17
ENDBRANCH  11  12
ENDBRANCH   1  11
TORSDOF 1
ENDMDL
MODEL 6
REMARK VINA RESULT:    -3.271      2.187      4.271
REMARK INTER + INTRA:          -5.326
REMARK INTER:                  -4.988
REMARK INTRA:                  -0.337
REMARK UNBOUND:                -0.334
REMARK SMILES CC1=CCC[C@H](C)C(=O)C[C@H](C(C)C)C(=O)C1
REMARK SMILES IDX 8 1 9 2 6 3 7 4 5 5 4 6 3 7 2 8 1 9 10 11 11 12 15 13 16 14
REMARK SMILES IDX 17 15 12 17 13 18 14 19
REMARK H PARENT
REMARK Flexibility Score: 70.00
ROOT
ATOM      1  C   UNL     1       6.282   3.279  -6.222  1.00  0.00     0.136 C 
ATOM      2  O   UNL     1       5.236   3.343  -5.591  1.00  0.00    -0.299 OA
ENDROOT
BRANCH   1   3
ATOM      3  C   UNL     1       7.613   3.241  -5.488  1.00  0.00     0.053 C 
ATOM      4  C   UNL     1       7.503   3.789  -4.056  1.00  0.00     0.016 C 
BRANCH   3   5
ATOM      5  C   UNL     1       8.234   1.826  -5.493  1.00  0.00     0.015 C 
BRANCH   5   6
ATOM      6  C   UNL     1       9.660   1.760  -6.089  1.00  0.00     0.028 C 
BRANCH   6   7
ATOM      7  C   UNL     1       9.746   0.700  -7.160  1.00  0.00    -0.028 C 
ATOM      8  C   UNL     1       9.776   0.928  -8.496  1.00  0.00    -0.070 CG0
ATOM      9  C   UNL     1       9.931  -0.263  -9.407  1.00  0.00     0.039 C 
ATOM     10  G   UNL     1       9.594   2.307  -9.114  1.00  0.00     0.000 G0
ENDBRANCH   6   7
ENDBRANCH   5   6
ENDBRANCH   3   5
ENDBRANCH   1   3
BRANCH   1  11
ATOM     11  C   UNL     1       6.214   3.207  -7.731  1.00  0.00     0.087 C 
BRANCH  11  12
ATOM     12  C   UNL     1       7.459   3.819  -8.429  1.00  0.00     0.066 C 
BRANCH  12  13
ATOM     13  C   UNL     1       8.171   2.808  -9.325  1.00  0.00     0.140 C 
ATOM     14  O   UNL     1       7.557   2.333 -10.270  1.00  0.00    -0.299 OA
BRANCH  13  15
ATOM     15  C   UNL     1       9.595   2.327  -9.109  1.00  0.00     0.106 CG0
ATOM     16  G   UNL     1       9.755   0.945  -8.489  1.00  0.00     0.000 G0
ENDBRANCH  13  15
ENDBRANCH  12  13
BRANCH  12  17
ATOM     17  C   UNL     1       7.107   5.146  -9.176  1.00  0.00    -0.006 C 
ATOM     18  C   UNL     1       5.589   5.374  -9.212  1.00  0.00     0.008 C 
ATOM     19  C   UNL     1       7.805   6.399  -8.617  1.00  0.00     0.008 C 
ENDBRANCH  12  17
ENDBRANCH  11  12
ENDBRANCH   1  11
TORSDOF 1
ENDMDL
MODEL 7
REMARK VINA RESULT:    -3.239      2.223      4.399
REMARK INTER + INTRA:          -5.278
REMARK INTER:                  -5.247
REMARK INTRA:                  -0.032
REMARK UNBOUND:                -0.334
REMARK SMILES CC1=CCC[C@H](C)C(=O)C[C@H](C(C)C)C(=O)C1
REMARK SMILES IDX 8 1 9 2 6 3 7 4 5 5 4 6 3 7 2 8 1 9 10 11 11 12 15 13 16 14
REMARK SMILES IDX 17 15 12 17 13 18 14 19
REMARK H PARENT
REMARK Flexibility Score: 70.00
ROOT
ATOM      1  C   UNL     1       7.636   4.241  -7.289  1.00  0.00     0.136 C 
ATOM      2  O   UNL     1       8.822   4.369  -7.563  1.00  0.00    -0.299 OA
ENDROOT
BRANCH   1   3
ATOM      3  C   UNL     1       7.155   3.002  -6.551  1.00  0.00     0.053 C 
ATOM      4  C   UNL     1       5.861   3.260  -5.762  1.00  0.00     0.016 C 
BRANCH   3   5
ATOM      5  C   UNL     1       6.995   1.793  -7.499  1.00  0.00     0.015 C 
BRANCH   5   6
ATOM      6  C   UNL     1       7.003   2.159  -9.002  1.00  0.00     0.028 C 
BRANCH   6   7
ATOM      7  C   UNL     1       5.600   2.411  -9.500  1.00  0.00    -0.028 C 
ATOM      8  C   UNL     1       5.237   3.379 -10.376  1.00  0.00    -0.070 CG0
ATOM      9  C   UNL     1       3.792   3.429 -10.805  1.00  0.00     0.039 C 
ATOM     10  G   UNL     1       6.192   4.449 -10.887  1.00  0.00     0.000 G0
ENDBRANCH   6   7
ENDBRANCH   5   6
ENDBRANCH   3   5
ENDBRANCH   1   3
BRANCH   1  11
ATOM     11  C   UNL     1       6.681   5.349  -7.672  1.00  0.00     0.087 C 
BRANCH  11  12
ATOM     12  C   UNL     1       7.101   6.100  -8.965  1.00  0.00     0.066 C 
BRANCH  12  13
ATOM     13  C   UNL     1       6.182   5.777 -10.141  1.00  0.00     0.140 C 
ATOM     14  O   UNL     1       5.372   6.621 -10.496  1.00  0.00    -0.299 OA
BRANCH  13  15
ATOM     15  C   UNL     1       6.187   4.458 -10.893  1.00  0.00     0.106 CG0
ATOM     16  G   UNL     1       5.227   3.389 -10.390  1.00  0.00     0.000 G0
ENDBRANCH  13  15
ENDBRANCH  12  13
BRANCH  12  17
ATOM     17  C   UNL     1       7.249   7.636  -8.717  1.00  0.00    -0.006 C 
ATOM     18  C   UNL     1       6.379   8.092  -7.537  1.00  0.00     0.008 C 
ATOM     19  C   UNL     1       8.698   8.112  -8.506  1.00  0.00     0.008 C 
ENDBRANCH  12  17
ENDBRANCH  11  12
ENDBRANCH   1  11
TORSDOF 1
ENDMDL
MODEL 8
REMARK VINA RESULT:    -3.196      1.840      3.826
REMARK INTER + INTRA:          -5.212
REMARK INTER:                  -5.193
REMARK INTRA:                  -0.019
REMARK UNBOUND:                -0.334
REMARK SMILES CC1=CCC[C@H](C)C(=O)C[C@H](C(C)C)C(=O)C1
REMARK SMILES IDX 8 1 9 2 6 3 7 4 5 5 4 6 3 7 2 8 1 9 10 11 11 12 15 13 16 14
REMARK SMILES IDX 17 15 12 17 13 18 14 19
REMARK H PARENT
REMARK Flexibility Score: 70.00
ROOT
ATOM      1  C   UNL     1       5.836   2.544  -9.630  1.00  0.00     0.136 C 
ATOM      2  O   UNL     1       6.613   1.663  -9.970  1.00  0.00    -0.299 OA
ENDROOT
BRANCH   1   3
ATOM      3  C   UNL     1       4.847   3.115 -10.635  1.00  0.00     0.053 C 
ATOM      4  C   UNL     1       3.408   3.129 -10.091  1.00  0.00     0.016 C 
BRANCH   3   5
ATOM      5  C   UNL     1       5.268   4.518 -11.125  1.00  0.00     0.015 C 
BRANCH   5   6
ATOM      6  C   UNL     1       4.779   5.678 -10.225  1.00  0.00     0.028 C 
BRANCH   6   7
ATOM      7  C   UNL     1       5.775   6.813 -10.226  1.00  0.00    -0.028 C 
ATOM      8  C   UNL     1       6.790   6.972  -9.341  1.00  0.00    -0.070 CG0
ATOM      9  C   UNL     1       7.723   8.139  -9.547  1.00  0.00     0.039 C 
ATOM     10  G   UNL     1       6.989   6.079  -8.125  1.00  0.00     0.000 G0
ENDBRANCH   6   7
ENDBRANCH   5   6
ENDBRANCH   3   5
ENDBRANCH   1   3
BRANCH   1  11
ATOM     11  C   UNL     1       5.863   3.022  -8.196  1.00  0.00     0.087 C 
BRANCH  11  12
ATOM     12  C   UNL     1       7.280   3.441  -7.718  1.00  0.00     0.066 C 
BRANCH  12  13
ATOM     13  C   UNL     1       7.723   4.769  -8.328  1.00  0.00     0.140 C 
ATOM     14  O   UNL     1       8.733   4.786  -9.016  1.00  0.00    -0.299 OA
BRANCH  13  15
ATOM     15  C   UNL     1       7.003   6.089  -8.117  1.00  0.00     0.106 CG0
ATOM     16  G   UNL     1       6.802   6.954  -9.353  1.00  0.00     0.000 G0
ENDBRANCH  13  15
ENDBRANCH  12  13
BRANCH  12  17
ATOM     17  C   UNL     1       7.391   3.424  -6.159  1.00  0.00    -0.006 C 
ATOM     18  C   UNL     1       6.092   2.918  -5.518  1.00  0.00     0.008 C 
ATOM     19  C   UNL     1       8.585   2.621  -5.611  1.00  0.00     0.008 C 
ENDBRANCH  12  17
ENDBRANCH  11  12
ENDBRANCH   1  11
TORSDOF 1
ENDMDL
MODEL 9
REMARK VINA RESULT:    -3.099      1.880      4.689
REMARK INTER + INTRA:          -5.064
REMARK INTER:                  -5.333
REMARK INTRA:                   0.269
REMARK UNBOUND:                -0.334
REMARK SMILES CC1=CCC[C@H](C)C(=O)C[C@H](C(C)C)C(=O)C1
REMARK SMILES IDX 8 1 9 2 6 3 7 4 5 5 4 6 3 7 2 8 1 9 10 11 11 12 15 13 16 14
REMARK SMILES IDX 17 15 12 17 13 18 14 19
REMARK H PARENT
REMARK Flexibility Score: 70.00
ROOT
ATOM      1  C   UNL     1       7.496   6.528  -8.227  1.00  0.00     0.136 C 
ATOM      2  O   UNL     1       8.671   6.528  -8.566  1.00  0.00    -0.299 OA
ENDROOT
BRANCH   1   3
ATOM      3  C   UNL     1       6.450   7.190  -9.110  1.00  0.00     0.053 C 
ATOM      4  C   UNL     1       7.083   8.012 -10.245  1.00  0.00     0.016 C 
BRANCH   3   5
ATOM      5  C   UNL     1       5.434   6.168  -9.666  1.00  0.00     0.015 C 
BRANCH   5   6
ATOM      6  C   UNL     1       5.978   5.298 -10.824  1.00  0.00     0.028 C 
BRANCH   6   7
ATOM      7  C   UNL     1       5.671   3.838 -10.587  1.00  0.00    -0.028 C 
ATOM      8  C   UNL     1       6.463   2.964  -9.920  1.00  0.00    -0.070 CG0
ATOM      9  C   UNL     1       5.951   1.558  -9.730  1.00  0.00     0.039 C 
ATOM     10  G   UNL     1       7.858   3.310  -9.419  1.00  0.00     0.000 G0
ENDBRANCH   6   7
ENDBRANCH   5   6
ENDBRANCH   3   5
ENDBRANCH   1   3
BRANCH   1  11
ATOM     11  C   UNL     1       7.112   5.833  -6.940  1.00  0.00     0.087 C 
BRANCH  11  12
ATOM     12  C   UNL     1       6.895   4.304  -7.111  1.00  0.00     0.066 C 
BRANCH  12  13
ATOM     13  C   UNL     1       8.001   3.656  -7.940  1.00  0.00     0.140 C 
ATOM     14  O   UNL     1       9.073   3.421  -7.400  1.00  0.00    -0.299 OA
BRANCH  13  15
ATOM     15  C   UNL     1       7.872   3.301  -9.411  1.00  0.00     0.106 CG0
ATOM     16  G   UNL     1       6.471   2.972  -9.908  1.00  0.00     0.000 G0
ENDBRANCH  13  15
ENDBRANCH  12  13
BRANCH  12  17
ATOM     17  C   UNL     1       6.675   3.596  -5.736  1.00  0.00    -0.006 C 
ATOM     18  C   UNL     1       7.182   4.467  -4.578  1.00  0.00     0.008 C 
ATOM     19  C   UNL     1       5.222   3.167  -5.463  1.00  0.00     0.008 C 
ENDBRANCH  12  17
ENDBRANCH  11  12
ENDBRANCH   1  11
TORSDOF 1
ENDMDL
