MODEL 1
REMARK VINA RESULT:    -2.274      0.000      0.000
REMARK INTER + INTRA:          -2.274
REMARK INTER:                  -2.274
REMARK INTRA:                   0.000
REMARK UNBOUND:                 0.000
REMARK SMILES CC(=O)[O-]
REMARK SMILES IDX 1 1 2 2 3 3 4 4
REMARK H PARENT
REMARK Flexibility Score: inf
ROOT
ATOM      1  C   UNL     1      17.968  37.980  97.065  1.00  0.00     0.063 C 
ATOM      2  C   UNL     1      17.654  37.880  95.611  1.00  0.00     0.038 C 
ATOM      3  O   UNL     1      18.586  37.787  94.769  1.00  0.00    -0.550 OA
ATOM      4  O   UNL     1      16.336  37.944  95.176  1.00  0.00    -0.550 OA
ENDROOT
TORSDOF 0
ENDMDL
MODEL 2
REMARK VINA RESULT:    -2.240     12.552     12.774
REMARK INTER + INTRA:          -2.240
REMARK INTER:                  -2.240
REMARK INTRA:                   0.000
REMARK UNBOUND:                 0.000
REMARK SMILES CC(=O)[O-]
REMARK SMILES IDX 1 1 2 2 3 3 4 4
REMARK H PARENT
REMARK Flexibility Score: inf
ROOT
ATOM      1  C   UNL     1      12.624  49.261  97.215  1.00  0.00     0.063 C 
ATOM      2  C   UNL     1      13.890  49.943  96.824  1.00  0.00     0.038 C 
ATOM      3  O   UNL     1      14.086  51.144  97.147  1.00  0.00    -0.550 OA
ATOM      4  O   UNL     1      14.834  49.273  96.055  1.00  0.00    -0.550 OA
ENDROOT
TORSDOF 0
ENDMDL
MODEL 3
REMARK VINA RESULT:    -2.224      1.730      2.229
REMARK INTER + INTRA:          -2.224
REMARK INTER:                  -2.224
REMARK INTRA:                   0.000
REMARK UNBOUND:                 0.000
REMARK SMILES CC(=O)[O-]
REMARK SMILES IDX 1 1 2 2 3 3 4 4
REMARK H PARENT
REMARK Flexibility Score: inf
ROOT
ATOM      1  C   UNL     1      16.713  38.150  95.287  1.00  0.00     0.063 C 
ATOM      2  C   UNL     1      17.942  38.315  96.114  1.00  0.00     0.038 C 
ATOM      3  O   UNL     1      18.101  37.623  97.154  1.00  0.00    -0.550 OA
ATOM      4  O   UNL     1      18.889  39.271  95.771  1.00  0.00    -0.550 OA
ENDROOT
TORSDOF 0
ENDMDL
MODEL 4
REMARK VINA RESULT:    -2.208     13.212     13.389
REMARK INTER + INTRA:          -2.208
REMARK INTER:                  -2.208
REMARK INTRA:                   0.000
REMARK UNBOUND:                 0.000
REMARK SMILES CC(=O)[O-]
REMARK SMILES IDX 1 1 2 2 3 3 4 4
REMARK H PARENT
REMARK Flexibility Score: inf
ROOT
ATOM      1  C   UNL     1      14.182  50.777  96.937  1.00  0.00     0.063 C 
ATOM      2  C   UNL     1      14.516  50.832  95.485  1.00  0.00     0.038 C 
ATOM      3  O   UNL     1      13.595  50.858  94.627  1.00  0.00    -0.550 OA
ATOM      4  O   UNL     1      15.842  50.799  95.073  1.00  0.00    -0.550 OA
ENDROOT
TORSDOF 0
ENDMDL
MODEL 5
REMARK VINA RESULT:    -2.171     12.792     13.018
REMARK INTER + INTRA:          -2.171
REMARK INTER:                  -2.171
REMARK INTRA:                   0.000
REMARK UNBOUND:                 0.000
REMARK SMILES CC(=O)[O-]
REMARK SMILES IDX 1 1 2 2 3 3 4 4
REMARK H PARENT
REMARK Flexibility Score: inf
ROOT
ATOM      1  C   UNL     1      15.330  50.653  95.189  1.00  0.00     0.063 C 
ATOM      2  C   UNL     1      14.262  50.355  96.185  1.00  0.00     0.038 C 
ATOM      3  O   UNL     1      14.114  51.094  97.193  1.00  0.00    -0.550 OA
ATOM      4  O   UNL     1      13.462  49.229  96.033  1.00  0.00    -0.550 OA
ENDROOT
TORSDOF 0
ENDMDL
MODEL 6
REMARK VINA RESULT:    -2.121     12.523     12.780
REMARK INTER + INTRA:          -2.121
REMARK INTER:                  -2.121
REMARK INTRA:                   0.000
REMARK UNBOUND:                 0.000
REMARK SMILES CC(=O)[O-]
REMARK SMILES IDX 1 1 2 2 3 3 4 4
REMARK H PARENT
REMARK Flexibility Score: inf
ROOT
ATOM      1  C   UNL     1      10.954  49.269  98.031  1.00  0.00     0.063 C 
ATOM      2  C   UNL     1      12.179  49.248  97.181  1.00  0.00     0.038 C 
ATOM      3  O   UNL     1      13.253  49.744  97.611  1.00  0.00    -0.550 OA
ATOM      4  O   UNL     1      12.125  48.730  95.894  1.00  0.00    -0.550 OA
ENDROOT
TORSDOF 0
ENDMDL
MODEL 7
REMARK VINA RESULT:    -2.115     12.518     12.834
REMARK INTER + INTRA:          -2.115
REMARK INTER:                  -2.115
REMARK INTRA:                   0.000
REMARK UNBOUND:                 0.000
REMARK SMILES CC(=O)[O-]
REMARK SMILES IDX 1 1 2 2 3 3 4 4
REMARK H PARENT
REMARK Flexibility Score: inf
ROOT
ATOM      1  C   UNL     1      13.331  49.698  97.335  1.00  0.00     0.063 C 
ATOM      2  C   UNL     1      11.937  49.181  97.231  1.00  0.00     0.038 C 
ATOM      3  O   UNL     1      11.570  48.557  96.200  1.00  0.00    -0.550 OA
ATOM      4  O   UNL     1      11.023  49.433  98.246  1.00  0.00    -0.550 OA
ENDROOT
TORSDOF 0
ENDMDL
MODEL 8
REMARK VINA RESULT:    -2.067     12.872     13.269
REMARK INTER + INTRA:          -2.067
REMARK INTER:                  -2.067
REMARK INTRA:                   0.000
REMARK UNBOUND:                 0.000
REMARK SMILES CC(=O)[O-]
REMARK SMILES IDX 1 1 2 2 3 3 4 4
REMARK H PARENT
REMARK Flexibility Score: inf
ROOT
ATOM      1  C   UNL     1      12.194  49.215  97.356  1.00  0.00     0.063 C 
ATOM      2  C   UNL     1      10.821  48.972  97.883  1.00  0.00     0.038 C 
ATOM      3  O   UNL     1      10.258  49.840  98.602  1.00  0.00    -0.550 OA
ATOM      4  O   UNL     1      10.180  47.766  97.628  1.00  0.00    -0.550 OA
ENDROOT
TORSDOF 0
ENDMDL
MODEL 9
REMARK VINA RESULT:    -1.998     13.258     13.570
REMARK INTER + INTRA:          -1.998
REMARK INTER:                  -1.998
REMARK INTRA:                   0.000
REMARK UNBOUND:                 0.000
REMARK SMILES CC(=O)[O-]
REMARK SMILES IDX 1 1 2 2 3 3 4 4
REMARK H PARENT
REMARK Flexibility Score: inf
ROOT
ATOM      1  C   UNL     1      10.148  47.948  97.446  1.00  0.00     0.063 C 
ATOM      2  C   UNL     1      10.696  49.236  97.959  1.00  0.00     0.038 C 
ATOM      3  O   UNL     1      11.914  49.513  97.796  1.00  0.00    -0.550 OA
ATOM      4  O   UNL     1       9.880  50.108  98.667  1.00  0.00    -0.550 OA
ENDROOT
TORSDOF 0
ENDMDL
