MODEL 1
REMARK VINA RESULT:    -3.370      0.000      0.000
REMARK INTER + INTRA:          -4.096
REMARK INTER:                  -3.961
REMARK INTRA:                  -0.135
REMARK UNBOUND:                -0.135
REMARK SMILES O=C([O-])CCC(=O)[O-]
REMARK SMILES IDX 4 1 2 2 1 3 3 4 5 5 6 6 7 7 8 8
REMARK H PARENT
REMARK Flexibility Score: inf
ROOT
ATOM      1  C   UNL     1      17.336  13.904 -17.223  1.00  0.00     0.059 C 
ENDROOT
BRANCH   1   2
ATOM      2  C   UNL     1      17.028  14.104 -18.675  1.00  0.00     0.042 C 
ATOM      3  O   UNL     1      17.248  13.182 -19.503  1.00  0.00    -0.550 OA
ATOM      4  O   UNL     1      16.536  15.325 -19.119  1.00  0.00    -0.550 OA
ENDBRANCH   1   2
BRANCH   1   5
ATOM      5  C   UNL     1      16.294  14.580 -16.327  1.00  0.00     0.059 C 
BRANCH   5   6
ATOM      6  C   UNL     1      15.096  13.704 -16.117  1.00  0.00     0.042 C 
ATOM      7  O   UNL     1      15.140  12.757 -15.287  1.00  0.00    -0.550 OA
ATOM      8  O   UNL     1      13.945  13.907 -16.868  1.00  0.00    -0.550 OA
ENDBRANCH   5   6
ENDBRANCH   1   5
TORSDOF 3
ENDMDL
MODEL 2
REMARK VINA RESULT:    -3.353      0.128      3.592
REMARK INTER + INTRA:          -4.076
REMARK INTER:                  -3.944
REMARK INTRA:                  -0.132
REMARK UNBOUND:                -0.135
REMARK SMILES O=C([O-])CCC(=O)[O-]
REMARK SMILES IDX 4 1 2 2 1 3 3 4 5 5 6 6 7 7 8 8
REMARK H PARENT
REMARK Flexibility Score: inf
ROOT
ATOM      1  C   UNL     1      16.323  14.644 -16.399  1.00  0.00     0.059 C 
ENDROOT
BRANCH   1   2
ATOM      2  C   UNL     1      15.103  13.801 -16.188  1.00  0.00     0.042 C 
ATOM      3  O   UNL     1      15.118  12.862 -15.349  1.00  0.00    -0.550 OA
ATOM      4  O   UNL     1      13.961  14.028 -16.946  1.00  0.00    -0.550 OA
ENDBRANCH   1   2
BRANCH   1   5
ATOM      5  C   UNL     1      17.340  13.946 -17.308  1.00  0.00     0.059 C 
BRANCH   5   6
ATOM      6  C   UNL     1      17.046  14.194 -18.756  1.00  0.00     0.042 C 
ATOM      7  O   UNL     1      16.635  15.322 -19.136  1.00  0.00    -0.550 OA
ATOM      8  O   UNL     1      17.186  13.166 -19.680  1.00  0.00    -0.550 OA
ENDBRANCH   5   6
ENDBRANCH   1   5
TORSDOF 3
ENDMDL
MODEL 3
REMARK VINA RESULT:    -3.310      1.265      3.584
REMARK INTER + INTRA:          -4.026
REMARK INTER:                  -3.906
REMARK INTRA:                  -0.119
REMARK UNBOUND:                -0.135
REMARK SMILES O=C([O-])CCC(=O)[O-]
REMARK SMILES IDX 4 1 2 2 1 3 3 4 5 5 6 6 7 7 8 8
REMARK H PARENT
REMARK Flexibility Score: inf
ROOT
ATOM      1  C   UNL     1      17.551  13.762 -17.247  1.00  0.00     0.059 C 
ENDROOT
BRANCH   1   2
ATOM      2  C   UNL     1      16.447  13.803 -16.235  1.00  0.00     0.042 C 
ATOM      3  O   UNL     1      15.717  14.824 -16.134  1.00  0.00    -0.550 OA
ATOM      4  O   UNL     1      16.252  12.729 -15.377  1.00  0.00    -0.550 OA
ENDBRANCH   1   2
BRANCH   1   5
ATOM      5  C   UNL     1      17.239  14.649 -18.457  1.00  0.00     0.059 C 
BRANCH   5   6
ATOM      6  C   UNL     1      16.354  13.947 -19.442  1.00  0.00     0.042 C 
ATOM      7  O   UNL     1      15.129  14.229 -19.507  1.00  0.00    -0.550 OA
ATOM      8  O   UNL     1      16.875  12.951 -20.258  1.00  0.00    -0.550 OA
ENDBRANCH   5   6
ENDBRANCH   1   5
TORSDOF 3
ENDMDL
MODEL 4
REMARK VINA RESULT:    -3.305      1.259      1.846
REMARK INTER + INTRA:          -4.020
REMARK INTER:                  -3.846
REMARK INTRA:                  -0.174
REMARK UNBOUND:                -0.135
REMARK SMILES O=C([O-])CCC(=O)[O-]
REMARK SMILES IDX 4 1 2 2 1 3 3 4 5 5 6 6 7 7 8 8
REMARK H PARENT
REMARK Flexibility Score: inf
ROOT
ATOM      1  C   UNL     1      16.751  15.376 -17.565  1.00  0.00     0.059 C 
ENDROOT
BRANCH   1   2
ATOM      2  C   UNL     1      17.369  14.047 -17.874  1.00  0.00     0.042 C 
ATOM      3  O   UNL     1      17.186  13.507 -18.997  1.00  0.00    -0.550 OA
ATOM      4  O   UNL     1      18.115  13.386 -16.906  1.00  0.00    -0.550 OA
ENDBRANCH   1   2
BRANCH   1   5
ATOM      5  C   UNL     1      15.884  15.314 -16.304  1.00  0.00     0.059 C 
BRANCH   5   6
ATOM      6  C   UNL     1      14.816  14.269 -16.420  1.00  0.00     0.042 C 
ATOM      7  O   UNL     1      13.883  14.405 -17.255  1.00  0.00    -0.550 OA
ATOM      8  O   UNL     1      14.829  13.165 -15.577  1.00  0.00    -0.550 OA
ENDBRANCH   5   6
ENDBRANCH   1   5
TORSDOF 3
ENDMDL
MODEL 5
REMARK VINA RESULT:    -3.304      1.244      1.794
REMARK INTER + INTRA:          -4.018
REMARK INTER:                  -3.888
REMARK INTRA:                  -0.130
REMARK UNBOUND:                -0.135
REMARK SMILES O=C([O-])CCC(=O)[O-]
REMARK SMILES IDX 4 1 2 2 1 3 3 4 5 5 6 6 7 7 8 8
REMARK H PARENT
REMARK Flexibility Score: inf
ROOT
ATOM      1  C   UNL     1      17.235  14.595 -18.441  1.00  0.00     0.059 C 
ENDROOT
BRANCH   1   2
ATOM      2  C   UNL     1      16.394  13.885 -19.457  1.00  0.00     0.042 C 
ATOM      3  O   UNL     1      15.162  14.134 -19.546  1.00  0.00    -0.550 OA
ATOM      4  O   UNL     1      16.962  12.921 -20.279  1.00  0.00    -0.550 OA
ENDBRANCH   1   2
BRANCH   1   5
ATOM      5  C   UNL     1      17.517  13.707 -17.224  1.00  0.00     0.059 C 
BRANCH   5   6
ATOM      6  C   UNL     1      16.413  13.790 -16.214  1.00  0.00     0.042 C 
ATOM      7  O   UNL     1      16.209  12.836 -15.418  1.00  0.00    -0.550 OA
ATOM      8  O   UNL     1      15.584  14.904 -16.179  1.00  0.00    -0.550 OA
ENDBRANCH   5   6
ENDBRANCH   1   5
TORSDOF 3
ENDMDL
MODEL 6
REMARK VINA RESULT:    -3.287      1.322      3.600
REMARK INTER + INTRA:          -3.999
REMARK INTER:                  -3.871
REMARK INTRA:                  -0.128
REMARK UNBOUND:                -0.135
REMARK SMILES O=C([O-])CCC(=O)[O-]
REMARK SMILES IDX 4 1 2 2 1 3 3 4 5 5 6 6 7 7 8 8
REMARK H PARENT
REMARK Flexibility Score: inf
ROOT
ATOM      1  C   UNL     1      14.903  15.384 -16.991  1.00  0.00     0.059 C 
ENDROOT
BRANCH   1   2
ATOM      2  C   UNL     1      14.325  14.030 -16.715  1.00  0.00     0.042 C 
ATOM      3  O   UNL     1      13.405  13.572 -17.443  1.00  0.00    -0.550 OA
ATOM      4  O   UNL     1      14.776  13.290 -15.629  1.00  0.00    -0.550 OA
ENDBRANCH   1   2
BRANCH   1   5
ATOM      5  C   UNL     1      16.384  15.454 -16.604  1.00  0.00     0.059 C 
BRANCH   5   6
ATOM      6  C   UNL     1      17.237  14.654 -17.542  1.00  0.00     0.042 C 
ATOM      7  O   UNL     1      17.393  15.029 -18.734  1.00  0.00    -0.550 OA
ATOM      8  O   UNL     1      17.826  13.473 -17.110  1.00  0.00    -0.550 OA
ENDBRANCH   5   6
ENDBRANCH   1   5
TORSDOF 3
ENDMDL
MODEL 7
REMARK VINA RESULT:    -3.235      2.297      2.667
REMARK INTER + INTRA:          -3.937
REMARK INTER:                  -3.821
REMARK INTRA:                  -0.117
REMARK UNBOUND:                -0.135
REMARK SMILES O=C([O-])CCC(=O)[O-]
REMARK SMILES IDX 4 1 2 2 1 3 3 4 5 5 6 6 7 7 8 8
REMARK H PARENT
REMARK Flexibility Score: inf
ROOT
ATOM      1  C   UNL     1      16.428  16.479 -17.955  1.00  0.00     0.059 C 
ENDROOT
BRANCH   1   2
ATOM      2  C   UNL     1      17.126  15.172 -18.172  1.00  0.00     0.042 C 
ATOM      3  O   UNL     1      17.489  14.475 -17.188  1.00  0.00    -0.550 OA
ATOM      4  O   UNL     1      17.413  14.743 -19.462  1.00  0.00    -0.550 OA
ENDBRANCH   1   2
BRANCH   1   5
ATOM      5  C   UNL     1      16.172  16.741 -16.467  1.00  0.00     0.059 C 
BRANCH   5   6
ATOM      6  C   UNL     1      14.728  16.554 -16.115  1.00  0.00     0.042 C 
ATOM      7  O   UNL     1      14.062  17.510 -15.638  1.00  0.00    -0.550 OA
ATOM      8  O   UNL     1      14.128  15.311 -16.275  1.00  0.00    -0.550 OA
ENDBRANCH   5   6
ENDBRANCH   1   5
TORSDOF 3
ENDMDL
MODEL 8
REMARK VINA RESULT:    -3.222      2.471      3.355
REMARK INTER + INTRA:          -3.922
REMARK INTER:                  -3.801
REMARK INTRA:                  -0.122
REMARK UNBOUND:                -0.135
REMARK SMILES O=C([O-])CCC(=O)[O-]
REMARK SMILES IDX 4 1 2 2 1 3 3 4 5 5 6 6 7 7 8 8
REMARK H PARENT
REMARK Flexibility Score: inf
ROOT
ATOM      1  C   UNL     1      16.196  15.246 -16.571  1.00  0.00     0.059 C 
ENDROOT
BRANCH   1   2
ATOM      2  C   UNL     1      17.259  14.577 -17.386  1.00  0.00     0.042 C 
ATOM      3  O   UNL     1      17.502  14.969 -18.557  1.00  0.00    -0.550 OA
ATOM      4  O   UNL     1      17.954  13.492 -16.866  1.00  0.00    -0.550 OA
ENDBRANCH   1   2
BRANCH   1   5
ATOM      5  C   UNL     1      16.337  16.771 -16.603  1.00  0.00     0.059 C 
BRANCH   5   6
ATOM      6  C   UNL     1      15.190  17.416 -17.320  1.00  0.00     0.042 C 
ATOM      7  O   UNL     1      15.158  17.435 -18.578  1.00  0.00    -0.550 OA
ATOM      8  O   UNL     1      14.177  18.032 -16.597  1.00  0.00    -0.550 OA
ENDBRANCH   5   6
ENDBRANCH   1   5
TORSDOF 3
ENDMDL
MODEL 9
REMARK VINA RESULT:    -3.210      2.272      4.201
REMARK INTER + INTRA:          -3.908
REMARK INTER:                  -3.792
REMARK INTRA:                  -0.116
REMARK UNBOUND:                -0.135
REMARK SMILES O=C([O-])CCC(=O)[O-]
REMARK SMILES IDX 4 1 2 2 1 3 3 4 5 5 6 6 7 7 8 8
REMARK H PARENT
REMARK Flexibility Score: inf
ROOT
ATOM      1  C   UNL     1      16.169  16.681 -16.511  1.00  0.00     0.059 C 
ENDROOT
BRANCH   1   2
ATOM      2  C   UNL     1      14.731  16.496 -16.135  1.00  0.00     0.042 C 
ATOM      3  O   UNL     1      14.066  17.463 -15.679  1.00  0.00    -0.550 OA
ATOM      4  O   UNL     1      14.137  15.246 -16.251  1.00  0.00    -0.550 OA
ENDBRANCH   1   2
BRANCH   1   5
ATOM      5  C   UNL     1      16.395  16.446 -18.008  1.00  0.00     0.059 C 
BRANCH   5   6
ATOM      6  C   UNL     1      17.152  15.176 -18.259  1.00  0.00     0.042 C 
ATOM      7  O   UNL     1      17.411  14.815 -19.437  1.00  0.00    -0.550 OA
ATOM      8  O   UNL     1      17.534  14.373 -17.192  1.00  0.00    -0.550 OA
ENDBRANCH   5   6
ENDBRANCH   1   5
TORSDOF 3
ENDMDL
