MODEL 1
REMARK VINA RESULT:    -5.299      0.000      0.000
REMARK INTER + INTRA:         -17.390
REMARK INTER:                 -13.354
REMARK INTRA:                  -4.037
REMARK UNBOUND:                -4.037
REMARK SMILES CCCCCCCCCCCCCCCCCCCCCCCCCCCC(=O)[O-]
REMARK SMILES IDX 15 1 16 2 17 3 18 4 19 5 20 6 21 7 22 8 23 9 24 10 25 11
REMARK SMILES IDX 26 12 27 13 28 14 29 15 30 16 14 17 13 18 12 19 11 20 10 21
REMARK SMILES IDX 9 22 8 23 7 24 6 25 5 26 4 27 3 28 2 29 1 30
REMARK H PARENT
REMARK Flexibility Score: inf
ROOT
ATOM      1  C   UNL     1      48.854  25.259  17.140  1.00  0.00     0.000 C 
ENDROOT
BRANCH   1   2
ATOM      2  C   UNL     1      48.144  26.126  16.074  1.00  0.00     0.000 C 
BRANCH   2   3
ATOM      3  C   UNL     1      49.106  26.850  15.115  1.00  0.00     0.000 C 
BRANCH   3   4
ATOM      4  C   UNL     1      48.734  28.332  14.923  1.00  0.00     0.000 C 
BRANCH   4   5
ATOM      5  C   UNL     1      47.608  28.791  15.867  1.00  0.00     0.000 C 
BRANCH   5   6
ATOM      6  C   UNL     1      47.946  30.019  16.735  1.00  0.00     0.000 C 
BRANCH   6   7
ATOM      7  C   UNL     1      49.456  30.297  16.814  1.00  0.00     0.000 C 
BRANCH   7   8
ATOM      8  C   UNL     1      49.768  31.738  17.245  1.00  0.00     0.000 C 
BRANCH   8   9
ATOM      9  C   UNL     1      48.525  32.476  17.773  1.00  0.00     0.000 C 
BRANCH   9  10
ATOM     10  C   UNL     1      48.214  33.759  16.983  1.00  0.00     0.000 C 
BRANCH  10  11
ATOM     11  C   UNL     1      47.605  33.527  15.585  1.00  0.00     0.000 C 
BRANCH  11  12
ATOM     12  C   UNL     1      48.501  33.951  14.404  1.00  0.00     0.006 C 
BRANCH  12  13
ATOM     13  C   UNL     1      48.794  32.831  13.394  1.00  0.00     0.053 C 
BRANCH  13  14
ATOM     14  C   UNL     1      49.046  33.371  12.018  1.00  0.00     0.041 C 
ATOM     15  O   UNL     1      48.093  33.498  11.205  1.00  0.00    -0.550 OA
ATOM     16  O   UNL     1      50.324  33.775  11.651  1.00  0.00    -0.550 OA
ENDBRANCH  13  14
ENDBRANCH  12  13
ENDBRANCH  11  12
ENDBRANCH  10  11
ENDBRANCH   9  10
ENDBRANCH   8   9
ENDBRANCH   7   8
ENDBRANCH   6   7
ENDBRANCH   5   6
ENDBRANCH   4   5
ENDBRANCH   3   4
ENDBRANCH   2   3
ENDBRANCH   1   2
BRANCH   1  17
ATOM     17  C   UNL     1      48.592  25.725  18.585  1.00  0.00     0.000 C 
BRANCH  17  18
ATOM     18  C   UNL     1      49.324  24.904  19.665  1.00  0.00     0.000 C 
BRANCH  18  19
ATOM     19  C   UNL     1      48.847  25.147  21.113  1.00  0.00     0.000 C 
BRANCH  19  20
ATOM     20  C   UNL     1      48.571  26.617  21.479  1.00  0.00     0.000 C 
BRANCH  20  21
ATOM     21  C   UNL     1      49.538  27.160  22.548  1.00  0.00     0.000 C 
BRANCH  21  22
ATOM     22  C   UNL     1      50.832  26.336  22.649  1.00  0.00    -0.000 C 
BRANCH  22  23
ATOM     23  C   UNL     1      52.022  26.999  21.933  1.00  0.00    -0.000 C 
BRANCH  23  24
ATOM     24  C   UNL     1      52.963  25.979  21.265  1.00  0.00    -0.000 C 
BRANCH  24  25
ATOM     25  C   UNL     1      52.993  26.027  19.727  1.00  0.00    -0.000 C 
BRANCH  25  26
ATOM     26  C   UNL     1      52.145  27.172  19.149  1.00  0.00    -0.000 C 
BRANCH  26  27
ATOM     27  C   UNL     1      51.966  27.067  17.626  1.00  0.00    -0.000 C 
BRANCH  27  28
ATOM     28  C   UNL     1      52.544  28.280  16.872  1.00  0.00    -0.000 C 
BRANCH  28  29
ATOM     29  C   UNL     1      53.339  29.220  17.790  1.00  0.00    -0.003 C 
ATOM     30  C   UNL     1      54.850  28.995  17.702  1.00  0.00     0.004 C 
ENDBRANCH  28  29
ENDBRANCH  27  28
ENDBRANCH  26  27
ENDBRANCH  25  26
ENDBRANCH  24  25
ENDBRANCH  23  24
ENDBRANCH  22  23
ENDBRANCH  21  22
ENDBRANCH  20  21
ENDBRANCH  19  20
ENDBRANCH  18  19
ENDBRANCH  17  18
ENDBRANCH   1  17
TORSDOF 26
ENDMDL
MODEL 2
REMARK VINA RESULT:    -5.151      2.387      7.673
REMARK INTER + INTRA:         -17.016
REMARK INTER:                 -13.837
REMARK INTRA:                  -3.179
REMARK UNBOUND:                -4.037
REMARK SMILES CCCCCCCCCCCCCCCCCCCCCCCCCCCC(=O)[O-]
REMARK SMILES IDX 15 1 16 2 17 3 18 4 19 5 20 6 21 7 22 8 23 9 24 10 25 11
REMARK SMILES IDX 26 12 27 13 28 14 29 15 30 16 14 17 13 18 12 19 11 20 10 21
REMARK SMILES IDX 9 22 8 23 7 24 6 25 5 26 4 27 3 28 2 29 1 30
REMARK H PARENT
REMARK Flexibility Score: inf
ROOT
ATOM      1  C   UNL     1      48.633  25.511  15.423  1.00  0.00     0.000 C 
ENDROOT
BRANCH   1   2
ATOM      2  C   UNL     1      48.451  25.625  16.954  1.00  0.00     0.000 C 
BRANCH   2   3
ATOM      3  C   UNL     1      49.586  24.979  17.768  1.00  0.00     0.000 C 
BRANCH   3   4
ATOM      4  C   UNL     1      49.368  25.118  19.286  1.00  0.00     0.000 C 
BRANCH   4   5
ATOM      5  C   UNL     1      48.551  26.369  19.660  1.00  0.00     0.000 C 
BRANCH   5   6
ATOM      6  C   UNL     1      48.053  26.410  21.118  1.00  0.00     0.000 C 
BRANCH   6   7
ATOM      7  C   UNL     1      49.123  25.960  22.127  1.00  0.00     0.000 C 
BRANCH   7   8
ATOM      8  C   UNL     1      49.840  27.143  22.793  1.00  0.00     0.000 C 
BRANCH   8   9
ATOM      9  C   UNL     1      51.370  27.056  22.659  1.00  0.00     0.000 C 
BRANCH   9  10
ATOM     10  C   UNL     1      51.837  25.744  22.005  1.00  0.00     0.000 C 
BRANCH  10  11
ATOM     11  C   UNL     1      52.806  25.921  20.818  1.00  0.00     0.000 C 
BRANCH  11  12
ATOM     12  C   UNL     1      52.916  27.359  20.274  1.00  0.00     0.006 C 
BRANCH  12  13
ATOM     13  C   UNL     1      52.500  27.517  18.803  1.00  0.00     0.053 C 
BRANCH  13  14
ATOM     14  C   UNL     1      53.197  28.669  18.144  1.00  0.00     0.041 C 
ATOM     15  O   UNL     1      52.556  29.449  17.392  1.00  0.00    -0.550 OA
ATOM     16  O   UNL     1      54.542  28.906  18.398  1.00  0.00    -0.550 OA
ENDBRANCH  13  14
ENDBRANCH  12  13
ENDBRANCH  11  12
ENDBRANCH  10  11
ENDBRANCH   9  10
ENDBRANCH   8   9
ENDBRANCH   7   8
ENDBRANCH   6   7
ENDBRANCH   5   6
ENDBRANCH   4   5
ENDBRANCH   3   4
ENDBRANCH   2   3
ENDBRANCH   1   2
BRANCH   1  17
ATOM     17  C   UNL     1      48.988  26.848  14.744  1.00  0.00     0.000 C 
BRANCH  17  18
ATOM     18  C   UNL     1      50.012  27.705  15.514  1.00  0.00     0.000 C 
BRANCH  18  19
ATOM     19  C   UNL     1      49.512  29.100  15.948  1.00  0.00     0.000 C 
BRANCH  19  20
ATOM     20  C   UNL     1      48.584  29.115  17.177  1.00  0.00     0.000 C 
BRANCH  20  21
ATOM     21  C   UNL     1      47.767  30.416  17.294  1.00  0.00     0.000 C 
BRANCH  21  22
ATOM     22  C   UNL     1      48.645  31.639  17.603  1.00  0.00    -0.000 C 
BRANCH  22  23
ATOM     23  C   UNL     1      47.831  32.854  18.083  1.00  0.00    -0.000 C 
BRANCH  23  24
ATOM     24  C   UNL     1      47.876  34.033  17.093  1.00  0.00    -0.000 C 
BRANCH  24  25
ATOM     25  C   UNL     1      48.888  33.883  15.943  1.00  0.00    -0.000 C 
BRANCH  25  26
ATOM     26  C   UNL     1      48.215  33.605  14.589  1.00  0.00    -0.000 C 
BRANCH  26  27
ATOM     27  C   UNL     1      48.844  34.406  13.437  1.00  0.00    -0.000 C 
BRANCH  27  28
ATOM     28  C   UNL     1      48.027  34.322  12.135  1.00  0.00    -0.000 C 
BRANCH  28  29
ATOM     29  C   UNL     1      48.729  33.490  11.051  1.00  0.00    -0.003 C 
ATOM     30  C   UNL     1      50.252  33.623  11.097  1.00  0.00     0.004 C 
ENDBRANCH  28  29
ENDBRANCH  27  28
ENDBRANCH  26  27
ENDBRANCH  25  26
ENDBRANCH  24  25
ENDBRANCH  23  24
ENDBRANCH  22  23
ENDBRANCH  21  22
ENDBRANCH  20  21
ENDBRANCH  19  20
ENDBRANCH  18  19
ENDBRANCH  17  18
ENDBRANCH   1  17
TORSDOF 26
ENDMDL
MODEL 3
REMARK VINA RESULT:    -4.996      1.284      1.995
REMARK INTER + INTRA:         -16.626
REMARK INTER:                 -12.692
REMARK INTRA:                  -3.933
REMARK UNBOUND:                -4.037
REMARK SMILES CCCCCCCCCCCCCCCCCCCCCCCCCCCC(=O)[O-]
REMARK SMILES IDX 15 1 16 2 17 3 18 4 19 5 20 6 21 7 22 8 23 9 24 10 25 11
REMARK SMILES IDX 26 12 27 13 28 14 29 15 30 16 14 17 13 18 12 19 11 20 10 21
REMARK SMILES IDX 9 22 8 23 7 24 6 25 5 26 4 27 3 28 2 29 1 30
REMARK H PARENT
REMARK Flexibility Score: inf
ROOT
ATOM      1  C   UNL     1      50.744  27.285  18.274  1.00  0.00     0.000 C 
ENDROOT
BRANCH   1   2
ATOM      2  C   UNL     1      51.196  28.287  17.187  1.00  0.00     0.000 C 
BRANCH   2   3
ATOM      3  C   UNL     1      50.444  28.145  15.852  1.00  0.00     0.000 C 
BRANCH   3   4
ATOM      4  C   UNL     1      49.794  29.467  15.404  1.00  0.00     0.000 C 
BRANCH   4   5
ATOM      5  C   UNL     1      48.284  29.330  15.139  1.00  0.00     0.000 C 
BRANCH   5   6
ATOM      6  C   UNL     1      47.382  30.179  16.056  1.00  0.00     0.000 C 
BRANCH   6   7
ATOM      7  C   UNL     1      47.817  30.132  17.531  1.00  0.00     0.000 C 
BRANCH   7   8
ATOM      8  C   UNL     1      47.967  31.531  18.146  1.00  0.00     0.000 C 
BRANCH   8   9
ATOM      9  C   UNL     1      49.288  32.211  17.747  1.00  0.00     0.000 C 
BRANCH   9  10
ATOM     10  C   UNL     1      49.082  33.625  17.176  1.00  0.00     0.000 C 
BRANCH  10  11
ATOM     11  C   UNL     1      47.620  33.976  16.827  1.00  0.00     0.000 C 
BRANCH  11  12
ATOM     12  C   UNL     1      47.297  34.001  15.320  1.00  0.00     0.006 C 
BRANCH  12  13
ATOM     13  C   UNL     1      48.405  33.429  14.422  1.00  0.00     0.053 C 
BRANCH  13  14
ATOM     14  C   UNL     1      48.505  34.164  13.119  1.00  0.00     0.041 C 
ATOM     15  O   UNL     1      49.622  34.299  12.554  1.00  0.00    -0.550 OA
ATOM     16  O   UNL     1      47.359  34.659  12.510  1.00  0.00    -0.550 OA
ENDBRANCH  13  14
ENDBRANCH  12  13
ENDBRANCH  11  12
ENDBRANCH  10  11
ENDBRANCH   9  10
ENDBRANCH   8   9
ENDBRANCH   7   8
ENDBRANCH   6   7
ENDBRANCH   5   6
ENDBRANCH   4   5
ENDBRANCH   3   4
ENDBRANCH   2   3
ENDBRANCH   1   2
BRANCH   1  17
ATOM     17  C   UNL     1      50.532  25.855  17.741  1.00  0.00     0.000 C 
BRANCH  17  18
ATOM     18  C   UNL     1      49.880  24.887  18.748  1.00  0.00     0.000 C 
BRANCH  18  19
ATOM     19  C   UNL     1      48.477  25.298  19.245  1.00  0.00     0.000 C 
BRANCH  19  20
ATOM     20  C   UNL     1      48.444  26.015  20.607  1.00  0.00     0.000 C 
BRANCH  20  21
ATOM     21  C   UNL     1      49.536  25.517  21.572  1.00  0.00     0.000 C 
BRANCH  21  22
ATOM     22  C   UNL     1      50.167  26.656  22.390  1.00  0.00    -0.000 C 
BRANCH  22  23
ATOM     23  C   UNL     1      51.659  26.866  22.074  1.00  0.00    -0.000 C 
BRANCH  23  24
ATOM     24  C   UNL     1      52.552  25.743  22.634  1.00  0.00    -0.000 C 
BRANCH  24  25
ATOM     25  C   UNL     1      53.670  25.265  21.691  1.00  0.00    -0.000 C 
BRANCH  25  26
ATOM     26  C   UNL     1      53.274  25.346  20.207  1.00  0.00    -0.000 C 
BRANCH  26  27
ATOM     27  C   UNL     1      54.491  25.401  19.270  1.00  0.00    -0.000 C 
BRANCH  27  28
ATOM     28  C   UNL     1      54.350  26.468  18.169  1.00  0.00    -0.000 C 
BRANCH  28  29
ATOM     29  C   UNL     1      55.385  27.595  18.304  1.00  0.00    -0.003 C 
ATOM     30  C   UNL     1      54.831  28.961  17.896  1.00  0.00     0.004 C 
ENDBRANCH  28  29
ENDBRANCH  27  28
ENDBRANCH  26  27
ENDBRANCH  25  26
ENDBRANCH  24  25
ENDBRANCH  23  24
ENDBRANCH  22  23
ENDBRANCH  21  22
ENDBRANCH  20  21
ENDBRANCH  19  20
ENDBRANCH  18  19
ENDBRANCH  17  18
ENDBRANCH   1  17
TORSDOF 26
ENDMDL
MODEL 4
REMARK VINA RESULT:    -4.968      3.403      9.319
REMARK INTER + INTRA:         -16.557
REMARK INTER:                 -13.606
REMARK INTRA:                  -2.951
REMARK UNBOUND:                -4.037
REMARK SMILES CCCCCCCCCCCCCCCCCCCCCCCCCCCC(=O)[O-]
REMARK SMILES IDX 15 1 16 2 17 3 18 4 19 5 20 6 21 7 22 8 23 9 24 10 25 11
REMARK SMILES IDX 26 12 27 13 28 14 29 15 30 16 14 17 13 18 12 19 11 20 10 21
REMARK SMILES IDX 9 22 8 23 7 24 6 25 5 26 4 27 3 28 2 29 1 30
REMARK H PARENT
REMARK Flexibility Score: inf
ROOT
ATOM      1  C   UNL     1      48.908  29.998  15.610  1.00  0.00     0.000 C 
ENDROOT
BRANCH   1   2
ATOM      2  C   UNL     1      49.373  28.524  15.588  1.00  0.00     0.000 C 
BRANCH   2   3
ATOM      3  C   UNL     1      49.722  27.956  16.976  1.00  0.00     0.000 C 
BRANCH   3   4
ATOM      4  C   UNL     1      49.038  26.602  17.242  1.00  0.00     0.000 C 
BRANCH   4   5
ATOM      5  C   UNL     1      48.541  26.459  18.692  1.00  0.00     0.000 C 
BRANCH   5   6
ATOM      6  C   UNL     1      49.259  25.378  19.523  1.00  0.00     0.000 C 
BRANCH   6   7
ATOM      7  C   UNL     1      48.641  25.189  20.919  1.00  0.00     0.000 C 
BRANCH   7   8
ATOM      8  C   UNL     1      48.771  26.443  21.795  1.00  0.00     0.000 C 
BRANCH   8   9
ATOM      9  C   UNL     1      49.867  26.302  22.866  1.00  0.00     0.000 C 
BRANCH   9  10
ATOM     10  C   UNL     1      51.136  27.105  22.530  1.00  0.00     0.000 C 
BRANCH  10  11
ATOM     11  C   UNL     1      52.384  26.249  22.231  1.00  0.00     0.000 C 
BRANCH  11  12
ATOM     12  C   UNL     1      52.614  25.929  20.740  1.00  0.00     0.006 C 
BRANCH  12  13
ATOM     13  C   UNL     1      52.622  27.160  19.820  1.00  0.00     0.053 C 
BRANCH  13  14
ATOM     14  C   UNL     1      53.581  26.999  18.679  1.00  0.00     0.041 C 
ATOM     15  O   UNL     1      53.302  27.473  17.546  1.00  0.00    -0.550 OA
ATOM     16  O   UNL     1      54.802  26.366  18.878  1.00  0.00    -0.550 OA
ENDBRANCH  13  14
ENDBRANCH  12  13
ENDBRANCH  11  12
ENDBRANCH  10  11
ENDBRANCH   9  10
ENDBRANCH   8   9
ENDBRANCH   7   8
ENDBRANCH   6   7
ENDBRANCH   5   6
ENDBRANCH   4   5
ENDBRANCH   3   4
ENDBRANCH   2   3
ENDBRANCH   1   2
BRANCH   1  17
ATOM     17  C   UNL     1      47.750  30.262  16.591  1.00  0.00     0.000 C 
BRANCH  17  18
ATOM     18  C   UNL     1      48.105  31.196  17.764  1.00  0.00     0.000 C 
BRANCH  18  19
ATOM     19  C   UNL     1      49.411  32.002  17.593  1.00  0.00     0.000 C 
BRANCH  19  20
ATOM     20  C   UNL     1      49.228  33.473  17.174  1.00  0.00     0.000 C 
BRANCH  20  21
ATOM     21  C   UNL     1      47.749  33.868  17.004  1.00  0.00     0.000 C 
BRANCH  21  22
ATOM     22  C   UNL     1      47.298  33.855  15.534  1.00  0.00    -0.000 C 
BRANCH  22  23
ATOM     23  C   UNL     1      48.426  33.457  14.566  1.00  0.00    -0.000 C 
BRANCH  23  24
ATOM     24  C   UNL     1      48.654  34.498  13.454  1.00  0.00    -0.000 C 
BRANCH  24  25
ATOM     25  C   UNL     1      48.152  34.086  12.058  1.00  0.00    -0.000 C 
BRANCH  25  26
ATOM     26  C   UNL     1      46.671  34.431  11.832  1.00  0.00    -0.000 C 
BRANCH  26  27
ATOM     27  C   UNL     1      46.251  35.733  12.534  1.00  0.00    -0.000 C 
BRANCH  27  28
ATOM     28  C   UNL     1      44.829  35.663  13.122  1.00  0.00    -0.000 C 
BRANCH  28  29
ATOM     29  C   UNL     1      43.876  36.683  12.481  1.00  0.00    -0.003 C 
ATOM     30  C   UNL     1      42.803  36.025  11.612  1.00  0.00     0.004 C 
ENDBRANCH  28  29
ENDBRANCH  27  28
ENDBRANCH  26  27
ENDBRANCH  25  26
ENDBRANCH  24  25
ENDBRANCH  23  24
ENDBRANCH  22  23
ENDBRANCH  21  22
ENDBRANCH  20  21
ENDBRANCH  19  20
ENDBRANCH  18  19
ENDBRANCH  17  18
ENDBRANCH   1  17
TORSDOF 26
ENDMDL
MODEL 5
REMARK VINA RESULT:    -4.934      3.655      5.798
REMARK INTER + INTRA:         -16.471
REMARK INTER:                 -14.150
REMARK INTRA:                  -2.322
REMARK UNBOUND:                -4.037
REMARK SMILES CCCCCCCCCCCCCCCCCCCCCCCCCCCC(=O)[O-]
REMARK SMILES IDX 15 1 16 2 17 3 18 4 19 5 20 6 21 7 22 8 23 9 24 10 25 11
REMARK SMILES IDX 26 12 27 13 28 14 29 15 30 16 14 17 13 18 12 19 11 20 10 21
REMARK SMILES IDX 9 22 8 23 7 24 6 25 5 26 4 27 3 28 2 29 1 30
REMARK H PARENT
REMARK Flexibility Score: inf
ROOT
ATOM      1  C   UNL     1      48.101  30.820  17.611  1.00  0.00     0.000 C 
ENDROOT
BRANCH   1   2
ATOM      2  C   UNL     1      49.339  31.648  17.195  1.00  0.00     0.000 C 
BRANCH   2   3
ATOM      3  C   UNL     1      49.157  33.168  17.353  1.00  0.00     0.000 C 
BRANCH   3   4
ATOM      4  C   UNL     1      48.037  33.719  16.451  1.00  0.00     0.000 C 
BRANCH   4   5
ATOM      5  C   UNL     1      48.156  33.243  14.992  1.00  0.00     0.000 C 
BRANCH   5   6
ATOM      6  C   UNL     1      48.808  34.253  14.028  1.00  0.00     0.000 C 
BRANCH   6   7
ATOM      7  C   UNL     1      48.100  34.320  12.664  1.00  0.00     0.000 C 
BRANCH   7   8
ATOM      8  C   UNL     1      47.111  35.491  12.571  1.00  0.00     0.000 C 
BRANCH   8   9
ATOM      9  C   UNL     1      45.661  35.021  12.360  1.00  0.00     0.000 C 
BRANCH   9  10
ATOM     10  C   UNL     1      44.657  35.762  13.261  1.00  0.00     0.000 C 
BRANCH  10  11
ATOM     11  C   UNL     1      43.738  36.758  12.524  1.00  0.00     0.000 C 
BRANCH  11  12
ATOM     12  C   UNL     1      42.716  36.115  11.565  1.00  0.00     0.006 C 
BRANCH  12  13
ATOM     13  C   UNL     1      41.281  36.055  12.112  1.00  0.00     0.053 C 
BRANCH  13  14
ATOM     14  C   UNL     1      40.483  34.960  11.470  1.00  0.00     0.041 C 
ATOM     15  O   UNL     1      40.775  34.561  10.312  1.00  0.00    -0.550 OA
ATOM     16  O   UNL     1      39.448  34.351  12.168  1.00  0.00    -0.550 OA
ENDBRANCH  13  14
ENDBRANCH  12  13
ENDBRANCH  11  12
ENDBRANCH  10  11
ENDBRANCH   9  10
ENDBRANCH   8   9
ENDBRANCH   7   8
ENDBRANCH   6   7
ENDBRANCH   5   6
ENDBRANCH   4   5
ENDBRANCH   3   4
ENDBRANCH   2   3
ENDBRANCH   1   2
BRANCH   1  17
ATOM     17  C   UNL     1      48.107  29.383  17.055  1.00  0.00     0.000 C 
BRANCH  17  18
ATOM     18  C   UNL     1      49.417  28.974  16.352  1.00  0.00     0.000 C 
BRANCH  18  19
ATOM     19  C   UNL     1      49.859  27.513  16.581  1.00  0.00     0.000 C 
BRANCH  19  20
ATOM     20  C   UNL     1      48.807  26.601  17.239  1.00  0.00     0.000 C 
BRANCH  20  21
ATOM     21  C   UNL     1      49.433  25.429  18.018  1.00  0.00     0.000 C 
BRANCH  21  22
ATOM     22  C   UNL     1      48.789  25.225  19.399  1.00  0.00    -0.000 C 
BRANCH  22  23
ATOM     23  C   UNL     1      48.473  26.551  20.114  1.00  0.00    -0.000 C 
BRANCH  23  24
ATOM     24  C   UNL     1      48.179  26.366  21.615  1.00  0.00    -0.000 C 
BRANCH  24  25
ATOM     25  C   UNL     1      49.255  26.920  22.565  1.00  0.00    -0.000 C 
BRANCH  25  26
ATOM     26  C   UNL     1      50.534  26.067  22.579  1.00  0.00    -0.000 C 
BRANCH  26  27
ATOM     27  C   UNL     1      51.802  26.896  22.316  1.00  0.00    -0.000 C 
BRANCH  27  28
ATOM     28  C   UNL     1      52.653  26.336  21.160  1.00  0.00    -0.000 C 
BRANCH  28  29
ATOM     29  C   UNL     1      52.234  26.900  19.794  1.00  0.00    -0.003 C 
ATOM     30  C   UNL     1      53.429  27.222  18.896  1.00  0.00     0.004 C 
ENDBRANCH  28  29
ENDBRANCH  27  28
ENDBRANCH  26  27
ENDBRANCH  25  26
ENDBRANCH  24  25
ENDBRANCH  23  24
ENDBRANCH  22  23
ENDBRANCH  21  22
ENDBRANCH  20  21
ENDBRANCH  19  20
ENDBRANCH  18  19
ENDBRANCH  17  18
ENDBRANCH   1  17
TORSDOF 26
ENDMDL
MODEL 6
REMARK VINA RESULT:    -4.877      5.089     11.288
REMARK INTER + INTRA:         -16.327
REMARK INTER:                 -14.487
REMARK INTRA:                  -1.840
REMARK UNBOUND:                -4.037
REMARK SMILES CCCCCCCCCCCCCCCCCCCCCCCCCCCC(=O)[O-]
REMARK SMILES IDX 15 1 16 2 17 3 18 4 19 5 20 6 21 7 22 8 23 9 24 10 25 11
REMARK SMILES IDX 26 12 27 13 28 14 29 15 30 16 14 17 13 18 12 19 11 20 10 21
REMARK SMILES IDX 9 22 8 23 7 24 6 25 5 26 4 27 3 28 2 29 1 30
REMARK H PARENT
REMARK Flexibility Score: inf
ROOT
ATOM      1  C   UNL     1      49.253  32.089  17.479  1.00  0.00     0.000 C 
ENDROOT
BRANCH   1   2
ATOM      2  C   UNL     1      47.900  31.413  17.800  1.00  0.00     0.000 C 
BRANCH   2   3
ATOM      3  C   UNL     1      47.713  30.040  17.130  1.00  0.00     0.000 C 
BRANCH   3   4
ATOM      4  C   UNL     1      49.027  29.238  17.063  1.00  0.00     0.000 C 
BRANCH   4   5
ATOM      5  C   UNL     1      49.383  28.795  15.632  1.00  0.00     0.000 C 
BRANCH   5   6
ATOM      6  C   UNL     1      49.769  27.310  15.488  1.00  0.00     0.000 C 
BRANCH   6   7
ATOM      7  C   UNL     1      49.953  26.606  16.844  1.00  0.00     0.000 C 
BRANCH   7   8
ATOM      8  C   UNL     1      49.030  25.390  17.006  1.00  0.00     0.000 C 
BRANCH   8   9
ATOM      9  C   UNL     1      48.189  25.456  18.292  1.00  0.00     0.000 C 
BRANCH   9  10
ATOM     10  C   UNL     1      49.019  25.846  19.528  1.00  0.00     0.000 C 
BRANCH  10  11
ATOM     11  C   UNL     1      48.204  26.025  20.826  1.00  0.00     0.000 C 
BRANCH  11  12
ATOM     12  C   UNL     1      49.004  26.559  22.030  1.00  0.00     0.006 C 
BRANCH  12  13
ATOM     13  C   UNL     1      50.055  25.581  22.580  1.00  0.00     0.053 C 
BRANCH  13  14
ATOM     14  C   UNL     1      51.452  26.084  22.370  1.00  0.00     0.041 C 
ATOM     15  O   UNL     1      52.352  25.301  21.968  1.00  0.00    -0.550 OA
ATOM     16  O   UNL     1      51.747  27.427  22.575  1.00  0.00    -0.550 OA
ENDBRANCH  13  14
ENDBRANCH  12  13
ENDBRANCH  11  12
ENDBRANCH  10  11
ENDBRANCH   9  10
ENDBRANCH   8   9
ENDBRANCH   7   8
ENDBRANCH   6   7
ENDBRANCH   5   6
ENDBRANCH   4   5
ENDBRANCH   3   4
ENDBRANCH   2   3
ENDBRANCH   1   2
BRANCH   1  17
ATOM     17  C   UNL     1      49.120  33.574  17.088  1.00  0.00     0.000 C 
BRANCH  17  18
ATOM     18  C   UNL     1      48.067  33.858  15.999  1.00  0.00     0.000 C 
BRANCH  18  19
ATOM     19  C   UNL     1      48.381  33.266  14.608  1.00  0.00     0.000 C 
BRANCH  19  20
ATOM     20  C   UNL     1      48.895  34.273  13.563  1.00  0.00     0.000 C 
BRANCH  20  21
ATOM     21  C   UNL     1      48.534  33.876  12.119  1.00  0.00     0.000 C 
BRANCH  21  22
ATOM     22  C   UNL     1      47.091  34.253  11.745  1.00  0.00    -0.000 C 
BRANCH  22  23
ATOM     23  C   UNL     1      46.586  35.499  12.493  1.00  0.00    -0.000 C 
BRANCH  23  24
ATOM     24  C   UNL     1      45.086  35.424  12.835  1.00  0.00    -0.000 C 
BRANCH  24  25
ATOM     25  C   UNL     1      44.250  36.636  12.386  1.00  0.00    -0.000 C 
BRANCH  25  26
ATOM     26  C   UNL     1      42.738  36.413  12.554  1.00  0.00    -0.000 C 
BRANCH  26  27
ATOM     27  C   UNL     1      41.976  36.481  11.221  1.00  0.00    -0.000 C 
BRANCH  27  28
ATOM     28  C   UNL     1      41.019  35.291  11.018  1.00  0.00    -0.000 C 
BRANCH  28  29
ATOM     29  C   UNL     1      39.543  35.692  11.158  1.00  0.00    -0.003 C 
ATOM     30  C   UNL     1      38.619  34.489  11.352  1.00  0.00     0.004 C 
ENDBRANCH  28  29
ENDBRANCH  27  28
ENDBRANCH  26  27
ENDBRANCH  25  26
ENDBRANCH  24  25
ENDBRANCH  23  24
ENDBRANCH  22  23
ENDBRANCH  21  22
ENDBRANCH  20  21
ENDBRANCH  19  20
ENDBRANCH  18  19
ENDBRANCH  17  18
ENDBRANCH   1  17
TORSDOF 26
ENDMDL
MODEL 7
REMARK VINA RESULT:    -4.851      2.674      4.816
REMARK INTER + INTRA:         -16.261
REMARK INTER:                 -13.849
REMARK INTRA:                  -2.412
REMARK UNBOUND:                -4.037
REMARK SMILES CCCCCCCCCCCCCCCCCCCCCCCCCCCC(=O)[O-]
REMARK SMILES IDX 15 1 16 2 17 3 18 4 19 5 20 6 21 7 22 8 23 9 24 10 25 11
REMARK SMILES IDX 26 12 27 13 28 14 29 15 30 16 14 17 13 18 12 19 11 20 10 21
REMARK SMILES IDX 9 22 8 23 7 24 6 25 5 26 4 27 3 28 2 29 1 30
REMARK H PARENT
REMARK Flexibility Score: inf
ROOT
ATOM      1  C   UNL     1      48.597  29.433  15.070  1.00  0.00     0.000 C 
ENDROOT
BRANCH   1   2
ATOM      2  C   UNL     1      47.484  29.877  16.046  1.00  0.00     0.000 C 
BRANCH   2   3
ATOM      3  C   UNL     1      48.008  30.543  17.331  1.00  0.00     0.000 C 
BRANCH   3   4
ATOM      4  C   UNL     1      49.321  31.312  17.097  1.00  0.00     0.000 C 
BRANCH   4   5
ATOM      5  C   UNL     1      49.306  32.723  17.714  1.00  0.00     0.000 C 
BRANCH   5   6
ATOM      6  C   UNL     1      48.284  33.695  17.092  1.00  0.00     0.000 C 
BRANCH   6   7
ATOM      7  C   UNL     1      48.732  34.236  15.724  1.00  0.00     0.000 C 
BRANCH   7   8
ATOM      8  C   UNL     1      48.039  33.523  14.554  1.00  0.00     0.000 C 
BRANCH   8   9
ATOM      9  C   UNL     1      48.512  34.043  13.185  1.00  0.00     0.000 C 
BRANCH   9  10
ATOM     10  C   UNL     1      47.468  34.937  12.493  1.00  0.00     0.000 C 
BRANCH  10  11
ATOM     11  C   UNL     1      46.173  35.163  13.300  1.00  0.00     0.000 C 
BRANCH  11  12
ATOM     12  C   UNL     1      44.941  35.557  12.460  1.00  0.00     0.006 C 
BRANCH  12  13
ATOM     13  C   UNL     1      43.834  36.271  13.252  1.00  0.00     0.053 C 
BRANCH  13  14
ATOM     14  C   UNL     1      42.661  36.616  12.385  1.00  0.00     0.041 C 
ATOM     15  O   UNL     1      41.811  37.459  12.778  1.00  0.00    -0.550 OA
ATOM     16  O   UNL     1      42.530  36.041  11.127  1.00  0.00    -0.550 OA
ENDBRANCH  13  14
ENDBRANCH  12  13
ENDBRANCH  11  12
ENDBRANCH  10  11
ENDBRANCH   9  10
ENDBRANCH   8   9
ENDBRANCH   7   8
ENDBRANCH   6   7
ENDBRANCH   5   6
ENDBRANCH   4   5
ENDBRANCH   3   4
ENDBRANCH   2   3
ENDBRANCH   1   2
BRANCH   1  17
ATOM     17  C   UNL     1      49.362  28.180  15.539  1.00  0.00     0.000 C 
BRANCH  17  18
ATOM     18  C   UNL     1      48.878  26.860  14.908  1.00  0.00     0.000 C 
BRANCH  18  19
ATOM     19  C   UNL     1      48.072  25.937  15.848  1.00  0.00     0.000 C 
BRANCH  19  20
ATOM     20  C   UNL     1      48.841  25.411  17.074  1.00  0.00     0.000 C 
BRANCH  20  21
ATOM     21  C   UNL     1      48.449  26.127  18.380  1.00  0.00     0.000 C 
BRANCH  21  22
ATOM     22  C   UNL     1      48.682  25.256  19.626  1.00  0.00    -0.000 C 
BRANCH  22  23
ATOM     23  C   UNL     1      48.160  25.909  20.918  1.00  0.00    -0.000 C 
BRANCH  23  24
ATOM     24  C   UNL     1      49.145  25.777  22.095  1.00  0.00    -0.000 C 
BRANCH  24  25
ATOM     25  C   UNL     1      49.711  27.106  22.626  1.00  0.00    -0.000 C 
BRANCH  25  26
ATOM     26  C   UNL     1      51.248  27.147  22.617  1.00  0.00    -0.000 C 
BRANCH  26  27
ATOM     27  C   UNL     1      51.874  25.795  22.239  1.00  0.00    -0.000 C 
BRANCH  27  28
ATOM     28  C   UNL     1      53.205  25.945  21.478  1.00  0.00    -0.000 C 
BRANCH  28  29
ATOM     29  C   UNL     1      53.040  26.687  20.144  1.00  0.00    -0.003 C 
ATOM     30  C   UNL     1      52.134  25.944  19.161  1.00  0.00     0.004 C 
ENDBRANCH  28  29
ENDBRANCH  27  28
ENDBRANCH  26  27
ENDBRANCH  25  26
ENDBRANCH  24  25
ENDBRANCH  23  24
ENDBRANCH  22  23
ENDBRANCH  21  22
ENDBRANCH  20  21
ENDBRANCH  19  20
ENDBRANCH  18  19
ENDBRANCH  17  18
ENDBRANCH   1  17
TORSDOF 26
ENDMDL
MODEL 8
REMARK VINA RESULT:    -4.816      2.358      7.297
REMARK INTER + INTRA:         -16.174
REMARK INTER:                 -12.312
REMARK INTRA:                  -3.861
REMARK UNBOUND:                -4.037
REMARK SMILES CCCCCCCCCCCCCCCCCCCCCCCCCCCC(=O)[O-]
REMARK SMILES IDX 15 1 16 2 17 3 18 4 19 5 20 6 21 7 22 8 23 9 24 10 25 11
REMARK SMILES IDX 26 12 27 13 28 14 29 15 30 16 14 17 13 18 12 19 11 20 10 21
REMARK SMILES IDX 9 22 8 23 7 24 6 25 5 26 4 27 3 28 2 29 1 30
REMARK H PARENT
REMARK Flexibility Score: inf
ROOT
ATOM      1  C   UNL     1      49.399  26.124  19.166  1.00  0.00     0.000 C 
ENDROOT
BRANCH   1   2
ATOM      2  C   UNL     1      48.845  25.374  20.399  1.00  0.00     0.000 C 
BRANCH   2   3
ATOM      3  C   UNL     1      48.098  26.277  21.397  1.00  0.00     0.000 C 
BRANCH   3   4
ATOM      4  C   UNL     1      49.059  27.026  22.339  1.00  0.00     0.000 C 
BRANCH   4   5
ATOM      5  C   UNL     1      50.368  26.256  22.592  1.00  0.00     0.000 C 
BRANCH   5   6
ATOM      6  C   UNL     1      51.655  27.025  22.235  1.00  0.00     0.000 C 
BRANCH   6   7
ATOM      7  C   UNL     1      52.808  26.098  21.815  1.00  0.00     0.000 C 
BRANCH   7   8
ATOM      8  C   UNL     1      52.779  25.762  20.317  1.00  0.00     0.000 C 
BRANCH   8   9
ATOM      9  C   UNL     1      54.094  26.127  19.606  1.00  0.00     0.000 C 
BRANCH   9  10
ATOM     10  C   UNL     1      53.999  27.447  18.820  1.00  0.00     0.000 C 
BRANCH  10  11
ATOM     11  C   UNL     1      52.574  27.836  18.377  1.00  0.00     0.000 C 
BRANCH  11  12
ATOM     12  C   UNL     1      52.349  27.863  16.852  1.00  0.00     0.006 C 
BRANCH  12  13
ATOM     13  C   UNL     1      52.276  26.475  16.196  1.00  0.00     0.053 C 
BRANCH  13  14
ATOM     14  C   UNL     1      52.806  26.490  14.794  1.00  0.00     0.041 C 
ATOM     15  O   UNL     1      54.035  26.668  14.585  1.00  0.00    -0.550 OA
ATOM     16  O   UNL     1      51.951  26.262  13.722  1.00  0.00    -0.550 OA
ENDBRANCH  13  14
ENDBRANCH  12  13
ENDBRANCH  11  12
ENDBRANCH  10  11
ENDBRANCH   9  10
ENDBRANCH   8   9
ENDBRANCH   7   8
ENDBRANCH   6   7
ENDBRANCH   5   6
ENDBRANCH   4   5
ENDBRANCH   3   4
ENDBRANCH   2   3
ENDBRANCH   1   2
BRANCH   1  17
ATOM     17  C   UNL     1      49.357  25.292  17.870  1.00  0.00     0.000 C 
BRANCH  17  18
ATOM     18  C   UNL     1      48.192  25.640  16.922  1.00  0.00     0.000 C 
BRANCH  18  19
ATOM     19  C   UNL     1      48.607  26.054  15.493  1.00  0.00     0.000 C 
BRANCH  19  20
ATOM     20  C   UNL     1      48.896  27.554  15.299  1.00  0.00     0.000 C 
BRANCH  20  21
ATOM     21  C   UNL     1      47.822  28.458  15.933  1.00  0.00     0.000 C 
BRANCH  21  22
ATOM     22  C   UNL     1      48.398  29.401  17.002  1.00  0.00    -0.000 C 
BRANCH  22  23
ATOM     23  C   UNL     1      49.563  30.260  16.478  1.00  0.00    -0.000 C 
BRANCH  23  24
ATOM     24  C   UNL     1      49.866  31.472  17.379  1.00  0.00    -0.000 C 
BRANCH  24  25
ATOM     25  C   UNL     1      48.664  32.392  17.662  1.00  0.00    -0.000 C 
BRANCH  25  26
ATOM     26  C   UNL     1      48.665  33.659  16.791  1.00  0.00    -0.000 C 
BRANCH  26  27
ATOM     27  C   UNL     1      47.723  33.547  15.581  1.00  0.00    -0.000 C 
BRANCH  27  28
ATOM     28  C   UNL     1      48.457  33.153  14.286  1.00  0.00    -0.000 C 
BRANCH  28  29
ATOM     29  C   UNL     1      48.754  34.361  13.386  1.00  0.00    -0.003 C 
ATOM     30  C   UNL     1      47.530  34.825  12.595  1.00  0.00     0.004 C 
ENDBRANCH  28  29
ENDBRANCH  27  28
ENDBRANCH  26  27
ENDBRANCH  25  26
ENDBRANCH  24  25
ENDBRANCH  23  24
ENDBRANCH  22  23
ENDBRANCH  21  22
ENDBRANCH  20  21
ENDBRANCH  19  20
ENDBRANCH  18  19
ENDBRANCH  17  18
ENDBRANCH   1  17
TORSDOF 26
ENDMDL
MODEL 9
REMARK VINA RESULT:    -4.792      4.139      6.753
REMARK INTER + INTRA:         -16.113
REMARK INTER:                 -14.274
REMARK INTRA:                  -1.839
REMARK UNBOUND:                -4.037
REMARK SMILES CCCCCCCCCCCCCCCCCCCCCCCCCCCC(=O)[O-]
REMARK SMILES IDX 15 1 16 2 17 3 18 4 19 5 20 6 21 7 22 8 23 9 24 10 25 11
REMARK SMILES IDX 26 12 27 13 28 14 29 15 30 16 14 17 13 18 12 19 11 20 10 21
REMARK SMILES IDX 9 22 8 23 7 24 6 25 5 26 4 27 3 28 2 29 1 30
REMARK H PARENT
REMARK Flexibility Score: inf
ROOT
ATOM      1  C   UNL     1      48.103  31.617  17.940  1.00  0.00     0.000 C 
ENDROOT
BRANCH   1   2
ATOM      2  C   UNL     1      49.052  32.683  17.347  1.00  0.00     0.000 C 
BRANCH   2   3
ATOM      3  C   UNL     1      48.350  33.997  16.956  1.00  0.00     0.000 C 
BRANCH   3   4
ATOM      4  C   UNL     1      47.564  33.868  15.638  1.00  0.00     0.000 C 
BRANCH   4   5
ATOM      5  C   UNL     1      48.473  33.609  14.423  1.00  0.00     0.000 C 
BRANCH   5   6
ATOM      6  C   UNL     1      48.440  34.705  13.340  1.00  0.00     0.000 C 
BRANCH   6   7
ATOM      7  C   UNL     1      47.156  34.670  12.493  1.00  0.00     0.000 C 
BRANCH   7   8
ATOM      8  C   UNL     1      46.078  35.629  13.018  1.00  0.00     0.000 C 
BRANCH   8   9
ATOM      9  C   UNL     1      44.732  35.455  12.293  1.00  0.00     0.000 C 
BRANCH   9  10
ATOM     10  C   UNL     1      43.729  36.576  12.619  1.00  0.00     0.000 C 
BRANCH  10  11
ATOM     11  C   UNL     1      42.384  36.480  11.871  1.00  0.00     0.000 C 
BRANCH  11  12
ATOM     12  C   UNL     1      41.135  36.739  12.737  1.00  0.00     0.006 C 
BRANCH  12  13
ATOM     13  C   UNL     1      39.801  36.593  11.989  1.00  0.00     0.053 C 
BRANCH  13  14
ATOM     14  C   UNL     1      39.645  35.231  11.383  1.00  0.00     0.041 C 
ATOM     15  O   UNL     1      39.850  34.202  12.079  1.00  0.00    -0.550 OA
ATOM     16  O   UNL     1      39.229  35.099  10.063  1.00  0.00    -0.550 OA
ENDBRANCH  13  14
ENDBRANCH  12  13
ENDBRANCH  11  12
ENDBRANCH  10  11
ENDBRANCH   9  10
ENDBRANCH   8   9
ENDBRANCH   7   8
ENDBRANCH   6   7
ENDBRANCH   5   6
ENDBRANCH   4   5
ENDBRANCH   3   4
ENDBRANCH   2   3
ENDBRANCH   1   2
BRANCH   1  17
ATOM     17  C   UNL     1      47.728  30.504  16.942  1.00  0.00     0.000 C 
BRANCH  17  18
ATOM     18  C   UNL     1      48.431  29.155  17.194  1.00  0.00     0.000 C 
BRANCH  18  19
ATOM     19  C   UNL     1      49.719  28.921  16.376  1.00  0.00     0.000 C 
BRANCH  19  20
ATOM     20  C   UNL     1      49.882  27.505  15.792  1.00  0.00     0.000 C 
BRANCH  20  21
ATOM     21  C   UNL     1      48.533  26.816  15.510  1.00  0.00     0.000 C 
BRANCH  21  22
ATOM     22  C   UNL     1      48.282  25.610  16.430  1.00  0.00    -0.000 C 
BRANCH  22  23
ATOM     23  C   UNL     1      49.570  25.075  17.081  1.00  0.00    -0.000 C 
BRANCH  23  24
ATOM     24  C   UNL     1      49.451  24.929  18.610  1.00  0.00    -0.000 C 
BRANCH  24  25
ATOM     25  C   UNL     1      48.502  25.931  19.291  1.00  0.00    -0.000 C 
BRANCH  25  26
ATOM     26  C   UNL     1      48.232  25.590  20.766  1.00  0.00    -0.000 C 
BRANCH  26  27
ATOM     27  C   UNL     1      49.452  24.964  21.462  1.00  0.00    -0.000 C 
BRANCH  27  28
ATOM     28  C   UNL     1      50.140  25.929  22.445  1.00  0.00    -0.000 C 
BRANCH  28  29
ATOM     29  C   UNL     1      51.295  26.707  21.794  1.00  0.00    -0.003 C 
ATOM     30  C   UNL     1      52.611  26.563  22.561  1.00  0.00     0.004 C 
ENDBRANCH  28  29
ENDBRANCH  27  28
ENDBRANCH  26  27
ENDBRANCH  25  26
ENDBRANCH  24  25
ENDBRANCH  23  24
ENDBRANCH  22  23
ENDBRANCH  21  22
ENDBRANCH  20  21
ENDBRANCH  19  20
ENDBRANCH  18  19
ENDBRANCH  17  18
ENDBRANCH   1  17
TORSDOF 26
ENDMDL
