MODEL 1
REMARK VINA RESULT:    -3.777      0.000      0.000
REMARK INTER + INTRA:          -4.667
REMARK INTER:                  -4.330
REMARK INTRA:                  -0.337
REMARK UNBOUND:                -0.337
REMARK SMILES COc1ccc(C(C)=O)c(O)c1
REMARK SMILES IDX 6 1 10 2 12 3 3 4 4 5 5 6 7 7 8 8 9 9 11 10 2 12 1 13
REMARK H PARENT 11 11
REMARK Flexibility Score: inf
ROOT
ATOM      1  C   UNL     1     107.836  94.957  25.104  1.00  0.00     0.059 A 
ATOM      2  C   UNL     1     108.739  93.913  24.799  1.00  0.00     0.130 A 
ATOM      3  C   UNL     1     109.828  94.156  23.948  1.00  0.00     0.093 A 
ATOM      4  C   UNL     1     110.046  95.424  23.403  1.00  0.00     0.122 A 
ATOM      5  C   UNL     1     109.160  96.467  23.719  1.00  0.00     0.047 A 
ATOM      6  C   UNL     1     108.070  96.235  24.562  1.00  0.00     0.019 A 
ENDROOT
BRANCH   1   7
ATOM      7  C   UNL     1     106.654  94.760  25.985  1.00  0.00     0.163 C 
ATOM      8  C   UNL     1     106.220  95.784  26.991  1.00  0.00     0.093 C 
ATOM      9  O   UNL     1     105.985  93.694  25.894  1.00  0.00    -0.294 OA
ENDBRANCH   1   7
BRANCH   2  10
ATOM     10  O   UNL     1     108.580  92.644  25.353  1.00  0.00    -0.507 OA
ATOM     11  H   UNL     1     107.844  92.017  25.048  1.00  0.00     0.293 HD
ENDBRANCH   2  10
BRANCH   4  12
ATOM     12  O   UNL     1     111.152  95.607  22.559  1.00  0.00    -0.497 OA
ATOM     13  C   UNL     1     111.794  94.560  21.838  1.00  0.00     0.278 C 
ENDBRANCH   4  12
TORSDOF 3
ENDMDL
MODEL 2
REMARK VINA RESULT:    -3.588      2.427      4.731
REMARK INTER + INTRA:          -4.450
REMARK INTER:                  -4.113
REMARK INTRA:                  -0.337
REMARK UNBOUND:                -0.337
REMARK SMILES COc1ccc(C(C)=O)c(O)c1
REMARK SMILES IDX 6 1 10 2 12 3 3 4 4 5 5 6 7 7 8 8 9 9 11 10 2 12 1 13
REMARK H PARENT 11 11
REMARK Flexibility Score: inf
ROOT
ATOM      1  C   UNL     1     107.423  94.769  24.513  1.00  0.00     0.059 A 
ATOM      2  C   UNL     1     106.552  93.953  25.271  1.00  0.00     0.130 A 
ATOM      3  C   UNL     1     105.176  93.955  24.997  1.00  0.00     0.093 A 
ATOM      4  C   UNL     1     104.647  94.743  23.971  1.00  0.00     0.122 A 
ATOM      5  C   UNL     1     105.514  95.541  23.205  1.00  0.00     0.047 A 
ATOM      6  C   UNL     1     106.885  95.550  23.473  1.00  0.00     0.019 A 
ENDROOT
BRANCH   1   7
ATOM      7  C   UNL     1     108.888  94.825  24.764  1.00  0.00     0.163 C 
ATOM      8  C   UNL     1     109.624  96.117  24.952  1.00  0.00     0.093 C 
ATOM      9  O   UNL     1     109.547  93.750  24.822  1.00  0.00    -0.294 OA
ENDBRANCH   1   7
BRANCH   2  10
ATOM     10  O   UNL     1     107.044  93.122  26.276  1.00  0.00    -0.507 OA
ATOM     11  H   UNL     1     106.584  92.253  26.523  1.00  0.00     0.293 HD
ENDBRANCH   2  10
BRANCH   4  12
ATOM     12  O   UNL     1     103.263  94.703  23.744  1.00  0.00    -0.497 OA
ATOM     13  C   UNL     1     102.550  93.541  23.333  1.00  0.00     0.278 C 
ENDBRANCH   4  12
TORSDOF 3
ENDMDL
MODEL 3
REMARK VINA RESULT:    -3.571      1.739      1.953
REMARK INTER + INTRA:          -4.430
REMARK INTER:                  -4.148
REMARK INTRA:                  -0.281
REMARK UNBOUND:                -0.337
REMARK SMILES COc1ccc(C(C)=O)c(O)c1
REMARK SMILES IDX 6 1 10 2 12 3 3 4 4 5 5 6 7 7 8 8 9 9 11 10 2 12 1 13
REMARK H PARENT 11 11
REMARK Flexibility Score: inf
ROOT
ATOM      1  C   UNL     1     108.400  94.731  24.115  1.00  0.00     0.059 A 
ATOM      2  C   UNL     1     109.743  94.315  24.271  1.00  0.00     0.130 A 
ATOM      3  C   UNL     1     110.549  94.115  23.140  1.00  0.00     0.093 A 
ATOM      4  C   UNL     1     110.052  94.336  21.853  1.00  0.00     0.122 A 
ATOM      5  C   UNL     1     108.724  94.767  21.697  1.00  0.00     0.047 A 
ATOM      6  C   UNL     1     107.910  94.963  22.816  1.00  0.00     0.019 A 
ENDROOT
BRANCH   1   7
ATOM      7  C   UNL     1     107.489  94.943  25.271  1.00  0.00     0.163 C 
ATOM      8  C   UNL     1     106.345  94.023  25.574  1.00  0.00     0.093 C 
ATOM      9  O   UNL     1     107.675  95.932  26.032  1.00  0.00    -0.294 OA
ENDBRANCH   1   7
BRANCH   2  10
ATOM     10  O   UNL     1     110.289  94.121  25.538  1.00  0.00    -0.507 OA
ATOM     11  H   UNL     1     110.518  94.900  26.145  1.00  0.00     0.293 HD
ENDBRANCH   2  10
BRANCH   4  12
ATOM     12  O   UNL     1     110.906  94.121  20.761  1.00  0.00    -0.497 OA
ATOM     13  C   UNL     1     112.291  94.449  20.748  1.00  0.00     0.278 C 
ENDBRANCH   4  12
TORSDOF 3
ENDMDL
MODEL 4
REMARK VINA RESULT:    -3.535      1.752      4.614
REMARK INTER + INTRA:          -4.389
REMARK INTER:                  -4.087
REMARK INTRA:                  -0.303
REMARK UNBOUND:                -0.337
REMARK SMILES COc1ccc(C(C)=O)c(O)c1
REMARK SMILES IDX 6 1 10 2 12 3 3 4 4 5 5 6 7 7 8 8 9 9 11 10 2 12 1 13
REMARK H PARENT 11 11
REMARK Flexibility Score: inf
ROOT
ATOM      1  C   UNL     1     109.000  94.839  23.295  1.00  0.00     0.059 A 
ATOM      2  C   UNL     1     109.197  94.894  24.694  1.00  0.00     0.130 A 
ATOM      3  C   UNL     1     108.237  95.508  25.513  1.00  0.00     0.093 A 
ATOM      4  C   UNL     1     107.073  96.058  24.969  1.00  0.00     0.122 A 
ATOM      5  C   UNL     1     106.867  95.988  23.581  1.00  0.00     0.047 A 
ATOM      6  C   UNL     1     107.819  95.384  22.756  1.00  0.00     0.019 A 
ENDROOT
BRANCH   1   7
ATOM      7  C   UNL     1     109.987  94.219  22.372  1.00  0.00     0.163 C 
ATOM      8  C   UNL     1     109.603  93.683  21.025  1.00  0.00     0.093 C 
ATOM      9  O   UNL     1     111.195  94.133  22.725  1.00  0.00    -0.294 OA
ENDBRANCH   1   7
BRANCH   2  10
ATOM     10  O   UNL     1     110.325  94.323  25.280  1.00  0.00    -0.507 OA
ATOM     11  H   UNL     1     110.498  94.384  26.277  1.00  0.00     0.293 HD
ENDBRANCH   2  10
BRANCH   4  12
ATOM     12  O   UNL     1     106.149  96.658  25.838  1.00  0.00    -0.497 OA
ATOM     13  C   UNL     1     105.995  96.312  27.210  1.00  0.00     0.278 C 
ENDBRANCH   4  12
TORSDOF 3
ENDMDL
MODEL 5
REMARK VINA RESULT:    -3.477      1.902      2.266
REMARK INTER + INTRA:          -4.322
REMARK INTER:                  -3.978
REMARK INTRA:                  -0.344
REMARK UNBOUND:                -0.337
REMARK SMILES COc1ccc(C(C)=O)c(O)c1
REMARK SMILES IDX 6 1 10 2 12 3 3 4 4 5 5 6 7 7 8 8 9 9 11 10 2 12 1 13
REMARK H PARENT 11 11
REMARK Flexibility Score: inf
ROOT
ATOM      1  C   UNL     1     107.964  95.946  25.031  1.00  0.00     0.059 A 
ATOM      2  C   UNL     1     109.367  95.785  24.957  1.00  0.00     0.130 A 
ATOM      3  C   UNL     1     110.151  96.764  24.328  1.00  0.00     0.093 A 
ATOM      4  C   UNL     1     109.569  97.913  23.783  1.00  0.00     0.122 A 
ATOM      5  C   UNL     1     108.177  98.082  23.872  1.00  0.00     0.047 A 
ATOM      6  C   UNL     1     107.387  97.110  24.491  1.00  0.00     0.019 A 
ENDROOT
BRANCH   1   7
ATOM      7  C   UNL     1     107.076  94.937  25.668  1.00  0.00     0.163 C 
ATOM      8  C   UNL     1     106.056  95.301  26.703  1.00  0.00     0.093 C 
ATOM      9  O   UNL     1     107.178  93.724  25.333  1.00  0.00    -0.294 OA
ENDBRANCH   1   7
BRANCH   2  10
ATOM     10  O   UNL     1     109.991  94.675  25.522  1.00  0.00    -0.507 OA
ATOM     11  H   UNL     1     109.480  94.005  26.085  1.00  0.00     0.293 HD
ENDBRANCH   2  10
BRANCH   4  12
ATOM     12  O   UNL     1     110.404  98.857  23.168  1.00  0.00    -0.497 OA
ATOM     13  C   UNL     1     111.800  98.677  22.956  1.00  0.00     0.278 C 
ENDBRANCH   4  12
TORSDOF 3
ENDMDL
MODEL 6
REMARK VINA RESULT:    -3.343      1.701      4.389
REMARK INTER + INTRA:          -4.169
REMARK INTER:                  -3.832
REMARK INTRA:                  -0.337
REMARK UNBOUND:                -0.337
REMARK SMILES COc1ccc(C(C)=O)c(O)c1
REMARK SMILES IDX 6 1 10 2 12 3 3 4 4 5 5 6 7 7 8 8 9 9 11 10 2 12 1 13
REMARK H PARENT 11 11
REMARK Flexibility Score: inf
ROOT
ATOM      1  C   UNL     1     108.550  94.634  24.668  1.00  0.00     0.059 A 
ATOM      2  C   UNL     1     107.521  94.169  25.520  1.00  0.00     0.130 A 
ATOM      3  C   UNL     1     106.542  95.060  25.985  1.00  0.00     0.093 A 
ATOM      4  C   UNL     1     106.555  96.406  25.608  1.00  0.00     0.122 A 
ATOM      5  C   UNL     1     107.567  96.866  24.748  1.00  0.00     0.047 A 
ATOM      6  C   UNL     1     108.549  95.988  24.283  1.00  0.00     0.019 A 
ENDROOT
BRANCH   1   7
ATOM      7  C   UNL     1     109.626  93.745  24.155  1.00  0.00     0.163 C 
ATOM      8  C   UNL     1     110.127  93.819  22.744  1.00  0.00     0.093 C 
ATOM      9  O   UNL     1     110.144  92.892  24.927  1.00  0.00    -0.294 OA
ENDBRANCH   1   7
BRANCH   2  10
ATOM     10  O   UNL     1     107.449  92.827  25.887  1.00  0.00    -0.507 OA
ATOM     11  H   UNL     1     106.637  92.258  25.674  1.00  0.00     0.293 HD
ENDBRANCH   2  10
BRANCH   4  12
ATOM     12  O   UNL     1     105.549  97.249  26.105  1.00  0.00    -0.497 OA
ATOM     13  C   UNL     1     105.103  98.435  25.457  1.00  0.00     0.278 C 
ENDBRANCH   4  12
TORSDOF 3
ENDMDL
MODEL 7
REMARK VINA RESULT:    -3.248      2.475      4.971
REMARK INTER + INTRA:          -4.060
REMARK INTER:                  -3.747
REMARK INTRA:                  -0.313
REMARK UNBOUND:                -0.337
REMARK SMILES COc1ccc(C(C)=O)c(O)c1
REMARK SMILES IDX 6 1 10 2 12 3 3 4 4 5 5 6 7 7 8 8 9 9 11 10 2 12 1 13
REMARK H PARENT 11 11
REMARK Flexibility Score: inf
ROOT
ATOM      1  C   UNL     1     107.804  94.609  24.475  1.00  0.00     0.059 A 
ATOM      2  C   UNL     1     107.201  95.218  23.350  1.00  0.00     0.130 A 
ATOM      3  C   UNL     1     105.808  95.170  23.191  1.00  0.00     0.093 A 
ATOM      4  C   UNL     1     104.996  94.540  24.139  1.00  0.00     0.122 A 
ATOM      5  C   UNL     1     105.592  93.950  25.266  1.00  0.00     0.047 A 
ATOM      6  C   UNL     1     106.979  93.988  25.431  1.00  0.00     0.019 A 
ENDROOT
BRANCH   1   7
ATOM      7  C   UNL     1     109.275  94.610  24.692  1.00  0.00     0.163 C 
ATOM      8  C   UNL     1     110.085  93.350  24.724  1.00  0.00     0.093 C 
ATOM      9  O   UNL     1     109.875  95.708  24.859  1.00  0.00    -0.294 OA
ENDBRANCH   1   7
BRANCH   2  10
ATOM     10  O   UNL     1     107.970  95.891  22.402  1.00  0.00    -0.507 OA
ATOM     11  H   UNL     1     108.967  95.731  22.313  1.00  0.00     0.293 HD
ENDBRANCH   2  10
BRANCH   4  12
ATOM     12  O   UNL     1     103.609  94.524  23.926  1.00  0.00    -0.497 OA
ATOM     13  C   UNL     1     102.903  93.454  23.308  1.00  0.00     0.278 C 
ENDBRANCH   4  12
TORSDOF 3
ENDMDL
MODEL 8
REMARK VINA RESULT:    -3.227     12.729     13.583
REMARK INTER + INTRA:          -4.036
REMARK INTER:                  -3.735
REMARK INTRA:                  -0.301
REMARK UNBOUND:                -0.337
REMARK SMILES COc1ccc(C(C)=O)c(O)c1
REMARK SMILES IDX 6 1 10 2 12 3 3 4 4 5 5 6 7 7 8 8 9 9 11 10 2 12 1 13
REMARK H PARENT 11 11
REMARK Flexibility Score: inf
ROOT
ATOM      1  C   UNL     1     104.411  82.310  24.961  1.00  0.00     0.059 A 
ATOM      2  C   UNL     1     104.470  80.961  24.541  1.00  0.00     0.130 A 
ATOM      3  C   UNL     1     104.867  80.652  23.231  1.00  0.00     0.093 A 
ATOM      4  C   UNL     1     105.224  81.661  22.331  1.00  0.00     0.122 A 
ATOM      5  C   UNL     1     105.184  83.000  22.752  1.00  0.00     0.047 A 
ATOM      6  C   UNL     1     104.785  83.318  24.052  1.00  0.00     0.019 A 
ENDROOT
BRANCH   1   7
ATOM      7  C   UNL     1     103.982  82.704  26.329  1.00  0.00     0.163 C 
ATOM      8  C   UNL     1     104.914  83.348  27.311  1.00  0.00     0.093 C 
ATOM      9  O   UNL     1     102.792  82.491  26.689  1.00  0.00    -0.294 OA
ENDBRANCH   1   7
BRANCH   2  10
ATOM     10  O   UNL     1     104.160  79.924  25.419  1.00  0.00    -0.507 OA
ATOM     11  H   UNL     1     103.608  80.080  26.255  1.00  0.00     0.293 HD
ENDBRANCH   2  10
BRANCH   4  12
ATOM     12  O   UNL     1     105.614  81.290  21.035  1.00  0.00    -0.497 OA
ATOM     13  C   UNL     1     105.670  82.183  19.927  1.00  0.00     0.278 C 
ENDBRANCH   4  12
TORSDOF 3
ENDMDL
MODEL 9
REMARK VINA RESULT:    -3.146     12.978     14.000
REMARK INTER + INTRA:          -3.943
REMARK INTER:                  -3.647
REMARK INTRA:                  -0.296
REMARK UNBOUND:                -0.337
REMARK SMILES COc1ccc(C(C)=O)c(O)c1
REMARK SMILES IDX 6 1 10 2 12 3 3 4 4 5 5 6 7 7 8 8 9 9 11 10 2 12 1 13
REMARK H PARENT 11 11
REMARK Flexibility Score: inf
ROOT
ATOM      1  C   UNL     1     103.551  82.666  25.978  1.00  0.00     0.059 A 
ATOM      2  C   UNL     1     102.281  82.142  25.641  1.00  0.00     0.130 A 
ATOM      3  C   UNL     1     102.020  81.733  24.325  1.00  0.00     0.093 A 
ATOM      4  C   UNL     1     103.004  81.819  23.336  1.00  0.00     0.122 A 
ATOM      5  C   UNL     1     104.271  82.323  23.673  1.00  0.00     0.047 A 
ATOM      6  C   UNL     1     104.540  82.738  24.979  1.00  0.00     0.019 A 
ENDROOT
BRANCH   1   7
ATOM      7  C   UNL     1     103.885  83.133  27.350  1.00  0.00     0.163 C 
ATOM      8  C   UNL     1     105.294  83.194  27.859  1.00  0.00     0.093 C 
ATOM      9  O   UNL     1     102.956  83.492  28.125  1.00  0.00    -0.294 OA
ENDBRANCH   1   7
BRANCH   2  10
ATOM     10  O   UNL     1     101.286  82.003  26.607  1.00  0.00    -0.507 OA
ATOM     11  H   UNL     1     101.100  82.727  27.291  1.00  0.00     0.293 HD
ENDBRANCH   2  10
BRANCH   4  12
ATOM     12  O   UNL     1     102.684  81.394  22.037  1.00  0.00    -0.497 OA
ATOM     13  C   UNL     1     101.549  81.840  21.303  1.00  0.00     0.278 C 
ENDBRANCH   4  12
TORSDOF 3
ENDMDL
