MODEL 1
REMARK VINA RESULT:    -4.005      0.000      0.000
REMARK INTER + INTRA:          -6.543
REMARK INTER:                  -5.878
REMARK INTRA:                  -0.665
REMARK UNBOUND:                -0.665
REMARK SMILES C=C1C=C[C@@H](C(C)C)CCC(C)=CCC1
REMARK SMILES IDX 3 1 4 2 5 3 9 4 10 5 11 6 12 7 13 8 6 10 7 11 8 12 2 13 1 14
REMARK SMILES IDX 15 15 14 16
REMARK H PARENT
REMARK Flexibility Score: 70.00
ROOT
ATOM      1  C   UNL     1     108.403 105.297 126.832  1.00  0.00    -0.001 C 
ATOM      2  C   UNL     1     109.102 106.440 126.762  1.00  0.00    -0.023 C 
ENDROOT
BRANCH   2   3
ATOM      3  C   UNL     1     109.422 107.351 127.936  1.00  0.00     0.014 C 
BRANCH   3   4
ATOM      4  C   UNL     1     108.529 108.616 127.848  1.00  0.00     0.012 C 
BRANCH   4   5
ATOM      5  C   UNL     1     107.409 108.682 128.906  1.00  0.00     0.031 C 
BRANCH   5   6
ATOM      6  C   UNL     1     106.048 108.279 128.355  1.00  0.00    -0.077 C 
ATOM      7  C   UNL     1     105.296 109.280 127.511  1.00  0.00     0.039 C 
ATOM      8  C   UNL     1     105.478 107.060 128.525  1.00  0.00    -0.028 CG0
ATOM      9  G   UNL     1     106.047 105.887 129.292  1.00  0.00     0.000 G0
ENDBRANCH   5   6
ENDBRANCH   4   5
ENDBRANCH   3   4
BRANCH   3  10
ATOM     10  C   UNL     1     110.942 107.717 127.912  1.00  0.00    -0.010 C 
ATOM     11  C   UNL     1     111.626 107.215 126.627  1.00  0.00     0.008 C 
ATOM     12  C   UNL     1     111.706 107.155 129.125  1.00  0.00     0.008 C 
ENDBRANCH   3  10
ENDBRANCH   2   3
BRANCH   1  13
ATOM     13  C   UNL     1     107.900 104.690 128.082  1.00  0.00    -0.055 C 
ATOM     14  C   UNL     1     108.718 103.985 128.868  1.00  0.00     0.012 C 
BRANCH  13  15
ATOM     15  C   UNL     1     106.418 104.725 128.364  1.00  0.00     0.039 C 
BRANCH  15  16
ATOM     16  C   UNL     1     106.036 105.872 129.305  1.00  0.00     0.032 CG0
ATOM     17  G   UNL     1     105.489 107.056 128.540  1.00  0.00     0.000 G0
ENDBRANCH  15  16
ENDBRANCH  13  15
ENDBRANCH   1  13
TORSDOF 1
ENDMDL
MODEL 2
REMARK VINA RESULT:    -3.960      2.976      4.961
REMARK INTER + INTRA:          -6.477
REMARK INTER:                  -5.899
REMARK INTRA:                  -0.578
REMARK UNBOUND:                -0.665
REMARK SMILES C=C1C=C[C@@H](C(C)C)CCC(C)=CCC1
REMARK SMILES IDX 3 1 4 2 5 3 9 4 10 5 11 6 12 7 13 8 6 10 7 11 8 12 2 13 1 14
REMARK SMILES IDX 15 15 14 16
REMARK H PARENT
REMARK Flexibility Score: 70.00
ROOT
ATOM      1  C   UNL     1     111.560 105.684 125.501  1.00  0.00    -0.001 C 
ATOM      2  C   UNL     1     110.710 105.268 124.549  1.00  0.00    -0.023 C 
ENDROOT
BRANCH   2   3
ATOM      3  C   UNL     1     109.195 105.358 124.620  1.00  0.00     0.014 C 
BRANCH   3   4
ATOM      4  C   UNL     1     108.656 104.134 125.406  1.00  0.00     0.012 C 
BRANCH   4   5
ATOM      5  C   UNL     1     107.756 104.492 126.606  1.00  0.00     0.031 C 
BRANCH   5   6
ATOM      6  C   UNL     1     108.195 103.816 127.899  1.00  0.00    -0.077 C 
ATOM      7  C   UNL     1     107.680 102.426 128.185  1.00  0.00     0.039 C 
ATOM      8  C   UNL     1     109.060 104.353 128.794  1.00  0.00    -0.028 CG0
ATOM      9  G   UNL     1     109.735 105.705 128.711  1.00  0.00     0.000 G0
ENDBRANCH   5   6
ENDBRANCH   4   5
ENDBRANCH   3   4
BRANCH   3  10
ATOM     10  C   UNL     1     108.608 105.415 123.171  1.00  0.00    -0.010 C 
ATOM     11  C   UNL     1     108.096 104.038 122.712  1.00  0.00     0.008 C 
ATOM     12  C   UNL     1     109.630 105.927 122.138  1.00  0.00     0.008 C 
ENDBRANCH   3  10
ENDBRANCH   2   3
BRANCH   1  13
ATOM     13  C   UNL     1     111.162 106.377 126.743  1.00  0.00    -0.055 C 
ATOM     14  C   UNL     1     111.006 107.704 126.758  1.00  0.00     0.012 C 
BRANCH  13  15
ATOM     15  C   UNL     1     111.111 105.592 128.032  1.00  0.00     0.039 C 
BRANCH  15  16
ATOM     16  C   UNL     1     109.750 105.707 128.725  1.00  0.00     0.032 CG0
ATOM     17  G   UNL     1     109.048 104.369 128.789  1.00  0.00     0.000 G0
ENDBRANCH  15  16
ENDBRANCH  13  15
ENDBRANCH   1  13
TORSDOF 1
ENDMDL
MODEL 3
REMARK VINA RESULT:    -3.906      2.957      6.559
REMARK INTER + INTRA:          -6.398
REMARK INTER:                  -5.963
REMARK INTRA:                  -0.434
REMARK UNBOUND:                -0.665
REMARK SMILES C=C1C=C[C@@H](C(C)C)CCC(C)=CCC1
REMARK SMILES IDX 3 1 4 2 5 3 9 4 10 5 11 6 12 7 13 8 6 10 7 11 8 12 2 13 1 14
REMARK SMILES IDX 15 15 14 16
REMARK H PARENT
REMARK Flexibility Score: 70.00
ROOT
ATOM      1  C   UNL     1     103.694 107.584 126.655  1.00  0.00    -0.001 C 
ATOM      2  C   UNL     1     102.737 106.676 126.899  1.00  0.00    -0.023 C 
ENDROOT
BRANCH   2   3
ATOM      3  C   UNL     1     102.449 106.040 128.248  1.00  0.00     0.014 C 
BRANCH   3   4
ATOM      4  C   UNL     1     102.929 104.565 128.220  1.00  0.00     0.012 C 
BRANCH   4   5
ATOM      5  C   UNL     1     103.986 104.257 127.140  1.00  0.00     0.031 C 
BRANCH   5   6
ATOM      6  C   UNL     1     105.377 104.032 127.718  1.00  0.00    -0.077 C 
ATOM      7  C   UNL     1     105.709 102.664 128.261  1.00  0.00     0.039 C 
ATOM      8  C   UNL     1     106.363 104.962 127.735  1.00  0.00    -0.028 CG0
ATOM      9  G   UNL     1     106.287 106.382 127.219  1.00  0.00     0.000 G0
ENDBRANCH   5   6
ENDBRANCH   4   5
ENDBRANCH   3   4
BRANCH   3  10
ATOM     10  C   UNL     1     100.919 106.140 128.556  1.00  0.00    -0.010 C 
ATOM     11  C   UNL     1     100.597 107.364 129.433  1.00  0.00     0.008 C 
ATOM     12  C   UNL     1     100.370 104.881 129.251  1.00  0.00     0.008 C 
ENDBRANCH   3  10
ENDBRANCH   2   3
BRANCH   1  13
ATOM     13  C   UNL     1     104.575 108.179 127.682  1.00  0.00    -0.055 C 
ATOM     14  C   UNL     1     104.480 109.476 127.985  1.00  0.00     0.012 C 
BRANCH  13  15
ATOM     15  C   UNL     1     105.698 107.346 128.249  1.00  0.00     0.039 C 
BRANCH  15  16
ATOM     16  C   UNL     1     106.296 106.395 127.206  1.00  0.00     0.032 CG0
ATOM     17  G   UNL     1     106.372 104.978 127.731  1.00  0.00     0.000 G0
ENDBRANCH  15  16
ENDBRANCH  13  15
ENDBRANCH   1  13
TORSDOF 1
ENDMDL
MODEL 4
REMARK VINA RESULT:    -3.894      3.684      5.624
REMARK INTER + INTRA:          -6.380
REMARK INTER:                  -5.802
REMARK INTRA:                  -0.578
REMARK UNBOUND:                -0.665
REMARK SMILES C=C1C=C[C@@H](C(C)C)CCC(C)=CCC1
REMARK SMILES IDX 3 1 4 2 5 3 9 4 10 5 11 6 12 7 13 8 6 10 7 11 8 12 2 13 1 14
REMARK SMILES IDX 15 15 14 16
REMARK H PARENT
REMARK Flexibility Score: 70.00
ROOT
ATOM      1  C   UNL     1     104.812 110.946 125.828  1.00  0.00    -0.001 C 
ATOM      2  C   UNL     1     104.537 110.807 127.134  1.00  0.00    -0.023 C 
ENDROOT
BRANCH   2   3
ATOM      3  C   UNL     1     105.360 110.004 128.127  1.00  0.00     0.014 C 
BRANCH   3   4
ATOM      4  C   UNL     1     104.481 108.861 128.699  1.00  0.00     0.012 C 
BRANCH   4   5
ATOM      5  C   UNL     1     103.794 107.988 127.630  1.00  0.00     0.031 C 
BRANCH   5   6
ATOM      6  C   UNL     1     104.766 107.072 126.897  1.00  0.00    -0.077 C 
ATOM      7  C   UNL     1     105.317 105.878 127.640  1.00  0.00     0.039 C 
ATOM      8  C   UNL     1     105.138 107.222 125.602  1.00  0.00    -0.028 CG0
ATOM      9  G   UNL     1     104.696 108.308 124.646  1.00  0.00     0.000 G0
ENDBRANCH   5   6
ENDBRANCH   4   5
ENDBRANCH   3   4
BRANCH   3  10
ATOM     10  C   UNL     1     105.880 110.951 129.258  1.00  0.00    -0.010 C 
ATOM     11  C   UNL     1     104.887 112.092 129.544  1.00  0.00     0.008 C 
ATOM     12  C   UNL     1     107.253 111.567 128.930  1.00  0.00     0.008 C 
ENDBRANCH   3  10
ENDBRANCH   2   3
BRANCH   1  13
ATOM     13  C   UNL     1     106.013 110.408 125.157  1.00  0.00    -0.055 C 
ATOM     14  C   UNL     1     107.180 111.054 125.237  1.00  0.00     0.012 C 
BRANCH  13  15
ATOM     15  C   UNL     1     105.863 109.224 124.233  1.00  0.00     0.039 C 
BRANCH  15  16
ATOM     16  C   UNL     1     104.698 108.317 124.643  1.00  0.00     0.032 CG0
ATOM     17  G   UNL     1     105.150 107.237 125.602  1.00  0.00     0.000 G0
ENDBRANCH  15  16
ENDBRANCH  13  15
ENDBRANCH   1  13
TORSDOF 1
ENDMDL
MODEL 5
REMARK VINA RESULT:    -3.892      1.745      4.775
REMARK INTER + INTRA:          -6.378
REMARK INTER:                  -5.840
REMARK INTRA:                  -0.538
REMARK UNBOUND:                -0.665
REMARK SMILES C=C1C=C[C@@H](C(C)C)CCC(C)=CCC1
REMARK SMILES IDX 3 1 4 2 5 3 9 4 10 5 11 6 12 7 13 8 6 10 7 11 8 12 2 13 1 14
REMARK SMILES IDX 15 15 14 16
REMARK H PARENT
REMARK Flexibility Score: 70.00
ROOT
ATOM      1  C   UNL     1     104.283 108.244 128.830  1.00  0.00    -0.001 C 
ATOM      2  C   UNL     1     105.099 109.302 128.955  1.00  0.00    -0.023 C 
ENDROOT
BRANCH   2   3
ATOM      3  C   UNL     1     106.017 109.840 127.870  1.00  0.00     0.014 C 
BRANCH   3   4
ATOM      4  C   UNL     1     107.489 109.669 128.329  1.00  0.00     0.012 C 
BRANCH   4   5
ATOM      5  C   UNL     1     107.738 108.445 129.233  1.00  0.00     0.031 C 
BRANCH   5   6
ATOM      6  C   UNL     1     108.248 107.233 128.463  1.00  0.00    -0.077 C 
ATOM      7  C   UNL     1     109.721 107.161 128.142  1.00  0.00     0.039 C 
ATOM      8  C   UNL     1     107.479 106.182 128.086  1.00  0.00    -0.028 CG0
ATOM      9  G   UNL     1     105.995 106.006 128.322  1.00  0.00     0.000 G0
ENDBRANCH   5   6
ENDBRANCH   4   5
ENDBRANCH   3   4
BRANCH   3  10
ATOM     10  C   UNL     1     105.672 111.339 127.591  1.00  0.00    -0.010 C 
ATOM     11  C   UNL     1     104.849 111.955 128.737  1.00  0.00     0.008 C 
ATOM     12  C   UNL     1     104.898 111.533 126.273  1.00  0.00     0.008 C 
ENDBRANCH   3  10
ENDBRANCH   2   3
BRANCH   1  13
ATOM     13  C   UNL     1     104.081 107.476 127.584  1.00  0.00    -0.055 C 
ATOM     14  C   UNL     1     102.913 107.530 126.938  1.00  0.00     0.012 C 
BRANCH  13  15
ATOM     15  C   UNL     1     105.143 106.495 127.153  1.00  0.00     0.039 C 
BRANCH  15  16
ATOM     16  C   UNL     1     105.984 105.998 128.334  1.00  0.00     0.032 CG0
ATOM     17  G   UNL     1     107.463 106.172 128.070  1.00  0.00     0.000 G0
ENDBRANCH  15  16
ENDBRANCH  13  15
ENDBRANCH   1  13
TORSDOF 1
ENDMDL
MODEL 6
REMARK VINA RESULT:    -3.845      3.362      5.808
REMARK INTER + INTRA:          -6.309
REMARK INTER:                  -5.691
REMARK INTRA:                  -0.618
REMARK UNBOUND:                -0.665
REMARK SMILES C=C1C=C[C@@H](C(C)C)CCC(C)=CCC1
REMARK SMILES IDX 3 1 4 2 5 3 9 4 10 5 11 6 12 7 13 8 6 10 7 11 8 12 2 13 1 14
REMARK SMILES IDX 15 15 14 16
REMARK H PARENT
REMARK Flexibility Score: 70.00
ROOT
ATOM      1  C   UNL     1     106.317 101.422 125.282  1.00  0.00    -0.001 C 
ATOM      2  C   UNL     1     106.782 101.179 126.517  1.00  0.00    -0.023 C 
ENDROOT
BRANCH   2   3
ATOM      3  C   UNL     1     106.868 102.198 127.641  1.00  0.00     0.014 C 
BRANCH   3   4
ATOM      4  C   UNL     1     108.252 102.896 127.582  1.00  0.00     0.012 C 
BRANCH   4   5
ATOM      5  C   UNL     1     108.191 104.437 127.587  1.00  0.00     0.031 C 
BRANCH   5   6
ATOM      6  C   UNL     1     108.851 105.060 126.364  1.00  0.00    -0.077 C 
ATOM      7  C   UNL     1     110.319 105.402 126.443  1.00  0.00     0.039 C 
ATOM      8  C   UNL     1     108.225 105.287 125.183  1.00  0.00    -0.028 CG0
ATOM      9  G   UNL     1     106.778 104.997 124.847  1.00  0.00     0.000 G0
ENDBRANCH   5   6
ENDBRANCH   4   5
ENDBRANCH   3   4
BRANCH   3  10
ATOM     10  C   UNL     1     106.643 101.480 129.012  1.00  0.00    -0.010 C 
ATOM     11  C   UNL     1     107.708 100.397 129.266  1.00  0.00     0.008 C 
ATOM     12  C   UNL     1     105.250 100.833 129.121  1.00  0.00     0.008 C 
ENDBRANCH   3  10
ENDBRANCH   2   3
BRANCH   1  13
ATOM     13  C   UNL     1     105.731 102.702 124.836  1.00  0.00    -0.055 C 
ATOM     14  C   UNL     1     104.418 102.922 124.949  1.00  0.00     0.012 C 
BRANCH  13  15
ATOM     15  C   UNL     1     106.603 103.682 124.088  1.00  0.00     0.039 C 
BRANCH  15  16
ATOM     16  C   UNL     1     106.767 105.004 124.846  1.00  0.00     0.032 CG0
ATOM     17  G   UNL     1     108.218 105.273 125.179  1.00  0.00     0.000 G0
ENDBRANCH  15  16
ENDBRANCH  13  15
ENDBRANCH   1  13
TORSDOF 1
ENDMDL
MODEL 7
REMARK VINA RESULT:    -3.832      4.528      6.148
REMARK INTER + INTRA:          -6.290
REMARK INTER:                  -5.634
REMARK INTRA:                  -0.656
REMARK UNBOUND:                -0.665
REMARK SMILES C=C1C=C[C@@H](C(C)C)CCC(C)=CCC1
REMARK SMILES IDX 3 1 4 2 5 3 9 4 10 5 11 6 12 7 13 8 6 10 7 11 8 12 2 13 1 14
REMARK SMILES IDX 15 15 14 16
REMARK H PARENT
REMARK Flexibility Score: 70.00
ROOT
ATOM      1  C   UNL     1     101.101 106.752 125.500  1.00  0.00    -0.001 C 
ATOM      2  C   UNL     1     101.939 107.032 124.490  1.00  0.00    -0.023 C 
ENDROOT
BRANCH   2   3
ATOM      3  C   UNL     1     103.451 106.891 124.537  1.00  0.00     0.014 C 
BRANCH   3   4
ATOM      4  C   UNL     1     104.077 108.284 124.810  1.00  0.00     0.012 C 
BRANCH   4   5
ATOM      5  C   UNL     1     105.067 108.319 125.991  1.00  0.00     0.031 C 
BRANCH   5   6
ATOM      6  C   UNL     1     104.550 109.128 127.174  1.00  0.00    -0.077 C 
ATOM      7  C   UNL     1     104.881 110.599 127.230  1.00  0.00     0.039 C 
ATOM      8  C   UNL     1     103.766 108.630 128.163  1.00  0.00    -0.028 CG0
ATOM      9  G   UNL     1     103.272 107.208 128.307  1.00  0.00     0.000 G0
ENDBRANCH   5   6
ENDBRANCH   4   5
ENDBRANCH   3   4
BRANCH   3  10
ATOM     10  C   UNL     1     103.960 106.286 123.187  1.00  0.00    -0.010 C 
ATOM     11  C   UNL     1     103.371 107.031 121.975  1.00  0.00     0.008 C 
ATOM     12  C   UNL     1     103.631 104.788 123.048  1.00  0.00     0.008 C 
ENDBRANCH   3  10
ENDBRANCH   2   3
BRANCH   1  13
ATOM     13  C   UNL     1     101.506 106.178 126.800  1.00  0.00    -0.055 C 
ATOM     14  C   UNL     1     101.487 104.856 126.991  1.00  0.00     0.012 C 
BRANCH  13  15
ATOM     15  C   UNL     1     101.765 107.110 127.958  1.00  0.00     0.039 C 
BRANCH  15  16
ATOM     16  C   UNL     1     103.255 107.199 128.305  1.00  0.00     0.032 CG0
ATOM     17  G   UNL     1     103.766 108.617 128.184  1.00  0.00     0.000 G0
ENDBRANCH  15  16
ENDBRANCH  13  15
ENDBRANCH   1  13
TORSDOF 1
ENDMDL
MODEL 8
REMARK VINA RESULT:    -3.827      2.436      4.889
REMARK INTER + INTRA:          -6.282
REMARK INTER:                  -5.773
REMARK INTRA:                  -0.509
REMARK UNBOUND:                -0.665
REMARK SMILES C=C1C=C[C@@H](C(C)C)CCC(C)=CCC1
REMARK SMILES IDX 3 1 4 2 5 3 9 4 10 5 11 6 12 7 13 8 6 10 7 11 8 12 2 13 1 14
REMARK SMILES IDX 15 15 14 16
REMARK H PARENT
REMARK Flexibility Score: 70.00
ROOT
ATOM      1  C   UNL     1     107.704 104.361 128.593  1.00  0.00    -0.001 C 
ATOM      2  C   UNL     1     107.091 103.187 128.810  1.00  0.00    -0.023 C 
ENDROOT
BRANCH   2   3
ATOM      3  C   UNL     1     106.239 102.438 127.799  1.00  0.00     0.014 C 
BRANCH   3   4
ATOM      4  C   UNL     1     104.742 102.641 128.155  1.00  0.00     0.012 C 
BRANCH   4   5
ATOM      5  C   UNL     1     104.473 103.783 129.156  1.00  0.00     0.031 C 
BRANCH   5   6
ATOM      6  C   UNL     1     103.744 104.963 128.527  1.00  0.00    -0.077 C 
ATOM      7  C   UNL     1     102.244 104.877 128.379  1.00  0.00     0.039 C 
ATOM      8  C   UNL     1     104.341 106.115 128.133  1.00  0.00    -0.028 CG0
ATOM      9  G   UNL     1     105.813 106.453 128.212  1.00  0.00     0.000 G0
ENDBRANCH   5   6
ENDBRANCH   4   5
ENDBRANCH   3   4
BRANCH   3  10
ATOM     10  C   UNL     1     106.632 100.925 127.806  1.00  0.00    -0.010 C 
ATOM     11  C   UNL     1     107.344 100.530 129.112  1.00  0.00     0.008 C 
ATOM     12  C   UNL     1     107.536 100.542 126.620  1.00  0.00     0.008 C 
ENDBRANCH   3  10
ENDBRANCH   2   3
BRANCH   1  13
ATOM     13  C   UNL     1     107.721 105.079 127.302  1.00  0.00    -0.055 C 
ATOM     14  C   UNL     1     108.803 105.039 126.519  1.00  0.00     0.012 C 
BRANCH  13  15
ATOM     15  C   UNL     1     106.574 106.000 126.966  1.00  0.00     0.039 C 
BRANCH  15  16
ATOM     16  C   UNL     1     105.820 106.464 128.217  1.00  0.00     0.032 CG0
ATOM     17  G   UNL     1     104.351 106.112 128.138  1.00  0.00     0.000 G0
ENDBRANCH  15  16
ENDBRANCH  13  15
ENDBRANCH   1  13
TORSDOF 1
ENDMDL
MODEL 9
REMARK VINA RESULT:    -3.816      4.633      5.433
REMARK INTER + INTRA:          -6.266
REMARK INTER:                  -5.613
REMARK INTRA:                  -0.653
REMARK UNBOUND:                -0.665
REMARK SMILES C=C1C=C[C@@H](C(C)C)CCC(C)=CCC1
REMARK SMILES IDX 3 1 4 2 5 3 9 4 10 5 11 6 12 7 13 8 6 10 7 11 8 12 2 13 1 14
REMARK SMILES IDX 15 15 14 16
REMARK H PARENT
REMARK Flexibility Score: 70.00
ROOT
ATOM      1  C   UNL     1     105.393 101.099 125.484  1.00  0.00    -0.001 C 
ATOM      2  C   UNL     1     105.205 102.052 124.559  1.00  0.00    -0.023 C 
ENDROOT
BRANCH   2   3
ATOM      3  C   UNL     1     105.670 103.494 124.672  1.00  0.00     0.014 C 
BRANCH   3   4
ATOM      4  C   UNL     1     104.463 104.380 125.076  1.00  0.00     0.012 C 
BRANCH   4   5
ATOM      5  C   UNL     1     104.637 105.125 126.414  1.00  0.00     0.031 C 
BRANCH   5   6
ATOM      6  C   UNL     1     103.753 104.567 127.523  1.00  0.00    -0.077 C 
ATOM      7  C   UNL     1     102.329 105.059 127.613  1.00  0.00     0.039 C 
ATOM      8  C   UNL     1     104.139 103.617 128.410  1.00  0.00    -0.028 CG0
ATOM      9  G   UNL     1     105.492 102.946 128.498  1.00  0.00     0.000 G0
ENDBRANCH   5   6
ENDBRANCH   4   5
ENDBRANCH   3   4
BRANCH   3  10
ATOM     10  C   UNL     1     106.289 103.950 123.310  1.00  0.00    -0.010 C 
ATOM     11  C   UNL     1     105.650 103.210 122.120  1.00  0.00     0.008 C 
ATOM     12  C   UNL     1     107.814 103.744 123.253  1.00  0.00     0.008 C 
ENDBRANCH   3  10
ENDBRANCH   2   3
BRANCH   1  13
ATOM     13  C   UNL     1     106.161 101.276 126.734  1.00  0.00    -0.055 C 
ATOM     14  C   UNL     1     107.484 101.092 126.748  1.00  0.00     0.012 C 
BRANCH  13  15
ATOM     15  C   UNL     1     105.410 101.487 128.026  1.00  0.00     0.039 C 
BRANCH  15  16
ATOM     16  C   UNL     1     105.483 102.941 128.505  1.00  0.00     0.032 CG0
ATOM     17  G   UNL     1     104.137 103.624 128.404  1.00  0.00     0.000 G0
ENDBRANCH  15  16
ENDBRANCH  13  15
ENDBRANCH   1  13
TORSDOF 1
ENDMDL
