MODEL 1
REMARK VINA RESULT:    -3.417      0.000      0.000
REMARK INTER + INTRA:          -5.676
REMARK INTER:                  -4.716
REMARK INTRA:                  -0.960
REMARK UNBOUND:                -0.960
REMARK SMILES CCCCc1cccc(O)c1CCCC
REMARK SMILES IDX 5 1 11 2 9 3 8 4 7 5 6 6 4 7 3 8 2 9 1 10 12 11 13 12 14 13
REMARK SMILES IDX 15 14 10 15
REMARK H PARENT 10 16
REMARK Flexibility Score: inf
ROOT
ATOM      1  C   UNL     1     -27.333  58.629  35.483  1.00  0.00    -0.041 A 
ATOM      2  C   UNL     1     -27.013  57.480  36.273  1.00  0.00    -0.003 A 
ATOM      3  C   UNL     1     -27.453  57.434  37.626  1.00  0.00     0.119 A 
ATOM      4  C   UNL     1     -28.281  58.440  38.128  1.00  0.00     0.046 A 
ATOM      5  C   UNL     1     -28.677  59.499  37.322  1.00  0.00     0.004 A 
ATOM      6  C   UNL     1     -28.212  59.592  36.014  1.00  0.00     0.004 A 
ENDROOT
BRANCH   1   7
ATOM      7  C   UNL     1     -26.823  58.844  34.061  1.00  0.00     0.036 C 
BRANCH   7   8
ATOM      8  C   UNL     1     -27.921  58.685  32.987  1.00  0.00     0.004 C 
BRANCH   8   9
ATOM      9  C   UNL     1     -27.447  57.916  31.741  1.00  0.00    -0.003 C 
ATOM     10  C   UNL     1     -27.949  56.472  31.730  1.00  0.00     0.004 C 
ENDBRANCH   8   9
ENDBRANCH   7   8
ENDBRANCH   1   7
BRANCH   2  11
ATOM     11  C   UNL     1     -26.252  56.299  35.696  1.00  0.00     0.040 C 
BRANCH  11  12
ATOM     12  C   UNL     1     -27.207  55.297  35.030  1.00  0.00     0.005 C 
BRANCH  12  13
ATOM     13  C   UNL     1     -26.468  54.117  34.383  1.00  0.00    -0.003 C 
ATOM     14  C   UNL     1     -27.403  52.967  34.012  1.00  0.00     0.004 C 
ENDBRANCH  12  13
ENDBRANCH  11  12
ENDBRANCH   2  11
BRANCH   3  15
ATOM     15  O   UNL     1     -27.091  56.409  38.505  1.00  0.00    -0.508 OA
ATOM     16  H   UNL     1     -27.044  56.512  39.509  1.00  0.00     0.293 HD
ENDBRANCH   3  15
TORSDOF 7
ENDMDL
MODEL 2
REMARK VINA RESULT:    -3.410      1.991      4.499
REMARK INTER + INTRA:          -5.665
REMARK INTER:                  -4.470
REMARK INTRA:                  -1.196
REMARK UNBOUND:                -0.960
REMARK SMILES CCCCc1cccc(O)c1CCCC
REMARK SMILES IDX 5 1 11 2 9 3 8 4 7 5 6 6 4 7 3 8 2 9 1 10 12 11 13 12 14 13
REMARK SMILES IDX 15 14 10 15
REMARK H PARENT 10 16
REMARK Flexibility Score: inf
ROOT
ATOM      1  C   UNL     1     -27.611  58.201  33.937  1.00  0.00    -0.041 A 
ATOM      2  C   UNL     1     -27.714  56.778  34.039  1.00  0.00    -0.003 A 
ATOM      3  C   UNL     1     -28.027  56.028  32.870  1.00  0.00     0.119 A 
ATOM      4  C   UNL     1     -28.113  56.666  31.631  1.00  0.00     0.046 A 
ATOM      5  C   UNL     1     -27.905  58.035  31.522  1.00  0.00     0.004 A 
ATOM      6  C   UNL     1     -27.654  58.794  32.661  1.00  0.00     0.004 A 
ENDROOT
BRANCH   1   7
ATOM      7  C   UNL     1     -27.393  59.120  35.136  1.00  0.00     0.036 C 
BRANCH   7   8
ATOM      8  C   UNL     1     -28.709  59.615  35.775  1.00  0.00     0.004 C 
BRANCH   8   9
ATOM      9  C   UNL     1     -28.623  59.769  37.304  1.00  0.00    -0.003 C 
ATOM     10  C   UNL     1     -28.248  58.458  37.995  1.00  0.00     0.004 C 
ENDBRANCH   8   9
ENDBRANCH   7   8
ENDBRANCH   1   7
BRANCH   2  11
ATOM     11  C   UNL     1     -27.462  56.049  35.347  1.00  0.00     0.040 C 
BRANCH  11  12
ATOM     12  C   UNL     1     -25.975  55.699  35.508  1.00  0.00     0.005 C 
BRANCH  12  13
ATOM     13  C   UNL     1     -25.300  56.493  36.636  1.00  0.00    -0.003 C 
ATOM     14  C   UNL     1     -24.221  57.446  36.124  1.00  0.00     0.004 C 
ENDBRANCH  12  13
ENDBRANCH  11  12
ENDBRANCH   2  11
BRANCH   3  15
ATOM     15  O   UNL     1     -28.261  54.650  32.896  1.00  0.00    -0.508 OA
ATOM     16  H   UNL     1     -28.738  54.170  33.646  1.00  0.00     0.293 HD
ENDBRANCH   3  15
TORSDOF 7
ENDMDL
MODEL 3
REMARK VINA RESULT:    -3.350      8.227     10.589
REMARK INTER + INTRA:          -5.583
REMARK INTER:                  -4.289
REMARK INTRA:                  -1.294
REMARK UNBOUND:                -0.960
REMARK SMILES CCCCc1cccc(O)c1CCCC
REMARK SMILES IDX 5 1 11 2 9 3 8 4 7 5 6 6 4 7 3 8 2 9 1 10 12 11 13 12 14 13
REMARK SMILES IDX 15 14 10 15
REMARK H PARENT 10 16
REMARK Flexibility Score: inf
ROOT
ATOM      1  C   UNL     1     -25.897  54.598  44.310  1.00  0.00    -0.041 A 
ATOM      2  C   UNL     1     -26.204  53.543  43.395  1.00  0.00    -0.003 A 
ATOM      3  C   UNL     1     -25.710  53.625  42.062  1.00  0.00     0.119 A 
ATOM      4  C   UNL     1     -24.845  54.659  41.698  1.00  0.00     0.046 A 
ATOM      5  C   UNL     1     -24.465  55.623  42.623  1.00  0.00     0.004 A 
ATOM      6  C   UNL     1     -24.981  55.592  43.915  1.00  0.00     0.004 A 
ENDROOT
BRANCH   1   7
ATOM      7  C   UNL     1     -26.460  54.678  45.726  1.00  0.00     0.036 C 
BRANCH   7   8
ATOM      8  C   UNL     1     -25.369  54.717  46.817  1.00  0.00     0.004 C 
BRANCH   8   9
ATOM      9  C   UNL     1     -24.881  53.320  47.241  1.00  0.00    -0.003 C 
ATOM     10  C   UNL     1     -23.534  52.964  46.612  1.00  0.00     0.004 C 
ENDBRANCH   8   9
ENDBRANCH   7   8
ENDBRANCH   1   7
BRANCH   2  11
ATOM     11  C   UNL     1     -27.007  52.325  43.818  1.00  0.00     0.040 C 
BRANCH  11  12
ATOM     12  C   UNL     1     -26.099  51.248  44.431  1.00  0.00     0.005 C 
BRANCH  12  13
ATOM     13  C   UNL     1     -25.788  50.109  43.449  1.00  0.00    -0.003 C 
ATOM     14  C   UNL     1     -24.359  50.166  42.912  1.00  0.00     0.004 C 
ENDBRANCH  12  13
ENDBRANCH  11  12
ENDBRANCH   2  11
BRANCH   3  15
ATOM     15  O   UNL     1     -26.053  52.702  41.070  1.00  0.00    -0.508 OA
ATOM     16  H   UNL     1     -26.960  52.264  40.992  1.00  0.00     0.293 HD
ENDBRANCH   3  15
TORSDOF 7
ENDMDL
MODEL 4
REMARK VINA RESULT:    -3.156      9.703     12.364
REMARK INTER + INTRA:          -5.316
REMARK INTER:                  -4.439
REMARK INTRA:                  -0.877
REMARK UNBOUND:                -0.960
REMARK SMILES CCCCc1cccc(O)c1CCCC
REMARK SMILES IDX 5 1 11 2 9 3 8 4 7 5 6 6 4 7 3 8 2 9 1 10 12 11 13 12 14 13
REMARK SMILES IDX 15 14 10 15
REMARK H PARENT 10 16
REMARK Flexibility Score: inf
ROOT
ATOM      1  C   UNL     1     -26.380  48.377  42.767  1.00  0.00    -0.041 A 
ATOM      2  C   UNL     1     -26.079  49.706  42.334  1.00  0.00    -0.003 A 
ATOM      3  C   UNL     1     -26.576  50.146  41.074  1.00  0.00     0.119 A 
ATOM      4  C   UNL     1     -27.438  49.331  40.338  1.00  0.00     0.046 A 
ATOM      5  C   UNL     1     -27.812  48.082  40.816  1.00  0.00     0.004 A 
ATOM      6  C   UNL     1     -27.294  47.611  42.018  1.00  0.00     0.004 A 
ENDROOT
BRANCH   1   7
ATOM      7  C   UNL     1     -25.814  47.755  44.040  1.00  0.00     0.036 C 
BRANCH   7   8
ATOM      8  C   UNL     1     -26.843  46.906  44.817  1.00  0.00     0.004 C 
BRANCH   8   9
ATOM      9  C   UNL     1     -26.871  47.213  46.325  1.00  0.00    -0.003 C 
ATOM     10  C   UNL     1     -25.915  48.345  46.701  1.00  0.00     0.004 C 
ENDBRANCH   8   9
ENDBRANCH   7   8
ENDBRANCH   1   7
BRANCH   2  11
ATOM     11  C   UNL     1     -25.279  50.667  43.196  1.00  0.00     0.040 C 
BRANCH  11  12
ATOM     12  C   UNL     1     -26.155  51.283  44.297  1.00  0.00     0.005 C 
BRANCH  12  13
ATOM     13  C   UNL     1     -26.865  52.565  43.839  1.00  0.00    -0.003 C 
ATOM     14  C   UNL     1     -26.763  53.695  44.862  1.00  0.00     0.004 C 
ENDBRANCH  12  13
ENDBRANCH  11  12
ENDBRANCH   2  11
BRANCH   3  15
ATOM     15  O   UNL     1     -26.237  51.383  40.518  1.00  0.00    -0.508 OA
ATOM     16  H   UNL     1     -25.682  52.084  40.989  1.00  0.00     0.293 HD
ENDBRANCH   3  15
TORSDOF 7
ENDMDL
MODEL 5
REMARK VINA RESULT:    -3.114      8.480     11.031
REMARK INTER + INTRA:          -5.258
REMARK INTER:                  -3.992
REMARK INTRA:                  -1.266
REMARK UNBOUND:                -0.960
REMARK SMILES CCCCc1cccc(O)c1CCCC
REMARK SMILES IDX 5 1 11 2 9 3 8 4 7 5 6 6 4 7 3 8 2 9 1 10 12 11 13 12 14 13
REMARK SMILES IDX 15 14 10 15
REMARK H PARENT 10 16
REMARK Flexibility Score: inf
ROOT
ATOM      1  C   UNL     1     -26.253  48.879  42.364  1.00  0.00    -0.041 A 
ATOM      2  C   UNL     1     -26.671  49.547  41.170  1.00  0.00    -0.003 A 
ATOM      3  C   UNL     1     -27.639  48.919  40.336  1.00  0.00     0.119 A 
ATOM      4  C   UNL     1     -28.250  47.732  40.744  1.00  0.00     0.046 A 
ATOM      5  C   UNL     1     -27.917  47.144  41.957  1.00  0.00     0.004 A 
ATOM      6  C   UNL     1     -26.933  47.712  42.761  1.00  0.00     0.004 A 
ENDROOT
BRANCH   1   7
ATOM      7  C   UNL     1     -25.145  49.396  43.277  1.00  0.00     0.036 C 
BRANCH   7   8
ATOM      8  C   UNL     1     -25.675  50.138  44.524  1.00  0.00     0.004 C 
BRANCH   8   9
ATOM      9  C   UNL     1     -25.537  51.667  44.427  1.00  0.00    -0.003 C 
ATOM     10  C   UNL     1     -26.874  52.349  44.134  1.00  0.00     0.004 C 
ENDBRANCH   8   9
ENDBRANCH   7   8
ENDBRANCH   1   7
BRANCH   2  11
ATOM     11  C   UNL     1     -26.139  50.918  40.793  1.00  0.00     0.040 C 
BRANCH  11  12
ATOM     12  C   UNL     1     -24.825  50.806  40.006  1.00  0.00     0.005 C 
BRANCH  12  13
ATOM     13  C   UNL     1     -23.744  51.766  40.521  1.00  0.00    -0.003 C 
ATOM     14  C   UNL     1     -24.329  53.030  41.150  1.00  0.00     0.004 C 
ENDBRANCH  12  13
ENDBRANCH  11  12
ENDBRANCH   2  11
BRANCH   3  15
ATOM     15  O   UNL     1     -28.021  49.440  39.097  1.00  0.00    -0.508 OA
ATOM     16  H   UNL     1     -27.376  49.659  38.350  1.00  0.00     0.293 HD
ENDBRANCH   3  15
TORSDOF 7
ENDMDL
MODEL 6
REMARK VINA RESULT:    -3.094      7.987     10.564
REMARK INTER + INTRA:          -5.230
REMARK INTER:                  -3.998
REMARK INTRA:                  -1.232
REMARK UNBOUND:                -0.960
REMARK SMILES CCCCc1cccc(O)c1CCCC
REMARK SMILES IDX 5 1 11 2 9 3 8 4 7 5 6 6 4 7 3 8 2 9 1 10 12 11 13 12 14 13
REMARK SMILES IDX 15 14 10 15
REMARK H PARENT 10 16
REMARK Flexibility Score: inf
ROOT
ATOM      1  C   UNL     1     -25.531  51.949  43.927  1.00  0.00    -0.041 A 
ATOM      2  C   UNL     1     -25.866  52.146  42.550  1.00  0.00    -0.003 A 
ATOM      3  C   UNL     1     -26.095  51.006  41.730  1.00  0.00     0.119 A 
ATOM      4  C   UNL     1     -26.107  49.728  42.293  1.00  0.00     0.046 A 
ATOM      5  C   UNL     1     -25.886  49.552  43.653  1.00  0.00     0.004 A 
ATOM      6  C   UNL     1     -25.605  50.649  44.462  1.00  0.00     0.004 A 
ENDROOT
BRANCH   1   7
ATOM      7  C   UNL     1     -25.155  53.083  44.875  1.00  0.00     0.036 C 
BRANCH   7   8
ATOM      8  C   UNL     1     -26.376  53.756  45.539  1.00  0.00     0.004 C 
BRANCH   8   9
ATOM      9  C   UNL     1     -26.508  55.251  45.197  1.00  0.00    -0.003 C 
ATOM     10  C   UNL     1     -25.291  56.056  45.650  1.00  0.00     0.004 C 
ENDBRANCH   8   9
ENDBRANCH   7   8
ENDBRANCH   1   7
BRANCH   2  11
ATOM     11  C   UNL     1     -26.021  53.535  41.956  1.00  0.00     0.040 C 
BRANCH  11  12
ATOM     12  C   UNL     1     -24.679  54.065  41.429  1.00  0.00     0.005 C 
BRANCH  12  13
ATOM     13  C   UNL     1     -24.299  55.421  42.041  1.00  0.00    -0.003 C 
ATOM     14  C   UNL     1     -22.972  55.376  42.798  1.00  0.00     0.004 C 
ENDBRANCH  12  13
ENDBRANCH  11  12
ENDBRANCH   2  11
BRANCH   3  15
ATOM     15  O   UNL     1     -26.314  51.097  40.352  1.00  0.00    -0.508 OA
ATOM     16  H   UNL     1     -26.377  51.968  39.844  1.00  0.00     0.293 HD
ENDBRANCH   3  15
TORSDOF 7
ENDMDL
MODEL 7
REMARK VINA RESULT:    -3.085      2.220      5.342
REMARK INTER + INTRA:          -5.218
REMARK INTER:                  -4.015
REMARK INTRA:                  -1.203
REMARK UNBOUND:                -0.960
REMARK SMILES CCCCc1cccc(O)c1CCCC
REMARK SMILES IDX 5 1 11 2 9 3 8 4 7 5 6 6 4 7 3 8 2 9 1 10 12 11 13 12 14 13
REMARK SMILES IDX 15 14 10 15
REMARK H PARENT 10 16
REMARK Flexibility Score: inf
ROOT
ATOM      1  C   UNL     1     -27.447  56.712  34.428  1.00  0.00    -0.041 A 
ATOM      2  C   UNL     1     -27.485  58.089  34.042  1.00  0.00    -0.003 A 
ATOM      3  C   UNL     1     -27.716  58.412  32.675  1.00  0.00     0.119 A 
ATOM      4  C   UNL     1     -28.016  57.402  31.758  1.00  0.00     0.046 A 
ATOM      5  C   UNL     1     -28.083  56.075  32.162  1.00  0.00     0.004 A 
ATOM      6  C   UNL     1     -27.807  55.733  33.482  1.00  0.00     0.004 A 
ENDROOT
BRANCH   1   7
ATOM      7  C   UNL     1     -27.098  56.239  35.836  1.00  0.00     0.036 C 
BRANCH   7   8
ATOM      8  C   UNL     1     -25.579  56.195  36.109  1.00  0.00     0.004 C 
BRANCH   8   9
ATOM      9  C   UNL     1     -25.191  56.756  37.488  1.00  0.00    -0.003 C 
ATOM     10  C   UNL     1     -24.757  58.220  37.414  1.00  0.00     0.004 C 
ENDBRANCH   8   9
ENDBRANCH   7   8
ENDBRANCH   1   7
BRANCH   2  11
ATOM     11  C   UNL     1     -27.324  59.208  35.056  1.00  0.00     0.040 C 
BRANCH  11  12
ATOM     12  C   UNL     1     -28.624  59.434  35.843  1.00  0.00     0.005 C 
BRANCH  12  13
ATOM     13  C   UNL     1     -28.370  59.726  37.329  1.00  0.00    -0.003 C 
ATOM     14  C   UNL     1     -28.453  58.473  38.200  1.00  0.00     0.004 C 
ENDBRANCH  12  13
ENDBRANCH  11  12
ENDBRANCH   2  11
BRANCH   3  15
ATOM     15  O   UNL     1     -27.655  59.720  32.187  1.00  0.00    -0.508 OA
ATOM     16  H   UNL     1     -27.222  59.979  31.311  1.00  0.00     0.293 HD
ENDBRANCH   3  15
TORSDOF 7
ENDMDL
MODEL 8
REMARK VINA RESULT:    -3.048      8.576      9.829
REMARK INTER + INTRA:          -5.166
REMARK INTER:                  -3.828
REMARK INTRA:                  -1.339
REMARK UNBOUND:                -0.960
REMARK SMILES CCCCc1cccc(O)c1CCCC
REMARK SMILES IDX 5 1 11 2 9 3 8 4 7 5 6 6 4 7 3 8 2 9 1 10 12 11 13 12 14 13
REMARK SMILES IDX 15 14 10 15
REMARK H PARENT 10 16
REMARK Flexibility Score: inf
ROOT
ATOM      1  C   UNL     1     -26.298  53.537  43.939  1.00  0.00    -0.041 A 
ATOM      2  C   UNL     1     -25.307  54.363  43.323  1.00  0.00    -0.003 A 
ATOM      3  C   UNL     1     -24.995  55.619  43.916  1.00  0.00     0.119 A 
ATOM      4  C   UNL     1     -25.564  55.976  45.140  1.00  0.00     0.046 A 
ATOM      5  C   UNL     1     -26.446  55.120  45.788  1.00  0.00     0.004 A 
ATOM      6  C   UNL     1     -26.806  53.913  45.198  1.00  0.00     0.004 A 
ENDROOT
BRANCH   1   7
ATOM      7  C   UNL     1     -26.798  52.226  43.339  1.00  0.00     0.036 C 
BRANCH   7   8
ATOM      8  C   UNL     1     -26.065  50.983  43.888  1.00  0.00     0.004 C 
BRANCH   8   9
ATOM      9  C   UNL     1     -26.032  49.807  42.895  1.00  0.00    -0.003 C 
ATOM     10  C   UNL     1     -26.408  50.239  41.478  1.00  0.00     0.004 C 
ENDBRANCH   8   9
ENDBRANCH   7   8
ENDBRANCH   1   7
BRANCH   2  11
ATOM     11  C   UNL     1     -24.556  53.919  42.080  1.00  0.00     0.040 C 
BRANCH  11  12
ATOM     12  C   UNL     1     -23.291  53.130  42.448  1.00  0.00     0.005 C 
BRANCH  12  13
ATOM     13  C   UNL     1     -23.081  51.900  41.554  1.00  0.00    -0.003 C 
ATOM     14  C   UNL     1     -22.439  50.730  42.299  1.00  0.00     0.004 C 
ENDBRANCH  12  13
ENDBRANCH  11  12
ENDBRANCH   2  11
BRANCH   3  15
ATOM     15  O   UNL     1     -24.127  56.540  43.324  1.00  0.00    -0.508 OA
ATOM     16  H   UNL     1     -23.754  57.353  43.794  1.00  0.00     0.293 HD
ENDBRANCH   3  15
TORSDOF 7
ENDMDL
MODEL 9
REMARK VINA RESULT:    -2.988      4.086      7.232
REMARK INTER + INTRA:          -5.084
REMARK INTER:                  -4.019
REMARK INTRA:                  -1.065
REMARK UNBOUND:                -0.960
REMARK SMILES CCCCc1cccc(O)c1CCCC
REMARK SMILES IDX 5 1 11 2 9 3 8 4 7 5 6 6 4 7 3 8 2 9 1 10 12 11 13 12 14 13
REMARK SMILES IDX 15 14 10 15
REMARK H PARENT 10 16
REMARK Flexibility Score: inf
ROOT
ATOM      1  C   UNL     1     -27.108  50.949  33.980  1.00  0.00    -0.041 A 
ATOM      2  C   UNL     1     -27.960  52.007  33.533  1.00  0.00    -0.003 A 
ATOM      3  C   UNL     1     -29.267  51.684  33.069  1.00  0.00     0.119 A 
ATOM      4  C   UNL     1     -29.740  50.374  33.162  1.00  0.00     0.046 A 
ATOM      5  C   UNL     1     -28.945  49.370  33.698  1.00  0.00     0.004 A 
ATOM      6  C   UNL     1     -27.645  49.653  34.106  1.00  0.00     0.004 A 
ENDROOT
BRANCH   1   7
ATOM      7  C   UNL     1     -25.653  51.154  34.393  1.00  0.00     0.036 C 
BRANCH   7   8
ATOM      8  C   UNL     1     -24.651  50.924  33.241  1.00  0.00     0.004 C 
BRANCH   8   9
ATOM      9  C   UNL     1     -23.761  52.147  32.955  1.00  0.00    -0.003 C 
ATOM     10  C   UNL     1     -23.767  53.147  34.111  1.00  0.00     0.004 C 
ENDBRANCH   8   9
ENDBRANCH   7   8
ENDBRANCH   1   7
BRANCH   2  11
ATOM     11  C   UNL     1     -27.522  53.460  33.577  1.00  0.00     0.040 C 
BRANCH  11  12
ATOM     12  C   UNL     1     -26.919  53.898  32.234  1.00  0.00     0.005 C 
BRANCH  12  13
ATOM     13  C   UNL     1     -27.318  55.330  31.848  1.00  0.00    -0.003 C 
ATOM     14  C   UNL     1     -28.248  55.980  32.871  1.00  0.00     0.004 C 
ENDBRANCH  12  13
ENDBRANCH  11  12
ENDBRANCH   2  11
BRANCH   3  15
ATOM     15  O   UNL     1     -30.125  52.634  32.507  1.00  0.00    -0.508 OA
ATOM     16  H   UNL     1     -30.922  52.407  31.928  1.00  0.00     0.293 HD
ENDBRANCH   3  15
TORSDOF 7
ENDMDL
