MODEL 1
REMARK VINA RESULT:    -7.136      0.000      0.000
REMARK INTER + INTRA:          -8.686
REMARK INTER:                  -8.387
REMARK INTRA:                  -0.299
REMARK UNBOUND:                -0.299
REMARK SMILES O=c1cc(-c2ccc(O)c(O)c2)oc2cc(O)cc(O)c12
REMARK SMILES IDX 4 1 3 2 2 3 1 4 21 5 19 6 18 7 16 8 15 9 14 10 13 11 5 12
REMARK SMILES IDX 6 13 7 14 8 15 12 16 10 17 9 18 11 20 20 22 17 24
REMARK H PARENT 9 19 11 21 20 23 17 25
REMARK Flexibility Score: inf
ROOT
ATOM      1  C   UNL     1      -2.166  -5.473  -4.122  1.00  0.00     0.138 A 
ATOM      2  C   UNL     1      -3.390  -6.112  -4.362  1.00  0.00     0.100 A 
ATOM      3  C   UNL     1      -4.511  -5.351  -4.700  1.00  0.00     0.197 A 
ATOM      4  O   UNL     1      -5.609  -5.947  -4.849  1.00  0.00    -0.289 OA
ATOM      5  C   UNL     1      -4.394  -3.947  -4.827  1.00  0.00     0.107 A 
ATOM      6  C   UNL     1      -5.460  -3.075  -5.205  1.00  0.00     0.134 A 
ATOM      7  C   UNL     1      -5.258  -1.689  -5.185  1.00  0.00     0.093 A 
ATOM      8  C   UNL     1      -4.016  -1.147  -4.859  1.00  0.00     0.123 A 
ATOM      9  C   UNL     1      -2.952  -1.992  -4.540  1.00  0.00     0.094 A 
ATOM     10  C   UNL     1      -3.131  -3.377  -4.517  1.00  0.00     0.146 A 
ATOM     11  O   UNL     1      -2.097  -4.147  -4.194  1.00  0.00    -0.456 OA
ENDROOT
BRANCH   1  12
ATOM     12  C   UNL     1      -0.942  -6.232  -3.760  1.00  0.00     0.021 A 
ATOM     13  C   UNL     1      -0.699  -7.479  -4.362  1.00  0.00     0.016 A 
ATOM     14  C   UNL     1       0.442  -8.217  -4.035  1.00  0.00     0.051 A 
ATOM     15  C   UNL     1       1.353  -7.725  -3.091  1.00  0.00     0.157 A 
ATOM     16  C   UNL     1      -0.028  -5.750  -2.804  1.00  0.00     0.062 A 
ATOM     17  C   UNL     1       1.117  -6.492  -2.473  1.00  0.00     0.158 A 
BRANCH  15  18
ATOM     18  O   UNL     1       2.492  -8.457  -2.762  1.00  0.00    -0.504 OA
ATOM     19  H   UNL     1       2.937  -9.075  -3.432  1.00  0.00     0.293 HD
ENDBRANCH  15  18
BRANCH  17  20
ATOM     20  O   UNL     1       2.020  -6.011  -1.527  1.00  0.00    -0.504 OA
ATOM     21  H   UNL     1       2.851  -5.498  -1.799  1.00  0.00     0.293 HD
ENDBRANCH  17  20
ENDBRANCH   1  12
BRANCH   6  22
ATOM     22  O   UNL     1      -6.717  -3.516  -5.631  1.00  0.00    -0.507 OA
ATOM     23  H   UNL     1      -7.364  -4.044  -5.067  1.00  0.00     0.293 HD
ENDBRANCH   6  22
BRANCH   8  24
ATOM     24  O   UNL     1      -3.847   0.236  -4.863  1.00  0.00    -0.508 OA
ATOM     25  H   UNL     1      -3.046   0.674  -4.422  1.00  0.00     0.293 HD
ENDBRANCH   8  24
TORSDOF 5
ENDMDL
MODEL 2
REMARK VINA RESULT:    -7.082      5.346     10.675
REMARK INTER + INTRA:          -8.624
REMARK INTER:                  -8.346
REMARK INTRA:                  -0.278
REMARK UNBOUND:                -0.299
REMARK SMILES O=c1cc(-c2ccc(O)c(O)c2)oc2cc(O)cc(O)c12
REMARK SMILES IDX 4 1 3 2 2 3 1 4 21 5 19 6 18 7 16 8 15 9 14 10 13 11 5 12
REMARK SMILES IDX 6 13 7 14 8 15 12 16 10 17 9 18 11 20 20 22 17 24
REMARK H PARENT 9 19 11 21 20 23 17 25
REMARK Flexibility Score: inf
ROOT
ATOM      1  C   UNL     1      -6.668   2.600  -5.135  1.00  0.00     0.138 A 
ATOM      2  C   UNL     1      -7.268   1.761  -4.186  1.00  0.00     0.100 A 
ATOM      3  C   UNL     1      -6.709   0.509  -3.920  1.00  0.00     0.197 A 
ATOM      4  O   UNL     1      -7.305  -0.246  -3.109  1.00  0.00    -0.289 OA
ATOM      5  C   UNL     1      -5.527   0.112  -4.588  1.00  0.00     0.107 A 
ATOM      6  C   UNL     1      -4.847  -1.124  -4.368  1.00  0.00     0.134 A 
ATOM      7  C   UNL     1      -3.750  -1.460  -5.172  1.00  0.00     0.093 A 
ATOM      8  C   UNL     1      -3.273  -0.582  -6.144  1.00  0.00     0.123 A 
ATOM      9  C   UNL     1      -3.897   0.651  -6.331  1.00  0.00     0.094 A 
ATOM     10  C   UNL     1      -5.015   1.002  -5.570  1.00  0.00     0.146 A 
ATOM     11  O   UNL     1      -5.589   2.180  -5.787  1.00  0.00    -0.456 OA
ENDROOT
BRANCH   1  12
ATOM     12  C   UNL     1      -7.219   3.942  -5.455  1.00  0.00     0.021 A 
ATOM     13  C   UNL     1      -7.339   4.338  -6.798  1.00  0.00     0.016 A 
ATOM     14  C   UNL     1      -7.848   5.597  -7.125  1.00  0.00     0.051 A 
ATOM     15  C   UNL     1      -8.234   6.486  -6.115  1.00  0.00     0.157 A 
ATOM     16  C   UNL     1      -7.598   4.846  -4.443  1.00  0.00     0.062 A 
ATOM     17  C   UNL     1      -8.107   6.111  -4.772  1.00  0.00     0.158 A 
BRANCH  15  18
ATOM     18  O   UNL     1      -8.743   7.743  -6.437  1.00  0.00    -0.504 OA
ATOM     19  H   UNL     1      -9.716   7.978  -6.276  1.00  0.00     0.293 HD
ENDBRANCH  15  18
BRANCH  17  20
ATOM     20  O   UNL     1      -8.483   7.003  -3.769  1.00  0.00    -0.504 OA
ATOM     21  H   UNL     1      -8.228   7.983  -3.806  1.00  0.00     0.293 HD
ENDBRANCH  17  20
ENDBRANCH   1  12
BRANCH   6  22
ATOM     22  O   UNL     1      -5.189  -2.037  -3.366  1.00  0.00    -0.507 OA
ATOM     23  H   UNL     1      -4.547  -2.415  -2.687  1.00  0.00     0.293 HD
ENDBRANCH   6  22
BRANCH   8  24
ATOM     24  O   UNL     1      -2.170  -0.944  -6.915  1.00  0.00    -0.508 OA
ATOM     25  H   UNL     1      -1.443  -1.549  -6.549  1.00  0.00     0.293 HD
ENDBRANCH   8  24
TORSDOF 5
ENDMDL
MODEL 3
REMARK VINA RESULT:    -6.964      1.731      7.177
REMARK INTER + INTRA:          -8.485
REMARK INTER:                  -8.216
REMARK INTRA:                  -0.269
REMARK UNBOUND:                -0.299
REMARK SMILES O=c1cc(-c2ccc(O)c(O)c2)oc2cc(O)cc(O)c12
REMARK SMILES IDX 4 1 3 2 2 3 1 4 21 5 19 6 18 7 16 8 15 9 14 10 13 11 5 12
REMARK SMILES IDX 6 13 7 14 8 15 12 16 10 17 9 18 11 20 20 22 17 24
REMARK H PARENT 9 19 11 21 20 23 17 25
REMARK Flexibility Score: inf
ROOT
ATOM      1  C   UNL     1      -1.796  -4.158  -4.636  1.00  0.00     0.138 A 
ATOM      2  C   UNL     1      -0.764  -4.215  -5.581  1.00  0.00     0.100 A 
ATOM      3  C   UNL     1       0.290  -5.112  -5.400  1.00  0.00     0.197 A 
ATOM      4  O   UNL     1       1.233  -5.096  -6.233  1.00  0.00    -0.289 OA
ATOM      5  C   UNL     1       0.291  -5.978  -4.281  1.00  0.00     0.107 A 
ATOM      6  C   UNL     1       1.292  -6.961  -4.016  1.00  0.00     0.134 A 
ATOM      7  C   UNL     1       1.250  -7.681  -2.815  1.00  0.00     0.093 A 
ATOM      8  C   UNL     1       0.214  -7.499  -1.902  1.00  0.00     0.123 A 
ATOM      9  C   UNL     1      -0.799  -6.579  -2.176  1.00  0.00     0.094 A 
ATOM     10  C   UNL     1      -0.767  -5.820  -3.347  1.00  0.00     0.146 A 
ATOM     11  O   UNL     1      -1.743  -4.945  -3.565  1.00  0.00    -0.456 OA
ENDROOT
BRANCH   1  12
ATOM     12  C   UNL     1      -2.942  -3.224  -4.779  1.00  0.00     0.021 A 
ATOM     13  C   UNL     1      -4.251  -3.734  -4.806  1.00  0.00     0.016 A 
ATOM     14  C   UNL     1      -5.345  -2.876  -4.947  1.00  0.00     0.051 A 
ATOM     15  C   UNL     1      -5.148  -1.496  -5.075  1.00  0.00     0.157 A 
ATOM     16  C   UNL     1      -2.750  -1.836  -4.920  1.00  0.00     0.062 A 
ATOM     17  C   UNL     1      -3.849  -0.975  -5.064  1.00  0.00     0.158 A 
BRANCH  15  18
ATOM     18  O   UNL     1      -6.237  -0.637  -5.215  1.00  0.00    -0.504 OA
ATOM     19  H   UNL     1      -6.131   0.368  -5.141  1.00  0.00     0.293 HD
ENDBRANCH  15  18
BRANCH  17  20
ATOM     20  O   UNL     1      -3.656   0.398  -5.202  1.00  0.00    -0.504 OA
ATOM     21  H   UNL     1      -2.808   0.851  -4.878  1.00  0.00     0.293 HD
ENDBRANCH  17  20
ENDBRANCH   1  12
BRANCH   6  22
ATOM     22  O   UNL     1       2.325  -7.283  -4.902  1.00  0.00    -0.507 OA
ATOM     23  H   UNL     1       2.193  -7.632  -5.839  1.00  0.00     0.293 HD
ENDBRANCH   6  22
BRANCH   8  24
ATOM     24  O   UNL     1       0.197  -8.245  -0.724  1.00  0.00    -0.508 OA
ATOM     25  H   UNL     1       0.878  -8.090   0.011  1.00  0.00     0.293 HD
ENDBRANCH   8  24
TORSDOF 5
ENDMDL
MODEL 4
REMARK VINA RESULT:    -6.831      2.002      6.749
REMARK INTER + INTRA:          -8.328
REMARK INTER:                  -8.048
REMARK INTRA:                  -0.280
REMARK UNBOUND:                -0.299
REMARK SMILES O=c1cc(-c2ccc(O)c(O)c2)oc2cc(O)cc(O)c12
REMARK SMILES IDX 4 1 3 2 2 3 1 4 21 5 19 6 18 7 16 8 15 9 14 10 13 11 5 12
REMARK SMILES IDX 6 13 7 14 8 15 12 16 10 17 9 18 11 20 20 22 17 24
REMARK H PARENT 9 19 11 21 20 23 17 25
REMARK Flexibility Score: inf
ROOT
ATOM      1  C   UNL     1      -2.765  -3.902  -5.130  1.00  0.00     0.138 A 
ATOM      2  C   UNL     1      -3.013  -4.845  -6.136  1.00  0.00     0.100 A 
ATOM      3  C   UNL     1      -2.618  -6.171  -5.952  1.00  0.00     0.197 A 
ATOM      4  O   UNL     1      -2.798  -6.981  -6.898  1.00  0.00    -0.289 OA
ATOM      5  C   UNL     1      -1.998  -6.558  -4.740  1.00  0.00     0.107 A 
ATOM      6  C   UNL     1      -1.590  -7.889  -4.426  1.00  0.00     0.134 A 
ATOM      7  C   UNL     1      -0.881  -8.132  -3.242  1.00  0.00     0.093 A 
ATOM      8  C   UNL     1      -0.620  -7.106  -2.336  1.00  0.00     0.123 A 
ATOM      9  C   UNL     1      -1.062  -5.811  -2.607  1.00  0.00     0.094 A 
ATOM     10  C   UNL     1      -1.740  -5.529  -3.795  1.00  0.00     0.146 A 
ATOM     11  O   UNL     1      -2.132  -4.280  -4.023  1.00  0.00    -0.456 OA
ENDROOT
BRANCH   1  12
ATOM     12  C   UNL     1      -3.165  -2.479  -5.272  1.00  0.00     0.021 A 
ATOM     13  C   UNL     1      -2.689  -1.732  -6.364  1.00  0.00     0.016 A 
ATOM     14  C   UNL     1      -3.045  -0.390  -6.516  1.00  0.00     0.051 A 
ATOM     15  C   UNL     1      -3.875   0.232  -5.575  1.00  0.00     0.157 A 
ATOM     16  C   UNL     1      -3.989  -1.844  -4.323  1.00  0.00     0.062 A 
ATOM     17  C   UNL     1      -4.346  -0.495  -4.475  1.00  0.00     0.158 A 
BRANCH  15  18
ATOM     18  O   UNL     1      -4.234   1.570  -5.724  1.00  0.00    -0.504 OA
ATOM     19  H   UNL     1      -4.827   2.038  -5.048  1.00  0.00     0.293 HD
ENDBRANCH  15  18
BRANCH  17  20
ATOM     20  O   UNL     1      -5.162   0.129  -3.534  1.00  0.00    -0.504 OA
ATOM     21  H   UNL     1      -5.413   1.108  -3.615  1.00  0.00     0.293 HD
ENDBRANCH  17  20
ENDBRANCH   1  12
BRANCH   6  22
ATOM     22  O   UNL     1      -1.875  -9.002  -5.222  1.00  0.00    -0.507 OA
ATOM     23  H   UNL     1      -2.129  -8.964  -6.197  1.00  0.00     0.293 HD
ENDBRANCH   6  22
BRANCH   8  24
ATOM     24  O   UNL     1       0.075  -7.388  -1.161  1.00  0.00    -0.508 OA
ATOM     25  H   UNL     1       1.048  -7.672  -1.176  1.00  0.00     0.293 HD
ENDBRANCH   8  24
TORSDOF 5
ENDMDL
MODEL 5
REMARK VINA RESULT:    -6.815      4.585     10.103
REMARK INTER + INTRA:          -8.309
REMARK INTER:                  -8.025
REMARK INTRA:                  -0.284
REMARK UNBOUND:                -0.299
REMARK SMILES O=c1cc(-c2ccc(O)c(O)c2)oc2cc(O)cc(O)c12
REMARK SMILES IDX 4 1 3 2 2 3 1 4 21 5 19 6 18 7 16 8 15 9 14 10 13 11 5 12
REMARK SMILES IDX 6 13 7 14 8 15 12 16 10 17 9 18 11 20 20 22 17 24
REMARK H PARENT 9 19 11 21 20 23 17 25
REMARK Flexibility Score: inf
ROOT
ATOM      1  C   UNL     1      -6.206   1.750  -5.179  1.00  0.00     0.138 A 
ATOM      2  C   UNL     1      -5.149   2.132  -6.016  1.00  0.00     0.100 A 
ATOM      3  C   UNL     1      -4.166   1.200  -6.355  1.00  0.00     0.197 A 
ATOM      4  O   UNL     1      -3.196   1.589  -7.057  1.00  0.00    -0.289 OA
ATOM      5  C   UNL     1      -4.263  -0.129  -5.878  1.00  0.00     0.107 A 
ATOM      6  C   UNL     1      -3.342  -1.173  -6.192  1.00  0.00     0.134 A 
ATOM      7  C   UNL     1      -3.474  -2.420  -5.567  1.00  0.00     0.093 A 
ATOM      8  C   UNL     1      -4.526  -2.678  -4.690  1.00  0.00     0.123 A 
ATOM      9  C   UNL     1      -5.463  -1.681  -4.417  1.00  0.00     0.094 A 
ATOM     10  C   UNL     1      -5.339  -0.416  -4.996  1.00  0.00     0.146 A 
ATOM     11  O   UNL     1      -6.244   0.510  -4.701  1.00  0.00    -0.456 OA
ENDROOT
BRANCH   1  12
ATOM     12  C   UNL     1      -7.279   2.700  -4.788  1.00  0.00     0.021 A 
ATOM     13  C   UNL     1      -8.593   2.229  -4.621  1.00  0.00     0.016 A 
ATOM     14  C   UNL     1      -9.621   3.104  -4.260  1.00  0.00     0.051 A 
ATOM     15  C   UNL     1      -9.354   4.465  -4.070  1.00  0.00     0.157 A 
ATOM     16  C   UNL     1      -7.021   4.073  -4.607  1.00  0.00     0.062 A 
ATOM     17  C   UNL     1      -8.054   4.951  -4.246  1.00  0.00     0.158 A 
BRANCH  15  18
ATOM     18  O   UNL     1     -10.377   5.341  -3.708  1.00  0.00    -0.504 OA
ATOM     19  H   UNL     1     -10.857   5.257  -2.819  1.00  0.00     0.293 HD
ENDBRANCH  15  18
BRANCH  17  20
ATOM     20  O   UNL     1      -7.794   6.309  -4.066  1.00  0.00    -0.504 OA
ATOM     21  H   UNL     1      -8.094   7.001  -4.743  1.00  0.00     0.293 HD
ENDBRANCH  17  20
ENDBRANCH   1  12
BRANCH   6  22
ATOM     22  O   UNL     1      -2.305  -1.048  -7.121  1.00  0.00    -0.507 OA
ATOM     23  H   UNL     1      -2.239  -0.321  -7.817  1.00  0.00     0.293 HD
ENDBRANCH   6  22
BRANCH   8  24
ATOM     24  O   UNL     1      -4.634  -3.936  -4.099  1.00  0.00    -0.508 OA
ATOM     25  H   UNL     1      -5.511  -4.444  -4.092  1.00  0.00     0.293 HD
ENDBRANCH   8  24
TORSDOF 5
ENDMDL
MODEL 6
REMARK VINA RESULT:    -6.764      2.338      7.047
REMARK INTER + INTRA:          -8.250
REMARK INTER:                  -7.965
REMARK INTRA:                  -0.285
REMARK UNBOUND:                -0.299
REMARK SMILES O=c1cc(-c2ccc(O)c(O)c2)oc2cc(O)cc(O)c12
REMARK SMILES IDX 4 1 3 2 2 3 1 4 21 5 19 6 18 7 16 8 15 9 14 10 13 11 5 12
REMARK SMILES IDX 6 13 7 14 8 15 12 16 10 17 9 18 11 20 20 22 17 24
REMARK H PARENT 9 19 11 21 20 23 17 25
REMARK Flexibility Score: inf
ROOT
ATOM      1  C   UNL     1      -3.128  -2.828  -5.087  1.00  0.00     0.138 A 
ATOM      2  C   UNL     1      -3.877  -3.901  -4.586  1.00  0.00     0.100 A 
ATOM      3  C   UNL     1      -3.296  -5.167  -4.500  1.00  0.00     0.197 A 
ATOM      4  O   UNL     1      -4.012  -6.123  -4.105  1.00  0.00    -0.289 OA
ATOM      5  C   UNL     1      -1.948  -5.350  -4.889  1.00  0.00     0.107 A 
ATOM      6  C   UNL     1      -1.239  -6.587  -4.806  1.00  0.00     0.134 A 
ATOM      7  C   UNL     1       0.057  -6.675  -5.330  1.00  0.00     0.093 A 
ATOM      8  C   UNL     1       0.691  -5.561  -5.876  1.00  0.00     0.123 A 
ATOM      9  C   UNL     1       0.028  -4.334  -5.913  1.00  0.00     0.094 A 
ATOM     10  C   UNL     1      -1.278  -4.220  -5.431  1.00  0.00     0.146 A 
ATOM     11  O   UNL     1      -1.881  -3.038  -5.497  1.00  0.00    -0.456 OA
ENDROOT
BRANCH   1  12
ATOM     12  C   UNL     1      -3.695  -1.460  -5.200  1.00  0.00     0.021 A 
ATOM     13  C   UNL     1      -3.304  -0.634  -6.268  1.00  0.00     0.016 A 
ATOM     14  C   UNL     1      -3.818   0.659  -6.393  1.00  0.00     0.051 A 
ATOM     15  C   UNL     1      -4.723   1.153  -5.445  1.00  0.00     0.157 A 
ATOM     16  C   UNL     1      -4.596  -0.952  -4.243  1.00  0.00     0.062 A 
ATOM     17  C   UNL     1      -5.110   0.347  -4.367  1.00  0.00     0.158 A 
BRANCH  15  18
ATOM     18  O   UNL     1      -5.239   2.442  -5.566  1.00  0.00    -0.504 OA
ATOM     19  H   UNL     1      -6.133   2.695  -5.161  1.00  0.00     0.293 HD
ENDBRANCH  15  18
BRANCH  17  20
ATOM     20  O   UNL     1      -6.003   0.846  -3.420  1.00  0.00    -0.504 OA
ATOM     21  H   UNL     1      -6.976   1.018  -3.646  1.00  0.00     0.293 HD
ENDBRANCH  17  20
ENDBRANCH   1  12
BRANCH   6  22
ATOM     22  O   UNL     1      -1.749  -7.740  -4.203  1.00  0.00    -0.507 OA
ATOM     23  H   UNL     1      -1.383  -8.671  -4.335  1.00  0.00     0.293 HD
ENDBRANCH   6  22
BRANCH   8  24
ATOM     24  O   UNL     1       1.987  -5.683  -6.374  1.00  0.00    -0.508 OA
ATOM     25  H   UNL     1       2.170  -6.096  -7.281  1.00  0.00     0.293 HD
ENDBRANCH   8  24
TORSDOF 5
ENDMDL
MODEL 7
REMARK VINA RESULT:    -6.676      4.790      7.682
REMARK INTER + INTRA:          -8.146
REMARK INTER:                  -7.878
REMARK INTRA:                  -0.269
REMARK UNBOUND:                -0.299
REMARK SMILES O=c1cc(-c2ccc(O)c(O)c2)oc2cc(O)cc(O)c12
REMARK SMILES IDX 4 1 3 2 2 3 1 4 21 5 19 6 18 7 16 8 15 9 14 10 13 11 5 12
REMARK SMILES IDX 6 13 7 14 8 15 12 16 10 17 9 18 11 20 20 22 17 24
REMARK H PARENT 9 19 11 21 20 23 17 25
REMARK Flexibility Score: inf
ROOT
ATOM      1  C   UNL     1      -6.410   0.774  -5.015  1.00  0.00     0.138 A 
ATOM      2  C   UNL     1      -7.682   0.193  -4.937  1.00  0.00     0.100 A 
ATOM      3  C   UNL     1      -8.800   1.004  -4.732  1.00  0.00     0.197 A 
ATOM      4  O   UNL     1      -9.921   0.447  -4.604  1.00  0.00    -0.289 OA
ATOM      5  C   UNL     1      -8.642   2.407  -4.637  1.00  0.00     0.107 A 
ATOM      6  C   UNL     1      -9.715   3.334  -4.469  1.00  0.00     0.134 A 
ATOM      7  C   UNL     1      -9.428   4.691  -4.271  1.00  0.00     0.093 A 
ATOM      8  C   UNL     1      -8.116   5.161  -4.294  1.00  0.00     0.123 A 
ATOM      9  C   UNL     1      -7.064   4.271  -4.512  1.00  0.00     0.094 A 
ATOM     10  C   UNL     1      -7.314   2.907  -4.678  1.00  0.00     0.146 A 
ATOM     11  O   UNL     1      -6.284   2.090  -4.868  1.00  0.00    -0.456 OA
ENDROOT
BRANCH   1  12
ATOM     12  C   UNL     1      -5.187  -0.040  -5.233  1.00  0.00     0.021 A 
ATOM     13  C   UNL     1      -4.359   0.236  -6.335  1.00  0.00     0.016 A 
ATOM     14  C   UNL     1      -3.207  -0.521  -6.566  1.00  0.00     0.051 A 
ATOM     15  C   UNL     1      -2.869  -1.572  -5.705  1.00  0.00     0.157 A 
ATOM     16  C   UNL     1      -4.847  -1.107  -4.379  1.00  0.00     0.062 A 
ATOM     17  C   UNL     1      -3.691  -1.868  -4.612  1.00  0.00     0.158 A 
BRANCH  15  18
ATOM     18  O   UNL     1      -1.721  -2.328  -5.931  1.00  0.00    -0.504 OA
ATOM     19  H   UNL     1      -1.729  -3.134  -6.547  1.00  0.00     0.293 HD
ENDBRANCH  15  18
BRANCH  17  20
ATOM     20  O   UNL     1      -3.358  -2.922  -3.763  1.00  0.00    -0.504 OA
ATOM     21  H   UNL     1      -2.929  -2.760  -2.859  1.00  0.00     0.293 HD
ENDBRANCH  17  20
ENDBRANCH   1  12
BRANCH   6  22
ATOM     22  O   UNL     1     -11.067   2.982  -4.515  1.00  0.00    -0.507 OA
ATOM     23  H   UNL     1     -11.728   3.319  -5.198  1.00  0.00     0.293 HD
ENDBRANCH   6  22
BRANCH   8  24
ATOM     24  O   UNL     1      -7.870   6.520  -4.108  1.00  0.00    -0.508 OA
ATOM     25  H   UNL     1      -8.607   7.210  -4.201  1.00  0.00     0.293 HD
ENDBRANCH   8  24
TORSDOF 5
ENDMDL
MODEL 8
REMARK VINA RESULT:    -6.640      2.175      3.951
REMARK INTER + INTRA:          -8.104
REMARK INTER:                  -7.839
REMARK INTRA:                  -0.265
REMARK UNBOUND:                -0.299
REMARK SMILES O=c1cc(-c2ccc(O)c(O)c2)oc2cc(O)cc(O)c12
REMARK SMILES IDX 4 1 3 2 2 3 1 4 21 5 19 6 18 7 16 8 15 9 14 10 13 11 5 12
REMARK SMILES IDX 6 13 7 14 8 15 12 16 10 17 9 18 11 20 20 22 17 24
REMARK H PARENT 9 19 11 21 20 23 17 25
REMARK Flexibility Score: inf
ROOT
ATOM      1  C   UNL     1      -3.356  -2.784  -4.788  1.00  0.00     0.138 A 
ATOM      2  C   UNL     1      -2.644  -1.927  -5.638  1.00  0.00     0.100 A 
ATOM      3  C   UNL     1      -3.160  -0.663  -5.933  1.00  0.00     0.197 A 
ATOM      4  O   UNL     1      -2.530   0.059  -6.748  1.00  0.00    -0.289 OA
ATOM      5  C   UNL     1      -4.380  -0.248  -5.347  1.00  0.00     0.107 A 
ATOM      6  C   UNL     1      -4.980   1.032  -5.544  1.00  0.00     0.134 A 
ATOM      7  C   UNL     1      -6.248   1.289  -5.007  1.00  0.00     0.093 A 
ATOM      8  C   UNL     1      -6.908   0.337  -4.231  1.00  0.00     0.123 A 
ATOM      9  C   UNL     1      -6.306  -0.898  -3.987  1.00  0.00     0.094 A 
ATOM     10  C   UNL     1      -5.059  -1.198  -4.538  1.00  0.00     0.146 A 
ATOM     11  O   UNL     1      -4.526  -2.390  -4.294  1.00  0.00    -0.456 OA
ENDROOT
BRANCH   1  12
ATOM     12  C   UNL     1      -2.853  -4.137  -4.439  1.00  0.00     0.021 A 
ATOM     13  C   UNL     1      -3.576  -5.271  -4.848  1.00  0.00     0.016 A 
ATOM     14  C   UNL     1      -3.128  -6.555  -4.527  1.00  0.00     0.051 A 
ATOM     15  C   UNL     1      -1.955  -6.726  -3.781  1.00  0.00     0.157 A 
ATOM     16  C   UNL     1      -1.681  -4.318  -3.679  1.00  0.00     0.062 A 
ATOM     17  C   UNL     1      -1.232  -5.607  -3.354  1.00  0.00     0.158 A 
BRANCH  15  18
ATOM     18  O   UNL     1      -1.504  -8.005  -3.459  1.00  0.00    -0.504 OA
ATOM     19  H   UNL     1      -2.150  -8.754  -3.235  1.00  0.00     0.293 HD
ENDBRANCH  15  18
BRANCH  17  20
ATOM     20  O   UNL     1      -0.071  -5.781  -2.603  1.00  0.00    -0.504 OA
ATOM     21  H   UNL     1       0.023  -6.541  -1.939  1.00  0.00     0.293 HD
ENDBRANCH  17  20
ENDBRANCH   1  12
BRANCH   6  22
ATOM     22  O   UNL     1      -4.369   2.085  -6.232  1.00  0.00    -0.507 OA
ATOM     23  H   UNL     1      -4.206   2.106  -7.227  1.00  0.00     0.293 HD
ENDBRANCH   6  22
BRANCH   8  24
ATOM     24  O   UNL     1      -8.162   0.634  -3.700  1.00  0.00    -0.508 OA
ATOM     25  H   UNL     1      -8.659   1.480  -3.954  1.00  0.00     0.293 HD
ENDBRANCH   8  24
TORSDOF 5
ENDMDL
MODEL 9
REMARK VINA RESULT:    -6.585      2.293      4.519
REMARK INTER + INTRA:          -8.039
REMARK INTER:                  -7.750
REMARK INTRA:                  -0.289
REMARK UNBOUND:                -0.299
REMARK SMILES O=c1cc(-c2ccc(O)c(O)c2)oc2cc(O)cc(O)c12
REMARK SMILES IDX 4 1 3 2 2 3 1 4 21 5 19 6 18 7 16 8 15 9 14 10 13 11 5 12
REMARK SMILES IDX 6 13 7 14 8 15 12 16 10 17 9 18 11 20 20 22 17 24
REMARK H PARENT 9 19 11 21 20 23 17 25
REMARK Flexibility Score: inf
ROOT
ATOM      1  C   UNL     1      -4.094  -2.497  -4.624  1.00  0.00     0.138 A 
ATOM      2  C   UNL     1      -3.337  -1.403  -5.063  1.00  0.00     0.100 A 
ATOM      3  C   UNL     1      -3.927  -0.140  -5.134  1.00  0.00     0.197 A 
ATOM      4  O   UNL     1      -3.241   0.811  -5.591  1.00  0.00    -0.289 OA
ATOM      5  C   UNL     1      -5.273   0.030  -4.732  1.00  0.00     0.107 A 
ATOM      6  C   UNL     1      -5.966   1.279  -4.723  1.00  0.00     0.134 A 
ATOM      7  C   UNL     1      -7.333   1.307  -4.416  1.00  0.00     0.093 A 
ATOM      8  C   UNL     1      -8.015   0.145  -4.059  1.00  0.00     0.123 A 
ATOM      9  C   UNL     1      -7.335  -1.072  -4.012  1.00  0.00     0.094 A 
ATOM     10  C   UNL     1      -5.980  -1.140  -4.347  1.00  0.00     0.146 A 
ATOM     11  O   UNL     1      -5.372  -2.320  -4.304  1.00  0.00    -0.456 OA
ENDROOT
BRANCH   1  12
ATOM     12  C   UNL     1      -3.517  -3.862  -4.528  1.00  0.00     0.021 A 
ATOM     13  C   UNL     1      -4.360  -4.981  -4.652  1.00  0.00     0.016 A 
ATOM     14  C   UNL     1      -3.842  -6.275  -4.559  1.00  0.00     0.051 A 
ATOM     15  C   UNL     1      -2.475  -6.473  -4.329  1.00  0.00     0.157 A 
ATOM     16  C   UNL     1      -2.145  -4.070  -4.285  1.00  0.00     0.062 A 
ATOM     17  C   UNL     1      -1.626  -5.370  -4.189  1.00  0.00     0.158 A 
BRANCH  15  18
ATOM     18  O   UNL     1      -1.955  -7.763  -4.236  1.00  0.00    -0.504 OA
ATOM     19  H   UNL     1      -1.801  -8.209  -3.339  1.00  0.00     0.293 HD
ENDBRANCH  15  18
BRANCH  17  20
ATOM     20  O   UNL     1      -0.268  -5.571  -3.950  1.00  0.00    -0.504 OA
ATOM     21  H   UNL     1       0.066  -6.372  -3.426  1.00  0.00     0.293 HD
ENDBRANCH  17  20
ENDBRANCH   1  12
BRANCH   6  22
ATOM     22  O   UNL     1      -5.359   2.512  -4.981  1.00  0.00    -0.507 OA
ATOM     23  H   UNL     1      -4.563   2.648  -5.585  1.00  0.00     0.293 HD
ENDBRANCH   6  22
BRANCH   8  24
ATOM     24  O   UNL     1      -9.371   0.214  -3.745  1.00  0.00    -0.508 OA
ATOM     25  H   UNL     1      -9.714   0.815  -3.005  1.00  0.00     0.293 HD
ENDBRANCH   8  24
TORSDOF 5
ENDMDL
