MODEL 1
REMARK VINA RESULT:    -3.457      0.000      0.000
REMARK INTER + INTRA:          -3.675
REMARK INTER:                  -3.659
REMARK INTRA:                  -0.016
REMARK UNBOUND:                -0.016
REMARK SMILES O=C([O-])c1cccnc1
REMARK SMILES IDX 4 1 5 2 9 3 6 4 8 5 7 6 2 7 1 8 3 9
REMARK H PARENT
REMARK Flexibility Score: inf
ROOT
ATOM      1  C   UNL     1       6.225   0.577  31.854  1.00  0.00     0.016 A 
ATOM      2  C   UNL     1       5.106   0.195  32.613  1.00  0.00     0.013 A 
ATOM      3  C   UNL     1       6.187   0.383  30.462  1.00  0.00     0.120 A 
ATOM      4  C   UNL     1       3.990  -0.362  31.985  1.00  0.00     0.021 A 
ATOM      5  N   UNL     1       5.088  -0.161  29.876  1.00  0.00    -0.264 NA
ATOM      6  C   UNL     1       3.999  -0.534  30.600  1.00  0.00     0.111 A 
ENDROOT
BRANCH   1   7
ATOM      7  C   UNL     1       7.417   1.168  32.500  1.00  0.00     0.073 C 
ATOM      8  O   UNL     1       8.388   0.442  32.838  1.00  0.00    -0.545 OA
ATOM      9  O   UNL     1       7.480   2.536  32.743  1.00  0.00    -0.545 OA
ENDBRANCH   1   7
TORSDOF 1
ENDMDL
MODEL 2
REMARK VINA RESULT:    -3.279      1.867      2.263
REMARK INTER + INTRA:          -3.486
REMARK INTER:                  -3.470
REMARK INTRA:                  -0.016
REMARK UNBOUND:                -0.016
REMARK SMILES O=C([O-])c1cccnc1
REMARK SMILES IDX 4 1 5 2 9 3 6 4 8 5 7 6 2 7 1 8 3 9
REMARK H PARENT
REMARK Flexibility Score: inf
ROOT
ATOM      1  C   UNL     1       5.918  -0.154  32.184  1.00  0.00     0.016 A 
ATOM      2  C   UNL     1       4.552   0.027  31.907  1.00  0.00     0.013 A 
ATOM      3  C   UNL     1       6.319  -1.342  32.819  1.00  0.00     0.120 A 
ATOM      4  C   UNL     1       3.629  -0.959  32.259  1.00  0.00     0.021 A 
ATOM      5  N   UNL     1       5.399  -2.286  33.151  1.00  0.00    -0.264 NA
ATOM      6  C   UNL     1       4.076  -2.121  32.888  1.00  0.00     0.111 A 
ENDROOT
BRANCH   1   7
ATOM      7  C   UNL     1       6.913   0.878  31.818  1.00  0.00     0.073 C 
ATOM      8  O   UNL     1       7.072   1.898  32.539  1.00  0.00    -0.545 OA
ATOM      9  O   UNL     1       7.686   0.735  30.671  1.00  0.00    -0.545 OA
ENDBRANCH   1   7
TORSDOF 1
ENDMDL
MODEL 3
REMARK VINA RESULT:    -3.144      2.753      3.924
REMARK INTER + INTRA:          -3.344
REMARK INTER:                  -3.327
REMARK INTRA:                  -0.017
REMARK UNBOUND:                -0.016
REMARK SMILES O=C([O-])c1cccnc1
REMARK SMILES IDX 4 1 5 2 9 3 6 4 8 5 7 6 2 7 1 8 3 9
REMARK H PARENT
REMARK Flexibility Score: inf
ROOT
ATOM      1  C   UNL     1       6.552   0.349  32.318  1.00  0.00     0.016 A 
ATOM      2  C   UNL     1       7.126   1.625  32.447  1.00  0.00     0.013 A 
ATOM      3  C   UNL     1       7.310  -0.768  32.710  1.00  0.00     0.120 A 
ATOM      4  C   UNL     1       8.420   1.763  32.955  1.00  0.00     0.021 A 
ATOM      5  N   UNL     1       8.567  -0.606  33.201  1.00  0.00    -0.264 NA
ATOM      6  C   UNL     1       9.132   0.624  33.331  1.00  0.00     0.111 A 
ENDROOT
BRANCH   1   7
ATOM      7  C   UNL     1       5.184   0.181  31.783  1.00  0.00     0.073 C 
ATOM      8  O   UNL     1       4.229  -0.116  32.548  1.00  0.00    -0.545 OA
ATOM      9  O   UNL     1       4.933   0.348  30.425  1.00  0.00    -0.545 OA
ENDBRANCH   1   7
TORSDOF 1
ENDMDL
MODEL 4
REMARK VINA RESULT:    -3.082     16.365     17.128
REMARK INTER + INTRA:          -3.278
REMARK INTER:                  -3.254
REMARK INTRA:                  -0.024
REMARK UNBOUND:                -0.016
REMARK SMILES O=C([O-])c1cccnc1
REMARK SMILES IDX 4 1 5 2 9 3 6 4 8 5 7 6 2 7 1 8 3 9
REMARK H PARENT
REMARK Flexibility Score: inf
ROOT
ATOM      1  C   UNL     1      -0.507   6.539  45.780  1.00  0.00     0.016 A 
ATOM      2  C   UNL     1      -1.682   7.264  46.038  1.00  0.00     0.013 A 
ATOM      3  C   UNL     1       0.729   7.184  45.955  1.00  0.00     0.120 A 
ATOM      4  C   UNL     1      -1.606   8.594  46.459  1.00  0.00     0.021 A 
ATOM      5  N   UNL     1       0.775   8.479  46.365  1.00  0.00    -0.264 NA
ATOM      6  C   UNL     1      -0.355   9.191  46.618  1.00  0.00     0.111 A 
ENDROOT
BRANCH   1   7
ATOM      7  C   UNL     1      -0.565   5.130  45.334  1.00  0.00     0.073 C 
ATOM      8  O   UNL     1      -1.656   4.501  45.339  1.00  0.00    -0.545 OA
ATOM      9  O   UNL     1       0.586   4.479  44.903  1.00  0.00    -0.545 OA
ENDBRANCH   1   7
TORSDOF 1
ENDMDL
MODEL 5
REMARK VINA RESULT:    -3.019      3.434      4.154
REMARK INTER + INTRA:          -3.211
REMARK INTER:                  -3.193
REMARK INTRA:                  -0.018
REMARK UNBOUND:                -0.016
REMARK SMILES O=C([O-])c1cccnc1
REMARK SMILES IDX 4 1 5 2 9 3 6 4 8 5 7 6 2 7 1 8 3 9
REMARK H PARENT
REMARK Flexibility Score: inf
ROOT
ATOM      1  C   UNL     1       4.644  -1.891  33.117  1.00  0.00     0.016 A 
ATOM      2  C   UNL     1       3.795  -1.011  32.425  1.00  0.00     0.013 A 
ATOM      3  C   UNL     1       6.029  -1.797  32.895  1.00  0.00     0.120 A 
ATOM      4  C   UNL     1       4.329  -0.071  31.542  1.00  0.00     0.021 A 
ATOM      5  N   UNL     1       6.523  -0.873  32.029  1.00  0.00    -0.264 NA
ATOM      6  C   UNL     1       5.711  -0.016  31.355  1.00  0.00     0.111 A 
ENDROOT
BRANCH   1   7
ATOM      7  C   UNL     1       4.098  -2.894  34.057  1.00  0.00     0.073 C 
ATOM      8  O   UNL     1       3.285  -3.769  33.659  1.00  0.00    -0.545 OA
ATOM      9  O   UNL     1       4.475  -2.882  35.396  1.00  0.00    -0.545 OA
ENDBRANCH   1   7
TORSDOF 1
ENDMDL
MODEL 6
REMARK VINA RESULT:    -3.018     16.154     16.968
REMARK INTER + INTRA:          -3.210
REMARK INTER:                  -3.193
REMARK INTRA:                  -0.017
REMARK UNBOUND:                -0.016
REMARK SMILES O=C([O-])c1cccnc1
REMARK SMILES IDX 4 1 5 2 9 3 6 4 8 5 7 6 2 7 1 8 3 9
REMARK H PARENT
REMARK Flexibility Score: inf
ROOT
ATOM      1  C   UNL     1       0.078   3.360  46.886  1.00  0.00     0.016 A 
ATOM      2  C   UNL     1       0.338   2.037  46.492  1.00  0.00     0.013 A 
ATOM      3  C   UNL     1       0.348   3.727  48.216  1.00  0.00     0.120 A 
ATOM      4  C   UNL     1       0.854   1.121  47.411  1.00  0.00     0.021 A 
ATOM      5  N   UNL     1       0.850   2.816  49.091  1.00  0.00    -0.264 NA
ATOM      6  C   UNL     1       1.106   1.533  48.720  1.00  0.00     0.111 A 
ENDROOT
BRANCH   1   7
ATOM      7  C   UNL     1      -0.468   4.346  45.928  1.00  0.00     0.073 C 
ATOM      8  O   UNL     1       0.243   4.784  44.986  1.00  0.00    -0.545 OA
ATOM      9  O   UNL     1      -1.775   4.803  46.057  1.00  0.00    -0.545 OA
ENDBRANCH   1   7
TORSDOF 1
ENDMDL
MODEL 7
REMARK VINA RESULT:    -3.016      6.442      7.244
REMARK INTER + INTRA:          -3.208
REMARK INTER:                  -3.184
REMARK INTRA:                  -0.024
REMARK UNBOUND:                -0.016
REMARK SMILES O=C([O-])c1cccnc1
REMARK SMILES IDX 4 1 5 2 9 3 6 4 8 5 7 6 2 7 1 8 3 9
REMARK H PARENT
REMARK Flexibility Score: inf
ROOT
ATOM      1  C   UNL     1       2.707  -4.556  34.946  1.00  0.00     0.016 A 
ATOM      2  C   UNL     1       2.713  -5.336  36.114  1.00  0.00     0.013 A 
ATOM      3  C   UNL     1       1.731  -4.819  33.969  1.00  0.00     0.120 A 
ATOM      4  C   UNL     1       1.763  -6.345  36.286  1.00  0.00     0.021 A 
ATOM      5  N   UNL     1       0.818  -5.808  34.162  1.00  0.00    -0.264 NA
ATOM      6  C   UNL     1       0.814  -6.569  35.289  1.00  0.00     0.111 A 
ENDROOT
BRANCH   1   7
ATOM      7  C   UNL     1       3.704  -3.482  34.744  1.00  0.00     0.073 C 
ATOM      8  O   UNL     1       4.424  -3.088  35.699  1.00  0.00    -0.545 OA
ATOM      9  O   UNL     1       3.859  -2.891  33.494  1.00  0.00    -0.545 OA
ENDBRANCH   1   7
TORSDOF 1
ENDMDL
MODEL 8
REMARK VINA RESULT:    -3.010      9.449     10.646
REMARK INTER + INTRA:          -3.202
REMARK INTER:                  -3.185
REMARK INTRA:                  -0.017
REMARK UNBOUND:                -0.016
REMARK SMILES O=C([O-])c1cccnc1
REMARK SMILES IDX 4 1 5 2 9 3 6 4 8 5 7 6 2 7 1 8 3 9
REMARK H PARENT
REMARK Flexibility Score: inf
ROOT
ATOM      1  C   UNL     1       9.455   3.757  40.360  1.00  0.00     0.016 A 
ATOM      2  C   UNL     1       8.525   2.946  41.031  1.00  0.00     0.013 A 
ATOM      3  C   UNL     1      10.409   4.453  41.122  1.00  0.00     0.120 A 
ATOM      4  C   UNL     1       8.561   2.843  42.423  1.00  0.00     0.021 A 
ATOM      5  N   UNL     1      10.422   4.336  42.477  1.00  0.00    -0.264 NA
ATOM      6  C   UNL     1       9.527   3.553  43.137  1.00  0.00     0.111 A 
ENDROOT
BRANCH   1   7
ATOM      7  C   UNL     1       9.433   3.879  38.886  1.00  0.00     0.073 C 
ATOM      8  O   UNL     1       8.530   4.542  38.311  1.00  0.00    -0.545 OA
ATOM      9  O   UNL     1      10.412   3.262  38.114  1.00  0.00    -0.545 OA
ENDBRANCH   1   7
TORSDOF 1
ENDMDL
MODEL 9
REMARK VINA RESULT:    -3.005     16.110     16.841
REMARK INTER + INTRA:          -3.197
REMARK INTER:                  -3.175
REMARK INTRA:                  -0.022
REMARK UNBOUND:                -0.016
REMARK SMILES O=C([O-])c1cccnc1
REMARK SMILES IDX 4 1 5 2 9 3 6 4 8 5 7 6 2 7 1 8 3 9
REMARK H PARENT
REMARK Flexibility Score: inf
ROOT
ATOM      1  C   UNL     1      -0.245   3.731  46.744  1.00  0.00     0.016 A 
ATOM      2  C   UNL     1       0.293   4.204  45.535  1.00  0.00     0.013 A 
ATOM      3  C   UNL     1      -1.261   4.481  47.362  1.00  0.00     0.120 A 
ATOM      4  C   UNL     1      -0.182   5.390  44.973  1.00  0.00     0.021 A 
ATOM      5  N   UNL     1      -1.706   5.633  46.794  1.00  0.00    -0.264 NA
ATOM      6  C   UNL     1      -1.193   6.099  45.624  1.00  0.00     0.111 A 
ENDROOT
BRANCH   1   7
ATOM      7  C   UNL     1       0.244   2.477  47.356  1.00  0.00     0.073 C 
ATOM      8  O   UNL     1       0.677   1.539  46.636  1.00  0.00    -0.545 OA
ATOM      9  O   UNL     1       0.231   2.315  48.738  1.00  0.00    -0.545 OA
ENDBRANCH   1   7
TORSDOF 1
ENDMDL
