MODEL 1
REMARK VINA RESULT:    -4.646      0.000      0.000
REMARK INTER + INTRA:          -8.846
REMARK INTER:                  -7.905
REMARK INTRA:                  -0.941
REMARK UNBOUND:                -0.941
REMARK SMILES CCCCCCCCCCCCCC(=O)[O-]
REMARK SMILES IDX 8 1 9 2 10 3 11 4 12 5 13 6 14 7 15 8 16 9 7 10 6 11 5 12
REMARK SMILES IDX 4 13 3 14 2 15 1 16
REMARK H PARENT
REMARK Flexibility Score: inf
ROOT
ATOM      1  C   UNL     1      -9.761   5.569   6.611  1.00  0.00     0.000 C 
ENDROOT
BRANCH   1   2
ATOM      2  C   UNL     1      -9.885   6.041   5.155  1.00  0.00     0.000 C 
BRANCH   2   3
ATOM      3  C   UNL     1      -9.790   7.570   5.010  1.00  0.00     0.000 C 
BRANCH   3   4
ATOM      4  C   UNL     1      -8.656   8.235   5.818  1.00  0.00     0.000 C 
BRANCH   4   5
ATOM      5  C   UNL     1      -8.110   9.543   5.218  1.00  0.00     0.006 C 
BRANCH   5   6
ATOM      6  C   UNL     1      -6.883  10.076   5.968  1.00  0.00     0.053 C 
BRANCH   6   7
ATOM      7  C   UNL     1      -7.291  11.116   6.963  1.00  0.00     0.041 C 
ATOM      8  O   UNL     1      -8.498  11.469   7.051  1.00  0.00    -0.550 OA
ATOM      9  O   UNL     1      -6.350  11.660   7.826  1.00  0.00    -0.550 OA
ENDBRANCH   6   7
ENDBRANCH   5   6
ENDBRANCH   4   5
ENDBRANCH   3   4
ENDBRANCH   2   3
ENDBRANCH   1   2
BRANCH   1  10
ATOM     10  C   UNL     1     -11.144   5.399   7.251  1.00  0.00     0.000 C 
BRANCH  10  11
ATOM     11  C   UNL     1     -11.125   4.299   8.319  1.00  0.00    -0.000 C 
BRANCH  11  12
ATOM     12  C   UNL     1     -11.677   2.981   7.762  1.00  0.00    -0.000 C 
BRANCH  12  13
ATOM     13  C   UNL     1     -12.714   3.239   6.659  1.00  0.00    -0.000 C 
BRANCH  13  14
ATOM     14  C   UNL     1     -12.148   2.966   5.250  1.00  0.00    -0.000 C 
BRANCH  14  15
ATOM     15  C   UNL     1     -12.828   3.788   4.143  1.00  0.00    -0.003 C 
ATOM     16  C   UNL     1     -13.638   4.965   4.683  1.00  0.00     0.004 C 
ENDBRANCH  14  15
ENDBRANCH  13  14
ENDBRANCH  12  13
ENDBRANCH  11  12
ENDBRANCH  10  11
ENDBRANCH   1  10
TORSDOF 12
ENDMDL
MODEL 2
REMARK VINA RESULT:    -4.622      1.519      2.987
REMARK INTER + INTRA:          -8.806
REMARK INTER:                  -7.122
REMARK INTRA:                  -1.684
REMARK UNBOUND:                -0.941
REMARK SMILES CCCCCCCCCCCCCC(=O)[O-]
REMARK SMILES IDX 8 1 9 2 10 3 11 4 12 5 13 6 14 7 15 8 16 9 7 10 6 11 5 12
REMARK SMILES IDX 4 13 3 14 2 15 1 16
REMARK H PARENT
REMARK Flexibility Score: inf
ROOT
ATOM      1  C   UNL     1     -11.695   4.130   7.735  1.00  0.00     0.000 C 
ENDROOT
BRANCH   1   2
ATOM      2  C   UNL     1     -10.660   5.261   7.661  1.00  0.00     0.000 C 
BRANCH   2   3
ATOM      3  C   UNL     1      -9.748   5.159   6.426  1.00  0.00     0.000 C 
BRANCH   3   4
ATOM      4  C   UNL     1     -10.162   6.046   5.232  1.00  0.00     0.000 C 
BRANCH   4   5
ATOM      5  C   UNL     1     -10.195   7.557   5.524  1.00  0.00     0.006 C 
BRANCH   5   6
ATOM      6  C   UNL     1      -9.270   8.362   4.603  1.00  0.00     0.053 C 
BRANCH   6   7
ATOM      7  C   UNL     1      -8.303   9.169   5.410  1.00  0.00     0.041 C 
ATOM      8  O   UNL     1      -8.201   8.980   6.651  1.00  0.00    -0.550 OA
ATOM      9  O   UNL     1      -7.478  10.095   4.785  1.00  0.00    -0.550 OA
ENDBRANCH   6   7
ENDBRANCH   5   6
ENDBRANCH   4   5
ENDBRANCH   3   4
ENDBRANCH   2   3
ENDBRANCH   1   2
BRANCH   1  10
ATOM     10  C   UNL     1     -11.263   2.935   6.878  1.00  0.00     0.000 C 
BRANCH  10  11
ATOM     11  C   UNL     1     -12.235   2.711   5.714  1.00  0.00    -0.000 C 
BRANCH  11  12
ATOM     12  C   UNL     1     -13.372   3.741   5.738  1.00  0.00    -0.000 C 
BRANCH  12  13
ATOM     13  C   UNL     1     -13.455   4.500   4.405  1.00  0.00    -0.000 C 
BRANCH  13  14
ATOM     14  C   UNL     1     -14.252   5.816   4.533  1.00  0.00    -0.000 C 
BRANCH  14  15
ATOM     15  C   UNL     1     -13.800   6.699   5.707  1.00  0.00    -0.003 C 
ATOM     16  C   UNL     1     -13.873   8.192   5.395  1.00  0.00     0.004 C 
ENDBRANCH  14  15
ENDBRANCH  13  14
ENDBRANCH  12  13
ENDBRANCH  11  12
ENDBRANCH  10  11
ENDBRANCH   1  10
TORSDOF 12
ENDMDL
MODEL 3
REMARK VINA RESULT:    -4.613      3.565      7.486
REMARK INTER + INTRA:          -8.790
REMARK INTER:                  -7.876
REMARK INTRA:                  -0.914
REMARK UNBOUND:                -0.941
REMARK SMILES CCCCCCCCCCCCCC(=O)[O-]
REMARK SMILES IDX 8 1 9 2 10 3 11 4 12 5 13 6 14 7 15 8 16 9 7 10 6 11 5 12
REMARK SMILES IDX 4 13 3 14 2 15 1 16
REMARK H PARENT
REMARK Flexibility Score: inf
ROOT
ATOM      1  C   UNL     1      -9.911   6.228   5.130  1.00  0.00     0.000 C 
ENDROOT
BRANCH   1   2
ATOM      2  C   UNL     1      -9.666   5.564   6.493  1.00  0.00     0.000 C 
BRANCH   2   3
ATOM      3  C   UNL     1     -10.970   5.229   7.238  1.00  0.00     0.000 C 
BRANCH   3   4
ATOM      4  C   UNL     1     -11.160   3.739   7.589  1.00  0.00     0.000 C 
BRANCH   4   5
ATOM      5  C   UNL     1     -12.214   3.000   6.745  1.00  0.00     0.006 C 
BRANCH   5   6
ATOM      6  C   UNL     1     -13.116   3.953   5.950  1.00  0.00     0.053 C 
BRANCH   6   7
ATOM      7  C   UNL     1     -12.800   3.873   4.491  1.00  0.00     0.041 C 
ATOM      8  O   UNL     1     -13.597   4.357   3.642  1.00  0.00    -0.550 OA
ATOM      9  O   UNL     1     -11.603   3.311   4.067  1.00  0.00    -0.550 OA
ENDBRANCH   6   7
ENDBRANCH   5   6
ENDBRANCH   4   5
ENDBRANCH   3   4
ENDBRANCH   2   3
ENDBRANCH   1   2
BRANCH   1  10
ATOM     10  C   UNL     1      -9.855   7.755   5.247  1.00  0.00     0.000 C 
BRANCH  10  11
ATOM     11  C   UNL     1      -8.595   8.206   5.994  1.00  0.00    -0.000 C 
BRANCH  11  12
ATOM     12  C   UNL     1      -7.896   9.354   5.256  1.00  0.00    -0.000 C 
BRANCH  12  13
ATOM     13  C   UNL     1      -7.000  10.159   6.209  1.00  0.00    -0.000 C 
BRANCH  13  14
ATOM     14  C   UNL     1      -7.814  10.879   7.305  1.00  0.00    -0.000 C 
BRANCH  14  15
ATOM     15  C   UNL     1      -8.910  11.804   6.752  1.00  0.00    -0.003 C 
ATOM     16  C   UNL     1     -10.079  11.991   7.716  1.00  0.00     0.004 C 
ENDBRANCH  14  15
ENDBRANCH  13  14
ENDBRANCH  12  13
ENDBRANCH  11  12
ENDBRANCH  10  11
ENDBRANCH   1  10
TORSDOF 12
ENDMDL
MODEL 4
REMARK VINA RESULT:    -4.561      1.166      2.581
REMARK INTER + INTRA:          -8.702
REMARK INTER:                  -7.526
REMARK INTRA:                  -1.176
REMARK UNBOUND:                -0.941
REMARK SMILES CCCCCCCCCCCCCC(=O)[O-]
REMARK SMILES IDX 8 1 9 2 10 3 11 4 12 5 13 6 14 7 15 8 16 9 7 10 6 11 5 12
REMARK SMILES IDX 4 13 3 14 2 15 1 16
REMARK H PARENT
REMARK Flexibility Score: inf
ROOT
ATOM      1  C   UNL     1     -11.675   6.662   5.800  1.00  0.00     0.000 C 
ENDROOT
BRANCH   1   2
ATOM      2  C   UNL     1     -10.197   6.246   5.788  1.00  0.00     0.000 C 
BRANCH   2   3
ATOM      3  C   UNL     1      -9.361   7.037   4.767  1.00  0.00     0.000 C 
BRANCH   3   4
ATOM      4  C   UNL     1      -9.419   8.571   4.922  1.00  0.00     0.000 C 
BRANCH   4   5
ATOM      5  C   UNL     1      -8.669   9.132   6.143  1.00  0.00     0.006 C 
BRANCH   5   6
ATOM      6  C   UNL     1      -7.153   9.215   5.925  1.00  0.00     0.053 C 
BRANCH   6   7
ATOM      7  C   UNL     1      -6.635  10.546   6.365  1.00  0.00     0.041 C 
ATOM      8  O   UNL     1      -5.487  10.929   6.012  1.00  0.00    -0.550 OA
ATOM      9  O   UNL     1      -7.436  11.388   7.125  1.00  0.00    -0.550 OA
ENDBRANCH   6   7
ENDBRANCH   5   6
ENDBRANCH   4   5
ENDBRANCH   3   4
ENDBRANCH   2   3
ENDBRANCH   1   2
BRANCH   1  10
ATOM     10  C   UNL     1     -12.589   5.448   5.598  1.00  0.00     0.000 C 
BRANCH  10  11
ATOM     11  C   UNL     1     -11.820   4.278   4.973  1.00  0.00    -0.000 C 
BRANCH  11  12
ATOM     12  C   UNL     1     -12.265   2.940   5.577  1.00  0.00    -0.000 C 
BRANCH  12  13
ATOM     13  C   UNL     1     -12.880   3.141   6.970  1.00  0.00    -0.000 C 
BRANCH  13  14
ATOM     14  C   UNL     1     -11.954   2.636   8.096  1.00  0.00    -0.000 C 
BRANCH  14  15
ATOM     15  C   UNL     1     -11.911   3.563   9.321  1.00  0.00    -0.003 C 
ATOM     16  C   UNL     1     -11.152   4.863   9.062  1.00  0.00     0.004 C 
ENDBRANCH  14  15
ENDBRANCH  13  14
ENDBRANCH  12  13
ENDBRANCH  11  12
ENDBRANCH  10  11
ENDBRANCH   1  10
TORSDOF 12
ENDMDL
MODEL 5
REMARK VINA RESULT:    -4.501      3.625      7.135
REMARK INTER + INTRA:          -8.600
REMARK INTER:                  -7.273
REMARK INTRA:                  -1.327
REMARK UNBOUND:                -0.941
REMARK SMILES CCCCCCCCCCCCCC(=O)[O-]
REMARK SMILES IDX 8 1 9 2 10 3 11 4 12 5 13 6 14 7 15 8 16 9 7 10 6 11 5 12
REMARK SMILES IDX 4 13 3 14 2 15 1 16
REMARK H PARENT
REMARK Flexibility Score: inf
ROOT
ATOM      1  C   UNL     1      -9.344   7.453   4.890  1.00  0.00     0.000 C 
ENDROOT
BRANCH   1   2
ATOM      2  C   UNL     1     -10.414   6.583   5.565  1.00  0.00     0.000 C 
BRANCH   2   3
ATOM      3  C   UNL     1      -9.814   5.460   6.429  1.00  0.00     0.000 C 
BRANCH   3   4
ATOM      4  C   UNL     1     -10.794   4.805   7.425  1.00  0.00     0.000 C 
BRANCH   4   5
ATOM      5  C   UNL     1     -11.270   3.393   7.038  1.00  0.00     0.006 C 
BRANCH   5   6
ATOM      6  C   UNL     1     -12.721   3.369   6.542  1.00  0.00     0.053 C 
BRANCH   6   7
ATOM      7  C   UNL     1     -12.784   3.737   5.094  1.00  0.00     0.041 C 
ATOM      8  O   UNL     1     -13.717   4.468   4.666  1.00  0.00    -0.550 OA
ATOM      9  O   UNL     1     -11.786   3.316   4.225  1.00  0.00    -0.550 OA
ENDBRANCH   6   7
ENDBRANCH   5   6
ENDBRANCH   4   5
ENDBRANCH   3   4
ENDBRANCH   2   3
ENDBRANCH   1   2
BRANCH   1  10
ATOM     10  C   UNL     1      -8.640   8.350   5.914  1.00  0.00     0.000 C 
BRANCH  10  11
ATOM     11  C   UNL     1      -7.962   9.542   5.230  1.00  0.00    -0.000 C 
BRANCH  11  12
ATOM     12  C   UNL     1      -8.103  10.816   6.073  1.00  0.00    -0.000 C 
BRANCH  12  13
ATOM     13  C   UNL     1      -9.579  11.205   6.241  1.00  0.00    -0.000 C 
BRANCH  13  14
ATOM     14  C   UNL     1     -10.251  11.543   4.893  1.00  0.00    -0.000 C 
BRANCH  14  15
ATOM     15  C   UNL     1     -11.425  10.617   4.540  1.00  0.00    -0.003 C 
ATOM     16  C   UNL     1     -12.067   9.970   5.766  1.00  0.00     0.004 C 
ENDBRANCH  14  15
ENDBRANCH  13  14
ENDBRANCH  12  13
ENDBRANCH  11  12
ENDBRANCH  10  11
ENDBRANCH   1  10
TORSDOF 12
ENDMDL
MODEL 6
REMARK VINA RESULT:    -4.425      3.327      5.048
REMARK INTER + INTRA:          -8.471
REMARK INTER:                  -6.616
REMARK INTRA:                  -1.854
REMARK UNBOUND:                -0.941
REMARK SMILES CCCCCCCCCCCCCC(=O)[O-]
REMARK SMILES IDX 8 1 9 2 10 3 11 4 12 5 13 6 14 7 15 8 16 9 7 10 6 11 5 12
REMARK SMILES IDX 4 13 3 14 2 15 1 16
REMARK H PARENT
REMARK Flexibility Score: inf
ROOT
ATOM      1  C   UNL     1     -12.481   3.303   4.835  1.00  0.00     0.000 C 
ENDROOT
BRANCH   1   2
ATOM      2  C   UNL     1     -13.332   4.495   4.373  1.00  0.00     0.000 C 
BRANCH   2   3
ATOM      3  C   UNL     1     -13.878   5.330   5.545  1.00  0.00     0.000 C 
BRANCH   3   4
ATOM      4  C   UNL     1     -14.088   6.828   5.240  1.00  0.00     0.000 C 
BRANCH   4   5
ATOM      5  C   UNL     1     -13.278   7.792   6.125  1.00  0.00     0.006 C 
BRANCH   5   6
ATOM      6  C   UNL     1     -12.844   9.061   5.381  1.00  0.00     0.053 C 
BRANCH   6   7
ATOM      7  C   UNL     1     -14.024   9.714   4.733  1.00  0.00     0.041 C 
ATOM      8  O   UNL     1     -14.106   9.773   3.477  1.00  0.00    -0.550 OA
ATOM      9  O   UNL     1     -15.058  10.215   5.514  1.00  0.00    -0.550 OA
ENDBRANCH   6   7
ENDBRANCH   5   6
ENDBRANCH   4   5
ENDBRANCH   3   4
ENDBRANCH   2   3
ENDBRANCH   1   2
BRANCH   1  10
ATOM     10  C   UNL     1     -12.669   3.043   6.334  1.00  0.00     0.000 C 
BRANCH  10  11
ATOM     11  C   UNL     1     -11.317   2.936   7.048  1.00  0.00    -0.000 C 
BRANCH  11  12
ATOM     12  C   UNL     1     -11.194   3.988   8.157  1.00  0.00    -0.000 C 
BRANCH  12  13
ATOM     13  C   UNL     1     -10.940   5.384   7.568  1.00  0.00    -0.000 C 
BRANCH  13  14
ATOM     14  C   UNL     1      -9.779   5.385   6.551  1.00  0.00    -0.000 C 
BRANCH  14  15
ATOM     15  C   UNL     1     -10.125   6.073   5.221  1.00  0.00    -0.003 C 
ATOM     16  C   UNL     1      -9.374   7.387   5.014  1.00  0.00     0.004 C 
ENDBRANCH  14  15
ENDBRANCH  13  14
ENDBRANCH  12  13
ENDBRANCH  11  12
ENDBRANCH  10  11
ENDBRANCH   1  10
TORSDOF 12
ENDMDL
MODEL 7
REMARK VINA RESULT:    -4.412      1.320      2.585
REMARK INTER + INTRA:          -8.448
REMARK INTER:                  -7.581
REMARK INTRA:                  -0.867
REMARK UNBOUND:                -0.941
REMARK SMILES CCCCCCCCCCCCCC(=O)[O-]
REMARK SMILES IDX 8 1 9 2 10 3 11 4 12 5 13 6 14 7 15 8 16 9 7 10 6 11 5 12
REMARK SMILES IDX 4 13 3 14 2 15 1 16
REMARK H PARENT
REMARK Flexibility Score: inf
ROOT
ATOM      1  C   UNL     1      -9.174   6.986   6.246  1.00  0.00     0.000 C 
ENDROOT
BRANCH   1   2
ATOM      2  C   UNL     1      -9.483   7.641   4.892  1.00  0.00     0.000 C 
BRANCH   2   3
ATOM      3  C   UNL     1     -10.112   9.038   5.032  1.00  0.00     0.000 C 
BRANCH   3   4
ATOM      4  C   UNL     1      -9.202  10.104   5.677  1.00  0.00     0.000 C 
BRANCH   4   5
ATOM      5  C   UNL     1      -7.797  10.221   5.059  1.00  0.00     0.006 C 
BRANCH   5   6
ATOM      6  C   UNL     1      -6.690   9.727   5.999  1.00  0.00     0.053 C 
BRANCH   6   7
ATOM      7  C   UNL     1      -5.757  10.846   6.340  1.00  0.00     0.041 C 
ATOM      8  O   UNL     1      -4.764  11.090   5.604  1.00  0.00    -0.550 OA
ATOM      9  O   UNL     1      -6.011  11.652   7.441  1.00  0.00    -0.550 OA
ENDBRANCH   6   7
ENDBRANCH   5   6
ENDBRANCH   4   5
ENDBRANCH   3   4
ENDBRANCH   2   3
ENDBRANCH   1   2
BRANCH   1  10
ATOM     10  C   UNL     1      -9.781   5.580   6.327  1.00  0.00     0.000 C 
BRANCH  10  11
ATOM     11  C   UNL     1     -10.120   5.046   4.931  1.00  0.00    -0.000 C 
BRANCH  11  12
ATOM     12  C   UNL     1     -11.531   4.445   4.898  1.00  0.00    -0.000 C 
BRANCH  12  13
ATOM     13  C   UNL     1     -12.365   4.931   6.093  1.00  0.00    -0.000 C 
BRANCH  13  14
ATOM     14  C   UNL     1     -12.868   3.762   6.967  1.00  0.00    -0.000 C 
BRANCH  14  15
ATOM     15  C   UNL     1     -11.745   3.023   7.713  1.00  0.00    -0.003 C 
ATOM     16  C   UNL     1     -12.201   2.427   9.043  1.00  0.00     0.004 C 
ENDBRANCH  14  15
ENDBRANCH  13  14
ENDBRANCH  12  13
ENDBRANCH  11  12
ENDBRANCH  10  11
ENDBRANCH   1  10
TORSDOF 12
ENDMDL
MODEL 8
REMARK VINA RESULT:    -4.380      3.306      7.213
REMARK INTER + INTRA:          -8.393
REMARK INTER:                  -7.278
REMARK INTRA:                  -1.115
REMARK UNBOUND:                -0.941
REMARK SMILES CCCCCCCCCCCCCC(=O)[O-]
REMARK SMILES IDX 8 1 9 2 10 3 11 4 12 5 13 6 14 7 15 8 16 9 7 10 6 11 5 12
REMARK SMILES IDX 4 13 3 14 2 15 1 16
REMARK H PARENT
REMARK Flexibility Score: inf
ROOT
ATOM      1  C   UNL     1      -9.378   7.795   4.909  1.00  0.00     0.000 C 
ENDROOT
BRANCH   1   2
ATOM      2  C   UNL     1     -10.134   6.633   5.568  1.00  0.00     0.000 C 
BRANCH   2   3
ATOM      3  C   UNL     1      -9.957   5.301   4.817  1.00  0.00     0.000 C 
BRANCH   3   4
ATOM      4  C   UNL     1     -11.201   4.388   4.801  1.00  0.00     0.000 C 
BRANCH   4   5
ATOM      5  C   UNL     1     -12.449   4.975   5.485  1.00  0.00     0.006 C 
BRANCH   5   6
ATOM      6  C   UNL     1     -13.019   4.057   6.573  1.00  0.00     0.053 C 
BRANCH   6   7
ATOM      7  C   UNL     1     -12.045   3.914   7.698  1.00  0.00     0.041 C 
ATOM      8  O   UNL     1     -11.602   2.776   8.013  1.00  0.00    -0.550 OA
ATOM      9  O   UNL     1     -11.586   5.040   8.368  1.00  0.00    -0.550 OA
ENDBRANCH   6   7
ENDBRANCH   5   6
ENDBRANCH   4   5
ENDBRANCH   3   4
ENDBRANCH   2   3
ENDBRANCH   1   2
BRANCH   1  10
ATOM     10  C   UNL     1      -8.539   8.559   5.940  1.00  0.00     0.000 C 
BRANCH  10  11
ATOM     11  C   UNL     1      -7.742   9.687   5.276  1.00  0.00    -0.000 C 
BRANCH  11  12
ATOM     12  C   UNL     1      -7.008  10.534   6.323  1.00  0.00    -0.000 C 
BRANCH  12  13
ATOM     13  C   UNL     1      -7.946  10.922   7.476  1.00  0.00    -0.000 C 
BRANCH  13  14
ATOM     14  C   UNL     1      -8.970  11.998   7.057  1.00  0.00    -0.000 C 
BRANCH  14  15
ATOM     15  C   UNL     1     -10.433  11.557   7.231  1.00  0.00    -0.003 C 
ATOM     16  C   UNL     1     -11.133  11.270   5.904  1.00  0.00     0.004 C 
ENDBRANCH  14  15
ENDBRANCH  13  14
ENDBRANCH  12  13
ENDBRANCH  11  12
ENDBRANCH  10  11
ENDBRANCH   1  10
TORSDOF 12
ENDMDL
MODEL 9
REMARK VINA RESULT:    -4.341      2.454      4.302
REMARK INTER + INTRA:          -8.327
REMARK INTER:                  -6.720
REMARK INTRA:                  -1.607
REMARK UNBOUND:                -0.941
REMARK SMILES CCCCCCCCCCCCCC(=O)[O-]
REMARK SMILES IDX 8 1 9 2 10 3 11 4 12 5 13 6 14 7 15 8 16 9 7 10 6 11 5 12
REMARK SMILES IDX 4 13 3 14 2 15 1 16
REMARK H PARENT
REMARK Flexibility Score: inf
ROOT
ATOM      1  C   UNL     1     -13.480   4.598   4.328  1.00  0.00     0.000 C 
ENDROOT
BRANCH   1   2
ATOM      2  C   UNL     1     -13.860   5.565   5.459  1.00  0.00     0.000 C 
BRANCH   2   3
ATOM      3  C   UNL     1     -14.857   6.648   5.010  1.00  0.00     0.000 C 
BRANCH   3   4
ATOM      4  C   UNL     1     -14.316   8.092   5.049  1.00  0.00     0.000 C 
BRANCH   4   5
ATOM      5  C   UNL     1     -13.085   8.303   5.950  1.00  0.00     0.006 C 
BRANCH   5   6
ATOM      6  C   UNL     1     -12.836   9.780   6.281  1.00  0.00     0.053 C 
BRANCH   6   7
ATOM      7  C   UNL     1     -11.618  10.276   5.569  1.00  0.00     0.041 C 
ATOM      8  O   UNL     1     -10.627  10.695   6.224  1.00  0.00    -0.550 OA
ATOM      9  O   UNL     1     -11.556  10.230   4.182  1.00  0.00    -0.550 OA
ENDBRANCH   6   7
ENDBRANCH   5   6
ENDBRANCH   4   5
ENDBRANCH   3   4
ENDBRANCH   2   3
ENDBRANCH   1   2
BRANCH   1  10
ATOM     10  C   UNL     1     -12.683   3.406   4.871  1.00  0.00     0.000 C 
BRANCH  10  11
ATOM     11  C   UNL     1     -12.839   3.285   6.391  1.00  0.00    -0.000 C 
BRANCH  11  12
ATOM     12  C   UNL     1     -11.504   2.927   7.056  1.00  0.00    -0.000 C 
BRANCH  12  13
ATOM     13  C   UNL     1     -11.102   3.988   8.091  1.00  0.00    -0.000 C 
BRANCH  13  14
ATOM     14  C   UNL     1     -10.798   5.354   7.440  1.00  0.00    -0.000 C 
BRANCH  14  15
ATOM     15  C   UNL     1      -9.722   5.288   6.344  1.00  0.00    -0.003 C 
ATOM     16  C   UNL     1     -10.065   6.130   5.117  1.00  0.00     0.004 C 
ENDBRANCH  14  15
ENDBRANCH  13  14
ENDBRANCH  12  13
ENDBRANCH  11  12
ENDBRANCH  10  11
ENDBRANCH   1  10
TORSDOF 12
ENDMDL
