MODEL 1
REMARK VINA RESULT:    -7.693      0.000      0.000
REMARK INTER + INTRA:          -7.918
REMARK INTER:                  -7.918
REMARK INTRA:                   0.000
REMARK UNBOUND:                 0.000
REMARK SMILES C[C@@H]1CC[C@]2(OC1)O[C@H]1C[C@@H]3[C@@H]4CC=C5C[C@H](O)CC[C@@]5(C)[C@H]4CC[C@]3(C)[C@H]1[C@H]2C
REMARK SMILES IDX 1 1 2 2 3 3 4 4 5 5 29 6 28 7 9 8 8 9 10 10 11 11 26 12
REMARK SMILES IDX 25 13 24 14 23 15 12 16 13 17 14 18 15 19 21 20 20 21 19 22
REMARK SMILES IDX 17 23 16 24 22 25 27 26 30 27 6 28 7 29 18 30
REMARK H PARENT 18 31
REMARK Flexibility Score: inf
ROOT
ATOM      1  C   UNL     1       9.876   2.699 -15.990  1.00  0.00     0.010 C 
ATOM      2  C   UNL     1      11.239   2.973 -15.337  1.00  0.00     0.012 C 
ATOM      3  C   UNL     1      11.690   4.428 -15.537  1.00  0.00     0.011 C 
ATOM      4  C   UNL     1      12.171   4.674 -16.970  1.00  0.00     0.066 C 
ATOM      5  C   UNL     1      13.192   3.586 -17.414  1.00  0.00     0.171 C 
ATOM      6  C   UNL     1      13.606   3.793 -18.891  1.00  0.00     0.052 C 
ATOM      7  C   UNL     1      14.702   4.867 -18.736  1.00  0.00     0.033 C 
ATOM      8  C   UNL     1      15.247   4.580 -17.345  1.00  0.00     0.126 C 
ATOM      9  O   UNL     1      14.384   3.697 -16.658  1.00  0.00    -0.346 OA
ATOM     10  C   UNL     1      16.643   3.970 -17.535  1.00  0.00     0.037 C 
ATOM     11  C   UNL     1      16.932   3.949 -19.053  1.00  0.00     0.002 C 
ATOM     12  C   UNL     1      15.952   4.977 -19.663  1.00  0.00    -0.024 C 
ATOM     13  C   UNL     1      16.536   6.421 -19.501  1.00  0.00     0.008 C 
ATOM     14  C   UNL     1      17.970   6.561 -20.020  1.00  0.00     0.005 C 
ATOM     15  C   UNL     1      18.935   5.587 -19.304  1.00  0.00     0.003 C 
ATOM     16  C   UNL     1      18.427   4.139 -19.464  1.00  0.00     0.000 C 
ATOM     17  C   UNL     1      19.332   3.186 -18.670  1.00  0.00     0.031 C 
ATOM     18  C   UNL     1      20.761   3.324 -19.081  1.00  0.00    -0.027 C 
ATOM     19  C   UNL     1      21.295   4.491 -19.495  1.00  0.00    -0.065 C 
ATOM     20  C   UNL     1      20.454   5.757 -19.752  1.00  0.00    -0.008 C 
ATOM     21  C   UNL     1      20.577   6.075 -21.279  1.00  0.00     0.014 C 
ATOM     22  C   UNL     1      22.024   6.079 -21.814  1.00  0.00     0.033 C 
ATOM     23  C   UNL     1      22.762   4.770 -21.481  1.00  0.00     0.118 C 
ATOM     24  C   UNL     1      22.734   4.488 -19.972  1.00  0.00     0.063 C 
ATOM     25  C   UNL     1      21.053   6.926 -18.927  1.00  0.00     0.016 C 
ATOM     26  C   UNL     1      15.627   4.718 -21.162  1.00  0.00     0.012 C 
ATOM     27  C   UNL     1      14.022   2.446 -19.523  1.00  0.00     0.014 C 
ATOM     28  O   UNL     1      12.612   2.295 -17.242  1.00  0.00    -0.349 OA
ATOM     29  C   UNL     1      12.318   2.023 -15.881  1.00  0.00     0.167 C 
ENDROOT
BRANCH  23  30
ATOM     30  O   UNL     1      24.086   4.812 -21.954  1.00  0.00    -0.393 OA
ATOM     31  H   UNL     1      24.626   5.318 -21.293  1.00  0.00     0.210 HD
ENDBRANCH  23  30
TORSDOF 1
ENDMDL
MODEL 2
REMARK VINA RESULT:    -7.042      1.760      8.712
REMARK INTER + INTRA:          -7.248
REMARK INTER:                  -7.248
REMARK INTRA:                   0.000
REMARK UNBOUND:                 0.000
REMARK SMILES C[C@@H]1CC[C@]2(OC1)O[C@H]1C[C@@H]3[C@@H]4CC=C5C[C@H](O)CC[C@@]5(C)[C@H]4CC[C@]3(C)[C@H]1[C@H]2C
REMARK SMILES IDX 1 1 2 2 3 3 4 4 5 5 29 6 28 7 9 8 8 9 10 10 11 11 26 12
REMARK SMILES IDX 25 13 24 14 23 15 12 16 13 17 14 18 15 19 21 20 20 21 19 22
REMARK SMILES IDX 17 23 16 24 22 25 27 26 30 27 6 28 7 29 18 30
REMARK H PARENT 18 31
REMARK Flexibility Score: inf
ROOT
ATOM      1  C   UNL     1      24.000   5.752 -21.793  1.00  0.00     0.010 C 
ATOM      2  C   UNL     1      23.376   4.608 -20.981  1.00  0.00     0.012 C 
ATOM      3  C   UNL     1      22.281   3.874 -21.770  1.00  0.00     0.011 C 
ATOM      4  C   UNL     1      20.996   4.703 -21.849  1.00  0.00     0.066 C 
ATOM      5  C   UNL     1      20.577   5.226 -20.444  1.00  0.00     0.171 C 
ATOM      6  C   UNL     1      19.328   6.134 -20.547  1.00  0.00     0.052 C 
ATOM      7  C   UNL     1      18.205   5.077 -20.573  1.00  0.00     0.033 C 
ATOM      8  C   UNL     1      18.817   3.930 -19.785  1.00  0.00     0.126 C 
ATOM      9  O   UNL     1      20.203   4.144 -19.612  1.00  0.00    -0.346 OA
ATOM     10  C   UNL     1      18.083   3.877 -18.437  1.00  0.00     0.037 C 
ATOM     11  C   UNL     1      16.996   4.977 -18.464  1.00  0.00     0.002 C 
ATOM     12  C   UNL     1      16.786   5.298 -19.961  1.00  0.00    -0.024 C 
ATOM     13  C   UNL     1      15.827   4.237 -20.597  1.00  0.00     0.008 C 
ATOM     14  C   UNL     1      14.519   4.055 -19.821  1.00  0.00     0.005 C 
ATOM     15  C   UNL     1      14.777   3.629 -18.356  1.00  0.00     0.003 C 
ATOM     16  C   UNL     1      15.691   4.663 -17.667  1.00  0.00     0.000 C 
ATOM     17  C   UNL     1      16.025   4.187 -16.246  1.00  0.00     0.031 C 
ATOM     18  C   UNL     1      14.786   3.923 -15.455  1.00  0.00    -0.027 C 
ATOM     19  C   UNL     1      13.644   3.471 -16.011  1.00  0.00    -0.065 C 
ATOM     20  C   UNL     1      13.443   3.345 -17.535  1.00  0.00    -0.008 C 
ATOM     21  C   UNL     1      12.300   4.343 -17.920  1.00  0.00     0.014 C 
ATOM     22  C   UNL     1      11.038   4.236 -17.040  1.00  0.00     0.033 C 
ATOM     23  C   UNL     1      11.371   4.361 -15.542  1.00  0.00     0.118 C 
ATOM     24  C   UNL     1      12.425   3.326 -15.122  1.00  0.00     0.063 C 
ATOM     25  C   UNL     1      12.998   1.894 -17.858  1.00  0.00     0.016 C 
ATOM     26  C   UNL     1      16.223   6.725 -20.221  1.00  0.00     0.012 C 
ATOM     27  C   UNL     1      19.312   7.154 -19.386  1.00  0.00     0.014 C 
ATOM     28  O   UNL     1      21.663   5.947 -19.865  1.00  0.00    -0.349 OA
ATOM     29  C   UNL     1      22.795   5.119 -19.653  1.00  0.00     0.167 C 
ENDROOT
BRANCH  23  30
ATOM     30  O   UNL     1      10.209   4.232 -14.762  1.00  0.00    -0.393 OA
ATOM     31  H   UNL     1       9.443   4.104 -15.381  1.00  0.00     0.210 HD
ENDBRANCH  23  30
TORSDOF 1
ENDMDL
MODEL 3
REMARK VINA RESULT:    -6.610      7.444     12.040
REMARK INTER + INTRA:          -6.804
REMARK INTER:                  -6.804
REMARK INTRA:                   0.000
REMARK UNBOUND:                 0.000
REMARK SMILES C[C@@H]1CC[C@]2(OC1)O[C@H]1C[C@@H]3[C@@H]4CC=C5C[C@H](O)CC[C@@]5(C)[C@H]4CC[C@]3(C)[C@H]1[C@H]2C
REMARK SMILES IDX 1 1 2 2 3 3 4 4 5 5 29 6 28 7 9 8 8 9 10 10 11 11 26 12
REMARK SMILES IDX 25 13 24 14 23 15 12 16 13 17 14 18 15 19 21 20 20 21 19 22
REMARK SMILES IDX 17 23 16 24 22 25 27 26 30 27 6 28 7 29 18 30
REMARK H PARENT 18 31
REMARK Flexibility Score: inf
ROOT
ATOM      1  C   UNL     1      12.538   3.749 -20.053  1.00  0.00     0.010 C 
ATOM      2  C   UNL     1      13.206   2.859 -18.995  1.00  0.00     0.012 C 
ATOM      3  C   UNL     1      14.116   1.797 -19.628  1.00  0.00     0.011 C 
ATOM      4  C   UNL     1      13.301   0.667 -20.264  1.00  0.00     0.066 C 
ATOM      5  C   UNL     1      12.224   0.128 -19.277  1.00  0.00     0.171 C 
ATOM      6  C   UNL     1      11.349  -0.952 -19.958  1.00  0.00     0.052 C 
ATOM      7  C   UNL     1      12.242  -2.199 -19.782  1.00  0.00     0.033 C 
ATOM      8  C   UNL     1      13.011  -1.874 -18.511  1.00  0.00     0.126 C 
ATOM      9  O   UNL     1      12.844  -0.511 -18.177  1.00  0.00    -0.346 OA
ATOM     10  C   UNL     1      12.458  -2.794 -17.413  1.00  0.00     0.037 C 
ATOM     11  C   UNL     1      11.389  -3.699 -18.068  1.00  0.00     0.002 C 
ATOM     12  C   UNL     1      11.690  -3.645 -19.583  1.00  0.00    -0.024 C 
ATOM     13  C   UNL     1      12.846  -4.643 -19.927  1.00  0.00     0.008 C 
ATOM     14  C   UNL     1      12.603  -6.061 -19.402  1.00  0.00     0.005 C 
ATOM     15  C   UNL     1      12.414  -6.080 -17.867  1.00  0.00     0.003 C 
ATOM     16  C   UNL     1      11.257  -5.137 -17.474  1.00  0.00     0.000 C 
ATOM     17  C   UNL     1      11.138  -5.082 -15.944  1.00  0.00     0.031 C 
ATOM     18  C   UNL     1      10.969  -6.447 -15.362  1.00  0.00    -0.027 C 
ATOM     19  C   UNL     1      11.524  -7.549 -15.904  1.00  0.00    -0.065 C 
ATOM     20  C   UNL     1      12.243  -7.544 -17.267  1.00  0.00    -0.008 C 
ATOM     21  C   UNL     1      11.409  -8.467 -18.217  1.00  0.00     0.014 C 
ATOM     22  C   UNL     1      11.058  -9.845 -17.619  1.00  0.00     0.033 C 
ATOM     23  C   UNL     1      10.360  -9.716 -16.253  1.00  0.00     0.118 C 
ATOM     24  C   UNL     1      11.208  -8.891 -15.275  1.00  0.00     0.063 C 
ATOM     25  C   UNL     1      13.664  -8.138 -17.080  1.00  0.00     0.016 C 
ATOM     26  C   UNL     1      10.456  -3.957 -20.478  1.00  0.00     0.012 C 
ATOM     27  C   UNL     1       9.947  -0.991 -19.308  1.00  0.00     0.014 C 
ATOM     28  O   UNL     1      11.410   1.210 -18.830  1.00  0.00    -0.349 OA
ATOM     29  C   UNL     1      12.159   2.172 -18.104  1.00  0.00     0.167 C 
ENDROOT
BRANCH  23  30
ATOM     30  O   UNL     1      10.077 -10.985 -15.718  1.00  0.00    -0.393 OA
ATOM     31  H   UNL     1       9.090 -11.097 -15.714  1.00  0.00     0.210 HD
ENDBRANCH  23  30
TORSDOF 1
ENDMDL
MODEL 4
REMARK VINA RESULT:    -6.417      6.001     10.030
REMARK INTER + INTRA:          -6.604
REMARK INTER:                  -6.604
REMARK INTRA:                   0.000
REMARK UNBOUND:                 0.000
REMARK SMILES C[C@@H]1CC[C@]2(OC1)O[C@H]1C[C@@H]3[C@@H]4CC=C5C[C@H](O)CC[C@@]5(C)[C@H]4CC[C@]3(C)[C@H]1[C@H]2C
REMARK SMILES IDX 1 1 2 2 3 3 4 4 5 5 29 6 28 7 9 8 8 9 10 10 11 11 26 12
REMARK SMILES IDX 25 13 24 14 23 15 12 16 13 17 14 18 15 19 21 20 20 21 19 22
REMARK SMILES IDX 17 23 16 24 22 25 27 26 30 27 6 28 7 29 18 30
REMARK H PARENT 18 31
REMARK Flexibility Score: inf
ROOT
ATOM      1  C   UNL     1      11.524   6.035 -18.675  1.00  0.00     0.010 C 
ATOM      2  C   UNL     1      12.222   5.026 -17.751  1.00  0.00     0.012 C 
ATOM      3  C   UNL     1      13.429   4.362 -18.432  1.00  0.00     0.011 C 
ATOM      4  C   UNL     1      12.986   3.321 -19.464  1.00  0.00     0.066 C 
ATOM      5  C   UNL     1      11.933   2.346 -18.862  1.00  0.00     0.171 C 
ATOM      6  C   UNL     1      11.428   1.353 -19.937  1.00  0.00     0.052 C 
ATOM      7  C   UNL     1      12.546   0.290 -19.896  1.00  0.00     0.033 C 
ATOM      8  C   UNL     1      13.038   0.389 -18.460  1.00  0.00     0.126 C 
ATOM      9  O   UNL     1      12.523   1.554 -17.848  1.00  0.00    -0.346 OA
ATOM     10  C   UNL     1      12.561  -0.882 -17.742  1.00  0.00     0.037 C 
ATOM     11  C   UNL     1      11.826  -1.752 -18.788  1.00  0.00     0.002 C 
ATOM     12  C   UNL     1      12.314  -1.230 -20.158  1.00  0.00    -0.024 C 
ATOM     13  C   UNL     1      13.702  -1.868 -20.500  1.00  0.00     0.008 C 
ATOM     14  C   UNL     1      13.715  -3.395 -20.387  1.00  0.00     0.005 C 
ATOM     15  C   UNL     1      13.325  -3.868 -18.967  1.00  0.00     0.003 C 
ATOM     16  C   UNL     1      11.942  -3.296 -18.591  1.00  0.00     0.000 C 
ATOM     17  C   UNL     1      11.602  -3.685 -17.145  1.00  0.00     0.031 C 
ATOM     18  C   UNL     1      11.666  -5.165 -16.950  1.00  0.00    -0.027 C 
ATOM     19  C   UNL     1      12.526  -5.956 -17.622  1.00  0.00    -0.065 C 
ATOM     20  C   UNL     1      13.408  -5.447 -18.780  1.00  0.00    -0.008 C 
ATOM     21  C   UNL     1      12.945  -6.210 -20.065  1.00  0.00     0.014 C 
ATOM     22  C   UNL     1      12.835  -7.738 -19.893  1.00  0.00     0.033 C 
ATOM     23  C   UNL     1      11.943  -8.118 -18.698  1.00  0.00     0.118 C 
ATOM     24  C   UNL     1      12.438  -7.453 -17.406  1.00  0.00     0.063 C 
ATOM     25  C   UNL     1      14.887  -5.800 -18.470  1.00  0.00     0.016 C 
ATOM     26  C   UNL     1      11.319  -1.505 -21.322  1.00  0.00     0.012 C 
ATOM     27  C   UNL     1       9.995   0.883 -19.598  1.00  0.00     0.014 C 
ATOM     28  O   UNL     1      10.841   3.097 -18.335  1.00  0.00    -0.349 OA
ATOM     29  C   UNL     1      11.245   3.942 -17.270  1.00  0.00     0.167 C 
ENDROOT
BRANCH  23  30
ATOM     30  O   UNL     1      11.883  -9.515 -18.546  1.00  0.00    -0.393 OA
ATOM     31  H   UNL     1      10.996  -9.816 -18.876  1.00  0.00     0.210 HD
ENDBRANCH  23  30
TORSDOF 1
ENDMDL
MODEL 5
REMARK VINA RESULT:    -6.414      6.674      9.080
REMARK INTER + INTRA:          -6.602
REMARK INTER:                  -6.602
REMARK INTRA:                   0.000
REMARK UNBOUND:                 0.000
REMARK SMILES C[C@@H]1CC[C@]2(OC1)O[C@H]1C[C@@H]3[C@@H]4CC=C5C[C@H](O)CC[C@@]5(C)[C@H]4CC[C@]3(C)[C@H]1[C@H]2C
REMARK SMILES IDX 1 1 2 2 3 3 4 4 5 5 29 6 28 7 9 8 8 9 10 10 11 11 26 12
REMARK SMILES IDX 25 13 24 14 23 15 12 16 13 17 14 18 15 19 21 20 20 21 19 22
REMARK SMILES IDX 17 23 16 24 22 25 27 26 30 27 6 28 7 29 18 30
REMARK H PARENT 18 31
REMARK Flexibility Score: inf
ROOT
ATOM      1  C   UNL     1      13.354  -6.934 -21.118  1.00  0.00     0.010 C 
ATOM      2  C   UNL     1      13.124  -6.423 -19.689  1.00  0.00     0.012 C 
ATOM      3  C   UNL     1      11.709  -5.855 -19.501  1.00  0.00     0.011 C 
ATOM      4  C   UNL     1      11.564  -4.482 -20.164  1.00  0.00     0.066 C 
ATOM      5  C   UNL     1      12.728  -3.534 -19.754  1.00  0.00     0.171 C 
ATOM      6  C   UNL     1      12.620  -2.180 -20.495  1.00  0.00     0.052 C 
ATOM      7  C   UNL     1      11.602  -1.442 -19.601  1.00  0.00     0.033 C 
ATOM      8  C   UNL     1      11.849  -2.070 -18.238  1.00  0.00     0.126 C 
ATOM      9  O   UNL     1      12.646  -3.229 -18.374  1.00  0.00    -0.346 OA
ATOM     10  C   UNL     1      12.546  -1.004 -17.380  1.00  0.00     0.037 C 
ATOM     11  C   UNL     1      12.660   0.275 -18.240  1.00  0.00     0.002 C 
ATOM     12  C   UNL     1      11.611   0.100 -19.362  1.00  0.00    -0.024 C 
ATOM     13  C   UNL     1      10.196   0.503 -18.826  1.00  0.00     0.008 C 
ATOM     14  C   UNL     1      10.163   1.885 -18.169  1.00  0.00     0.005 C 
ATOM     15  C   UNL     1      11.152   1.979 -16.983  1.00  0.00     0.003 C 
ATOM     16  C   UNL     1      12.576   1.627 -17.464  1.00  0.00     0.000 C 
ATOM     17  C   UNL     1      13.536   1.625 -16.266  1.00  0.00     0.031 C 
ATOM     18  C   UNL     1      13.500   2.927 -15.537  1.00  0.00    -0.027 C 
ATOM     19  C   UNL     1      12.388   3.684 -15.442  1.00  0.00    -0.065 C 
ATOM     20  C   UNL     1      11.091   3.373 -16.216  1.00  0.00    -0.008 C 
ATOM     21  C   UNL     1      10.858   4.568 -17.199  1.00  0.00     0.014 C 
ATOM     22  C   UNL     1      10.962   5.960 -16.544  1.00  0.00     0.033 C 
ATOM     23  C   UNL     1      12.292   6.142 -15.790  1.00  0.00     0.118 C 
ATOM     24  C   UNL     1      12.495   5.029 -14.753  1.00  0.00     0.063 C 
ATOM     25  C   UNL     1       9.916   3.295 -15.205  1.00  0.00     0.016 C 
ATOM     26  C   UNL     1      11.927   0.917 -20.647  1.00  0.00     0.012 C 
ATOM     27  C   UNL     1      14.019  -1.542 -20.648  1.00  0.00     0.014 C 
ATOM     28  O   UNL     1      13.974  -4.160 -20.052  1.00  0.00    -0.349 OA
ATOM     29  C   UNL     1      14.160  -5.353 -19.307  1.00  0.00     0.167 C 
ENDROOT
BRANCH  23  30
ATOM     30  O   UNL     1      12.349   7.407 -15.180  1.00  0.00    -0.393 OA
ATOM     31  H   UNL     1      13.048   7.936 -15.647  1.00  0.00     0.210 HD
ENDBRANCH  23  30
TORSDOF 1
ENDMDL
MODEL 6
REMARK VINA RESULT:    -6.018      2.073      3.741
REMARK INTER + INTRA:          -6.194
REMARK INTER:                  -6.194
REMARK INTRA:                   0.000
REMARK UNBOUND:                 0.000
REMARK SMILES C[C@@H]1CC[C@]2(OC1)O[C@H]1C[C@@H]3[C@@H]4CC=C5C[C@H](O)CC[C@@]5(C)[C@H]4CC[C@]3(C)[C@H]1[C@H]2C
REMARK SMILES IDX 1 1 2 2 3 3 4 4 5 5 29 6 28 7 9 8 8 9 10 10 11 11 26 12
REMARK SMILES IDX 25 13 24 14 23 15 12 16 13 17 14 18 15 19 21 20 20 21 19 22
REMARK SMILES IDX 17 23 16 24 22 25 27 26 30 27 6 28 7 29 18 30
REMARK H PARENT 18 31
REMARK Flexibility Score: inf
ROOT
ATOM      1  C   UNL     1      13.577   2.846 -14.308  1.00  0.00     0.010 C 
ATOM      2  C   UNL     1      13.523   4.019 -15.296  1.00  0.00     0.012 C 
ATOM      3  C   UNL     1      13.448   3.540 -16.754  1.00  0.00     0.011 C 
ATOM      4  C   UNL     1      14.800   3.011 -17.241  1.00  0.00     0.066 C 
ATOM      5  C   UNL     1      15.944   4.017 -16.922  1.00  0.00     0.171 C 
ATOM      6  C   UNL     1      17.316   3.437 -17.339  1.00  0.00     0.052 C 
ATOM      7  C   UNL     1      17.330   3.781 -18.843  1.00  0.00     0.033 C 
ATOM      8  C   UNL     1      16.466   5.031 -18.901  1.00  0.00     0.126 C 
ATOM      9  O   UNL     1      15.778   5.203 -17.678  1.00  0.00    -0.346 OA
ATOM     10  C   UNL     1      17.410   6.208 -19.185  1.00  0.00     0.037 C 
ATOM     11  C   UNL     1      18.834   5.626 -19.345  1.00  0.00     0.002 C 
ATOM     12  C   UNL     1      18.623   4.125 -19.647  1.00  0.00    -0.024 C 
ATOM     13  C   UNL     1      18.300   3.935 -21.166  1.00  0.00     0.008 C 
ATOM     14  C   UNL     1      19.314   4.609 -22.095  1.00  0.00     0.005 C 
ATOM     15  C   UNL     1      19.412   6.129 -21.829  1.00  0.00     0.003 C 
ATOM     16  C   UNL     1      19.767   6.376 -20.347  1.00  0.00     0.000 C 
ATOM     17  C   UNL     1      19.766   7.885 -20.064  1.00  0.00     0.031 C 
ATOM     18  C   UNL     1      20.687   8.613 -20.987  1.00  0.00    -0.027 C 
ATOM     19  C   UNL     1      20.917   8.218 -22.255  1.00  0.00    -0.065 C 
ATOM     20  C   UNL     1      20.393   6.886 -22.829  1.00  0.00    -0.008 C 
ATOM     21  C   UNL     1      21.651   6.021 -23.174  1.00  0.00     0.014 C 
ATOM     22  C   UNL     1      22.725   6.760 -23.998  1.00  0.00     0.033 C 
ATOM     23  C   UNL     1      23.152   8.079 -23.331  1.00  0.00     0.118 C 
ATOM     24  C   UNL     1      21.941   8.984 -23.068  1.00  0.00     0.063 C 
ATOM     25  C   UNL     1      19.594   7.184 -24.125  1.00  0.00     0.016 C 
ATOM     26  C   UNL     1      19.839   3.233 -19.262  1.00  0.00     0.012 C 
ATOM     27  C   UNL     1      18.440   4.042 -16.467  1.00  0.00     0.014 C 
ATOM     28  O   UNL     1      15.938   4.313 -15.527  1.00  0.00    -0.349 OA
ATOM     29  C   UNL     1      14.736   4.948 -15.125  1.00  0.00     0.167 C 
ENDROOT
BRANCH  23  30
ATOM     30  O   UNL     1      24.110   8.746 -24.115  1.00  0.00    -0.393 OA
ATOM     31  H   UNL     1      25.007   8.506 -23.763  1.00  0.00     0.210 HD
ENDBRANCH  23  30
TORSDOF 1
ENDMDL
MODEL 7
REMARK VINA RESULT:    -6.001      1.690      8.782
REMARK INTER + INTRA:          -6.176
REMARK INTER:                  -6.176
REMARK INTRA:                   0.000
REMARK UNBOUND:                 0.000
REMARK SMILES C[C@@H]1CC[C@]2(OC1)O[C@H]1C[C@@H]3[C@@H]4CC=C5C[C@H](O)CC[C@@]5(C)[C@H]4CC[C@]3(C)[C@H]1[C@H]2C
REMARK SMILES IDX 1 1 2 2 3 3 4 4 5 5 29 6 28 7 9 8 8 9 10 10 11 11 26 12
REMARK SMILES IDX 25 13 24 14 23 15 12 16 13 17 14 18 15 19 21 20 20 21 19 22
REMARK SMILES IDX 17 23 16 24 22 25 27 26 30 27 6 28 7 29 18 30
REMARK H PARENT 18 31
REMARK Flexibility Score: inf
ROOT
ATOM      1  C   UNL     1      24.212   5.751 -21.171  1.00  0.00     0.010 C 
ATOM      2  C   UNL     1      22.824   6.362 -21.414  1.00  0.00     0.012 C 
ATOM      3  C   UNL     1      22.243   6.994 -20.140  1.00  0.00     0.011 C 
ATOM      4  C   UNL     1      21.754   5.925 -19.157  1.00  0.00     0.066 C 
ATOM      5  C   UNL     1      20.841   4.884 -19.868  1.00  0.00     0.171 C 
ATOM      6  C   UNL     1      20.423   3.762 -18.888  1.00  0.00     0.052 C 
ATOM      7  C   UNL     1      19.231   4.432 -18.174  1.00  0.00     0.033 C 
ATOM      8  C   UNL     1      18.703   5.381 -19.238  1.00  0.00     0.126 C 
ATOM      9  O   UNL     1      19.637   5.498 -20.292  1.00  0.00    -0.346 OA
ATOM     10  C   UNL     1      17.370   4.796 -19.730  1.00  0.00     0.037 C 
ATOM     11  C   UNL     1      17.098   3.518 -18.903  1.00  0.00     0.002 C 
ATOM     12  C   UNL     1      17.984   3.656 -17.645  1.00  0.00    -0.024 C 
ATOM     13  C   UNL     1      17.269   4.572 -16.595  1.00  0.00     0.008 C 
ATOM     14  C   UNL     1      15.833   4.139 -16.287  1.00  0.00     0.005 C 
ATOM     15  C   UNL     1      14.954   4.119 -17.561  1.00  0.00     0.003 C 
ATOM     16  C   UNL     1      15.596   3.198 -18.620  1.00  0.00     0.000 C 
ATOM     17  C   UNL     1      14.775   3.259 -19.917  1.00  0.00     0.031 C 
ATOM     18  C   UNL     1      13.343   2.914 -19.671  1.00  0.00    -0.027 C 
ATOM     19  C   UNL     1      12.707   3.201 -18.518  1.00  0.00    -0.065 C 
ATOM     20  C   UNL     1      13.431   3.756 -17.274  1.00  0.00    -0.008 C 
ATOM     21  C   UNL     1      13.292   2.672 -16.154  1.00  0.00     0.014 C 
ATOM     22  C   UNL     1      11.856   2.149 -15.949  1.00  0.00     0.033 C 
ATOM     23  C   UNL     1      11.238   1.639 -17.263  1.00  0.00     0.118 C 
ATOM     24  C   UNL     1      11.280   2.722 -18.350  1.00  0.00     0.063 C 
ATOM     25  C   UNL     1      12.719   5.061 -16.828  1.00  0.00     0.016 C 
ATOM     26  C   UNL     1      18.345   2.296 -16.982  1.00  0.00     0.012 C 
ATOM     27  C   UNL     1      20.138   2.455 -19.662  1.00  0.00     0.014 C 
ATOM     28  O   UNL     1      21.536   4.330 -20.983  1.00  0.00    -0.349 OA
ATOM     29  C   UNL     1      21.842   5.313 -21.959  1.00  0.00     0.167 C 
ENDROOT
BRANCH  23  30
ATOM     30  O   UNL     1       9.921   1.194 -17.053  1.00  0.00    -0.393 OA
ATOM     31  H   UNL     1       9.927   0.202 -17.096  1.00  0.00     0.210 HD
ENDBRANCH  23  30
TORSDOF 1
ENDMDL
MODEL 8
REMARK VINA RESULT:    -5.887      1.568      3.109
REMARK INTER + INTRA:          -6.059
REMARK INTER:                  -6.059
REMARK INTRA:                   0.000
REMARK UNBOUND:                 0.000
REMARK SMILES C[C@@H]1CC[C@]2(OC1)O[C@H]1C[C@@H]3[C@@H]4CC=C5C[C@H](O)CC[C@@]5(C)[C@H]4CC[C@]3(C)[C@H]1[C@H]2C
REMARK SMILES IDX 1 1 2 2 3 3 4 4 5 5 29 6 28 7 9 8 8 9 10 10 11 11 26 12
REMARK SMILES IDX 25 13 24 14 23 15 12 16 13 17 14 18 15 19 21 20 20 21 19 22
REMARK SMILES IDX 17 23 16 24 22 25 27 26 30 27 6 28 7 29 18 30
REMARK H PARENT 18 31
REMARK Flexibility Score: inf
ROOT
ATOM      1  C   UNL     1       9.881   2.778 -15.126  1.00  0.00     0.010 C 
ATOM      2  C   UNL     1      10.150   3.034 -16.616  1.00  0.00     0.012 C 
ATOM      3  C   UNL     1      11.069   1.965 -17.227  1.00  0.00     0.011 C 
ATOM      4  C   UNL     1      12.523   2.159 -16.788  1.00  0.00     0.066 C 
ATOM      5  C   UNL     1      12.979   3.633 -16.992  1.00  0.00     0.171 C 
ATOM      6  C   UNL     1      14.420   3.838 -16.466  1.00  0.00     0.052 C 
ATOM      7  C   UNL     1      15.242   3.338 -17.672  1.00  0.00     0.033 C 
ATOM      8  C   UNL     1      14.316   3.633 -18.843  1.00  0.00     0.126 C 
ATOM      9  O   UNL     1      13.021   3.946 -18.372  1.00  0.00    -0.346 OA
ATOM     10  C   UNL     1      14.936   4.810 -19.611  1.00  0.00     0.037 C 
ATOM     11  C   UNL     1      16.264   5.170 -18.905  1.00  0.00     0.002 C 
ATOM     12  C   UNL     1      16.633   3.916 -18.079  1.00  0.00    -0.024 C 
ATOM     13  C   UNL     1      17.329   2.863 -19.005  1.00  0.00     0.008 C 
ATOM     14  C   UNL     1      18.503   3.436 -19.805  1.00  0.00     0.005 C 
ATOM     15  C   UNL     1      18.064   4.620 -20.698  1.00  0.00     0.003 C 
ATOM     16  C   UNL     1      17.401   5.710 -19.828  1.00  0.00     0.000 C 
ATOM     17  C   UNL     1      16.878   6.837 -20.729  1.00  0.00     0.031 C 
ATOM     18  C   UNL     1      17.963   7.395 -21.590  1.00  0.00    -0.027 C 
ATOM     19  C   UNL     1      18.985   6.649 -22.056  1.00  0.00    -0.065 C 
ATOM     20  C   UNL     1      19.234   5.193 -21.612  1.00  0.00    -0.008 C 
ATOM     21  C   UNL     1      20.611   5.181 -20.868  1.00  0.00     0.014 C 
ATOM     22  C   UNL     1      21.753   5.882 -21.631  1.00  0.00     0.033 C 
ATOM     23  C   UNL     1      21.377   7.320 -22.032  1.00  0.00     0.118 C 
ATOM     24  C   UNL     1      20.076   7.344 -22.846  1.00  0.00     0.063 C 
ATOM     25  C   UNL     1      19.318   4.297 -22.875  1.00  0.00     0.016 C 
ATOM     26  C   UNL     1      17.550   4.218 -16.860  1.00  0.00     0.012 C 
ATOM     27  C   UNL     1      14.626   5.308 -16.033  1.00  0.00     0.014 C 
ATOM     28  O   UNL     1      12.078   4.505 -16.312  1.00  0.00    -0.349 OA
ATOM     29  C   UNL     1      10.764   4.425 -16.840  1.00  0.00     0.167 C 
ENDROOT
BRANCH  23  30
ATOM     30  O   UNL     1      22.424   7.926 -22.750  1.00  0.00    -0.393 OA
ATOM     31  H   UNL     1      22.057   8.224 -23.623  1.00  0.00     0.210 HD
ENDBRANCH  23  30
TORSDOF 1
ENDMDL
MODEL 9
REMARK VINA RESULT:    -5.839      2.108      8.765
REMARK INTER + INTRA:          -6.009
REMARK INTER:                  -6.009
REMARK INTRA:                   0.000
REMARK UNBOUND:                 0.000
REMARK SMILES C[C@@H]1CC[C@]2(OC1)O[C@H]1C[C@@H]3[C@@H]4CC=C5C[C@H](O)CC[C@@]5(C)[C@H]4CC[C@]3(C)[C@H]1[C@H]2C
REMARK SMILES IDX 1 1 2 2 3 3 4 4 5 5 29 6 28 7 9 8 8 9 10 10 11 11 26 12
REMARK SMILES IDX 25 13 24 14 23 15 12 16 13 17 14 18 15 19 21 20 20 21 19 22
REMARK SMILES IDX 17 23 16 24 22 25 27 26 30 27 6 28 7 29 18 30
REMARK H PARENT 18 31
REMARK Flexibility Score: inf
ROOT
ATOM      1  C   UNL     1      23.015   8.448 -24.084  1.00  0.00     0.010 C 
ATOM      2  C   UNL     1      21.604   8.866 -23.645  1.00  0.00     0.012 C 
ATOM      3  C   UNL     1      21.501   9.030 -22.121  1.00  0.00     0.011 C 
ATOM      4  C   UNL     1      21.470   7.673 -21.413  1.00  0.00     0.066 C 
ATOM      5  C   UNL     1      20.418   6.726 -22.060  1.00  0.00     0.171 C 
ATOM      6  C   UNL     1      20.454   5.330 -21.393  1.00  0.00     0.052 C 
ATOM      7  C   UNL     1      19.576   5.580 -20.150  1.00  0.00     0.033 C 
ATOM      8  C   UNL     1      18.640   6.680 -20.627  1.00  0.00     0.126 C 
ATOM      9  O   UNL     1      19.111   7.225 -21.843  1.00  0.00    -0.346 OA
ATOM     10  C   UNL     1      17.255   6.039 -20.797  1.00  0.00     0.037 C 
ATOM     11  C   UNL     1      17.378   4.560 -20.364  1.00  0.00     0.002 C 
ATOM     12  C   UNL     1      18.657   4.499 -19.500  1.00  0.00    -0.024 C 
ATOM     13  C   UNL     1      18.331   4.970 -18.043  1.00  0.00     0.008 C 
ATOM     14  C   UNL     1      17.137   4.242 -17.419  1.00  0.00     0.005 C 
ATOM     15  C   UNL     1      15.853   4.421 -18.263  1.00  0.00     0.003 C 
ATOM     16  C   UNL     1      16.107   3.935 -19.706  1.00  0.00     0.000 C 
ATOM     17  C   UNL     1      14.863   4.206 -20.565  1.00  0.00     0.031 C 
ATOM     18  C   UNL     1      13.645   3.579 -19.971  1.00  0.00    -0.027 C 
ATOM     19  C   UNL     1      13.466   3.440 -18.642  1.00  0.00    -0.065 C 
ATOM     20  C   UNL     1      14.565   3.752 -17.608  1.00  0.00    -0.008 C 
ATOM     21  C   UNL     1      14.911   2.400 -16.899  1.00  0.00     0.014 C 
ATOM     22  C   UNL     1      13.684   1.614 -16.395  1.00  0.00     0.033 C 
ATOM     23  C   UNL     1      12.653   1.380 -17.514  1.00  0.00     0.118 C 
ATOM     24  C   UNL     1      12.230   2.706 -18.161  1.00  0.00     0.063 C 
ATOM     25  C   UNL     1      13.999   4.755 -16.569  1.00  0.00     0.016 C 
ATOM     26  C   UNL     1      19.312   3.088 -19.451  1.00  0.00     0.012 C 
ATOM     27  C   UNL     1      19.976   4.249 -22.390  1.00  0.00     0.014 C 
ATOM     28  O   UNL     1      20.681   6.611 -23.457  1.00  0.00    -0.349 OA
ATOM     29  C   UNL     1      20.549   7.856 -24.124  1.00  0.00     0.167 C 
ENDROOT
BRANCH  23  30
ATOM     30  O   UNL     1      11.533   0.687 -17.022  1.00  0.00    -0.393 OA
ATOM     31  H   UNL     1      11.653  -0.274 -17.242  1.00  0.00     0.210 HD
ENDBRANCH  23  30
TORSDOF 1
ENDMDL
