MODEL 1
REMARK VINA RESULT:    -4.723      0.000      0.000
REMARK INTER + INTRA:          -5.953
REMARK INTER:                  -5.828
REMARK INTRA:                  -0.125
REMARK UNBOUND:                -0.125
REMARK SMILES CCCCCC(=O)[O-]
REMARK SMILES IDX 4 1 5 2 6 3 7 4 8 5 3 6 2 7 1 8
REMARK H PARENT
REMARK Flexibility Score: inf
ROOT
ATOM      1  C   UNL     1      11.627  -2.062  65.581  1.00  0.00     0.006 C 
ENDROOT
BRANCH   1   2
ATOM      2  C   UNL     1      11.771  -0.744  64.814  1.00  0.00     0.053 C 
BRANCH   2   3
ATOM      3  C   UNL     1      12.256   0.340  65.723  1.00  0.00     0.041 C 
ATOM      4  O   UNL     1      11.891   0.367  66.929  1.00  0.00    -0.550 OA
ATOM      5  O   UNL     1      13.072   1.349  65.228  1.00  0.00    -0.550 OA
ENDBRANCH   2   3
ENDBRANCH   1   2
BRANCH   1   6
ATOM      6  C   UNL     1      10.858  -3.098  64.753  1.00  0.00     0.000 C 
BRANCH   6   7
ATOM      7  C   UNL     1      10.101  -2.429  63.600  1.00  0.00    -0.003 C 
ATOM      8  C   UNL     1      10.161  -3.278  62.334  1.00  0.00     0.004 C 
ENDBRANCH   6   7
ENDBRANCH   1   6
TORSDOF 4
ENDMDL
MODEL 2
REMARK VINA RESULT:    -4.662      1.256      1.872
REMARK INTER + INTRA:          -5.877
REMARK INTER:                  -5.767
REMARK INTRA:                  -0.110
REMARK UNBOUND:                -0.125
REMARK SMILES CCCCCC(=O)[O-]
REMARK SMILES IDX 4 1 5 2 6 3 7 4 8 5 3 6 2 7 1 8
REMARK H PARENT
REMARK Flexibility Score: inf
ROOT
ATOM      1  C   UNL     1      11.903  -0.542  64.786  1.00  0.00     0.006 C 
ENDROOT
BRANCH   1   2
ATOM      2  C   UNL     1      12.702   0.612  65.397  1.00  0.00     0.053 C 
BRANCH   2   3
ATOM      3  C   UNL     1      11.783   1.692  65.871  1.00  0.00     0.041 C 
ATOM      4  O   UNL     1      11.944   2.208  67.010  1.00  0.00    -0.550 OA
ATOM      5  O   UNL     1      10.717   2.097  65.078  1.00  0.00    -0.550 OA
ENDBRANCH   2   3
ENDBRANCH   1   2
BRANCH   1   6
ATOM      6  C   UNL     1      11.703  -1.671  65.804  1.00  0.00     0.000 C 
BRANCH   6   7
ATOM      7  C   UNL     1      11.098  -2.912  65.137  1.00  0.00    -0.003 C 
ATOM      8  C   UNL     1      10.343  -2.541  63.864  1.00  0.00     0.004 C 
ENDBRANCH   6   7
ENDBRANCH   1   6
TORSDOF 4
ENDMDL
MODEL 3
REMARK VINA RESULT:    -4.205      2.575      4.410
REMARK INTER + INTRA:          -5.314
REMARK INTER:                  -5.213
REMARK INTRA:                  -0.101
REMARK UNBOUND:                -0.125
REMARK SMILES CCCCCC(=O)[O-]
REMARK SMILES IDX 4 1 5 2 6 3 7 4 8 5 3 6 2 7 1 8
REMARK H PARENT
REMARK Flexibility Score: inf
ROOT
ATOM      1  C   UNL     1      12.151  -0.736  65.593  1.00  0.00     0.006 C 
ENDROOT
BRANCH   1   2
ATOM      2  C   UNL     1      11.276  -1.035  64.373  1.00  0.00     0.053 C 
BRANCH   2   3
ATOM      3  C   UNL     1      10.790  -2.449  64.410  1.00  0.00     0.041 C 
ATOM      4  O   UNL     1      11.200  -3.237  65.304  1.00  0.00    -0.550 OA
ATOM      5  O   UNL     1       9.924  -2.913  63.429  1.00  0.00    -0.550 OA
ENDBRANCH   2   3
ENDBRANCH   1   2
BRANCH   1   6
ATOM      6  C   UNL     1      12.766   0.666  65.498  1.00  0.00     0.000 C 
BRANCH   6   7
ATOM      7  C   UNL     1      11.684   1.748  65.596  1.00  0.00    -0.003 C 
ATOM      8  C   UNL     1      11.310   2.025  67.049  1.00  0.00     0.004 C 
ENDBRANCH   6   7
ENDBRANCH   1   6
TORSDOF 4
ENDMDL
MODEL 4
REMARK VINA RESULT:    -3.120      9.754     10.578
REMARK INTER + INTRA:          -3.975
REMARK INTER:                  -3.885
REMARK INTRA:                  -0.089
REMARK UNBOUND:                -0.125
REMARK SMILES CCCCCC(=O)[O-]
REMARK SMILES IDX 4 1 5 2 6 3 7 4 8 5 3 6 2 7 1 8
REMARK H PARENT
REMARK Flexibility Score: inf
ROOT
ATOM      1  C   UNL     1       6.709   2.483  57.393  1.00  0.00     0.006 C 
ENDROOT
BRANCH   1   2
ATOM      2  C   UNL     1       5.535   1.689  57.973  1.00  0.00     0.053 C 
BRANCH   2   3
ATOM      3  C   UNL     1       4.318   1.858  57.121  1.00  0.00     0.041 C 
ATOM      4  O   UNL     1       3.422   0.972  57.113  1.00  0.00    -0.550 OA
ATOM      5  O   UNL     1       4.193   2.969  56.298  1.00  0.00    -0.550 OA
ENDBRANCH   2   3
ENDBRANCH   1   2
BRANCH   1   6
ATOM      6  C   UNL     1       7.768   2.762  58.467  1.00  0.00     0.000 C 
BRANCH   6   7
ATOM      7  C   UNL     1       9.171   2.823  57.853  1.00  0.00    -0.003 C 
ATOM      8  C   UNL     1       9.107   3.124  56.359  1.00  0.00     0.004 C 
ENDBRANCH   6   7
ENDBRANCH   1   6
TORSDOF 4
ENDMDL
MODEL 5
REMARK VINA RESULT:    -3.075     18.266     19.576
REMARK INTER + INTRA:          -3.919
REMARK INTER:                  -3.772
REMARK INTRA:                  -0.147
REMARK UNBOUND:                -0.125
REMARK SMILES CCCCCC(=O)[O-]
REMARK SMILES IDX 4 1 5 2 6 3 7 4 8 5 3 6 2 7 1 8
REMARK H PARENT
REMARK Flexibility Score: inf
ROOT
ATOM      1  C   UNL     1      -4.495 -12.280  65.488  1.00  0.00     0.006 C 
ENDROOT
BRANCH   1   2
ATOM      2  C   UNL     1      -4.856 -12.446  64.010  1.00  0.00     0.053 C 
BRANCH   2   3
ATOM      3  C   UNL     1      -4.603 -13.851  63.564  1.00  0.00     0.041 C 
ATOM      4  O   UNL     1      -4.055 -14.675  64.344  1.00  0.00    -0.550 OA
ATOM      5  O   UNL     1      -4.929 -14.240  62.272  1.00  0.00    -0.550 OA
ENDBRANCH   2   3
ENDBRANCH   1   2
BRANCH   1   6
ATOM      6  C   UNL     1      -3.649 -11.020  65.709  1.00  0.00     0.000 C 
BRANCH   6   7
ATOM      7  C   UNL     1      -3.359 -10.313  64.380  1.00  0.00    -0.003 C 
ATOM      8  C   UNL     1      -3.276  -8.801  64.566  1.00  0.00     0.004 C 
ENDBRANCH   6   7
ENDBRANCH   1   6
TORSDOF 4
ENDMDL
MODEL 6
REMARK VINA RESULT:    -3.042     18.156     19.325
REMARK INTER + INTRA:          -3.879
REMARK INTER:                  -3.637
REMARK INTRA:                  -0.242
REMARK UNBOUND:                -0.125
REMARK SMILES CCCCCC(=O)[O-]
REMARK SMILES IDX 4 1 5 2 6 3 7 4 8 5 3 6 2 7 1 8
REMARK H PARENT
REMARK Flexibility Score: inf
ROOT
ATOM      1  C   UNL     1      -4.689 -12.506  66.161  1.00  0.00     0.006 C 
ENDROOT
BRANCH   1   2
ATOM      2  C   UNL     1      -3.605 -11.445  65.952  1.00  0.00     0.053 C 
BRANCH   2   3
ATOM      3  C   UNL     1      -3.811 -10.735  64.652  1.00  0.00     0.041 C 
ATOM      4  O   UNL     1      -2.831 -10.222  64.048  1.00  0.00    -0.550 OA
ATOM      5  O   UNL     1      -5.090 -10.597  64.130  1.00  0.00    -0.550 OA
ENDBRANCH   2   3
ENDBRANCH   1   2
BRANCH   1   6
ATOM      6  C   UNL     1      -4.345 -13.799  65.411  1.00  0.00     0.000 C 
BRANCH   6   7
ATOM      7  C   UNL     1      -5.416 -14.128  64.364  1.00  0.00    -0.003 C 
ATOM      8  C   UNL     1      -4.830 -14.120  62.955  1.00  0.00     0.004 C 
ENDBRANCH   6   7
ENDBRANCH   1   6
TORSDOF 4
ENDMDL
MODEL 7
REMARK VINA RESULT:    -2.908     20.274     21.192
REMARK INTER + INTRA:          -3.713
REMARK INTER:                  -3.491
REMARK INTRA:                  -0.221
REMARK UNBOUND:                -0.125
REMARK SMILES CCCCCC(=O)[O-]
REMARK SMILES IDX 4 1 5 2 6 3 7 4 8 5 3 6 2 7 1 8
REMARK H PARENT
REMARK Flexibility Score: inf
ROOT
ATOM      1  C   UNL     1      -4.109 -13.882  65.751  1.00  0.00     0.006 C 
ENDROOT
BRANCH   1   2
ATOM      2  C   UNL     1      -4.102 -14.624  64.411  1.00  0.00     0.053 C 
BRANCH   2   3
ATOM      3  C   UNL     1      -4.786 -13.811  63.359  1.00  0.00     0.041 C 
ATOM      4  O   UNL     1      -4.941 -14.277  62.198  1.00  0.00    -0.550 OA
ATOM      5  O   UNL     1      -5.210 -12.519  63.644  1.00  0.00    -0.550 OA
ENDBRANCH   2   3
ENDBRANCH   1   2
BRANCH   1   6
ATOM      6  C   UNL     1      -4.926 -14.649  66.799  1.00  0.00     0.000 C 
BRANCH   6   7
ATOM      7  C   UNL     1      -6.430 -14.445  66.579  1.00  0.00    -0.003 C 
ATOM      8  C   UNL     1      -6.819 -12.981  66.754  1.00  0.00     0.004 C 
ENDBRANCH   6   7
ENDBRANCH   1   6
TORSDOF 4
ENDMDL
MODEL 8
REMARK VINA RESULT:    -2.814     12.435     13.706
REMARK INTER + INTRA:          -3.597
REMARK INTER:                  -3.450
REMARK INTRA:                  -0.147
REMARK UNBOUND:                -0.125
REMARK SMILES CCCCCC(=O)[O-]
REMARK SMILES IDX 4 1 5 2 6 3 7 4 8 5 3 6 2 7 1 8
REMARK H PARENT
REMARK Flexibility Score: inf
ROOT
ATOM      1  C   UNL     1      -0.405  -0.201  56.621  1.00  0.00     0.006 C 
ENDROOT
BRANCH   1   2
ATOM      2  C   UNL     1       0.657  -1.105  57.253  1.00  0.00     0.053 C 
BRANCH   2   3
ATOM      3  C   UNL     1       1.810  -0.290  57.748  1.00  0.00     0.041 C 
ATOM      4  O   UNL     1       2.883  -0.855  58.093  1.00  0.00    -0.550 OA
ATOM      5  O   UNL     1       1.685   1.087  57.876  1.00  0.00    -0.550 OA
ENDBRANCH   2   3
ENDBRANCH   1   2
BRANCH   1   6
ATOM      6  C   UNL     1      -1.785  -0.462  57.236  1.00  0.00     0.000 C 
BRANCH   6   7
ATOM      7  C   UNL     1      -1.860  -1.868  57.842  1.00  0.00    -0.003 C 
ATOM      8  C   UNL     1      -2.644  -1.864  59.151  1.00  0.00     0.004 C 
ENDBRANCH   6   7
ENDBRANCH   1   6
TORSDOF 4
ENDMDL
