MODEL 1
REMARK VINA RESULT:    -4.685      0.000      0.000
REMARK INTER + INTRA:          -6.841
REMARK INTER:                  -6.328
REMARK INTRA:                  -0.513
REMARK UNBOUND:                -0.513
REMARK SMILES C[C@@H](O)[C@H](O)[C@@H](O)[C@H](O)C=O
REMARK SMILES IDX 4 1 2 2 1 3 3 4 6 6 8 7 10 8 11 9 9 10 7 12 5 14
REMARK H PARENT 3 5 9 11 7 13 5 15
REMARK Flexibility Score: inf
ROOT
ATOM      1  C   UNL     1      -7.891  16.254 -12.158  1.00  0.00     0.174 C 
ENDROOT
BRANCH   1   2
ATOM      2  C   UNL     1      -7.853  14.729 -11.862  1.00  0.00     0.142 C 
ATOM      3  C   UNL     1      -7.125  13.940 -12.955  1.00  0.00     0.041 C 
BRANCH   2   4
ATOM      4  O   UNL     1      -7.187  14.505 -10.645  1.00  0.00    -0.391 OA
ATOM      5  H   UNL     1      -7.128  13.522 -10.520  1.00  0.00     0.211 HD
ENDBRANCH   2   4
ENDBRANCH   1   2
BRANCH   1   6
ATOM      6  C   UNL     1      -7.927  16.587 -13.675  1.00  0.00     0.181 C 
BRANCH   6   7
ATOM      7  C   UNL     1      -6.811  17.582 -14.069  1.00  0.00     0.209 C 
BRANCH   7   8
ATOM      8  C   UNL     1      -7.263  19.005 -13.876  1.00  0.00     0.258 C 
ATOM      9  O   UNL     1      -7.685  19.386 -12.794  1.00  0.00    -0.300 OA
ENDBRANCH   7   8
BRANCH   7  10
ATOM     10  O   UNL     1      -5.655  17.347 -13.307  1.00  0.00    -0.383 OA
ATOM     11  H   UNL     1      -5.888  16.651 -12.638  1.00  0.00     0.211 HD
ENDBRANCH   7  10
ENDBRANCH   6   7
BRANCH   6  12
ATOM     12  O   UNL     1      -9.188  17.110 -14.019  1.00  0.00    -0.387 OA
ATOM     13  H   UNL     1      -9.861  16.660 -13.443  1.00  0.00     0.211 HD
ENDBRANCH   6  12
ENDBRANCH   1   6
BRANCH   1  14
ATOM     14  O   UNL     1      -8.978  16.849 -11.491  1.00  0.00    -0.388 OA
ATOM     15  H   UNL     1      -9.781  16.292 -11.668  1.00  0.00     0.211 HD
ENDBRANCH   1  14
TORSDOF 8
ENDMDL
MODEL 2
REMARK VINA RESULT:    -4.589      1.441      2.419
REMARK INTER + INTRA:          -6.712
REMARK INTER:                  -5.772
REMARK INTRA:                  -0.939
REMARK UNBOUND:                -0.513
REMARK SMILES C[C@@H](O)[C@H](O)[C@@H](O)[C@H](O)C=O
REMARK SMILES IDX 4 1 2 2 1 3 3 4 6 6 8 7 10 8 11 9 9 10 7 12 5 14
REMARK H PARENT 3 5 9 11 7 13 5 15
REMARK Flexibility Score: inf
ROOT
ATOM      1  C   UNL     1      -7.390  15.172 -13.540  1.00  0.00     0.174 C 
ENDROOT
BRANCH   1   2
ATOM      2  C   UNL     1      -6.995  13.697 -13.250  1.00  0.00     0.142 C 
ATOM      3  C   UNL     1      -5.783  13.246 -14.069  1.00  0.00     0.041 C 
BRANCH   2   4
ATOM      4  O   UNL     1      -6.679  13.558 -11.888  1.00  0.00    -0.391 OA
ATOM      5  H   UNL     1      -6.313  14.429 -11.582  1.00  0.00     0.211 HD
ENDBRANCH   2   4
ENDBRANCH   1   2
BRANCH   1   6
ATOM      6  C   UNL     1      -8.277  15.802 -12.432  1.00  0.00     0.181 C 
BRANCH   6   7
ATOM      7  C   UNL     1      -9.089  17.006 -12.964  1.00  0.00     0.209 C 
BRANCH   7   8
ATOM      8  C   UNL     1      -8.516  18.307 -12.469  1.00  0.00     0.258 C 
ATOM      9  O   UNL     1      -7.452  18.727 -12.901  1.00  0.00    -0.300 OA
ENDBRANCH   7   8
BRANCH   7  10
ATOM     10  O   UNL     1      -9.105  17.002 -14.369  1.00  0.00    -0.383 OA
ATOM     11  H   UNL     1      -9.395  16.094 -14.650  1.00  0.00     0.211 HD
ENDBRANCH   7  10
ENDBRANCH   6   7
BRANCH   6  12
ATOM     12  O   UNL     1      -7.473  16.201 -11.347  1.00  0.00    -0.387 OA
ATOM     13  H   UNL     1      -7.321  17.178 -11.435  1.00  0.00     0.211 HD
ENDBRANCH   6  12
ENDBRANCH   1   6
BRANCH   1  14
ATOM     14  O   UNL     1      -6.236  15.948 -13.757  1.00  0.00    -0.388 OA
ATOM     15  H   UNL     1      -5.618  15.416 -14.323  1.00  0.00     0.211 HD
ENDBRANCH   1  14
TORSDOF 8
ENDMDL
MODEL 3
REMARK VINA RESULT:    -4.565      1.251      4.146
REMARK INTER + INTRA:          -6.679
REMARK INTER:                  -6.154
REMARK INTRA:                  -0.525
REMARK UNBOUND:                -0.513
REMARK SMILES C[C@@H](O)[C@H](O)[C@@H](O)[C@H](O)C=O
REMARK SMILES IDX 4 1 2 2 1 3 3 4 6 6 8 7 10 8 11 9 9 10 7 12 5 14
REMARK H PARENT 3 5 9 11 7 13 5 15
REMARK Flexibility Score: inf
ROOT
ATOM      1  C   UNL     1      -8.175  17.277 -14.178  1.00  0.00     0.174 C 
ENDROOT
BRANCH   1   2
ATOM      2  C   UNL     1      -7.738  18.736 -13.870  1.00  0.00     0.142 C 
ATOM      3  C   UNL     1      -7.716  19.616 -15.123  1.00  0.00     0.041 C 
BRANCH   2   4
ATOM      4  O   UNL     1      -8.633  19.307 -12.950  1.00  0.00    -0.391 OA
ATOM      5  H   UNL     1      -9.549  19.162 -13.304  1.00  0.00     0.211 HD
ENDBRANCH   2   4
ENDBRANCH   1   2
BRANCH   1   6
ATOM      6  C   UNL     1      -7.148  16.212 -13.702  1.00  0.00     0.181 C 
BRANCH   6   7
ATOM      7  C   UNL     1      -7.727  15.321 -12.580  1.00  0.00     0.209 C 
BRANCH   7   8
ATOM      8  C   UNL     1      -7.135  13.938 -12.627  1.00  0.00     0.258 C 
ATOM      9  O   UNL     1      -6.064  13.734 -13.178  1.00  0.00    -0.300 OA
ENDBRANCH   7   8
BRANCH   7  10
ATOM     10  O   UNL     1      -7.481  15.897 -11.322  1.00  0.00    -0.383 OA
ATOM     11  H   UNL     1      -7.063  16.782 -11.488  1.00  0.00     0.211 HD
ENDBRANCH   7  10
ENDBRANCH   6   7
BRANCH   6  12
ATOM     12  O   UNL     1      -5.972  16.848 -13.261  1.00  0.00    -0.387 OA
ATOM     13  H   UNL     1      -5.913  17.719 -13.732  1.00  0.00     0.211 HD
ENDBRANCH   6  12
ENDBRANCH   1   6
BRANCH   1  14
ATOM     14  O   UNL     1      -9.445  17.026 -13.626  1.00  0.00    -0.388 OA
ATOM     15  H   UNL     1      -9.941  17.886 -13.610  1.00  0.00     0.211 HD
ENDBRANCH   1  14
TORSDOF 8
ENDMDL
MODEL 4
REMARK VINA RESULT:    -4.343      1.772      4.147
REMARK INTER + INTRA:          -6.380
REMARK INTER:                  -5.676
REMARK INTRA:                  -0.704
REMARK UNBOUND:                -0.513
REMARK SMILES C[C@@H](O)[C@H](O)[C@@H](O)[C@H](O)C=O
REMARK SMILES IDX 4 1 2 2 1 3 3 4 6 6 8 7 10 8 11 9 9 10 7 12 5 14
REMARK H PARENT 3 5 9 11 7 13 5 15
REMARK Flexibility Score: inf
ROOT
ATOM      1  C   UNL     1      -8.308  15.864 -12.458  1.00  0.00     0.174 C 
ENDROOT
BRANCH   1   2
ATOM      2  C   UNL     1      -9.068  17.093 -13.029  1.00  0.00     0.142 C 
ATOM      3  C   UNL     1      -8.509  18.419 -12.505  1.00  0.00     0.041 C 
BRANCH   2   4
ATOM      4  O   UNL     1      -8.963  17.098 -14.430  1.00  0.00    -0.391 OA
ATOM      5  H   UNL     1      -8.106  16.653 -14.661  1.00  0.00     0.211 HD
ENDBRANCH   2   4
ENDBRANCH   1   2
BRANCH   1   6
ATOM      6  C   UNL     1      -7.421  15.144 -13.510  1.00  0.00     0.181 C 
BRANCH   6   7
ATOM      7  C   UNL     1      -7.121  13.683 -13.101  1.00  0.00     0.209 C 
BRANCH   7   8
ATOM      8  C   UNL     1      -6.032  13.095 -13.958  1.00  0.00     0.258 C 
ATOM      9  O   UNL     1      -4.875  13.064 -13.567  1.00  0.00    -0.300 OA
ENDBRANCH   7   8
BRANCH   7  10
ATOM     10  O   UNL     1      -6.742  13.621 -11.750  1.00  0.00    -0.383 OA
ATOM     11  H   UNL     1      -6.286  14.478 -11.539  1.00  0.00     0.211 HD
ENDBRANCH   7  10
ENDBRANCH   6   7
BRANCH   6  12
ATOM     12  O   UNL     1      -6.219  15.856 -13.688  1.00  0.00    -0.387 OA
ATOM     13  H   UNL     1      -5.996  15.820 -14.654  1.00  0.00     0.211 HD
ENDBRANCH   6  12
ENDBRANCH   1   6
BRANCH   1  14
ATOM     14  O   UNL     1      -7.545  16.244 -11.338  1.00  0.00    -0.388 OA
ATOM     15  H   UNL     1      -7.537  17.237 -11.303  1.00  0.00     0.211 HD
ENDBRANCH   1  14
TORSDOF 8
ENDMDL
MODEL 5
REMARK VINA RESULT:    -4.229      1.446      1.729
REMARK INTER + INTRA:          -6.225
REMARK INTER:                  -5.310
REMARK INTRA:                  -0.915
REMARK UNBOUND:                -0.513
REMARK SMILES C[C@@H](O)[C@H](O)[C@@H](O)[C@H](O)C=O
REMARK SMILES IDX 4 1 2 2 1 3 3 4 6 6 8 7 10 8 11 9 9 10 7 12 5 14
REMARK H PARENT 3 5 9 11 7 13 5 15
REMARK Flexibility Score: inf
ROOT
ATOM      1  C   UNL     1      -6.984  15.852 -13.756  1.00  0.00     0.174 C 
ENDROOT
BRANCH   1   2
ATOM      2  C   UNL     1      -7.472  14.437 -14.176  1.00  0.00     0.142 C 
ATOM      3  C   UNL     1      -6.878  13.331 -13.300  1.00  0.00     0.041 C 
BRANCH   2   4
ATOM      4  O   UNL     1      -8.872  14.375 -14.070  1.00  0.00    -0.391 OA
ATOM      5  H   UNL     1      -9.234  15.204 -14.480  1.00  0.00     0.211 HD
ENDBRANCH   2   4
ENDBRANCH   1   2
BRANCH   1   6
ATOM      6  C   UNL     1      -7.667  17.000 -14.549  1.00  0.00     0.181 C 
BRANCH   6   7
ATOM      7  C   UNL     1      -6.979  18.360 -14.291  1.00  0.00     0.209 C 
BRANCH   7   8
ATOM      8  C   UNL     1      -7.844  19.251 -13.440  1.00  0.00     0.258 C 
ATOM      9  O   UNL     1      -8.198  18.900 -12.324  1.00  0.00    -0.300 OA
ENDBRANCH   7   8
BRANCH   7  10
ATOM     10  O   UNL     1      -5.737  18.169 -13.663  1.00  0.00    -0.383 OA
ATOM     11  H   UNL     1      -5.738  18.735 -12.846  1.00  0.00     0.211 HD
ENDBRANCH   7  10
ENDBRANCH   6   7
BRANCH   6  12
ATOM     12  O   UNL     1      -9.030  17.072 -14.205  1.00  0.00    -0.387 OA
ATOM     13  H   UNL     1      -9.440  17.777 -14.771  1.00  0.00     0.211 HD
ENDBRANCH   6  12
ENDBRANCH   1   6
BRANCH   1  14
ATOM     14  O   UNL     1      -7.156  16.031 -12.371  1.00  0.00    -0.388 OA
ATOM     15  H   UNL     1      -6.546  16.760 -12.084  1.00  0.00     0.211 HD
ENDBRANCH   1  14
TORSDOF 8
ENDMDL
MODEL 6
REMARK VINA RESULT:    -4.218      1.205      4.253
REMARK INTER + INTRA:          -6.211
REMARK INTER:                  -5.335
REMARK INTRA:                  -0.876
REMARK UNBOUND:                -0.513
REMARK SMILES C[C@@H](O)[C@H](O)[C@@H](O)[C@H](O)C=O
REMARK SMILES IDX 4 1 2 2 1 3 3 4 6 6 8 7 10 8 11 9 9 10 7 12 5 14
REMARK H PARENT 3 5 9 11 7 13 5 15
REMARK Flexibility Score: inf
ROOT
ATOM      1  C   UNL     1      -7.607  18.667 -13.831  1.00  0.00     0.174 C 
ENDROOT
BRANCH   1   2
ATOM      2  C   UNL     1      -6.600  19.796 -14.187  1.00  0.00     0.142 C 
ATOM      3  C   UNL     1      -7.298  21.124 -14.496  1.00  0.00     0.041 C 
BRANCH   2   4
ATOM      4  O   UNL     1      -5.727  20.002 -13.106  1.00  0.00    -0.391 OA
ATOM      5  H   UNL     1      -5.649  19.138 -12.624  1.00  0.00     0.211 HD
ENDBRANCH   2   4
ENDBRANCH   1   2
BRANCH   1   6
ATOM      6  C   UNL     1      -7.073  17.243 -14.147  1.00  0.00     0.181 C 
BRANCH   6   7
ATOM      7  C   UNL     1      -8.122  16.155 -13.824  1.00  0.00     0.209 C 
BRANCH   7   8
ATOM      8  C   UNL     1      -7.720  15.358 -12.611  1.00  0.00     0.258 C 
ATOM      9  O   UNL     1      -7.489  15.912 -11.547  1.00  0.00    -0.300 OA
ENDBRANCH   7   8
BRANCH   7  10
ATOM     10  O   UNL     1      -9.382  16.738 -13.608  1.00  0.00    -0.383 OA
ATOM     11  H   UNL     1     -10.018  16.283 -14.221  1.00  0.00     0.211 HD
ENDBRANCH   7  10
ENDBRANCH   6   7
BRANCH   6  12
ATOM     12  O   UNL     1      -5.888  17.006 -13.423  1.00  0.00    -0.387 OA
ATOM     13  H   UNL     1      -6.120  17.040 -12.459  1.00  0.00     0.211 HD
ENDBRANCH   6  12
ENDBRANCH   1   6
BRANCH   1  14
ATOM     14  O   UNL     1      -7.988  18.768 -12.480  1.00  0.00    -0.388 OA
ATOM     15  H   UNL     1      -7.346  19.379 -12.031  1.00  0.00     0.211 HD
ENDBRANCH   1  14
TORSDOF 8
ENDMDL
MODEL 7
REMARK VINA RESULT:    -3.816      1.390      2.121
REMARK INTER + INTRA:          -5.667
REMARK INTER:                  -5.318
REMARK INTRA:                  -0.349
REMARK UNBOUND:                -0.513
REMARK SMILES C[C@@H](O)[C@H](O)[C@@H](O)[C@H](O)C=O
REMARK SMILES IDX 4 1 2 2 1 3 3 4 6 6 8 7 10 8 11 9 9 10 7 12 5 14
REMARK H PARENT 3 5 9 11 7 13 5 15
REMARK Flexibility Score: inf
ROOT
ATOM      1  C   UNL     1      -8.146  16.926 -13.695  1.00  0.00     0.174 C 
ENDROOT
BRANCH   1   2
ATOM      2  C   UNL     1      -8.618  16.354 -12.330  1.00  0.00     0.142 C 
ATOM      3  C   UNL     1      -7.719  15.220 -11.830  1.00  0.00     0.041 C 
BRANCH   2   4
ATOM      4  O   UNL     1      -8.610  17.376 -11.367  1.00  0.00    -0.391 OA
ATOM      5  H   UNL     1      -8.431  16.949 -10.488  1.00  0.00     0.211 HD
ENDBRANCH   2   4
ENDBRANCH   1   2
BRANCH   1   6
ATOM      6  C   UNL     1      -6.603  17.082 -13.798  1.00  0.00     0.181 C 
BRANCH   6   7
ATOM      7  C   UNL     1      -6.196  18.541 -14.105  1.00  0.00     0.209 C 
BRANCH   7   8
ATOM      8  C   UNL     1      -7.269  19.505 -13.673  1.00  0.00     0.258 C 
ATOM      9  O   UNL     1      -7.269  19.976 -12.545  1.00  0.00    -0.300 OA
ENDBRANCH   7   8
BRANCH   7  10
ATOM     10  O   UNL     1      -4.989  18.859 -13.459  1.00  0.00    -0.383 OA
ATOM     11  H   UNL     1      -4.901  18.235 -12.691  1.00  0.00     0.211 HD
ENDBRANCH   7  10
ENDBRANCH   6   7
BRANCH   6  12
ATOM     12  O   UNL     1      -6.101  16.218 -14.790  1.00  0.00    -0.387 OA
ATOM     13  H   UNL     1      -5.677  16.784 -15.486  1.00  0.00     0.211 HD
ENDBRANCH   6  12
ENDBRANCH   1   6
BRANCH   1  14
ATOM     14  O   UNL     1      -8.638  16.133 -14.749  1.00  0.00    -0.388 OA
ATOM     15  H   UNL     1      -9.545  16.466 -14.977  1.00  0.00     0.211 HD
ENDBRANCH   1  14
TORSDOF 8
ENDMDL
MODEL 8
REMARK VINA RESULT:    -3.587      2.052      2.909
REMARK INTER + INTRA:          -5.359
REMARK INTER:                  -4.918
REMARK INTRA:                  -0.440
REMARK UNBOUND:                -0.513
REMARK SMILES C[C@@H](O)[C@H](O)[C@@H](O)[C@H](O)C=O
REMARK SMILES IDX 4 1 2 2 1 3 3 4 6 6 8 7 10 8 11 9 9 10 7 12 5 14
REMARK H PARENT 3 5 9 11 7 13 5 15
REMARK Flexibility Score: inf
ROOT
ATOM      1  C   UNL     1      -7.440  13.828 -13.626  1.00  0.00     0.174 C 
ENDROOT
BRANCH   1   2
ATOM      2  C   UNL     1      -6.054  13.233 -14.000  1.00  0.00     0.142 C 
ATOM      3  C   UNL     1      -5.219  14.190 -14.856  1.00  0.00     0.041 C 
BRANCH   2   4
ATOM      4  O   UNL     1      -5.333  12.955 -12.826  1.00  0.00    -0.391 OA
ATOM      5  H   UNL     1      -5.876  12.318 -12.292  1.00  0.00     0.211 HD
ENDBRANCH   2   4
ENDBRANCH   1   2
BRANCH   1   6
ATOM      6  C   UNL     1      -7.504  15.374 -13.764  1.00  0.00     0.181 C 
BRANCH   6   7
ATOM      7  C   UNL     1      -7.586  16.067 -12.384  1.00  0.00     0.209 C 
BRANCH   7   8
ATOM      8  C   UNL     1      -8.846  16.882 -12.262  1.00  0.00     0.258 C 
ATOM      9  O   UNL     1      -8.851  18.072 -12.542  1.00  0.00    -0.300 OA
ENDBRANCH   7   8
BRANCH   7  10
ATOM     10  O   UNL     1      -7.539  15.114 -11.354  1.00  0.00    -0.383 OA
ATOM     11  H   UNL     1      -6.819  15.398 -10.732  1.00  0.00     0.211 HD
ENDBRANCH   7  10
ENDBRANCH   6   7
BRANCH   6  12
ATOM     12  O   UNL     1      -8.610  15.737 -14.556  1.00  0.00    -0.387 OA
ATOM     13  H   UNL     1      -8.516  16.702 -14.769  1.00  0.00     0.211 HD
ENDBRANCH   6  12
ENDBRANCH   1   6
BRANCH   1  14
ATOM     14  O   UNL     1      -8.450  13.217 -14.391  1.00  0.00    -0.388 OA
ATOM     15  H   UNL     1      -9.147  12.890 -13.764  1.00  0.00     0.211 HD
ENDBRANCH   1  14
TORSDOF 8
ENDMDL
