MODEL 1
REMARK VINA RESULT:    -3.891      0.000      0.000
REMARK INTER + INTRA:          -5.710
REMARK INTER:                  -5.255
REMARK INTRA:                  -0.454
REMARK UNBOUND:                -0.454
REMARK SMILES CCCCCCC=CC(=O)[O-]
REMARK SMILES IDX 5 1 6 2 7 3 8 4 9 5 10 6 11 7 4 8 3 9 2 10 1 11
REMARK H PARENT
REMARK Flexibility Score: inf
ROOT
ATOM      1  C   UNL     1       7.934  11.100   9.939  1.00  0.00     0.004 C 
ENDROOT
BRANCH   1   2
ATOM      2  C   UNL     1       7.675  11.840  11.258  1.00  0.00     0.027 C 
BRANCH   2   3
ATOM      3  C   UNL     1       7.853  10.928  12.437  1.00  0.00    -0.025 C 
ATOM      4  C   UNL     1       7.524  11.311  13.674  1.00  0.00     0.020 C 
BRANCH   4   5
ATOM      5  C   UNL     1       7.707  10.432  14.839  1.00  0.00     0.064 C 
ATOM      6  O   UNL     1       7.581   9.187  14.702  1.00  0.00    -0.545 OA
ATOM      7  O   UNL     1       8.019  10.954  16.089  1.00  0.00    -0.545 OA
ENDBRANCH   4   5
ENDBRANCH   2   3
ENDBRANCH   1   2
BRANCH   1   8
ATOM      8  C   UNL     1       6.955   9.934   9.763  1.00  0.00     0.000 C 
BRANCH   8   9
ATOM      9  C   UNL     1       7.568   8.826   8.899  1.00  0.00    -0.000 C 
BRANCH   9  10
ATOM     10  C   UNL     1       8.118   7.690   9.768  1.00  0.00    -0.003 C 
ATOM     11  C   UNL     1       7.445   7.667  11.138  1.00  0.00     0.004 C 
ENDBRANCH   9  10
ENDBRANCH   8   9
ENDBRANCH   1   8
TORSDOF 6
ENDMDL
MODEL 2
REMARK VINA RESULT:    -3.884      7.511      8.633
REMARK INTER + INTRA:          -5.700
REMARK INTER:                  -5.087
REMARK INTRA:                  -0.613
REMARK UNBOUND:                -0.454
REMARK SMILES CCCCCCC=CC(=O)[O-]
REMARK SMILES IDX 5 1 6 2 7 3 8 4 9 5 10 6 11 7 4 8 3 9 2 10 1 11
REMARK H PARENT
REMARK Flexibility Score: inf
ROOT
ATOM      1  C   UNL     1      13.907  12.124   7.269  1.00  0.00     0.004 C 
ENDROOT
BRANCH   1   2
ATOM      2  C   UNL     1      12.823  11.074   7.544  1.00  0.00     0.027 C 
BRANCH   2   3
ATOM      3  C   UNL     1      13.223   9.728   7.013  1.00  0.00    -0.025 C 
ATOM      4  C   UNL     1      13.346   8.667   7.816  1.00  0.00     0.020 C 
BRANCH   4   5
ATOM      5  C   UNL     1      13.752   7.347   7.310  1.00  0.00     0.064 C 
ATOM      6  O   UNL     1      14.969   7.114   7.090  1.00  0.00    -0.545 OA
ATOM      7  O   UNL     1      12.812   6.351   7.073  1.00  0.00    -0.545 OA
ENDBRANCH   4   5
ENDBRANCH   2   3
ENDBRANCH   1   2
BRANCH   1   8
ATOM      8  C   UNL     1      15.034  12.035   8.304  1.00  0.00     0.000 C 
BRANCH   8   9
ATOM      9  C   UNL     1      14.471  11.992   9.729  1.00  0.00    -0.000 C 
BRANCH   9  10
ATOM     10  C   UNL     1      15.394  11.201  10.663  1.00  0.00    -0.003 C 
ATOM     11  C   UNL     1      14.812   9.828  10.983  1.00  0.00     0.004 C 
ENDBRANCH   9  10
ENDBRANCH   8   9
ENDBRANCH   1   8
TORSDOF 6
ENDMDL
MODEL 3
REMARK VINA RESULT:    -3.854      2.827      5.415
REMARK INTER + INTRA:          -5.660
REMARK INTER:                  -5.392
REMARK INTRA:                  -0.268
REMARK UNBOUND:                -0.454
REMARK SMILES CCCCCCC=CC(=O)[O-]
REMARK SMILES IDX 5 1 6 2 7 3 8 4 9 5 10 6 11 7 4 8 3 9 2 10 1 11
REMARK H PARENT
REMARK Flexibility Score: inf
ROOT
ATOM      1  C   UNL     1       7.405  11.018  13.898  1.00  0.00     0.004 C 
ENDROOT
BRANCH   1   2
ATOM      2  C   UNL     1       7.829  11.184  12.433  1.00  0.00     0.027 C 
BRANCH   2   3
ATOM      3  C   UNL     1       7.834   9.864  11.716  1.00  0.00    -0.025 C 
ATOM      4  C   UNL     1       7.449   9.759  10.441  1.00  0.00     0.020 C 
BRANCH   4   5
ATOM      5  C   UNL     1       7.436   8.471   9.733  1.00  0.00     0.064 C 
ATOM      6  O   UNL     1       7.593   7.404  10.382  1.00  0.00    -0.545 OA
ATOM      7  O   UNL     1       7.250   8.411   8.356  1.00  0.00    -0.545 OA
ENDBRANCH   4   5
ENDBRANCH   2   3
ENDBRANCH   1   2
BRANCH   1   8
ATOM      8  C   UNL     1       7.637   9.581  14.378  1.00  0.00     0.000 C 
BRANCH   8   9
ATOM      9  C   UNL     1       7.619   9.502  15.909  1.00  0.00    -0.000 C 
BRANCH   9  10
ATOM     10  C   UNL     1       9.044   9.478  16.475  1.00  0.00    -0.003 C 
ATOM     11  C   UNL     1       9.045   9.094  17.952  1.00  0.00     0.004 C 
ENDBRANCH   9  10
ENDBRANCH   8   9
ENDBRANCH   1   8
TORSDOF 6
ENDMDL
MODEL 4
REMARK VINA RESULT:    -3.810      5.382      7.403
REMARK INTER + INTRA:          -5.601
REMARK INTER:                  -5.212
REMARK INTRA:                  -0.389
REMARK UNBOUND:                -0.454
REMARK SMILES CCCCCCC=CC(=O)[O-]
REMARK SMILES IDX 5 1 6 2 7 3 8 4 9 5 10 6 11 7 4 8 3 9 2 10 1 11
REMARK H PARENT
REMARK Flexibility Score: inf
ROOT
ATOM      1  C   UNL     1       8.998   9.110  18.073  1.00  0.00     0.004 C 
ENDROOT
BRANCH   1   2
ATOM      2  C   UNL     1       7.885   9.879  18.796  1.00  0.00     0.027 C 
BRANCH   2   3
ATOM      3  C   UNL     1       7.934   9.641  20.278  1.00  0.00    -0.025 C 
ATOM      4  C   UNL     1       8.557  10.488  21.102  1.00  0.00     0.020 C 
BRANCH   4   5
ATOM      5  C   UNL     1       8.626  10.258  22.553  1.00  0.00     0.064 C 
ATOM      6  O   UNL     1       8.825   9.094  22.988  1.00  0.00    -0.545 OA
ATOM      7  O   UNL     1       8.475  11.307  23.453  1.00  0.00    -0.545 OA
ENDBRANCH   4   5
ENDBRANCH   2   3
ENDBRANCH   1   2
BRANCH   1   8
ATOM      8  C   UNL     1       9.038   9.473  16.584  1.00  0.00     0.000 C 
BRANCH   8   9
ATOM      9  C   UNL     1       7.746  10.178  16.154  1.00  0.00    -0.000 C 
BRANCH   9  10
ATOM     10  C   UNL     1       6.935   9.303  15.191  1.00  0.00    -0.003 C 
ATOM     11  C   UNL     1       5.662   8.786  15.855  1.00  0.00     0.004 C 
ENDBRANCH   9  10
ENDBRANCH   8   9
ENDBRANCH   1   8
TORSDOF 6
ENDMDL
MODEL 5
REMARK VINA RESULT:    -3.799      2.009      3.509
REMARK INTER + INTRA:          -5.586
REMARK INTER:                  -5.243
REMARK INTRA:                  -0.343
REMARK UNBOUND:                -0.454
REMARK SMILES CCCCCCC=CC(=O)[O-]
REMARK SMILES IDX 5 1 6 2 7 3 8 4 9 5 10 6 11 7 4 8 3 9 2 10 1 11
REMARK H PARENT
REMARK Flexibility Score: inf
ROOT
ATOM      1  C   UNL     1       7.591  11.255  14.235  1.00  0.00     0.004 C 
ENDROOT
BRANCH   1   2
ATOM      2  C   UNL     1       7.585   9.721  14.266  1.00  0.00     0.027 C 
BRANCH   2   3
ATOM      3  C   UNL     1       7.841   9.205  15.653  1.00  0.00    -0.025 C 
ATOM      4  C   UNL     1       8.534   9.916  16.548  1.00  0.00     0.020 C 
BRANCH   4   5
ATOM      5  C   UNL     1       8.803   9.415  17.903  1.00  0.00     0.064 C 
ATOM      6  O   UNL     1       9.544   8.408  18.058  1.00  0.00    -0.545 OA
ATOM      7  O   UNL     1       8.255  10.037  19.019  1.00  0.00    -0.545 OA
ENDBRANCH   4   5
ENDBRANCH   2   3
ENDBRANCH   1   2
BRANCH   1   8
ATOM      8  C   UNL     1       7.150  11.778  12.863  1.00  0.00     0.000 C 
BRANCH   8   9
ATOM      9  C   UNL     1       8.040  11.217  11.748  1.00  0.00    -0.000 C 
BRANCH   9  10
ATOM     10  C   UNL     1       7.203  10.799  10.534  1.00  0.00    -0.003 C 
ATOM     11  C   UNL     1       7.450   9.338  10.169  1.00  0.00     0.004 C 
ENDBRANCH   9  10
ENDBRANCH   8   9
ENDBRANCH   1   8
TORSDOF 6
ENDMDL
MODEL 6
REMARK VINA RESULT:    -3.795     10.272     11.280
REMARK INTER + INTRA:          -5.580
REMARK INTER:                  -5.325
REMARK INTRA:                  -0.256
REMARK UNBOUND:                -0.454
REMARK SMILES CCCCCCC=CC(=O)[O-]
REMARK SMILES IDX 5 1 6 2 7 3 8 4 9 5 10 6 11 7 4 8 3 9 2 10 1 11
REMARK H PARENT
REMARK Flexibility Score: inf
ROOT
ATOM      1  C   UNL     1       8.961   2.675  19.625  1.00  0.00     0.004 C 
ENDROOT
BRANCH   1   2
ATOM      2  C   UNL     1       9.558   4.088  19.624  1.00  0.00     0.027 C 
BRANCH   2   3
ATOM      3  C   UNL     1      10.606   4.236  20.688  1.00  0.00    -0.025 C 
ATOM      4  C   UNL     1      10.945   3.217  21.483  1.00  0.00     0.020 C 
BRANCH   4   5
ATOM      5  C   UNL     1      11.959   3.353  22.539  1.00  0.00     0.064 C 
ATOM      6  O   UNL     1      13.134   3.685  22.232  1.00  0.00    -0.545 OA
ATOM      7  O   UNL     1      11.641   3.123  23.872  1.00  0.00    -0.545 OA
ENDBRANCH   4   5
ENDBRANCH   2   3
ENDBRANCH   1   2
BRANCH   1   8
ATOM      8  C   UNL     1       7.544   2.677  19.039  1.00  0.00     0.000 C 
BRANCH   8   9
ATOM      9  C   UNL     1       7.558   2.269  17.562  1.00  0.00    -0.000 C 
BRANCH   9  10
ATOM     10  C   UNL     1       6.334   1.413  17.216  1.00  0.00    -0.003 C 
ATOM     11  C   UNL     1       5.942   0.512  18.383  1.00  0.00     0.004 C 
ENDBRANCH   9  10
ENDBRANCH   8   9
ENDBRANCH   1   8
TORSDOF 6
ENDMDL
MODEL 7
REMARK VINA RESULT:    -3.768      4.910      6.514
REMARK INTER + INTRA:          -5.544
REMARK INTER:                  -4.983
REMARK INTRA:                  -0.561
REMARK UNBOUND:                -0.454
REMARK SMILES CCCCCCC=CC(=O)[O-]
REMARK SMILES IDX 5 1 6 2 7 3 8 4 9 5 10 6 11 7 4 8 3 9 2 10 1 11
REMARK H PARENT
REMARK Flexibility Score: inf
ROOT
ATOM      1  C   UNL     1       9.002   9.494  16.314  1.00  0.00     0.004 C 
ENDROOT
BRANCH   1   2
ATOM      2  C   UNL     1       9.001   8.954  17.750  1.00  0.00     0.027 C 
BRANCH   2   3
ATOM      3  C   UNL     1       8.261   9.874  18.676  1.00  0.00    -0.025 C 
ATOM      4  C   UNL     1       8.285   9.702  20.001  1.00  0.00     0.020 C 
BRANCH   4   5
ATOM      5  C   UNL     1       7.552  10.588  20.918  1.00  0.00     0.064 C 
ATOM      6  O   UNL     1       8.189  11.279  21.756  1.00  0.00    -0.545 OA
ATOM      7  O   UNL     1       6.165  10.678  20.872  1.00  0.00    -0.545 OA
ENDBRANCH   4   5
ENDBRANCH   2   3
ENDBRANCH   1   2
BRANCH   1   8
ATOM      8  C   UNL     1       7.880  10.518  16.111  1.00  0.00     0.000 C 
BRANCH   8   9
ATOM      9  C   UNL     1       6.775   9.953  15.210  1.00  0.00    -0.000 C 
BRANCH   9  10
ATOM     10  C   UNL     1       5.423   9.949  15.933  1.00  0.00    -0.003 C 
ATOM     11  C   UNL     1       5.116   8.576  16.523  1.00  0.00     0.004 C 
ENDBRANCH   9  10
ENDBRANCH   8   9
ENDBRANCH   1   8
TORSDOF 6
ENDMDL
MODEL 8
REMARK VINA RESULT:    -3.758      3.156      5.743
REMARK INTER + INTRA:          -5.531
REMARK INTER:                  -5.248
REMARK INTRA:                  -0.283
REMARK UNBOUND:                -0.454
REMARK SMILES CCCCCCC=CC(=O)[O-]
REMARK SMILES IDX 5 1 6 2 7 3 8 4 9 5 10 6 11 7 4 8 3 9 2 10 1 11
REMARK H PARENT
REMARK Flexibility Score: inf
ROOT
ATOM      1  C   UNL     1       7.539   9.621  14.594  1.00  0.00     0.004 C 
ENDROOT
BRANCH   1   2
ATOM      2  C   UNL     1       7.711  11.139  14.455  1.00  0.00     0.027 C 
BRANCH   2   3
ATOM      3  C   UNL     1       7.335  11.605  13.079  1.00  0.00    -0.025 C 
ATOM      4  C   UNL     1       7.817  11.011  11.983  1.00  0.00     0.020 C 
BRANCH   4   5
ATOM      5  C   UNL     1       7.467  11.468  10.629  1.00  0.00     0.064 C 
ATOM      6  O   UNL     1       8.384  11.729   9.807  1.00  0.00    -0.545 OA
ATOM      7  O   UNL     1       6.140  11.614  10.242  1.00  0.00    -0.545 OA
ENDBRANCH   4   5
ENDBRANCH   2   3
ENDBRANCH   1   2
BRANCH   1   8
ATOM      8  C   UNL     1       7.687   9.182  16.055  1.00  0.00     0.000 C 
BRANCH   8   9
ATOM      9  C   UNL     1       9.104   9.456  16.571  1.00  0.00    -0.000 C 
BRANCH   9  10
ATOM     10  C   UNL     1       9.206   9.178  18.075  1.00  0.00    -0.003 C 
ATOM     11  C   UNL     1       7.854   9.349  18.762  1.00  0.00     0.004 C 
ENDBRANCH   9  10
ENDBRANCH   8   9
ENDBRANCH   1   8
TORSDOF 6
ENDMDL
MODEL 9
REMARK VINA RESULT:    -3.718      5.324      7.663
REMARK INTER + INTRA:          -5.476
REMARK INTER:                  -5.070
REMARK INTRA:                  -0.407
REMARK UNBOUND:                -0.454
REMARK SMILES CCCCCCC=CC(=O)[O-]
REMARK SMILES IDX 5 1 6 2 7 3 8 4 9 5 10 6 11 7 4 8 3 9 2 10 1 11
REMARK H PARENT
REMARK Flexibility Score: inf
ROOT
ATOM      1  C   UNL     1       8.275   9.851  18.670  1.00  0.00     0.004 C 
ENDROOT
BRANCH   1   2
ATOM      2  C   UNL     1       7.689   8.632  19.394  1.00  0.00     0.027 C 
BRANCH   2   3
ATOM      3  C   UNL     1       8.728   7.566  19.590  1.00  0.00    -0.025 C 
ATOM      4  C   UNL     1       8.472   6.461  20.297  1.00  0.00     0.020 C 
BRANCH   4   5
ATOM      5  C   UNL     1       9.485   5.417  20.509  1.00  0.00     0.064 C 
ATOM      6  O   UNL     1      10.122   5.381  21.594  1.00  0.00    -0.545 OA
ATOM      7  O   UNL     1       9.751   4.466  19.529  1.00  0.00    -0.545 OA
ENDBRANCH   4   5
ENDBRANCH   2   3
ENDBRANCH   1   2
BRANCH   1   8
ATOM      8  C   UNL     1       8.967   9.436  17.367  1.00  0.00     0.000 C 
BRANCH   8   9
ATOM      9  C   UNL     1       8.371  10.179  16.166  1.00  0.00    -0.000 C 
BRANCH   9  10
ATOM     10  C   UNL     1       7.617   9.216  15.241  1.00  0.00    -0.003 C 
ATOM     11  C   UNL     1       6.170   9.039  15.690  1.00  0.00     0.004 C 
ENDBRANCH   9  10
ENDBRANCH   8   9
ENDBRANCH   1   8
TORSDOF 6
ENDMDL
