MODEL 1
REMARK VINA RESULT:    -5.851      0.000      0.000
REMARK INTER + INTRA:          -6.289
REMARK INTER:                  -6.193
REMARK INTRA:                  -0.095
REMARK UNBOUND:                -0.095
REMARK SMILES C=C(C)[C@H]1CC=C(C)C(=O)C1
REMARK SMILES IDX 8 1 7 2 6 3 5 4 4 5 11 6 9 7 10 8 2 9 1 10 3 11
REMARK H PARENT
REMARK Flexibility Score: inf
ROOT
ATOM      1  C   UNL     1      12.537 -20.079 -31.772  1.00  0.00     0.048 C 
ATOM      2  C   UNL     1      13.061 -19.020 -30.841  1.00  0.00    -0.012 C 
ATOM      3  C   UNL     1      13.204 -17.756 -31.278  1.00  0.00    -0.019 C 
ATOM      4  C   UNL     1      13.740 -16.662 -30.393  1.00  0.00     0.036 C 
ATOM      5  C   UNL     1      13.340 -16.890 -28.923  1.00  0.00     0.025 C 
ATOM      6  C   UNL     1      13.788 -18.289 -28.459  1.00  0.00     0.089 C 
ATOM      7  C   UNL     1      13.301 -19.345 -29.413  1.00  0.00     0.158 C 
ATOM      8  O   UNL     1      13.133 -20.521 -28.993  1.00  0.00    -0.295 OA
ENDROOT
BRANCH   5   9
ATOM      9  C   UNL     1      13.884 -15.795 -28.015  1.00  0.00    -0.077 C 
ATOM     10  C   UNL     1      14.158 -14.568 -28.488  1.00  0.00     0.008 C 
ATOM     11  C   UNL     1      14.126 -16.075 -26.554  1.00  0.00     0.039 C 
ENDBRANCH   5   9
TORSDOF 1
ENDMDL
MODEL 2
REMARK VINA RESULT:    -5.657      1.957      2.583
REMARK INTER + INTRA:          -6.083
REMARK INTER:                  -5.994
REMARK INTRA:                  -0.089
REMARK UNBOUND:                -0.095
REMARK SMILES C=C(C)[C@H]1CC=C(C)C(=O)C1
REMARK SMILES IDX 8 1 7 2 6 3 5 4 4 5 11 6 9 7 10 8 2 9 1 10 3 11
REMARK H PARENT
REMARK Flexibility Score: inf
ROOT
ATOM      1  C   UNL     1      10.621 -18.232 -31.939  1.00  0.00     0.048 C 
ATOM      2  C   UNL     1      11.436 -17.408 -30.981  1.00  0.00    -0.012 C 
ATOM      3  C   UNL     1      10.873 -16.946 -29.850  1.00  0.00    -0.019 C 
ATOM      4  C   UNL     1      11.638 -16.102 -28.865  1.00  0.00     0.036 C 
ATOM      5  C   UNL     1      13.127 -16.496 -28.836  1.00  0.00     0.025 C 
ATOM      6  C   UNL     1      13.726 -16.426 -30.253  1.00  0.00     0.089 C 
ATOM      7  C   UNL     1      12.888 -17.214 -31.222  1.00  0.00     0.158 C 
ATOM      8  O   UNL     1      13.425 -17.678 -32.263  1.00  0.00    -0.295 OA
ENDROOT
BRANCH   5   9
ATOM      9  C   UNL     1      13.915 -15.644 -27.850  1.00  0.00    -0.077 C 
ATOM     10  C   UNL     1      14.135 -16.057 -26.590  1.00  0.00     0.008 C 
ATOM     11  C   UNL     1      14.469 -14.309 -28.278  1.00  0.00     0.039 C 
ENDBRANCH   5   9
TORSDOF 1
ENDMDL
MODEL 3
REMARK VINA RESULT:    -5.631      2.034      2.062
REMARK INTER + INTRA:          -6.055
REMARK INTER:                  -5.965
REMARK INTRA:                  -0.091
REMARK UNBOUND:                -0.095
REMARK SMILES C=C(C)[C@H]1CC=C(C)C(=O)C1
REMARK SMILES IDX 8 1 7 2 6 3 5 4 4 5 11 6 9 7 10 8 2 9 1 10 3 11
REMARK H PARENT
REMARK Flexibility Score: inf
ROOT
ATOM      1  C   UNL     1      10.473 -18.196 -31.822  1.00  0.00     0.048 C 
ATOM      2  C   UNL     1      11.422 -17.631 -30.802  1.00  0.00    -0.012 C 
ATOM      3  C   UNL     1      12.616 -17.151 -31.193  1.00  0.00    -0.019 C 
ATOM      4  C   UNL     1      13.611 -16.590 -30.211  1.00  0.00     0.036 C 
ATOM      5  C   UNL     1      12.899 -15.911 -29.026  1.00  0.00     0.025 C 
ATOM      6  C   UNL     1      11.913 -16.890 -28.363  1.00  0.00     0.089 C 
ATOM      7  C   UNL     1      10.991 -17.489 -29.389  1.00  0.00     0.158 C 
ATOM      8  O   UNL     1       9.858 -17.906 -29.028  1.00  0.00    -0.295 OA
ENDROOT
BRANCH   5   9
ATOM      9  C   UNL     1      13.893 -15.347 -28.020  1.00  0.00    -0.077 C 
ATOM     10  C   UNL     1      14.596 -14.232 -28.282  1.00  0.00     0.008 C 
ATOM     11  C   UNL     1      14.106 -16.039 -26.698  1.00  0.00     0.039 C 
ENDBRANCH   5   9
TORSDOF 1
ENDMDL
MODEL 4
REMARK VINA RESULT:    -5.442      1.440      2.293
REMARK INTER + INTRA:          -5.855
REMARK INTER:                  -5.760
REMARK INTRA:                  -0.095
REMARK UNBOUND:                -0.095
REMARK SMILES C=C(C)[C@H]1CC=C(C)C(=O)C1
REMARK SMILES IDX 8 1 7 2 6 3 5 4 4 5 11 6 9 7 10 8 2 9 1 10 3 11
REMARK H PARENT
REMARK Flexibility Score: inf
ROOT
ATOM      1  C   UNL     1      12.612 -20.549 -31.611  1.00  0.00     0.048 C 
ATOM      2  C   UNL     1      12.731 -19.393 -30.656  1.00  0.00    -0.012 C 
ATOM      3  C   UNL     1      12.489 -19.580 -29.347  1.00  0.00    -0.019 C 
ATOM      4  C   UNL     1      12.576 -18.455 -28.350  1.00  0.00     0.036 C 
ATOM      5  C   UNL     1      13.655 -17.434 -28.759  1.00  0.00     0.025 C 
ATOM      6  C   UNL     1      13.396 -16.928 -30.190  1.00  0.00     0.089 C 
ATOM      7  C   UNL     1      13.234 -18.083 -31.139  1.00  0.00     0.158 C 
ATOM      8  O   UNL     1      13.495 -17.915 -32.360  1.00  0.00    -0.295 OA
ENDROOT
BRANCH   5   9
ATOM      9  C   UNL     1      13.748 -16.284 -27.764  1.00  0.00    -0.077 C 
ATOM     10  C   UNL     1      13.537 -16.477 -26.451  1.00  0.00     0.008 C 
ATOM     11  C   UNL     1      14.083 -14.895 -28.243  1.00  0.00     0.039 C 
ENDBRANCH   5   9
TORSDOF 1
ENDMDL
MODEL 5
REMARK VINA RESULT:    -5.396      1.720      4.382
REMARK INTER + INTRA:          -5.807
REMARK INTER:                  -5.709
REMARK INTRA:                  -0.098
REMARK UNBOUND:                -0.095
REMARK SMILES C=C(C)[C@H]1CC=C(C)C(=O)C1
REMARK SMILES IDX 8 1 7 2 6 3 5 4 4 5 11 6 9 7 10 8 2 9 1 10 3 11
REMARK H PARENT
REMARK Flexibility Score: inf
ROOT
ATOM      1  C   UNL     1      14.490 -14.207 -28.120  1.00  0.00     0.048 C 
ATOM      2  C   UNL     1      13.980 -15.541 -28.592  1.00  0.00    -0.012 C 
ATOM      3  C   UNL     1      13.896 -15.798 -29.909  1.00  0.00    -0.019 C 
ATOM      4  C   UNL     1      13.376 -17.110 -30.435  1.00  0.00     0.036 C 
ATOM      5  C   UNL     1      13.727 -18.268 -29.482  1.00  0.00     0.025 C 
ATOM      6  C   UNL     1      13.215 -17.964 -28.062  1.00  0.00     0.089 C 
ATOM      7  C   UNL     1      13.689 -16.612 -27.606  1.00  0.00     0.158 C 
ATOM      8  O   UNL     1      13.801 -16.384 -26.372  1.00  0.00    -0.295 OA
ENDROOT
BRANCH   5   9
ATOM      9  C   UNL     1      13.199 -19.600 -29.997  1.00  0.00    -0.077 C 
ATOM     10  C   UNL     1      12.950 -20.623 -29.162  1.00  0.00     0.008 C 
ATOM     11  C   UNL     1      12.942 -19.794 -31.470  1.00  0.00     0.039 C 
ENDBRANCH   5   9
TORSDOF 1
ENDMDL
MODEL 6
REMARK VINA RESULT:    -5.346      2.129      3.951
REMARK INTER + INTRA:          -5.754
REMARK INTER:                  -5.659
REMARK INTRA:                  -0.095
REMARK UNBOUND:                -0.095
REMARK SMILES C=C(C)[C@H]1CC=C(C)C(=O)C1
REMARK SMILES IDX 8 1 7 2 6 3 5 4 4 5 11 6 9 7 10 8 2 9 1 10 3 11
REMARK H PARENT
REMARK Flexibility Score: inf
ROOT
ATOM      1  C   UNL     1      11.748 -17.245 -26.508  1.00  0.00     0.048 C 
ATOM      2  C   UNL     1      12.193 -16.893 -27.901  1.00  0.00    -0.012 C 
ATOM      3  C   UNL     1      13.325 -16.192 -28.084  1.00  0.00    -0.019 C 
ATOM      4  C   UNL     1      13.807 -15.797 -29.455  1.00  0.00     0.036 C 
ATOM      5  C   UNL     1      13.421 -16.857 -30.505  1.00  0.00     0.025 C 
ATOM      6  C   UNL     1      11.903 -17.114 -30.471  1.00  0.00     0.089 C 
ATOM      7  C   UNL     1      11.450 -17.425 -29.071  1.00  0.00     0.158 C 
ATOM      8  O   UNL     1      10.408 -18.112 -28.901  1.00  0.00    -0.295 OA
ENDROOT
BRANCH   5   9
ATOM      9  C   UNL     1      13.894 -16.466 -31.899  1.00  0.00    -0.077 C 
ATOM     10  C   UNL     1      15.004 -15.731 -32.079  1.00  0.00     0.008 C 
ATOM     11  C   UNL     1      13.115 -16.904 -33.112  1.00  0.00     0.039 C 
ENDBRANCH   5   9
TORSDOF 1
ENDMDL
MODEL 7
REMARK VINA RESULT:    -5.214      1.745      2.237
REMARK INTER + INTRA:          -5.614
REMARK INTER:                  -5.518
REMARK INTRA:                  -0.096
REMARK UNBOUND:                -0.095
REMARK SMILES C=C(C)[C@H]1CC=C(C)C(=O)C1
REMARK SMILES IDX 8 1 7 2 6 3 5 4 4 5 11 6 9 7 10 8 2 9 1 10 3 11
REMARK H PARENT
REMARK Flexibility Score: inf
ROOT
ATOM      1  C   UNL     1      12.499 -17.396 -32.876  1.00  0.00     0.048 C 
ATOM      2  C   UNL     1      12.659 -17.403 -31.381  1.00  0.00    -0.012 C 
ATOM      3  C   UNL     1      13.467 -16.506 -30.790  1.00  0.00    -0.019 C 
ATOM      4  C   UNL     1      13.677 -16.480 -29.298  1.00  0.00     0.036 C 
ATOM      5  C   UNL     1      12.405 -16.927 -28.552  1.00  0.00     0.025 C 
ATOM      6  C   UNL     1      11.949 -18.310 -29.054  1.00  0.00     0.089 C 
ATOM      7  C   UNL     1      11.831 -18.316 -30.553  1.00  0.00     0.158 C 
ATOM      8  O   UNL     1      11.046 -19.134 -31.104  1.00  0.00    -0.295 OA
ENDROOT
BRANCH   5   9
ATOM      9  C   UNL     1      12.606 -16.915 -27.042  1.00  0.00    -0.077 C 
ATOM     10  C   UNL     1      13.760 -16.499 -26.494  1.00  0.00     0.008 C 
ATOM     11  C   UNL     1      11.498 -17.375 -26.129  1.00  0.00     0.039 C 
ENDBRANCH   5   9
TORSDOF 1
ENDMDL
MODEL 8
REMARK VINA RESULT:    -5.195      2.434      4.552
REMARK INTER + INTRA:          -5.595
REMARK INTER:                  -5.498
REMARK INTRA:                  -0.097
REMARK UNBOUND:                -0.095
REMARK SMILES C=C(C)[C@H]1CC=C(C)C(=O)C1
REMARK SMILES IDX 8 1 7 2 6 3 5 4 4 5 11 6 9 7 10 8 2 9 1 10 3 11
REMARK H PARENT
REMARK Flexibility Score: inf
ROOT
ATOM      1  C   UNL     1      15.564 -13.110 -29.145  1.00  0.00     0.048 C 
ATOM      2  C   UNL     1      14.852 -14.391 -28.807  1.00  0.00    -0.012 C 
ATOM      3  C   UNL     1      14.445 -14.618 -27.546  1.00  0.00    -0.019 C 
ATOM      4  C   UNL     1      13.744 -15.891 -27.150  1.00  0.00     0.036 C 
ATOM      5  C   UNL     1      12.885 -16.434 -28.307  1.00  0.00     0.025 C 
ATOM      6  C   UNL     1      13.745 -16.611 -29.573  1.00  0.00     0.089 C 
ATOM      7  C   UNL     1      14.491 -15.344 -29.887  1.00  0.00     0.158 C 
ATOM      8  O   UNL     1      14.840 -15.116 -31.077  1.00  0.00    -0.295 OA
ENDROOT
BRANCH   5   9
ATOM      9  C   UNL     1      12.178 -17.727 -27.923  1.00  0.00    -0.077 C 
ATOM     10  C   UNL     1      12.282 -18.832 -28.681  1.00  0.00     0.008 C 
ATOM     11  C   UNL     1      11.340 -17.788 -26.672  1.00  0.00     0.039 C 
ENDBRANCH   5   9
TORSDOF 1
ENDMDL
MODEL 9
REMARK VINA RESULT:    -5.061      2.348      4.292
REMARK INTER + INTRA:          -5.453
REMARK INTER:                  -5.356
REMARK INTRA:                  -0.097
REMARK UNBOUND:                -0.095
REMARK SMILES C=C(C)[C@H]1CC=C(C)C(=O)C1
REMARK SMILES IDX 8 1 7 2 6 3 5 4 4 5 11 6 9 7 10 8 2 9 1 10 3 11
REMARK H PARENT
REMARK Flexibility Score: inf
ROOT
ATOM      1  C   UNL     1      11.509 -17.279 -26.139  1.00  0.00     0.048 C 
ATOM      2  C   UNL     1      11.909 -17.343 -27.587  1.00  0.00    -0.012 C 
ATOM      3  C   UNL     1      11.140 -18.010 -28.465  1.00  0.00    -0.019 C 
ATOM      4  C   UNL     1      11.502 -18.120 -29.923  1.00  0.00     0.036 C 
ATOM      5  C   UNL     1      12.243 -16.858 -30.406  1.00  0.00     0.025 C 
ATOM      6  C   UNL     1      13.471 -16.586 -29.518  1.00  0.00     0.089 C 
ATOM      7  C   UNL     1      13.080 -16.566 -28.066  1.00  0.00     0.158 C 
ATOM      8  O   UNL     1      13.782 -15.910 -27.250  1.00  0.00    -0.295 OA
ENDROOT
BRANCH   5   9
ATOM      9  C   UNL     1      12.624 -16.959 -31.877  1.00  0.00    -0.077 C 
ATOM     10  C   UNL     1      13.904 -16.856 -32.276  1.00  0.00     0.008 C 
ATOM     11  C   UNL     1      11.560 -17.180 -32.921  1.00  0.00     0.039 C 
ENDBRANCH   5   9
TORSDOF 1
ENDMDL
