MODEL 1
REMARK VINA RESULT:    -3.848      0.000      0.000
REMARK INTER + INTRA:          -1.020
REMARK INTER:                  -4.747
REMARK INTRA:                   3.727
REMARK UNBOUND:                 3.727
REMARK SMILES C=C1CC[C@H]2[C@H]([C@@H]3[C@H](C)CC[C@H]13)C2(C)C
REMARK SMILES IDX 3 1 2 2 1 3 12 4 9 5 8 6 10 7 7 8 11 9 4 11 5 12 6 13 13 14
REMARK SMILES IDX 14 16 15 17
REMARK H PARENT
REMARK Flexibility Score: 80.00
ROOT
ATOM      1  C   UNL     1      11.083   5.778  16.524  1.00  0.00     0.031 C 
ENDROOT
BRANCH   1   2
ATOM      2  C   UNL     1      11.841   7.093  16.316  1.00  0.00    -0.074 C 
ATOM      3  C   UNL     1      11.091   8.197  16.113  1.00  0.00     0.008 C 
BRANCH   2   4
ATOM      4  C   UNL     1      13.377   7.187  16.078  1.00  0.00     0.018 C 
ATOM      5  C   UNL     1      16.715   6.077  17.613  1.00  0.00     0.008 C 
ATOM      6  C   UNL     1      15.676   6.753  16.708  1.00  0.00    -0.010 C 
ATOM      7  C   UNL     1      15.392   8.189  17.123  1.00  0.00     0.004 C 
ATOM      8  C   UNL     1      14.304   6.063  16.625  1.00  0.00     0.003 CG0
ATOM      9  C   UNL     1      13.975   8.492  16.651  1.00  0.00     0.008 C 
ATOM     10  G   UNL     1      13.774   5.610  18.001  1.00  0.00     0.000 G0
ENDBRANCH   2   4
ENDBRANCH   1   2
BRANCH   1  11
ATOM     11  C   UNL     1      11.401   5.062  17.850  1.00  0.00     0.009 C 
BRANCH  11  12
ATOM     12  C   UNL     1      12.784   4.451  17.703  1.00  0.00    -0.001 C 
ATOM     13  C   UNL     1      13.798   5.578  18.009  1.00  0.00     0.002 CG0
ATOM     14  C   UNL     1      13.878   4.230  18.730  1.00  0.00    -0.029 C 
ATOM     15  G   UNL     1      14.326   6.045  16.637  1.00  0.00     0.000 G0
ATOM     16  C   UNL     1      14.969   3.243  18.307  1.00  0.00     0.011 C 
ATOM     17  C   UNL     1      13.419   4.185  20.190  1.00  0.00     0.011 C 
ENDBRANCH  11  12
ENDBRANCH   1  11
TORSDOF 0
ENDMDL
MODEL 2
REMARK VINA RESULT:    -3.571      1.087      3.699
REMARK INTER + INTRA:          -0.678
REMARK INTER:                  -4.170
REMARK INTRA:                   3.491
REMARK UNBOUND:                 3.727
REMARK SMILES C=C1CC[C@H]2[C@H]([C@@H]3[C@H](C)CC[C@H]13)C2(C)C
REMARK SMILES IDX 3 1 2 2 1 3 12 4 9 5 8 6 10 7 7 8 11 9 4 11 5 12 6 13 13 14
REMARK SMILES IDX 14 16 15 17
REMARK H PARENT
REMARK Flexibility Score: 80.00
ROOT
ATOM      1  C   UNL     1      13.531   3.795  19.278  1.00  0.00     0.031 C 
ENDROOT
BRANCH   1   2
ATOM      2  C   UNL     1      14.935   3.824  18.665  1.00  0.00    -0.074 C 
ATOM      3  C   UNL     1      15.596   2.649  18.613  1.00  0.00     0.008 C 
BRANCH   2   4
ATOM      4  C   UNL     1      15.719   5.130  18.344  1.00  0.00     0.018 C 
ATOM      5  C   UNL     1      15.380   8.421  16.399  1.00  0.00     0.008 C 
ATOM      6  C   UNL     1      15.955   7.275  17.241  1.00  0.00    -0.010 C 
ATOM      7  C   UNL     1      16.753   6.284  16.405  1.00  0.00     0.004 C 
ATOM      8  C   UNL     1      14.932   6.434  18.023  1.00  0.00     0.003 CG0
ATOM      9  C   UNL     1      16.676   4.952  17.143  1.00  0.00     0.008 C 
ATOM     10  G   UNL     1      13.689   6.069  17.185  1.00  0.00     0.000 G0
ENDBRANCH   2   4
ENDBRANCH   1   2
BRANCH   1  11
ATOM     11  C   UNL     1      12.412   4.265  18.330  1.00  0.00     0.009 C 
BRANCH  11  12
ATOM     12  C   UNL     1      12.526   5.775  18.223  1.00  0.00    -0.001 C 
ATOM     13  C   UNL     1      13.645   6.061  17.194  1.00  0.00     0.002 CG0
ATOM     14  C   UNL     1      12.263   6.704  17.054  1.00  0.00    -0.029 C 
ATOM     15  G   UNL     1      14.884   6.453  18.025  1.00  0.00     0.000 G0
ATOM     16  C   UNL     1      12.108   8.181  17.425  1.00  0.00     0.011 C 
ATOM     17  C   UNL     1      11.338   6.153  15.964  1.00  0.00     0.011 C 
ENDBRANCH  11  12
ENDBRANCH   1  11
TORSDOF 0
ENDMDL
MODEL 3
REMARK VINA RESULT:    -3.342      1.573      2.236
REMARK INTER + INTRA:          -0.397
REMARK INTER:                  -4.138
REMARK INTRA:                   3.741
REMARK UNBOUND:                 3.727
REMARK SMILES C=C1CC[C@H]2[C@H]([C@@H]3[C@H](C)CC[C@H]13)C2(C)C
REMARK SMILES IDX 3 1 2 2 1 3 12 4 9 5 8 6 10 7 7 8 11 9 4 11 5 12 6 13 13 14
REMARK SMILES IDX 14 16 15 17
REMARK H PARENT
REMARK Flexibility Score: 80.00
ROOT
ATOM      1  C   UNL     1      11.098   6.011  18.443  1.00  0.00     0.031 C 
ENDROOT
BRANCH   1   2
ATOM      2  C   UNL     1      11.894   6.098  17.136  1.00  0.00    -0.074 C 
ATOM      3  C   UNL     1      11.380   6.885  16.167  1.00  0.00     0.008 C 
BRANCH   2   4
ATOM      4  C   UNL     1      13.085   5.162  16.776  1.00  0.00     0.018 C 
ATOM      5  C   UNL     1      16.449   3.937  18.159  1.00  0.00     0.008 C 
ATOM      6  C   UNL     1      15.253   4.178  17.229  1.00  0.00    -0.010 C 
ATOM      7  C   UNL     1      15.504   5.307  16.240  1.00  0.00     0.004 C 
ATOM      8  C   UNL     1      13.920   4.516  17.919  1.00  0.00     0.003 CG0
ATOM      9  C   UNL     1      14.133   5.872  15.888  1.00  0.00     0.008 C 
ATOM     10  G   UNL     1      14.077   5.542  19.060  1.00  0.00     0.000 G0
ENDBRANCH   2   4
ENDBRANCH   1   2
BRANCH   1  11
ATOM     11  C   UNL     1      11.886   6.432  19.697  1.00  0.00     0.009 C 
BRANCH  11  12
ATOM     12  C   UNL     1      12.866   5.312  20.002  1.00  0.00    -0.001 C 
ATOM     13  C   UNL     1      14.091   5.537  19.083  1.00  0.00     0.002 CG0
ATOM     14  C   UNL     1      14.262   5.357  20.593  1.00  0.00    -0.029 C 
ATOM     15  G   UNL     1      13.942   4.517  17.935  1.00  0.00     0.000 G0
ATOM     16  C   UNL     1      14.787   4.016  21.112  1.00  0.00     0.011 C 
ATOM     17  C   UNL     1      14.593   6.606  21.417  1.00  0.00     0.011 C 
ENDBRANCH  11  12
ENDBRANCH   1  11
TORSDOF 0
ENDMDL
MODEL 4
REMARK VINA RESULT:    -3.288      1.360      4.464
REMARK INTER + INTRA:          -0.330
REMARK INTER:                  -4.081
REMARK INTRA:                   3.751
REMARK UNBOUND:                 3.727
REMARK SMILES C=C1CC[C@H]2[C@H]([C@@H]3[C@H](C)CC[C@H]13)C2(C)C
REMARK SMILES IDX 3 1 2 2 1 3 12 4 9 5 8 6 10 7 7 8 11 9 4 11 5 12 6 13 13 14
REMARK SMILES IDX 14 16 15 17
REMARK H PARENT
REMARK Flexibility Score: 80.00
ROOT
ATOM      1  C   UNL     1      14.623   3.597  16.650  1.00  0.00     0.031 C 
ENDROOT
BRANCH   1   2
ATOM      2  C   UNL     1      14.839   3.540  18.166  1.00  0.00    -0.074 C 
ATOM      3  C   UNL     1      15.852   2.761  18.603  1.00  0.00     0.008 C 
BRANCH   2   4
ATOM      4  C   UNL     1      13.832   4.102  19.212  1.00  0.00     0.018 C 
ATOM      5  C   UNL     1      11.926   7.312  20.103  1.00  0.00     0.008 C 
ATOM      6  C   UNL     1      12.495   5.888  20.158  1.00  0.00    -0.010 C 
ATOM      7  C   UNL     1      13.742   5.794  21.025  1.00  0.00     0.004 C 
ATOM      8  C   UNL     1      12.878   5.263  18.806  1.00  0.00     0.003 CG0
ATOM      9  C   UNL     1      14.544   4.616  20.485  1.00  0.00     0.008 C 
ATOM     10  G   UNL     1      13.646   6.237  17.889  1.00  0.00     0.000 G0
ENDBRANCH   2   4
ENDBRANCH   1   2
BRANCH   1  11
ATOM     11  C   UNL     1      14.727   5.010  16.046  1.00  0.00     0.009 C 
BRANCH  11  12
ATOM     12  C   UNL     1      13.464   5.756  16.440  1.00  0.00    -0.001 C 
ATOM     13  C   UNL     1      13.680   6.249  17.891  1.00  0.00     0.002 CG0
ATOM     14  C   UNL     1      13.249   7.216  16.785  1.00  0.00    -0.029 C 
ATOM     15  G   UNL     1      12.877   5.281  18.783  1.00  0.00     0.000 G0
ATOM     16  C   UNL     1      11.790   7.679  16.752  1.00  0.00     0.011 C 
ATOM     17  C   UNL     1      14.305   8.188  16.249  1.00  0.00     0.011 C 
ENDBRANCH  11  12
ENDBRANCH   1  11
TORSDOF 0
ENDMDL
MODEL 5
REMARK VINA RESULT:    -3.254      1.609      3.644
REMARK INTER + INTRA:          -0.288
REMARK INTER:                  -4.010
REMARK INTRA:                   3.722
REMARK UNBOUND:                 3.727
REMARK SMILES C=C1CC[C@H]2[C@H]([C@@H]3[C@H](C)CC[C@H]13)C2(C)C
REMARK SMILES IDX 3 1 2 2 1 3 12 4 9 5 8 6 10 7 7 8 11 9 4 11 5 12 6 13 13 14
REMARK SMILES IDX 14 16 15 17
REMARK H PARENT
REMARK Flexibility Score: 80.00
ROOT
ATOM      1  C   UNL     1      13.138   3.713  20.553  1.00  0.00     0.031 C 
ENDROOT
BRANCH   1   2
ATOM      2  C   UNL     1      12.536   5.105  20.771  1.00  0.00    -0.074 C 
ATOM      3  C   UNL     1      12.309   5.471  22.051  1.00  0.00     0.008 C 
BRANCH   2   4
ATOM      4  C   UNL     1      11.950   5.991  19.633  1.00  0.00     0.018 C 
ATOM      5  C   UNL     1      12.903   7.521  16.244  1.00  0.00     0.008 C 
ATOM      6  C   UNL     1      12.133   7.171  17.524  1.00  0.00    -0.010 C 
ATOM      7  C   UNL     1      12.301   8.224  18.609  1.00  0.00     0.004 C 
ATOM      8  C   UNL     1      12.495   5.830  18.184  1.00  0.00     0.003 CG0
ATOM      9  C   UNL     1      12.102   7.499  19.935  1.00  0.00     0.008 C 
ATOM     10  G   UNL     1      14.017   5.585  18.251  1.00  0.00     0.000 G0
ENDBRANCH   2   4
ENDBRANCH   1   2
BRANCH   1  11
ATOM     11  C   UNL     1      14.487   3.712  19.812  1.00  0.00     0.009 C 
BRANCH  11  12
ATOM     12  C   UNL     1      14.194   4.024  18.354  1.00  0.00    -0.001 C 
ATOM     13  C   UNL     1      14.017   5.558  18.260  1.00  0.00     0.002 CG0
ATOM     14  C   UNL     1      14.988   4.819  17.337  1.00  0.00    -0.029 C 
ATOM     15  G   UNL     1      12.495   5.797  18.175  1.00  0.00     0.000 G0
ATOM     16  C   UNL     1      14.578   4.594  15.879  1.00  0.00     0.011 C 
ATOM     17  C   UNL     1      16.485   4.964  17.629  1.00  0.00     0.011 C 
ENDBRANCH  11  12
ENDBRANCH   1  11
TORSDOF 0
ENDMDL
MODEL 6
REMARK VINA RESULT:    -3.152      2.246      4.908
REMARK INTER + INTRA:          -0.162
REMARK INTER:                  -3.770
REMARK INTRA:                   3.608
REMARK UNBOUND:                 3.727
REMARK SMILES C=C1CC[C@H]2[C@H]([C@@H]3[C@H](C)CC[C@H]13)C2(C)C
REMARK SMILES IDX 3 1 2 2 1 3 12 4 9 5 8 6 10 7 7 8 11 9 4 11 5 12 6 13 13 14
REMARK SMILES IDX 14 16 15 17
REMARK H PARENT
REMARK Flexibility Score: 80.00
ROOT
ATOM      1  C   UNL     1      16.321   2.259  20.463  1.00  0.00     0.031 C 
ENDROOT
BRANCH   1   2
ATOM      2  C   UNL     1      14.868   2.741  20.381  1.00  0.00    -0.074 C 
ATOM      3  C   UNL     1      14.135   2.642  21.510  1.00  0.00     0.008 C 
BRANCH   2   4
ATOM      4  C   UNL     1      14.137   3.085  19.051  1.00  0.00     0.018 C 
ATOM      5  C   UNL     1      14.485   5.296  15.933  1.00  0.00     0.008 C 
ATOM      6  C   UNL     1      13.925   4.321  16.976  1.00  0.00    -0.010 C 
ATOM      7  C   UNL     1      12.993   5.003  17.967  1.00  0.00     0.004 C 
ATOM      8  C   UNL     1      14.966   3.575  17.829  1.00  0.00     0.003 CG0
ATOM      9  C   UNL     1      13.059   4.176  19.247  1.00  0.00     0.008 C 
ATOM     10  G   UNL     1      16.099   4.493  18.334  1.00  0.00     0.000 G0
ENDBRANCH   2   4
ENDBRANCH   1   2
BRANCH   1  11
ATOM     11  C   UNL     1      17.368   3.335  20.119  1.00  0.00     0.009 C 
BRANCH  11  12
ATOM     12  C   UNL     1      17.320   3.536  18.614  1.00  0.00    -0.001 C 
ATOM     13  C   UNL     1      16.133   4.489  18.335  1.00  0.00     0.002 CG0
ATOM     14  C   UNL     1      17.529   4.784  17.779  1.00  0.00    -0.029 C 
ATOM     15  G   UNL     1      14.989   3.589  17.823  1.00  0.00     0.000 G0
ATOM     16  C   UNL     1      17.788   4.529  16.291  1.00  0.00     0.011 C 
ATOM     17  C   UNL     1      18.330   5.904  18.448  1.00  0.00     0.011 C 
ENDBRANCH  11  12
ENDBRANCH   1  11
TORSDOF 0
ENDMDL
MODEL 7
REMARK VINA RESULT:    -2.851      2.550      5.077
REMARK INTER + INTRA:           0.210
REMARK INTER:                  -3.579
REMARK INTRA:                   3.788
REMARK UNBOUND:                 3.727
REMARK SMILES C=C1CC[C@H]2[C@H]([C@@H]3[C@H](C)CC[C@H]13)C2(C)C
REMARK SMILES IDX 3 1 2 2 1 3 12 4 9 5 8 6 10 7 7 8 11 9 4 11 5 12 6 13 13 14
REMARK SMILES IDX 14 16 15 17
REMARK H PARENT
REMARK Flexibility Score: 80.00
ROOT
ATOM      1  C   UNL     1      13.087   3.945  20.632  1.00  0.00     0.031 C 
ENDROOT
BRANCH   1   2
ATOM      2  C   UNL     1      14.043   2.822  21.049  1.00  0.00    -0.074 C 
ATOM      3  C   UNL     1      13.522   1.834  21.806  1.00  0.00     0.008 C 
BRANCH   2   4
ATOM      4  C   UNL     1      15.589   2.884  20.874  1.00  0.00     0.018 C 
ATOM      5  C   UNL     1      18.274   3.535  18.210  1.00  0.00     0.008 C 
ATOM      6  C   UNL     1      17.587   3.171  19.532  1.00  0.00    -0.010 C 
ATOM      7  C   UNL     1      17.406   1.669  19.698  1.00  0.00     0.004 C 
ATOM      8  C   UNL     1      16.196   3.787  19.761  1.00  0.00     0.003 CG0
ATOM      9  C   UNL     1      16.200   1.488  20.613  1.00  0.00     0.008 C 
ATOM     10  G   UNL     1      15.292   3.711  18.513  1.00  0.00     0.000 G0
ENDBRANCH   2   4
ENDBRANCH   1   2
BRANCH   1  11
ATOM     11  C   UNL     1      12.971   4.149  19.110  1.00  0.00     0.009 C 
BRANCH  11  12
ATOM     12  C   UNL     1      14.250   4.829  18.654  1.00  0.00    -0.001 C 
ATOM     13  C   UNL     1      15.309   3.712  18.493  1.00  0.00     0.002 CG0
ATOM     14  C   UNL     1      15.027   4.701  17.359  1.00  0.00    -0.029 C 
ATOM     15  G   UNL     1      16.207   3.808  19.743  1.00  0.00     0.000 G0
ATOM     16  C   UNL     1      16.040   5.819  17.100  1.00  0.00     0.011 C 
ATOM     17  C   UNL     1      14.232   4.183  16.156  1.00  0.00     0.011 C 
ENDBRANCH  11  12
ENDBRANCH   1  11
TORSDOF 0
ENDMDL
MODEL 8
REMARK VINA RESULT:    -2.720     13.539     16.321
REMARK INTER + INTRA:           0.371
REMARK INTER:                  -3.423
REMARK INTRA:                   3.794
REMARK UNBOUND:                 3.727
REMARK SMILES C=C1CC[C@H]2[C@H]([C@@H]3[C@H](C)CC[C@H]13)C2(C)C
REMARK SMILES IDX 3 1 2 2 1 3 12 4 9 5 8 6 10 7 7 8 11 9 4 11 5 12 6 13 13 14
REMARK SMILES IDX 14 16 15 17
REMARK H PARENT
REMARK Flexibility Score: 80.00
ROOT
ATOM      1  C   UNL     1      14.695   0.904  31.830  1.00  0.00     0.031 C 
ENDROOT
BRANCH   1   2
ATOM      2  C   UNL     1      15.991   1.011  32.641  1.00  0.00    -0.074 C 
ATOM      3  C   UNL     1      16.906   0.038  32.448  1.00  0.00     0.008 C 
BRANCH   2   4
ATOM      4  C   UNL     1      16.200   2.001  33.824  1.00  0.00     0.018 C 
ATOM      5  C   UNL     1      15.948   5.734  34.680  1.00  0.00     0.008 C 
ATOM      6  C   UNL     1      16.228   4.229  34.778  1.00  0.00    -0.010 C 
ATOM      7  C   UNL     1      17.679   3.887  34.469  1.00  0.00     0.004 C 
ATOM      8  C   UNL     1      15.383   3.325  33.865  1.00  0.00     0.003 CG0
ATOM      9  C   UNL     1      17.673   2.454  33.949  1.00  0.00     0.008 C 
ATOM     10  G   UNL     1      15.254   3.873  32.429  1.00  0.00     0.000 G0
ENDBRANCH   2   4
ENDBRANCH   1   2
BRANCH   1  11
ATOM     11  C   UNL     1      14.396   2.126  30.943  1.00  0.00     0.009 C 
BRANCH  11  12
ATOM     12  C   UNL     1      13.951   3.247  31.866  1.00  0.00    -0.001 C 
ATOM     13  C   UNL     1      15.241   3.892  32.428  1.00  0.00     0.002 CG0
ATOM     14  C   UNL     1      14.156   4.746  31.767  1.00  0.00    -0.029 C 
ATOM     15  G   UNL     1      15.388   3.344  33.863  1.00  0.00     0.000 G0
ATOM     16  C   UNL     1      13.241   5.583  32.665  1.00  0.00     0.011 C 
ATOM     17  C   UNL     1      14.444   5.286  30.363  1.00  0.00     0.011 C 
ENDBRANCH  11  12
ENDBRANCH   1  11
TORSDOF 0
ENDMDL
MODEL 9
REMARK VINA RESULT:    -2.714     12.126     14.816
REMARK INTER + INTRA:           0.378
REMARK INTER:                  -3.404
REMARK INTRA:                   3.781
REMARK UNBOUND:                 3.727
REMARK SMILES C=C1CC[C@H]2[C@H]([C@@H]3[C@H](C)CC[C@H]13)C2(C)C
REMARK SMILES IDX 3 1 2 2 1 3 12 4 9 5 8 6 10 7 7 8 11 9 4 11 5 12 6 13 13 14
REMARK SMILES IDX 14 16 15 17
REMARK H PARENT
REMARK Flexibility Score: 80.00
ROOT
ATOM      1  C   UNL     1      28.288   1.920  16.523  1.00  0.00     0.031 C 
ENDROOT
BRANCH   1   2
ATOM      2  C   UNL     1      29.009   3.045  17.273  1.00  0.00    -0.074 C 
ATOM      3  C   UNL     1      29.625   3.978  16.516  1.00  0.00     0.008 C 
BRANCH   2   4
ATOM      4  C   UNL     1      29.283   3.036  18.806  1.00  0.00     0.018 C 
ATOM      5  C   UNL     1      27.466   2.666  22.166  1.00  0.00     0.008 C 
ATOM      6  C   UNL     1      28.557   2.906  21.114  1.00  0.00    -0.010 C 
ATOM      7  C   UNL     1      28.768   4.385  20.824  1.00  0.00     0.004 C 
ATOM      8  C   UNL     1      28.332   2.240  19.746  1.00  0.00     0.003 CG0
ATOM      9  C   UNL     1      29.306   4.463  19.400  1.00  0.00     0.008 C 
ATOM     10  G   UNL     1      26.885   2.393  19.233  1.00  0.00     0.000 G0
ENDBRANCH   2   4
ENDBRANCH   1   2
BRANCH   1  11
ATOM     11  C   UNL     1      26.785   1.808  16.836  1.00  0.00     0.009 C 
BRANCH  11  12
ATOM     12  C   UNL     1      26.664   1.225  18.233  1.00  0.00    -0.001 C 
ATOM     13  C   UNL     1      26.872   2.399  19.220  1.00  0.00     0.002 CG0
ATOM     14  C   UNL     1      25.647   1.487  19.327  1.00  0.00    -0.029 C 
ATOM     15  G   UNL     1      28.316   2.250  19.744  1.00  0.00     0.000 G0
ATOM     16  C   UNL     1      25.616   0.439  20.443  1.00  0.00     0.011 C 
ATOM     17  C   UNL     1      24.304   2.056  18.861  1.00  0.00     0.011 C 
ENDBRANCH  11  12
ENDBRANCH   1  11
TORSDOF 0
ENDMDL
