MODEL 1
REMARK VINA RESULT:    -7.026      0.000      0.000
REMARK INTER + INTRA:         -10.979
REMARK INTER:                  -9.285
REMARK INTRA:                  -1.694
REMARK UNBOUND:                -1.694
REMARK SMILES CC[C@H](C=C[C@H](C)[C@@H]1CC[C@@H]2[C@H]3CC=C4C[C@H](O)CC[C@@]4(C)[C@H]3CC[C@@]21C)C(C)C
REMARK SMILES IDX 6 1 7 2 5 3 4 4 3 5 2 6 1 7 28 8 29 9 30 10 8 11 9 12 26 13
REMARK SMILES IDX 10 14 11 15 25 16 27 17 12 18 24 19 23 20 13 21 21 22 14 23
REMARK SMILES IDX 15 24 20 25 22 26 16 27 19 28 17 29 18 30
REMARK H PARENT 18 31
REMARK Flexibility Score: inf
ROOT
ATOM      1  C   UNL     1      21.102   1.227 -25.497  1.00  0.00     0.012 C 
ATOM      2  C   UNL     1      21.827   1.707 -26.764  1.00  0.00     0.012 C 
ENDROOT
BRANCH   1   3
ATOM      3  C   UNL     1      20.879  -0.271 -25.602  1.00  0.00    -0.028 C 
ATOM      4  C   UNL     1      19.670  -0.864 -25.685  1.00  0.00    -0.027 C 
BRANCH   4   5
ATOM      5  C   UNL     1      18.332  -0.141 -25.653  1.00  0.00     0.014 C 
BRANCH   5   6
ATOM      6  C   UNL     1      17.811  -0.016 -27.111  1.00  0.00     0.004 C 
ATOM      7  C   UNL     1      18.591  -0.843 -28.132  1.00  0.00     0.004 C 
ENDBRANCH   5   6
BRANCH   5   8
ATOM      8  C   UNL     1      17.369  -0.855 -24.647  1.00  0.00    -0.011 C 
ATOM      9  C   UNL     1      16.724   0.093 -23.624  1.00  0.00     0.008 C 
ATOM     10  C   UNL     1      18.014  -2.063 -23.951  1.00  0.00     0.008 C 
ENDBRANCH   5   8
ENDBRANCH   4   5
ENDBRANCH   1   3
BRANCH   1  11
ATOM     11  C   UNL     1      21.872   1.695 -24.213  1.00  0.00     0.002 C 
ATOM     12  C   UNL     1      23.143   0.906 -23.878  1.00  0.00     0.005 C 
ATOM     13  C   UNL     1      21.093   1.845 -22.869  1.00  0.00    -0.026 C 
ATOM     14  C   UNL     1      23.414   1.149 -22.396  1.00  0.00     0.005 C 
ATOM     15  C   UNL     1      22.265   2.022 -21.858  1.00  0.00    -0.001 C 
ATOM     16  C   UNL     1      20.256   0.584 -22.516  1.00  0.00     0.007 C 
ATOM     17  C   UNL     1      20.174   3.093 -22.942  1.00  0.00     0.012 C 
ATOM     18  C   UNL     1      21.966   1.728 -20.354  1.00  0.00     0.000 C 
ATOM     19  C   UNL     1      19.862   0.492 -21.035  1.00  0.00     0.005 C 
ATOM     20  C   UNL     1      21.117   0.447 -20.134  1.00  0.00     0.003 C 
ATOM     21  C   UNL     1      21.341   2.949 -19.657  1.00  0.00     0.031 C 
ATOM     22  C   UNL     1      20.864   0.172 -18.590  1.00  0.00    -0.008 C 
ATOM     23  C   UNL     1      20.919   2.672 -18.246  1.00  0.00    -0.027 C 
ATOM     24  C   UNL     1      20.570   1.451 -17.797  1.00  0.00    -0.065 C 
ATOM     25  C   UNL     1      19.680  -0.825 -18.372  1.00  0.00     0.014 C 
ATOM     26  C   UNL     1      22.159  -0.463 -18.006  1.00  0.00     0.016 C 
ATOM     27  C   UNL     1      20.099   1.321 -16.357  1.00  0.00     0.063 C 
ATOM     28  C   UNL     1      19.307  -1.035 -16.896  1.00  0.00     0.033 C 
ATOM     29  C   UNL     1      18.950   0.307 -16.236  1.00  0.00     0.118 C 
BRANCH  29  30
ATOM     30  O   UNL     1      18.596   0.118 -14.889  1.00  0.00    -0.393 OA
ATOM     31  H   UNL     1      18.441   1.014 -14.490  1.00  0.00     0.210 HD
ENDBRANCH  29  30
ENDBRANCH   1  11
TORSDOF 6
ENDMDL
MODEL 2
REMARK VINA RESULT:    -6.130      0.714      1.712
REMARK INTER + INTRA:          -9.795
REMARK INTER:                  -8.740
REMARK INTRA:                  -1.055
REMARK UNBOUND:                -1.694
REMARK SMILES CC[C@H](C=C[C@H](C)[C@@H]1CC[C@@H]2[C@H]3CC=C4C[C@H](O)CC[C@@]4(C)[C@H]3CC[C@@]21C)C(C)C
REMARK SMILES IDX 6 1 7 2 5 3 4 4 3 5 2 6 1 7 28 8 29 9 30 10 8 11 9 12 26 13
REMARK SMILES IDX 10 14 11 15 25 16 27 17 12 18 24 19 23 20 13 21 21 22 14 23
REMARK SMILES IDX 15 24 20 25 22 26 16 27 19 28 17 29 18 30
REMARK H PARENT 18 31
REMARK Flexibility Score: inf
ROOT
ATOM      1  C   UNL     1      21.543   0.761 -25.078  1.00  0.00     0.012 C 
ATOM      2  C   UNL     1      22.108   1.398 -26.357  1.00  0.00     0.012 C 
ENDROOT
BRANCH   1   3
ATOM      3  C   UNL     1      21.714  -0.745 -25.168  1.00  0.00    -0.028 C 
ATOM      4  C   UNL     1      20.741  -1.610 -25.522  1.00  0.00    -0.027 C 
BRANCH   4   5
ATOM      5  C   UNL     1      19.306  -1.229 -25.856  1.00  0.00     0.014 C 
BRANCH   5   6
ATOM      6  C   UNL     1      18.730  -0.412 -24.667  1.00  0.00     0.004 C 
ATOM      7  C   UNL     1      17.779  -1.197 -23.765  1.00  0.00     0.004 C 
ENDBRANCH   5   6
BRANCH   5   8
ATOM      8  C   UNL     1      19.258  -0.523 -27.252  1.00  0.00    -0.011 C 
ATOM      9  C   UNL     1      17.980   0.295 -27.491  1.00  0.00     0.008 C 
ATOM     10  C   UNL     1      19.526  -1.483 -28.421  1.00  0.00     0.008 C 
ENDBRANCH   5   8
ENDBRANCH   4   5
ENDBRANCH   1   3
BRANCH   1  11
ATOM     11  C   UNL     1      22.176   1.427 -23.807  1.00  0.00     0.002 C 
ATOM     12  C   UNL     1      23.470   0.783 -23.297  1.00  0.00     0.005 C 
ATOM     13  C   UNL     1      21.286   1.661 -22.546  1.00  0.00    -0.026 C 
ATOM     14  C   UNL     1      23.608   1.208 -21.837  1.00  0.00     0.005 C 
ATOM     15  C   UNL     1      22.361   2.040 -21.483  1.00  0.00    -0.001 C 
ATOM     16  C   UNL     1      20.517   0.383 -22.108  1.00  0.00     0.007 C 
ATOM     17  C   UNL     1      20.289   2.816 -22.824  1.00  0.00     0.012 C 
ATOM     18  C   UNL     1      21.968   1.889 -19.980  1.00  0.00     0.000 C 
ATOM     19  C   UNL     1      20.017   0.422 -20.657  1.00  0.00     0.005 C 
ATOM     20  C   UNL     1      21.199   0.576 -19.673  1.00  0.00     0.003 C 
ATOM     21  C   UNL     1      21.205   3.125 -19.472  1.00  0.00     0.031 C 
ATOM     22  C   UNL     1      20.848   0.453 -18.128  1.00  0.00    -0.008 C 
ATOM     23  C   UNL     1      20.697   2.972 -18.071  1.00  0.00    -0.027 C 
ATOM     24  C   UNL     1      20.403   1.783 -17.510  1.00  0.00    -0.065 C 
ATOM     25  C   UNL     1      19.725  -0.606 -17.879  1.00  0.00     0.014 C 
ATOM     26  C   UNL     1      22.136  -0.009 -17.388  1.00  0.00     0.016 C 
ATOM     27  C   UNL     1      19.832   1.774 -16.100  1.00  0.00     0.063 C 
ATOM     28  C   UNL     1      19.255  -0.682 -16.418  1.00  0.00     0.033 C 
ATOM     29  C   UNL     1      18.753   0.691 -15.943  1.00  0.00     0.118 C 
BRANCH  29  30
ATOM     30  O   UNL     1      18.310   0.623 -14.611  1.00  0.00    -0.393 OA
ATOM     31  H   UNL     1      17.317   0.613 -14.624  1.00  0.00     0.210 HD
ENDBRANCH  29  30
ENDBRANCH   1  11
TORSDOF 6
ENDMDL
MODEL 3
REMARK VINA RESULT:    -5.987      5.947     11.300
REMARK INTER + INTRA:          -9.605
REMARK INTER:                  -8.362
REMARK INTRA:                  -1.244
REMARK UNBOUND:                -1.694
REMARK SMILES CC[C@H](C=C[C@H](C)[C@@H]1CC[C@@H]2[C@H]3CC=C4C[C@H](O)CC[C@@]4(C)[C@H]3CC[C@@]21C)C(C)C
REMARK SMILES IDX 6 1 7 2 5 3 4 4 3 5 2 6 1 7 28 8 29 9 30 10 8 11 9 12 26 13
REMARK SMILES IDX 10 14 11 15 25 16 27 17 12 18 24 19 23 20 13 21 21 22 14 23
REMARK SMILES IDX 15 24 20 25 22 26 16 27 19 28 17 29 18 30
REMARK H PARENT 18 31
REMARK Flexibility Score: inf
ROOT
ATOM      1  C   UNL     1      26.325   2.430 -12.388  1.00  0.00     0.012 C 
ATOM      2  C   UNL     1      27.561   3.082 -13.026  1.00  0.00     0.012 C 
ENDROOT
BRANCH   1   3
ATOM      3  C   UNL     1      26.401   2.611 -10.882  1.00  0.00    -0.028 C 
ATOM      4  C   UNL     1      26.849   1.678 -10.017  1.00  0.00    -0.027 C 
BRANCH   4   5
ATOM      5  C   UNL     1      27.317   0.281 -10.396  1.00  0.00     0.014 C 
BRANCH   5   6
ATOM      6  C   UNL     1      28.225  -0.255  -9.255  1.00  0.00     0.004 C 
ATOM      7  C   UNL     1      29.472   0.589  -8.993  1.00  0.00     0.004 C 
ENDBRANCH   5   6
BRANCH   5   8
ATOM      8  C   UNL     1      26.082  -0.611 -10.757  1.00  0.00    -0.011 C 
ATOM      9  C   UNL     1      25.705  -1.622  -9.665  1.00  0.00     0.008 C 
ATOM     10  C   UNL     1      26.216  -1.299 -12.125  1.00  0.00     0.008 C 
ENDBRANCH   5   8
ENDBRANCH   4   5
ENDBRANCH   1   3
BRANCH   1  11
ATOM     11  C   UNL     1      25.013   2.971 -13.056  1.00  0.00     0.002 C 
ATOM     12  C   UNL     1      23.803   3.110 -12.124  1.00  0.00     0.005 C 
ATOM     13  C   UNL     1      24.479   2.286 -14.353  1.00  0.00    -0.026 C 
ATOM     14  C   UNL     1      22.573   3.124 -13.027  1.00  0.00     0.005 C 
ATOM     15  C   UNL     1      23.064   2.926 -14.473  1.00  0.00    -0.001 C 
ATOM     16  C   UNL     1      24.367   0.742 -14.215  1.00  0.00     0.007 C 
ATOM     17  C   UNL     1      25.402   2.651 -15.546  1.00  0.00     0.012 C 
ATOM     18  C   UNL     1      22.010   2.178 -15.349  1.00  0.00     0.000 C 
ATOM     19  C   UNL     1      23.439   0.089 -15.250  1.00  0.00     0.005 C 
ATOM     20  C   UNL     1      22.002   0.642 -15.124  1.00  0.00     0.003 C 
ATOM     21  C   UNL     1      22.163   2.532 -16.838  1.00  0.00     0.031 C 
ATOM     22  C   UNL     1      20.894  -0.072 -16.012  1.00  0.00    -0.008 C 
ATOM     23  C   UNL     1      21.256   1.741 -17.730  1.00  0.00    -0.027 C 
ATOM     24  C   UNL     1      20.796   0.512 -17.426  1.00  0.00    -0.065 C 
ATOM     25  C   UNL     1      21.159  -1.608 -16.131  1.00  0.00     0.014 C 
ATOM     26  C   UNL     1      19.521   0.140 -15.312  1.00  0.00     0.016 C 
ATOM     27  C   UNL     1      19.935  -0.208 -18.452  1.00  0.00     0.063 C 
ATOM     28  C   UNL     1      20.193  -2.334 -17.080  1.00  0.00     0.033 C 
ATOM     29  C   UNL     1      20.249  -1.713 -18.485  1.00  0.00     0.118 C 
BRANCH  29  30
ATOM     30  O   UNL     1      19.375  -2.382 -19.358  1.00  0.00    -0.393 OA
ATOM     31  H   UNL     1      19.925  -2.959 -19.950  1.00  0.00     0.210 HD
ENDBRANCH  29  30
ENDBRANCH   1  11
TORSDOF 6
ENDMDL
MODEL 4
REMARK VINA RESULT:    -5.591      1.834      3.464
REMARK INTER + INTRA:          -9.083
REMARK INTER:                  -8.312
REMARK INTRA:                  -0.770
REMARK UNBOUND:                -1.694
REMARK SMILES CC[C@H](C=C[C@H](C)[C@@H]1CC[C@@H]2[C@H]3CC=C4C[C@H](O)CC[C@@]4(C)[C@H]3CC[C@@]21C)C(C)C
REMARK SMILES IDX 6 1 7 2 5 3 4 4 3 5 2 6 1 7 28 8 29 9 30 10 8 11 9 12 26 13
REMARK SMILES IDX 10 14 11 15 25 16 27 17 12 18 24 19 23 20 13 21 21 22 14 23
REMARK SMILES IDX 15 24 20 25 22 26 16 27 19 28 17 29 18 30
REMARK H PARENT 18 31
REMARK Flexibility Score: inf
ROOT
ATOM      1  C   UNL     1      19.319   2.882 -24.560  1.00  0.00     0.012 C 
ATOM      2  C   UNL     1      20.667   2.527 -25.207  1.00  0.00     0.012 C 
ENDROOT
BRANCH   1   3
ATOM      3  C   UNL     1      18.294   3.096 -25.660  1.00  0.00    -0.028 C 
ATOM      4  C   UNL     1      17.632   2.107 -26.296  1.00  0.00    -0.027 C 
BRANCH   4   5
ATOM      5  C   UNL     1      17.825   0.619 -26.048  1.00  0.00     0.014 C 
BRANCH   5   6
ATOM      6  C   UNL     1      16.423  -0.046 -25.963  1.00  0.00     0.004 C 
ATOM      7  C   UNL     1      16.079  -0.618 -24.588  1.00  0.00     0.004 C 
ENDBRANCH   5   6
BRANCH   5   8
ATOM      8  C   UNL     1      18.794   0.024 -27.123  1.00  0.00    -0.011 C 
ATOM      9  C   UNL     1      18.119  -0.278 -28.469  1.00  0.00     0.008 C 
ATOM     10  C   UNL     1      19.583  -1.193 -26.615  1.00  0.00     0.008 C 
ENDBRANCH   5   8
ENDBRANCH   4   5
ENDBRANCH   1   3
BRANCH   1  11
ATOM     11  C   UNL     1      18.926   1.811 -23.485  1.00  0.00     0.002 C 
ATOM     12  C   UNL     1      17.609   2.068 -22.744  1.00  0.00     0.005 C 
ATOM     13  C   UNL     1      19.965   1.414 -22.389  1.00  0.00    -0.026 C 
ATOM     14  C   UNL     1      17.686   1.261 -21.451  1.00  0.00     0.005 C 
ATOM     15  C   UNL     1      19.073   0.593 -21.410  1.00  0.00    -0.001 C 
ATOM     16  C   UNL     1      20.574   2.646 -21.664  1.00  0.00     0.007 C 
ATOM     17  C   UNL     1      21.091   0.560 -23.030  1.00  0.00     0.012 C 
ATOM     18  C   UNL     1      19.591   0.413 -19.948  1.00  0.00     0.000 C 
ATOM     19  C   UNL     1      21.220   2.318 -20.311  1.00  0.00     0.005 C 
ATOM     20  C   UNL     1      20.181   1.713 -19.340  1.00  0.00     0.003 C 
ATOM     21  C   UNL     1      20.578  -0.762 -19.843  1.00  0.00     0.031 C 
ATOM     22  C   UNL     1      20.666   1.489 -17.843  1.00  0.00    -0.008 C 
ATOM     23  C   UNL     1      21.198  -0.894 -18.484  1.00  0.00    -0.027 C 
ATOM     24  C   UNL     1      21.366   0.140 -17.638  1.00  0.00    -0.065 C 
ATOM     25  C   UNL     1      21.637   2.623 -17.380  1.00  0.00     0.014 C 
ATOM     26  C   UNL     1      19.406   1.514 -16.931  1.00  0.00     0.016 C 
ATOM     27  C   UNL     1      22.070  -0.119 -16.316  1.00  0.00     0.063 C 
ATOM     28  C   UNL     1      22.237   2.397 -15.984  1.00  0.00     0.033 C 
ATOM     29  C   UNL     1      22.985   1.055 -15.931  1.00  0.00     0.118 C 
BRANCH  29  30
ATOM     30  O   UNL     1      23.547   0.849 -14.659  1.00  0.00    -0.393 OA
ATOM     31  H   UNL     1      24.013   1.685 -14.397  1.00  0.00     0.210 HD
ENDBRANCH  29  30
ENDBRANCH   1  11
TORSDOF 6
ENDMDL
MODEL 5
REMARK VINA RESULT:    -5.354      3.072      8.028
REMARK INTER + INTRA:          -8.769
REMARK INTER:                  -7.795
REMARK INTRA:                  -0.974
REMARK UNBOUND:                -1.694
REMARK SMILES CC[C@H](C=C[C@H](C)[C@@H]1CC[C@@H]2[C@H]3CC=C4C[C@H](O)CC[C@@]4(C)[C@H]3CC[C@@]21C)C(C)C
REMARK SMILES IDX 6 1 7 2 5 3 4 4 3 5 2 6 1 7 28 8 29 9 30 10 8 11 9 12 26 13
REMARK SMILES IDX 10 14 11 15 25 16 27 17 12 18 24 19 23 20 13 21 21 22 14 23
REMARK SMILES IDX 15 24 20 25 22 26 16 27 19 28 17 29 18 30
REMARK H PARENT 18 31
REMARK Flexibility Score: inf
ROOT
ATOM      1  C   UNL     1      21.647   1.776 -18.837  1.00  0.00     0.012 C 
ATOM      2  C   UNL     1      22.688   2.799 -19.316  1.00  0.00     0.012 C 
ENDROOT
BRANCH   1   3
ATOM      3  C   UNL     1      21.472   1.925 -17.336  1.00  0.00    -0.028 C 
ATOM      4  C   UNL     1      21.582   0.918 -16.445  1.00  0.00    -0.027 C 
BRANCH   4   5
ATOM      5  C   UNL     1      21.864  -0.536 -16.793  1.00  0.00     0.014 C 
BRANCH   5   6
ATOM      6  C   UNL     1      23.131  -0.987 -16.015  1.00  0.00     0.004 C 
ATOM      7  C   UNL     1      23.596  -0.001 -14.944  1.00  0.00     0.004 C 
ENDBRANCH   5   6
BRANCH   5   8
ATOM      8  C   UNL     1      20.578  -1.396 -16.553  1.00  0.00    -0.011 C 
ATOM      9  C   UNL     1      20.041  -2.079 -17.819  1.00  0.00     0.008 C 
ATOM     10  C   UNL     1      19.466  -0.625 -15.826  1.00  0.00     0.008 C 
ENDBRANCH   5   8
ENDBRANCH   4   5
ENDBRANCH   1   3
BRANCH   1  11
ATOM     11  C   UNL     1      20.327   1.902 -19.675  1.00  0.00     0.002 C 
ATOM     12  C   UNL     1      19.186   0.965 -19.260  1.00  0.00     0.005 C 
ATOM     13  C   UNL     1      20.402   1.824 -21.232  1.00  0.00    -0.026 C 
ATOM     14  C   UNL     1      18.257   0.868 -20.467  1.00  0.00     0.005 C 
ATOM     15  C   UNL     1      18.894   1.693 -21.601  1.00  0.00    -0.001 C 
ATOM     16  C   UNL     1      21.193   0.584 -21.734  1.00  0.00     0.007 C 
ATOM     17  C   UNL     1      21.041   3.125 -21.784  1.00  0.00     0.012 C 
ATOM     18  C   UNL     1      18.547   1.111 -23.009  1.00  0.00     0.000 C 
ATOM     19  C   UNL     1      20.907   0.211 -23.196  1.00  0.00     0.005 C 
ATOM     20  C   UNL     1      19.411  -0.119 -23.396  1.00  0.00     0.003 C 
ATOM     21  C   UNL     1      18.594   2.201 -24.093  1.00  0.00     0.031 C 
ATOM     22  C   UNL     1      19.003  -0.693 -24.820  1.00  0.00    -0.008 C 
ATOM     23  C   UNL     1      18.393   1.666 -25.478  1.00  0.00    -0.027 C 
ATOM     24  C   UNL     1      18.705   0.408 -25.845  1.00  0.00    -0.065 C 
ATOM     25  C   UNL     1      20.117  -1.621 -25.404  1.00  0.00     0.014 C 
ATOM     26  C   UNL     1      17.706  -1.534 -24.635  1.00  0.00     0.016 C 
ATOM     27  C   UNL     1      18.512   0.013 -27.300  1.00  0.00     0.063 C 
ATOM     28  C   UNL     1      19.834  -2.108 -26.834  1.00  0.00     0.033 C 
ATOM     29  C   UNL     1      19.640  -0.914 -27.781  1.00  0.00     0.118 C 
BRANCH  29  30
ATOM     30  O   UNL     1      19.394  -1.355 -29.092  1.00  0.00    -0.393 OA
ATOM     31  H   UNL     1      18.864  -2.192 -29.034  1.00  0.00     0.210 HD
ENDBRANCH  29  30
ENDBRANCH   1  11
TORSDOF 6
ENDMDL
MODEL 6
REMARK VINA RESULT:    -5.288     13.390     16.000
REMARK INTER + INTRA:          -8.682
REMARK INTER:                  -6.636
REMARK INTRA:                  -2.046
REMARK UNBOUND:                -1.694
REMARK SMILES CC[C@H](C=C[C@H](C)[C@@H]1CC[C@@H]2[C@H]3CC=C4C[C@H](O)CC[C@@]4(C)[C@H]3CC[C@@]21C)C(C)C
REMARK SMILES IDX 6 1 7 2 5 3 4 4 3 5 2 6 1 7 28 8 29 9 30 10 8 11 9 12 26 13
REMARK SMILES IDX 10 14 11 15 25 16 27 17 12 18 24 19 23 20 13 21 21 22 14 23
REMARK SMILES IDX 15 24 20 25 22 26 16 27 19 28 17 29 18 30
REMARK H PARENT 18 31
REMARK Flexibility Score: inf
ROOT
ATOM      1  C   UNL     1      17.464 -14.658 -27.679  1.00  0.00     0.012 C 
ATOM      2  C   UNL     1      16.392 -14.490 -28.766  1.00  0.00     0.012 C 
ENDROOT
BRANCH   1   3
ATOM      3  C   UNL     1      17.085 -15.836 -26.799  1.00  0.00    -0.028 C 
ATOM      4  C   UNL     1      17.222 -15.870 -25.458  1.00  0.00    -0.027 C 
BRANCH   4   5
ATOM      5  C   UNL     1      17.808 -14.754 -24.606  1.00  0.00     0.014 C 
BRANCH   5   6
ATOM      6  C   UNL     1      16.635 -13.985 -23.936  1.00  0.00     0.004 C 
ATOM      7  C   UNL     1      16.451 -12.554 -24.439  1.00  0.00     0.004 C 
ENDBRANCH   5   6
BRANCH   5   8
ATOM      8  C   UNL     1      18.880 -15.342 -23.629  1.00  0.00    -0.011 C 
ATOM      9  C   UNL     1      19.880 -16.293 -24.303  1.00  0.00     0.008 C 
ATOM     10  C   UNL     1      18.265 -15.984 -22.376  1.00  0.00     0.008 C 
ENDBRANCH   5   8
ENDBRANCH   4   5
ENDBRANCH   1   3
BRANCH   1  11
ATOM     11  C   UNL     1      18.892 -14.744 -28.324  1.00  0.00     0.002 C 
ATOM     12  C   UNL     1      19.623 -16.079 -28.141  1.00  0.00     0.005 C 
ATOM     13  C   UNL     1      19.940 -13.632 -28.005  1.00  0.00    -0.026 C 
ATOM     14  C   UNL     1      21.105 -15.782 -28.350  1.00  0.00     0.005 C 
ATOM     15  C   UNL     1      21.239 -14.266 -28.586  1.00  0.00    -0.001 C 
ATOM     16  C   UNL     1      20.097 -13.374 -26.480  1.00  0.00     0.007 C 
ATOM     17  C   UNL     1      19.539 -12.321 -28.730  1.00  0.00     0.012 C 
ATOM     18  C   UNL     1      22.603 -13.713 -28.064  1.00  0.00     0.000 C 
ATOM     19  C   UNL     1      21.401 -12.659 -26.100  1.00  0.00     0.005 C 
ATOM     20  C   UNL     1      22.630 -13.492 -26.528  1.00  0.00     0.003 C 
ATOM     21  C   UNL     1      23.024 -12.446 -28.827  1.00  0.00     0.031 C 
ATOM     22  C   UNL     1      24.045 -12.959 -26.040  1.00  0.00    -0.008 C 
ATOM     23  C   UNL     1      24.263 -11.808 -28.276  1.00  0.00    -0.027 C 
ATOM     24  C   UNL     1      24.652 -11.921 -26.991  1.00  0.00    -0.065 C 
ATOM     25  C   UNL     1      23.958 -12.328 -24.613  1.00  0.00     0.014 C 
ATOM     26  C   UNL     1      25.013 -14.176 -25.984  1.00  0.00     0.016 C 
ATOM     27  C   UNL     1      25.896 -11.167 -26.547  1.00  0.00     0.063 C 
ATOM     28  C   UNL     1      25.269 -11.683 -24.137  1.00  0.00     0.033 C 
ATOM     29  C   UNL     1      25.727 -10.601 -25.128  1.00  0.00     0.118 C 
BRANCH  29  30
ATOM     30  O   UNL     1      26.920 -10.000 -24.689  1.00  0.00    -0.393 OA
ATOM     31  H   UNL     1      27.663 -10.630 -24.881  1.00  0.00     0.210 HD
ENDBRANCH  29  30
ENDBRANCH   1  11
TORSDOF 6
ENDMDL
MODEL 7
REMARK VINA RESULT:    -4.946     13.687     16.465
REMARK INTER + INTRA:          -8.230
REMARK INTER:                  -7.372
REMARK INTRA:                  -0.859
REMARK UNBOUND:                -1.694
REMARK SMILES CC[C@H](C=C[C@H](C)[C@@H]1CC[C@@H]2[C@H]3CC=C4C[C@H](O)CC[C@@]4(C)[C@H]3CC[C@@]21C)C(C)C
REMARK SMILES IDX 6 1 7 2 5 3 4 4 3 5 2 6 1 7 28 8 29 9 30 10 8 11 9 12 26 13
REMARK SMILES IDX 10 14 11 15 25 16 27 17 12 18 24 19 23 20 13 21 21 22 14 23
REMARK SMILES IDX 15 24 20 25 22 26 16 27 19 28 17 29 18 30
REMARK H PARENT 18 31
REMARK Flexibility Score: inf
ROOT
ATOM      1  C   UNL     1      23.863 -14.319 -27.711  1.00  0.00     0.012 C 
ATOM      2  C   UNL     1      23.455 -14.769 -29.123  1.00  0.00     0.012 C 
ENDROOT
BRANCH   1   3
ATOM      3  C   UNL     1      23.750 -12.807 -27.631  1.00  0.00    -0.028 C 
ATOM      4  C   UNL     1      24.755 -11.978 -27.282  1.00  0.00    -0.027 C 
BRANCH   4   5
ATOM      5  C   UNL     1      26.155 -12.416 -26.878  1.00  0.00     0.014 C 
BRANCH   5   6
ATOM      6  C   UNL     1      27.164 -11.819 -27.897  1.00  0.00     0.004 C 
ATOM      7  C   UNL     1      27.651 -12.809 -28.955  1.00  0.00     0.004 C 
ENDBRANCH   5   6
BRANCH   5   8
ATOM      8  C   UNL     1      26.411 -12.052 -25.377  1.00  0.00    -0.011 C 
ATOM      9  C   UNL     1      25.818 -13.061 -24.383  1.00  0.00     0.008 C 
ATOM     10  C   UNL     1      25.989 -10.617 -25.026  1.00  0.00     0.008 C 
ENDBRANCH   5   8
ENDBRANCH   4   5
ENDBRANCH   1   3
BRANCH   1  11
ATOM     11  C   UNL     1      23.046 -15.104 -26.627  1.00  0.00     0.002 C 
ATOM     12  C   UNL     1      22.694 -16.553 -26.983  1.00  0.00     0.005 C 
ATOM     13  C   UNL     1      21.740 -14.473 -26.051  1.00  0.00    -0.026 C 
ATOM     14  C   UNL     1      21.511 -16.932 -26.096  1.00  0.00     0.005 C 
ATOM     15  C   UNL     1      21.136 -15.682 -25.276  1.00  0.00    -0.001 C 
ATOM     16  C   UNL     1      20.762 -13.997 -27.162  1.00  0.00     0.007 C 
ATOM     17  C   UNL     1      22.106 -13.289 -25.118  1.00  0.00     0.012 C 
ATOM     18  C   UNL     1      19.609 -15.636 -24.952  1.00  0.00     0.000 C 
ATOM     19  C   UNL     1      19.316 -13.810 -26.682  1.00  0.00     0.005 C 
ATOM     20  C   UNL     1      18.742 -15.138 -26.138  1.00  0.00     0.003 C 
ATOM     21  C   UNL     1      19.332 -14.832 -23.670  1.00  0.00     0.031 C 
ATOM     22  C   UNL     1      17.196 -15.137 -25.772  1.00  0.00    -0.008 C 
ATOM     23  C   UNL     1      17.871 -14.653 -23.388  1.00  0.00    -0.027 C 
ATOM     24  C   UNL     1      16.922 -14.650 -24.344  1.00  0.00    -0.065 C 
ATOM     25  C   UNL     1      16.373 -14.249 -26.761  1.00  0.00     0.014 C 
ATOM     26  C   UNL     1      16.685 -16.602 -25.881  1.00  0.00     0.016 C 
ATOM     27  C   UNL     1      15.482 -14.392 -23.928  1.00  0.00     0.063 C 
ATOM     28  C   UNL     1      14.890 -14.108 -26.385  1.00  0.00     0.033 C 
ATOM     29  C   UNL     1      14.747 -13.530 -24.968  1.00  0.00     0.118 C 
BRANCH  29  30
ATOM     30  O   UNL     1      13.392 -13.388 -24.624  1.00  0.00    -0.393 OA
ATOM     31  H   UNL     1      13.241 -13.887 -23.779  1.00  0.00     0.210 HD
ENDBRANCH  29  30
ENDBRANCH   1  11
TORSDOF 6
ENDMDL
