MODEL 1
REMARK VINA RESULT:    -4.652      0.000      0.000
REMARK INTER + INTRA:          -6.074
REMARK INTER:                  -5.740
REMARK INTRA:                  -0.334
REMARK UNBOUND:                -0.334
REMARK SMILES C=CC[C@H](C)C(=O)CC
REMARK SMILES IDX 4 1 5 2 6 3 7 4 8 5 9 6 3 7 2 8 1 9
REMARK H PARENT
REMARK Flexibility Score: inf
ROOT
ATOM      1  C   UNL     1      89.078  38.613  26.227  1.00  0.00     0.057 C 
ATOM      2  C   UNL     1      88.557  38.141  24.865  1.00  0.00     0.016 C 
ENDROOT
BRANCH   1   3
ATOM      3  C   UNL     1      88.104  38.217  27.318  1.00  0.00     0.135 C 
ATOM      4  O   UNL     1      87.139  37.517  27.044  1.00  0.00    -0.299 OA
BRANCH   3   5
ATOM      5  C   UNL     1      88.310  38.656  28.744  1.00  0.00     0.072 C 
ATOM      6  C   UNL     1      86.974  38.903  29.439  1.00  0.00     0.012 C 
ENDBRANCH   3   5
ENDBRANCH   1   3
BRANCH   1   7
ATOM      7  C   UNL     1      89.316  40.137  26.215  1.00  0.00     0.038 C 
BRANCH   7   8
ATOM      8  C   UNL     1      90.767  40.488  26.417  1.00  0.00    -0.034 C 
ATOM      9  C   UNL     1      91.643  39.606  26.905  1.00  0.00     0.004 C 
ENDBRANCH   7   8
ENDBRANCH   1   7
TORSDOF 4
ENDMDL
MODEL 2
REMARK VINA RESULT:    -4.631      0.990      2.938
REMARK INTER + INTRA:          -6.047
REMARK INTER:                  -5.730
REMARK INTRA:                  -0.318
REMARK UNBOUND:                -0.334
REMARK SMILES C=CC[C@H](C)C(=O)CC
REMARK SMILES IDX 4 1 5 2 6 3 7 4 8 5 9 6 3 7 2 8 1 9
REMARK H PARENT
REMARK Flexibility Score: inf
ROOT
ATOM      1  C   UNL     1      88.862  38.935  27.113  1.00  0.00     0.057 C 
ATOM      2  C   UNL     1      88.337  38.628  28.520  1.00  0.00     0.016 C 
ENDROOT
BRANCH   1   3
ATOM      3  C   UNL     1      88.144  38.072  26.094  1.00  0.00     0.135 C 
ATOM      4  O   UNL     1      87.163  37.425  26.433  1.00  0.00    -0.299 OA
BRANCH   3   5
ATOM      5  C   UNL     1      88.608  38.007  24.663  1.00  0.00     0.072 C 
ATOM      6  C   UNL     1      88.087  36.749  23.975  1.00  0.00     0.012 C 
ENDBRANCH   3   5
ENDBRANCH   1   3
BRANCH   1   7
ATOM      7  C   UNL     1      90.389  38.726  27.048  1.00  0.00     0.038 C 
BRANCH   7   8
ATOM      8  C   UNL     1      91.114  39.967  26.596  1.00  0.00    -0.034 C 
ATOM      9  C   UNL     1      90.458  41.053  26.177  1.00  0.00     0.004 C 
ENDBRANCH   7   8
ENDBRANCH   1   7
TORSDOF 4
ENDMDL
MODEL 3
REMARK VINA RESULT:    -4.252      1.505      3.626
REMARK INTER + INTRA:          -5.580
REMARK INTER:                  -5.403
REMARK INTRA:                  -0.177
REMARK UNBOUND:                -0.334
REMARK SMILES C=CC[C@H](C)C(=O)CC
REMARK SMILES IDX 4 1 5 2 6 3 7 4 8 5 9 6 3 7 2 8 1 9
REMARK H PARENT
REMARK Flexibility Score: inf
ROOT
ATOM      1  C   UNL     1      88.143  38.754  26.405  1.00  0.00     0.057 C 
ATOM      2  C   UNL     1      88.095  37.913  25.124  1.00  0.00     0.016 C 
ENDROOT
BRANCH   1   3
ATOM      3  C   UNL     1      89.434  39.548  26.454  1.00  0.00     0.135 C 
ATOM      4  O   UNL     1      89.421  40.741  26.184  1.00  0.00    -0.299 OA
BRANCH   3   5
ATOM      5  C   UNL     1      90.735  38.897  26.844  1.00  0.00     0.072 C 
ATOM      6  C   UNL     1      91.857  39.927  26.932  1.00  0.00     0.012 C 
ENDBRANCH   3   5
ENDBRANCH   1   3
BRANCH   1   7
ATOM      7  C   UNL     1      87.993  37.853  27.648  1.00  0.00     0.038 C 
BRANCH   7   8
ATOM      8  C   UNL     1      88.002  38.646  28.930  1.00  0.00    -0.034 C 
ATOM      9  C   UNL     1      86.882  39.154  29.451  1.00  0.00     0.004 C 
ENDBRANCH   7   8
ENDBRANCH   1   7
TORSDOF 4
ENDMDL
MODEL 4
REMARK VINA RESULT:    -4.244      1.660      3.807
REMARK INTER + INTRA:          -5.570
REMARK INTER:                  -5.468
REMARK INTRA:                  -0.102
REMARK UNBOUND:                -0.334
REMARK SMILES C=CC[C@H](C)C(=O)CC
REMARK SMILES IDX 4 1 5 2 6 3 7 4 8 5 9 6 3 7 2 8 1 9
REMARK H PARENT
REMARK Flexibility Score: inf
ROOT
ATOM      1  C   UNL     1      88.723  38.121  27.157  1.00  0.00     0.057 C 
ATOM      2  C   UNL     1      88.031  38.607  28.436  1.00  0.00     0.016 C 
ENDROOT
BRANCH   1   3
ATOM      3  C   UNL     1      89.877  39.041  26.812  1.00  0.00     0.135 C 
ATOM      4  O   UNL     1      91.026  38.638  26.920  1.00  0.00    -0.299 OA
BRANCH   3   5
ATOM      5  C   UNL     1      89.635  40.445  26.321  1.00  0.00     0.072 C 
ATOM      6  C   UNL     1      90.952  41.174  26.076  1.00  0.00     0.012 C 
ENDBRANCH   3   5
ENDBRANCH   1   3
BRANCH   1   7
ATOM      7  C   UNL     1      87.711  38.032  25.997  1.00  0.00     0.038 C 
BRANCH   7   8
ATOM      8  C   UNL     1      88.386  37.799  24.670  1.00  0.00    -0.034 C 
ATOM      9  C   UNL     1      88.157  36.699  23.948  1.00  0.00     0.004 C 
ENDBRANCH   7   8
ENDBRANCH   1   7
TORSDOF 4
ENDMDL
MODEL 5
REMARK VINA RESULT:    -3.825      1.518      3.571
REMARK INTER + INTRA:          -5.054
REMARK INTER:                  -4.764
REMARK INTRA:                  -0.290
REMARK UNBOUND:                -0.334
REMARK SMILES C=CC[C@H](C)C(=O)CC
REMARK SMILES IDX 4 1 5 2 6 3 7 4 8 5 9 6 3 7 2 8 1 9
REMARK H PARENT
REMARK Flexibility Score: inf
ROOT
ATOM      1  C   UNL     1      87.993  37.600  26.444  1.00  0.00     0.057 C 
ATOM      2  C   UNL     1      86.665  37.218  27.109  1.00  0.00     0.016 C 
ENDROOT
BRANCH   1   3
ATOM      3  C   UNL     1      88.665  38.707  27.232  1.00  0.00     0.135 C 
ATOM      4  O   UNL     1      88.422  38.835  28.424  1.00  0.00    -0.299 OA
BRANCH   3   5
ATOM      5  C   UNL     1      89.644  39.645  26.578  1.00  0.00     0.072 C 
ATOM      6  C   UNL     1      91.082  39.222  26.864  1.00  0.00     0.012 C 
ENDBRANCH   3   5
ENDBRANCH   1   3
BRANCH   1   7
ATOM      7  C   UNL     1      87.762  38.018  24.978  1.00  0.00     0.038 C 
BRANCH   7   8
ATOM      8  C   UNL     1      88.575  37.191  24.016  1.00  0.00    -0.034 C 
ATOM      9  C   UNL     1      88.154  35.999  23.583  1.00  0.00     0.004 C 
ENDBRANCH   7   8
ENDBRANCH   1   7
TORSDOF 4
ENDMDL
MODEL 6
REMARK VINA RESULT:    -3.819      1.962      3.488
REMARK INTER + INTRA:          -5.046
REMARK INTER:                  -4.878
REMARK INTRA:                  -0.168
REMARK UNBOUND:                -0.334
REMARK SMILES C=CC[C@H](C)C(=O)CC
REMARK SMILES IDX 4 1 5 2 6 3 7 4 8 5 9 6 3 7 2 8 1 9
REMARK H PARENT
REMARK Flexibility Score: inf
ROOT
ATOM      1  C   UNL     1      87.887  38.294  25.919  1.00  0.00     0.057 C 
ATOM      2  C   UNL     1      87.346  37.419  27.055  1.00  0.00     0.016 C 
ENDROOT
BRANCH   1   3
ATOM      3  C   UNL     1      87.755  37.564  24.596  1.00  0.00     0.135 C 
ATOM      4  O   UNL     1      88.759  37.291  23.953  1.00  0.00    -0.299 OA
BRANCH   3   5
ATOM      5  C   UNL     1      86.408  37.153  24.064  1.00  0.00     0.072 C 
ATOM      6  C   UNL     1      86.491  35.813  23.340  1.00  0.00     0.012 C 
ENDBRANCH   3   5
ENDBRANCH   1   3
BRANCH   1   7
ATOM      7  C   UNL     1      89.352  38.692  26.195  1.00  0.00     0.038 C 
BRANCH   7   8
ATOM      8  C   UNL     1      89.574  40.176  26.054  1.00  0.00    -0.034 C 
ATOM      9  C   UNL     1      90.740  40.745  26.372  1.00  0.00     0.004 C 
ENDBRANCH   7   8
ENDBRANCH   1   7
TORSDOF 4
ENDMDL
MODEL 7
REMARK VINA RESULT:    -3.805      1.434      2.133
REMARK INTER + INTRA:          -5.028
REMARK INTER:                  -4.790
REMARK INTRA:                  -0.238
REMARK UNBOUND:                -0.334
REMARK SMILES C=CC[C@H](C)C(=O)CC
REMARK SMILES IDX 4 1 5 2 6 3 7 4 8 5 9 6 3 7 2 8 1 9
REMARK H PARENT
REMARK Flexibility Score: inf
ROOT
ATOM      1  C   UNL     1      87.743  37.682  27.815  1.00  0.00     0.057 C 
ATOM      2  C   UNL     1      87.164  37.480  26.410  1.00  0.00     0.016 C 
ENDROOT
BRANCH   1   3
ATOM      3  C   UNL     1      86.639  38.073  28.777  1.00  0.00     0.135 C 
ATOM      4  O   UNL     1      85.638  37.376  28.865  1.00  0.00    -0.299 OA
BRANCH   3   5
ATOM      5  C   UNL     1      86.759  39.299  29.644  1.00  0.00     0.072 C 
ATOM      6  C   UNL     1      85.514  39.482  30.508  1.00  0.00     0.012 C 
ENDBRANCH   3   5
ENDBRANCH   1   3
BRANCH   1   7
ATOM      7  C   UNL     1      88.864  38.742  27.789  1.00  0.00     0.038 C 
BRANCH   7   8
ATOM      8  C   UNL     1      89.162  39.221  26.391  1.00  0.00    -0.034 C 
ATOM      9  C   UNL     1      89.687  40.427  26.158  1.00  0.00     0.004 C 
ENDBRANCH   7   8
ENDBRANCH   1   7
TORSDOF 4
ENDMDL
MODEL 8
REMARK VINA RESULT:    -3.796      2.475      4.321
REMARK INTER + INTRA:          -5.018
REMARK INTER:                  -4.804
REMARK INTRA:                  -0.214
REMARK UNBOUND:                -0.334
REMARK SMILES C=CC[C@H](C)C(=O)CC
REMARK SMILES IDX 4 1 5 2 6 3 7 4 8 5 9 6 3 7 2 8 1 9
REMARK H PARENT
REMARK Flexibility Score: inf
ROOT
ATOM      1  C   UNL     1      87.189  37.498  24.838  1.00  0.00     0.057 C 
ATOM      2  C   UNL     1      86.757  37.117  26.258  1.00  0.00     0.016 C 
ENDROOT
BRANCH   1   3
ATOM      3  C   UNL     1      87.208  36.264  23.956  1.00  0.00     0.135 C 
ATOM      4  O   UNL     1      86.160  35.692  23.692  1.00  0.00    -0.299 OA
BRANCH   3   5
ATOM      5  C   UNL     1      88.497  35.736  23.383  1.00  0.00     0.072 C 
ATOM      6  C   UNL     1      88.246  34.513  22.506  1.00  0.00     0.012 C 
ENDBRANCH   3   5
ENDBRANCH   1   3
BRANCH   1   7
ATOM      7  C   UNL     1      88.566  38.192  24.860  1.00  0.00     0.038 C 
BRANCH   7   8
ATOM      8  C   UNL     1      88.918  38.714  26.229  1.00  0.00    -0.034 C 
ATOM      9  C   UNL     1      89.572  39.866  26.396  1.00  0.00     0.004 C 
ENDBRANCH   7   8
ENDBRANCH   1   7
TORSDOF 4
ENDMDL
MODEL 9
REMARK VINA RESULT:    -3.727      1.887      4.095
REMARK INTER + INTRA:          -4.932
REMARK INTER:                  -4.764
REMARK INTRA:                  -0.168
REMARK UNBOUND:                -0.334
REMARK SMILES C=CC[C@H](C)C(=O)CC
REMARK SMILES IDX 4 1 5 2 6 3 7 4 8 5 9 6 3 7 2 8 1 9
REMARK H PARENT
REMARK Flexibility Score: inf
ROOT
ATOM      1  C   UNL     1      87.898  38.242  25.515  1.00  0.00     0.057 C 
ATOM      2  C   UNL     1      88.676  37.534  24.400  1.00  0.00     0.016 C 
ENDROOT
BRANCH   1   3
ATOM      3  C   UNL     1      88.863  38.831  26.524  1.00  0.00     0.135 C 
ATOM      4  O   UNL     1      88.925  38.358  27.651  1.00  0.00    -0.299 OA
BRANCH   3   5
ATOM      5  C   UNL     1      89.762  39.984  26.162  1.00  0.00     0.072 C 
ATOM      6  C   UNL     1      91.181  39.751  26.672  1.00  0.00     0.012 C 
ENDBRANCH   3   5
ENDBRANCH   1   3
BRANCH   1   7
ATOM      7  C   UNL     1      86.910  37.267  26.187  1.00  0.00     0.038 C 
BRANCH   7   8
ATOM      8  C   UNL     1      85.819  36.823  25.247  1.00  0.00    -0.034 C 
ATOM      9  C   UNL     1      85.039  37.701  24.610  1.00  0.00     0.004 C 
ENDBRANCH   7   8
ENDBRANCH   1   7
TORSDOF 4
ENDMDL
