MODEL 1
REMARK VINA RESULT:     1.730      0.000      0.000
REMARK INTER + INTRA:           1.588
REMARK INTER:                   1.831
REMARK INTRA:                  -0.243
REMARK UNBOUND:                -0.243
REMARK SMILES CC1=CC[C@@H]2[C@H]3[C@H](C(C)C)CC[C@]2(C)[C@@H]13
REMARK SMILES IDX 1 1 2 2 3 3 4 4 5 5 6 6 15 7 13 8 12 9 11 10 7 11 14 12 8 13
REMARK SMILES IDX 9 14 10 15
REMARK H PARENT
REMARK Flexibility Score: inf
ROOT
ATOM      1  C   UNL     1     -15.150  -5.666  15.997  1.00  0.00     0.039 C 
ATOM      2  C   UNL     1     -14.655  -4.253  16.090  1.00  0.00    -0.073 C 
ATOM      3  C   UNL     1     -13.701  -3.784  15.246  1.00  0.00    -0.027 C 
ATOM      4  C   UNL     1     -13.250  -2.324  15.375  1.00  0.00     0.031 C 
ATOM      5  C   UNL     1     -14.001  -1.624  16.556  1.00  0.00     0.003 C 
ATOM      6  C   UNL     1     -13.949  -2.580  17.769  1.00  0.00     0.004 C 
ATOM      7  C   UNL     1     -15.184  -3.284  17.151  1.00  0.00     0.024 C 
ATOM      8  C   UNL     1     -15.520  -1.913  16.509  1.00  0.00    -0.022 C 
ATOM      9  C   UNL     1     -16.237  -0.984  17.531  1.00  0.00     0.008 C 
ATOM     10  C   UNL     1     -15.760  -1.232  18.984  1.00  0.00     0.005 C 
ATOM     11  C   UNL     1     -14.305  -1.799  19.076  1.00  0.00    -0.005 C 
ATOM     12  C   UNL     1     -16.241  -1.885  15.141  1.00  0.00     0.012 C 
ENDROOT
BRANCH  11  13
ATOM     13  C   UNL     1     -14.097  -2.659  20.364  1.00  0.00    -0.014 C 
ATOM     14  C   UNL     1     -15.342  -2.624  21.272  1.00  0.00     0.007 C 
ATOM     15  C   UNL     1     -12.880  -2.190  21.188  1.00  0.00     0.007 C 
ENDBRANCH  11  13
TORSDOF 1
ENDMDL
MODEL 2
REMARK VINA RESULT:     4.691      1.485      3.372
REMARK INTER + INTRA:           4.722
REMARK INTER:                   4.962
REMARK INTRA:                  -0.240
REMARK UNBOUND:                -0.243
REMARK SMILES CC1=CC[C@@H]2[C@H]3[C@H](C(C)C)CC[C@]2(C)[C@@H]13
REMARK SMILES IDX 1 1 2 2 3 3 4 4 5 5 6 6 15 7 13 8 12 9 11 10 7 11 14 12 8 13
REMARK SMILES IDX 9 14 10 15
REMARK H PARENT
REMARK Flexibility Score: inf
ROOT
ATOM      1  C   UNL     1     -15.776   1.536  17.146  1.00  0.00     0.039 C 
ATOM      2  C   UNL     1     -15.857   0.038  17.180  1.00  0.00    -0.073 C 
ATOM      3  C   UNL     1     -16.907  -0.623  16.629  1.00  0.00    -0.027 C 
ATOM      4  C   UNL     1     -16.924  -2.155  16.675  1.00  0.00     0.031 C 
ATOM      5  C   UNL     1     -15.664  -2.693  17.430  1.00  0.00     0.003 C 
ATOM      6  C   UNL     1     -15.511  -1.862  18.724  1.00  0.00     0.004 C 
ATOM      7  C   UNL     1     -14.776  -0.811  17.855  1.00  0.00     0.024 C 
ATOM      8  C   UNL     1     -14.372  -1.996  16.940  1.00  0.00    -0.022 C 
ATOM      9  C   UNL     1     -13.144  -2.753  17.524  1.00  0.00     0.008 C 
ATOM     10  C   UNL     1     -13.124  -2.732  19.072  1.00  0.00     0.005 C 
ATOM     11  C   UNL     1     -14.544  -2.593  19.713  1.00  0.00    -0.005 C 
ATOM     12  C   UNL     1     -14.193  -1.744  15.424  1.00  0.00     0.012 C 
ENDROOT
BRANCH  11  13
ATOM     13  C   UNL     1     -14.484  -1.901  21.114  1.00  0.00    -0.014 C 
ATOM     14  C   UNL     1     -13.030  -1.705  21.583  1.00  0.00     0.007 C 
ATOM     15  C   UNL     1     -15.240  -2.704  22.192  1.00  0.00     0.007 C 
ENDBRANCH  11  13
TORSDOF 1
ENDMDL
