MODEL 1
REMARK VINA RESULT:    -5.161      0.000      0.000
REMARK INTER + INTRA:          -7.354
REMARK INTER:                  -6.972
REMARK INTRA:                  -0.382
REMARK UNBOUND:                -0.382
REMARK SMILES CCCCCCC=CC(=O)[O-]
REMARK SMILES IDX 5 1 6 2 7 3 8 4 9 5 10 6 11 7 4 8 3 9 2 10 1 11
REMARK H PARENT
REMARK Flexibility Score: inf
ROOT
ATOM      1  C   UNL     1       2.366  44.625   0.600  1.00  0.00     0.004 C 
ENDROOT
BRANCH   1   2
ATOM      2  C   UNL     1       0.835  44.539   0.615  1.00  0.00     0.027 C 
BRANCH   2   3
ATOM      3  C   UNL     1       0.259  44.855  -0.735  1.00  0.00    -0.025 C 
ATOM      4  C   UNL     1       0.978  44.706  -1.854  1.00  0.00     0.020 C 
BRANCH   4   5
ATOM      5  C   UNL     1       0.430  44.996  -3.188  1.00  0.00     0.064 C 
ATOM      6  O   UNL     1       0.367  44.104  -4.076  1.00  0.00    -0.545 OA
ATOM      7  O   UNL     1      -0.026  46.276  -3.475  1.00  0.00    -0.545 OA
ENDBRANCH   4   5
ENDBRANCH   2   3
ENDBRANCH   1   2
BRANCH   1   8
ATOM      8  C   UNL     1       2.932  44.607   2.025  1.00  0.00     0.000 C 
BRANCH   8   9
ATOM      9  C   UNL     1       3.248  46.030   2.510  1.00  0.00    -0.000 C 
BRANCH   9  10
ATOM     10  C   UNL     1       2.647  46.330   3.891  1.00  0.00    -0.003 C 
ATOM     11  C   UNL     1       1.121  46.401   3.870  1.00  0.00     0.004 C 
ENDBRANCH   9  10
ENDBRANCH   8   9
ENDBRANCH   1   8
TORSDOF 6
ENDMDL
MODEL 2
REMARK VINA RESULT:    -5.145      5.081      6.666
REMARK INTER + INTRA:          -7.332
REMARK INTER:                  -7.011
REMARK INTRA:                  -0.321
REMARK UNBOUND:                -0.382
REMARK SMILES CCCCCCC=CC(=O)[O-]
REMARK SMILES IDX 5 1 6 2 7 3 8 4 9 5 10 6 11 7 4 8 3 9 2 10 1 11
REMARK H PARENT
REMARK Flexibility Score: inf
ROOT
ATOM      1  C   UNL     1      -1.579  45.855   1.182  1.00  0.00     0.004 C 
ENDROOT
BRANCH   1   2
ATOM      2  C   UNL     1      -1.091  45.895   2.636  1.00  0.00     0.027 C 
BRANCH   2   3
ATOM      3  C   UNL     1      -2.079  45.243   3.559  1.00  0.00    -0.025 C 
ATOM      4  C   UNL     1      -2.081  45.496   4.873  1.00  0.00     0.020 C 
BRANCH   4   5
ATOM      5  C   UNL     1      -3.049  44.879   5.793  1.00  0.00     0.064 C 
ATOM      6  O   UNL     1      -3.873  45.581   6.438  1.00  0.00    -0.545 OA
ATOM      7  O   UNL     1      -3.054  43.501   5.954  1.00  0.00    -0.545 OA
ENDBRANCH   4   5
ENDBRANCH   2   3
ENDBRANCH   1   2
BRANCH   1   8
ATOM      8  C   UNL     1      -0.653  44.995   0.314  1.00  0.00     0.000 C 
BRANCH   8   9
ATOM      9  C   UNL     1       0.435  44.325   1.167  1.00  0.00    -0.000 C 
BRANCH   9  10
ATOM     10  C   UNL     1       1.847  44.555   0.609  1.00  0.00    -0.003 C 
ATOM     11  C   UNL     1       2.867  44.888   1.699  1.00  0.00     0.004 C 
ENDBRANCH   9  10
ENDBRANCH   8   9
ENDBRANCH   1   8
TORSDOF 6
ENDMDL
MODEL 3
REMARK VINA RESULT:    -5.116      1.600      2.080
REMARK INTER + INTRA:          -7.292
REMARK INTER:                  -7.086
REMARK INTRA:                  -0.206
REMARK UNBOUND:                -0.382
REMARK SMILES CCCCCCC=CC(=O)[O-]
REMARK SMILES IDX 5 1 6 2 7 3 8 4 9 5 10 6 11 7 4 8 3 9 2 10 1 11
REMARK H PARENT
REMARK Flexibility Score: inf
ROOT
ATOM      1  C   UNL     1       2.888  44.821   1.719  1.00  0.00     0.004 C 
ENDROOT
BRANCH   1   2
ATOM      2  C   UNL     1       1.721  44.468   0.787  1.00  0.00     0.027 C 
BRANCH   2   3
ATOM      3  C   UNL     1       2.151  44.481  -0.651  1.00  0.00    -0.025 C 
ATOM      4  C   UNL     1       1.260  44.421  -1.648  1.00  0.00     0.020 C 
BRANCH   4   5
ATOM      5  C   UNL     1       1.658  44.446  -3.064  1.00  0.00     0.064 C 
ATOM      6  O   UNL     1       2.766  44.928  -3.421  1.00  0.00    -0.545 OA
ATOM      7  O   UNL     1       0.799  43.930  -4.024  1.00  0.00    -0.545 OA
ENDBRANCH   4   5
ENDBRANCH   2   3
ENDBRANCH   1   2
BRANCH   1   8
ATOM      8  C   UNL     1       2.409  45.670   2.903  1.00  0.00     0.000 C 
BRANCH   8   9
ATOM      9  C   UNL     1       3.579  46.028   3.832  1.00  0.00    -0.000 C 
BRANCH   9  10
ATOM     10  C   UNL     1       4.407  44.799   4.237  1.00  0.00    -0.003 C 
ATOM     11  C   UNL     1       4.124  44.340   5.667  1.00  0.00     0.004 C 
ENDBRANCH   9  10
ENDBRANCH   8   9
ENDBRANCH   1   8
TORSDOF 6
ENDMDL
MODEL 4
REMARK VINA RESULT:    -5.102      5.102      6.296
REMARK INTER + INTRA:          -7.274
REMARK INTER:                  -7.005
REMARK INTRA:                  -0.269
REMARK UNBOUND:                -0.382
REMARK SMILES CCCCCCC=CC(=O)[O-]
REMARK SMILES IDX 5 1 6 2 7 3 8 4 9 5 10 6 11 7 4 8 3 9 2 10 1 11
REMARK H PARENT
REMARK Flexibility Score: inf
ROOT
ATOM      1  C   UNL     1      -1.292  45.085   1.453  1.00  0.00     0.004 C 
ENDROOT
BRANCH   1   2
ATOM      2  C   UNL     1      -1.855  43.676   1.682  1.00  0.00     0.027 C 
BRANCH   2   3
ATOM      3  C   UNL     1      -2.339  43.507   3.093  1.00  0.00    -0.025 C 
ATOM      4  C   UNL     1      -2.801  44.542   3.803  1.00  0.00     0.020 C 
BRANCH   4   5
ATOM      5  C   UNL     1      -3.293  44.397   5.182  1.00  0.00     0.064 C 
ATOM      6  O   UNL     1      -3.925  45.327   5.750  1.00  0.00    -0.545 OA
ATOM      7  O   UNL     1      -3.057  43.214   5.870  1.00  0.00    -0.545 OA
ENDBRANCH   4   5
ENDBRANCH   2   3
ENDBRANCH   1   2
BRANCH   1   8
ATOM      8  C   UNL     1       0.172  45.172   1.903  1.00  0.00     0.000 C 
BRANCH   8   9
ATOM      9  C   UNL     1       1.082  44.352   0.976  1.00  0.00    -0.000 C 
BRANCH   9  10
ATOM     10  C   UNL     1       2.539  44.839   0.999  1.00  0.00    -0.003 C 
ATOM     11  C   UNL     1       3.092  44.986   2.416  1.00  0.00     0.004 C 
ENDBRANCH   9  10
ENDBRANCH   8   9
ENDBRANCH   1   8
TORSDOF 6
ENDMDL
MODEL 5
REMARK VINA RESULT:    -5.035      2.906      3.361
REMARK INTER + INTRA:          -7.183
REMARK INTER:                  -6.897
REMARK INTRA:                  -0.286
REMARK UNBOUND:                -0.382
REMARK SMILES CCCCCCC=CC(=O)[O-]
REMARK SMILES IDX 5 1 6 2 7 3 8 4 9 5 10 6 11 7 4 8 3 9 2 10 1 11
REMARK H PARENT
REMARK Flexibility Score: inf
ROOT
ATOM      1  C   UNL     1       1.647  44.227   0.975  1.00  0.00     0.004 C 
ENDROOT
BRANCH   1   2
ATOM      2  C   UNL     1       1.673  44.487  -0.537  1.00  0.00     0.027 C 
BRANCH   2   3
ATOM      3  C   UNL     1       3.079  44.485  -1.064  1.00  0.00    -0.025 C 
ATOM      4  C   UNL     1       3.423  43.763  -2.137  1.00  0.00     0.020 C 
BRANCH   4   5
ATOM      5  C   UNL     1       4.790  43.757  -2.679  1.00  0.00     0.064 C 
ATOM      6  O   UNL     1       5.252  44.754  -3.296  1.00  0.00    -0.545 OA
ATOM      7  O   UNL     1       5.587  42.633  -2.507  1.00  0.00    -0.545 OA
ENDBRANCH   4   5
ENDBRANCH   2   3
ENDBRANCH   1   2
BRANCH   1   8
ATOM      8  C   UNL     1       2.860  44.864   1.664  1.00  0.00     0.000 C 
BRANCH   8   9
ATOM      9  C   UNL     1       2.421  45.780   2.816  1.00  0.00    -0.000 C 
BRANCH   9  10
ATOM     10  C   UNL     1       3.558  46.070   3.806  1.00  0.00    -0.003 C 
ATOM     11  C   UNL     1       4.320  44.810   4.218  1.00  0.00     0.004 C 
ENDBRANCH   9  10
ENDBRANCH   8   9
ENDBRANCH   1   8
TORSDOF 6
ENDMDL
MODEL 6
REMARK VINA RESULT:    -5.005      6.821      7.713
REMARK INTER + INTRA:          -7.144
REMARK INTER:                  -6.868
REMARK INTRA:                  -0.276
REMARK UNBOUND:                -0.382
REMARK SMILES CCCCCCC=CC(=O)[O-]
REMARK SMILES IDX 5 1 6 2 7 3 8 4 9 5 10 6 11 7 4 8 3 9 2 10 1 11
REMARK H PARENT
REMARK Flexibility Score: inf
ROOT
ATOM      1  C   UNL     1      -0.197  46.799   6.501  1.00  0.00     0.004 C 
ENDROOT
BRANCH   1   2
ATOM      2  C   UNL     1      -1.534  46.818   7.253  1.00  0.00     0.027 C 
BRANCH   2   3
ATOM      3  C   UNL     1      -2.525  45.882   6.625  1.00  0.00    -0.025 C 
ATOM      4  C   UNL     1      -2.340  45.391   5.395  1.00  0.00     0.020 C 
BRANCH   4   5
ATOM      5  C   UNL     1      -3.292  44.461   4.765  1.00  0.00     0.064 C 
ATOM      6  O   UNL     1      -2.935  43.307   4.407  1.00  0.00    -0.545 OA
ATOM      7  O   UNL     1      -4.605  44.863   4.562  1.00  0.00    -0.545 OA
ENDBRANCH   4   5
ENDBRANCH   2   3
ENDBRANCH   1   2
BRANCH   1   8
ATOM      8  C   UNL     1       0.971  47.106   7.446  1.00  0.00     0.000 C 
BRANCH   8   9
ATOM      9  C   UNL     1       0.640  48.296   8.360  1.00  0.00    -0.000 C 
BRANCH   9  10
ATOM     10  C   UNL     1       1.014  48.034   9.827  1.00  0.00    -0.003 C 
ATOM     11  C   UNL     1       1.797  49.188  10.453  1.00  0.00     0.004 C 
ENDBRANCH   9  10
ENDBRANCH   8   9
ENDBRANCH   1   8
TORSDOF 6
ENDMDL
MODEL 7
REMARK VINA RESULT:    -4.977      5.055      6.892
REMARK INTER + INTRA:          -7.106
REMARK INTER:                  -6.823
REMARK INTRA:                  -0.283
REMARK UNBOUND:                -0.382
REMARK SMILES CCCCCCC=CC(=O)[O-]
REMARK SMILES IDX 5 1 6 2 7 3 8 4 9 5 10 6 11 7 4 8 3 9 2 10 1 11
REMARK H PARENT
REMARK Flexibility Score: inf
ROOT
ATOM      1  C   UNL     1      -0.436  44.365   1.461  1.00  0.00     0.004 C 
ENDROOT
BRANCH   1   2
ATOM      2  C   UNL     1      -1.931  44.042   1.585  1.00  0.00     0.027 C 
BRANCH   2   3
ATOM      3  C   UNL     1      -2.307  43.749   3.009  1.00  0.00    -0.025 C 
ATOM      4  C   UNL     1      -2.763  44.708   3.823  1.00  0.00     0.020 C 
BRANCH   4   5
ATOM      5  C   UNL     1      -3.150  44.440   5.217  1.00  0.00     0.064 C 
ATOM      6  O   UNL     1      -3.099  43.276   5.696  1.00  0.00    -0.545 OA
ATOM      7  O   UNL     1      -3.579  45.489   6.020  1.00  0.00    -0.545 OA
ENDBRANCH   4   5
ENDBRANCH   2   3
ENDBRANCH   1   2
BRANCH   1   8
ATOM      8  C   UNL     1      -0.038  44.571  -0.006  1.00  0.00     0.000 C 
BRANCH   8   9
ATOM      9  C   UNL     1      -1.183  45.218  -0.801  1.00  0.00    -0.000 C 
BRANCH   9  10
ATOM     10  C   UNL     1      -0.890  45.285  -2.307  1.00  0.00    -0.003 C 
ATOM     11  C   UNL     1       0.531  44.844  -2.654  1.00  0.00     0.004 C 
ENDBRANCH   9  10
ENDBRANCH   8   9
ENDBRANCH   1   8
TORSDOF 6
ENDMDL
MODEL 8
REMARK VINA RESULT:    -4.963      4.425      6.163
REMARK INTER + INTRA:          -7.087
REMARK INTER:                  -6.719
REMARK INTRA:                  -0.367
REMARK UNBOUND:                -0.382
REMARK SMILES CCCCCCC=CC(=O)[O-]
REMARK SMILES IDX 5 1 6 2 7 3 8 4 9 5 10 6 11 7 4 8 3 9 2 10 1 11
REMARK H PARENT
REMARK Flexibility Score: inf
ROOT
ATOM      1  C   UNL     1       3.286  44.189  -1.497  1.00  0.00     0.004 C 
ENDROOT
BRANCH   1   2
ATOM      2  C   UNL     1       4.078  43.368  -2.524  1.00  0.00     0.027 C 
BRANCH   2   3
ATOM      3  C   UNL     1       5.294  44.113  -2.993  1.00  0.00    -0.025 C 
ATOM      4  C   UNL     1       5.481  44.402  -4.286  1.00  0.00     0.020 C 
BRANCH   4   5
ATOM      5  C   UNL     1       6.658  45.143  -4.766  1.00  0.00     0.064 C 
ATOM      6  O   UNL     1       6.671  46.403  -4.787  1.00  0.00    -0.545 OA
ATOM      7  O   UNL     1       7.774  44.443  -5.204  1.00  0.00    -0.545 OA
ENDBRANCH   4   5
ENDBRANCH   2   3
ENDBRANCH   1   2
BRANCH   1   8
ATOM      8  C   UNL     1       1.827  44.359  -1.937  1.00  0.00     0.000 C 
BRANCH   8   9
ATOM      9  C   UNL     1       1.687  44.189  -3.458  1.00  0.00    -0.000 C 
BRANCH   9  10
ATOM     10  C   UNL     1       0.300  44.602  -3.972  1.00  0.00    -0.003 C 
ATOM     11  C   UNL     1      -0.433  45.539  -3.012  1.00  0.00     0.004 C 
ENDBRANCH   9  10
ENDBRANCH   8   9
ENDBRANCH   1   8
TORSDOF 6
ENDMDL
MODEL 9
REMARK VINA RESULT:    -4.930      5.092      6.796
REMARK INTER + INTRA:          -7.042
REMARK INTER:                  -6.722
REMARK INTRA:                  -0.320
REMARK UNBOUND:                -0.382
REMARK SMILES CCCCCCC=CC(=O)[O-]
REMARK SMILES IDX 5 1 6 2 7 3 8 4 9 5 10 6 11 7 4 8 3 9 2 10 1 11
REMARK H PARENT
REMARK Flexibility Score: inf
ROOT
ATOM      1  C   UNL     1       3.067  44.727   1.833  1.00  0.00     0.004 C 
ENDROOT
BRANCH   1   2
ATOM      2  C   UNL     1       2.859  46.028   2.619  1.00  0.00     0.027 C 
BRANCH   2   3
ATOM      3  C   UNL     1       3.291  45.875   4.049  1.00  0.00    -0.025 C 
ATOM      4  C   UNL     1       4.008  44.820   4.454  1.00  0.00     0.020 C 
BRANCH   4   5
ATOM      5  C   UNL     1       4.454  44.656   5.846  1.00  0.00     0.064 C 
ATOM      6  O   UNL     1       3.634  44.395   6.766  1.00  0.00    -0.545 OA
ATOM      7  O   UNL     1       5.801  44.793   6.152  1.00  0.00    -0.545 OA
ENDBRANCH   4   5
ENDBRANCH   2   3
ENDBRANCH   1   2
BRANCH   1   8
ATOM      8  C   UNL     1       1.911  44.485   0.854  1.00  0.00     0.000 C 
BRANCH   8   9
ATOM      9  C   UNL     1       0.563  44.850   1.494  1.00  0.00    -0.000 C 
BRANCH   9  10
ATOM     10  C   UNL     1      -0.633  44.293   0.706  1.00  0.00    -0.003 C 
ATOM     11  C   UNL     1      -1.551  43.422   1.562  1.00  0.00     0.004 C 
ENDBRANCH   9  10
ENDBRANCH   8   9
ENDBRANCH   1   8
TORSDOF 6
ENDMDL
