MODEL 1
REMARK VINA RESULT:    -6.056      0.000      0.000
REMARK INTER + INTRA:          -6.056
REMARK INTER:                  -6.056
REMARK INTRA:                   0.000
REMARK UNBOUND:                 0.000
REMARK SMILES C=C1CCC[C@]2(C)CC(=O)C(=C(C)C)C[C@@H]12
REMARK SMILES IDX 13 1 12 2 11 3 15 4 16 5 2 6 1 7 3 8 4 9 5 10 6 11 8 12 9 13
REMARK SMILES IDX 10 14 7 15 14 16
REMARK H PARENT
REMARK Flexibility Score: inf
ROOT
ATOM      1  C   UNL     1      -4.583   1.004  13.820  1.00  0.00     0.039 C 
ATOM      2  C   UNL     1      -4.104   1.569  12.502  1.00  0.00    -0.070 C 
ATOM      3  C   UNL     1      -3.803   0.752  11.448  1.00  0.00    -0.006 C 
ATOM      4  C   UNL     1      -3.920  -0.761  11.571  1.00  0.00     0.047 C 
ATOM      5  C   UNL     1      -2.951  -1.533  10.636  1.00  0.00     0.025 C 
ATOM      6  C   UNL     1      -3.126  -3.055  10.650  1.00  0.00    -0.073 C 
ATOM      7  C   UNL     1      -3.927  -3.709  11.512  1.00  0.00     0.008 C 
ATOM      8  C   UNL     1      -2.331  -3.871   9.657  1.00  0.00     0.031 C 
ATOM      9  C   UNL     1      -1.303  -3.012   8.918  1.00  0.00     0.005 C 
ATOM     10  C   UNL     1      -1.950  -1.785   8.254  1.00  0.00     0.008 C 
ATOM     11  C   UNL     1      -2.982  -1.011   9.159  1.00  0.00    -0.018 C 
ATOM     12  C   UNL     1      -2.608   0.492   9.166  1.00  0.00     0.088 C 
ATOM     13  C   UNL     1      -3.471   1.288  10.098  1.00  0.00     0.159 C 
ATOM     14  O   UNL     1      -3.917   2.400   9.707  1.00  0.00    -0.295 OA
ATOM     15  C   UNL     1      -4.399  -1.181   8.541  1.00  0.00     0.012 C 
ATOM     16  C   UNL     1      -3.937   3.069  12.422  1.00  0.00     0.039 C 
ENDROOT
TORSDOF 0
ENDMDL
MODEL 2
REMARK VINA RESULT:    -5.798      5.172      8.172
REMARK INTER + INTRA:          -5.798
REMARK INTER:                  -5.798
REMARK INTRA:                   0.000
REMARK UNBOUND:                 0.000
REMARK SMILES C=C1CCC[C@]2(C)CC(=O)C(=C(C)C)C[C@@H]12
REMARK SMILES IDX 13 1 12 2 11 3 15 4 16 5 2 6 1 7 3 8 4 9 5 10 6 11 8 12 9 13
REMARK SMILES IDX 10 14 7 15 14 16
REMARK H PARENT
REMARK Flexibility Score: inf
ROOT
ATOM      1  C   UNL     1      -1.373   2.807  16.621  1.00  0.00     0.039 C 
ATOM      2  C   UNL     1      -2.265   2.245  15.537  1.00  0.00    -0.070 C 
ATOM      3  C   UNL     1      -3.482   2.804  15.260  1.00  0.00    -0.006 C 
ATOM      4  C   UNL     1      -3.993   4.002  16.048  1.00  0.00     0.047 C 
ATOM      5  C   UNL     1      -5.541   4.080  16.119  1.00  0.00     0.025 C 
ATOM      6  C   UNL     1      -6.087   5.337  16.805  1.00  0.00    -0.073 C 
ATOM      7  C   UNL     1      -5.316   6.233  17.449  1.00  0.00     0.008 C 
ATOM      8  C   UNL     1      -7.580   5.569  16.780  1.00  0.00     0.031 C 
ATOM      9  C   UNL     1      -8.328   4.355  16.223  1.00  0.00     0.005 C 
ATOM     10  C   UNL     1      -7.797   3.936  14.843  1.00  0.00     0.008 C 
ATOM     11  C   UNL     1      -6.226   3.901  14.721  1.00  0.00    -0.018 C 
ATOM     12  C   UNL     1      -5.802   2.527  14.145  1.00  0.00     0.088 C 
ATOM     13  C   UNL     1      -4.313   2.363  14.104  1.00  0.00     0.159 C 
ATOM     14  O   UNL     1      -3.788   1.865  13.072  1.00  0.00    -0.295 OA
ATOM     15  C   UNL     1      -5.785   5.024  13.740  1.00  0.00     0.012 C 
ATOM     16  C   UNL     1      -1.766   1.019  14.808  1.00  0.00     0.039 C 
ENDROOT
TORSDOF 0
ENDMDL
MODEL 3
REMARK VINA RESULT:    -5.761      4.086      8.593
REMARK INTER + INTRA:          -5.761
REMARK INTER:                  -5.761
REMARK INTRA:                   0.000
REMARK UNBOUND:                 0.000
REMARK SMILES C=C1CCC[C@]2(C)CC(=O)C(=C(C)C)C[C@@H]12
REMARK SMILES IDX 13 1 12 2 11 3 15 4 16 5 2 6 1 7 3 8 4 9 5 10 6 11 8 12 9 13
REMARK SMILES IDX 10 14 7 15 14 16
REMARK H PARENT
REMARK Flexibility Score: inf
ROOT
ATOM      1  C   UNL     1      -3.019   4.368  11.329  1.00  0.00     0.039 C 
ATOM      2  C   UNL     1      -3.664   3.335  12.224  1.00  0.00    -0.070 C 
ATOM      3  C   UNL     1      -4.582   3.691  13.172  1.00  0.00    -0.006 C 
ATOM      4  C   UNL     1      -4.975   5.149  13.374  1.00  0.00     0.047 C 
ATOM      5  C   UNL     1      -5.434   5.470  14.821  1.00  0.00     0.025 C 
ATOM      6  C   UNL     1      -5.946   6.899  15.027  1.00  0.00    -0.073 C 
ATOM      7  C   UNL     1      -5.861   7.867  14.095  1.00  0.00     0.008 C 
ATOM      8  C   UNL     1      -6.556   7.250  16.364  1.00  0.00     0.031 C 
ATOM      9  C   UNL     1      -6.365   6.123  17.383  1.00  0.00     0.005 C 
ATOM     10  C   UNL     1      -6.890   4.778  16.856  1.00  0.00     0.008 C 
ATOM     11  C   UNL     1      -6.487   4.447  15.368  1.00  0.00    -0.018 C 
ATOM     12  C   UNL     1      -5.859   3.032  15.326  1.00  0.00     0.088 C 
ATOM     13  C   UNL     1      -5.339   2.682  13.964  1.00  0.00     0.159 C 
ATOM     14  O   UNL     1      -5.572   1.531  13.506  1.00  0.00    -0.295 OA
ATOM     15  C   UNL     1      -7.775   4.459  14.498  1.00  0.00     0.012 C 
ATOM     16  C   UNL     1      -3.216   1.902  12.048  1.00  0.00     0.039 C 
ENDROOT
TORSDOF 0
ENDMDL
MODEL 4
REMARK VINA RESULT:    -5.729      3.932      6.228
REMARK INTER + INTRA:          -5.729
REMARK INTER:                  -5.729
REMARK INTRA:                   0.000
REMARK UNBOUND:                 0.000
REMARK SMILES C=C1CCC[C@]2(C)CC(=O)C(=C(C)C)C[C@@H]12
REMARK SMILES IDX 13 1 12 2 11 3 15 4 16 5 2 6 1 7 3 8 4 9 5 10 6 11 8 12 9 13
REMARK SMILES IDX 10 14 7 15 14 16
REMARK H PARENT
REMARK Flexibility Score: inf
ROOT
ATOM      1  C   UNL     1      -0.274   1.740  18.169  1.00  0.00     0.039 C 
ATOM      2  C   UNL     1       0.091   1.155  16.823  1.00  0.00    -0.070 C 
ATOM      3  C   UNL     1      -0.732   1.297  15.741  1.00  0.00    -0.006 C 
ATOM      4  C   UNL     1      -2.060   2.034  15.858  1.00  0.00     0.047 C 
ATOM      5  C   UNL     1      -3.128   1.545  14.844  1.00  0.00     0.025 C 
ATOM      6  C   UNL     1      -4.435   2.344  14.857  1.00  0.00    -0.073 C 
ATOM      7  C   UNL     1      -4.727   3.288  15.772  1.00  0.00     0.008 C 
ATOM      8  C   UNL     1      -5.468   2.037  13.797  1.00  0.00     0.031 C 
ATOM      9  C   UNL     1      -5.090   0.793  12.989  1.00  0.00     0.005 C 
ATOM     10  C   UNL     1      -3.679   0.904  12.389  1.00  0.00     0.008 C 
ATOM     11  C   UNL     1      -2.581   1.451  13.379  1.00  0.00    -0.018 C 
ATOM     12  C   UNL     1      -1.376   0.478  13.371  1.00  0.00     0.088 C 
ATOM     13  C   UNL     1      -0.330   0.860  14.375  1.00  0.00     0.159 C 
ATOM     14  O   UNL     1       0.882   0.821  14.030  1.00  0.00    -0.295 OA
ATOM     15  C   UNL     1      -2.114   2.844  12.871  1.00  0.00     0.012 C 
ATOM     16  C   UNL     1       1.384   0.377  16.745  1.00  0.00     0.039 C 
ENDROOT
TORSDOF 0
ENDMDL
MODEL 5
REMARK VINA RESULT:    -5.694      2.440      6.285
REMARK INTER + INTRA:          -5.694
REMARK INTER:                  -5.694
REMARK INTRA:                   0.000
REMARK UNBOUND:                 0.000
REMARK SMILES C=C1CCC[C@]2(C)CC(=O)C(=C(C)C)C[C@@H]12
REMARK SMILES IDX 13 1 12 2 11 3 15 4 16 5 2 6 1 7 3 8 4 9 5 10 6 11 8 12 9 13
REMARK SMILES IDX 10 14 7 15 14 16
REMARK H PARENT
REMARK Flexibility Score: inf
ROOT
ATOM      1  C   UNL     1      -0.293  -0.331  12.997  1.00  0.00     0.039 C 
ATOM      2  C   UNL     1      -1.659  -0.338  12.348  1.00  0.00    -0.070 C 
ATOM      3  C   UNL     1      -2.625   0.554  12.720  1.00  0.00    -0.006 C 
ATOM      4  C   UNL     1      -2.367   1.578  13.818  1.00  0.00     0.047 C 
ATOM      5  C   UNL     1      -3.651   2.009  14.574  1.00  0.00     0.025 C 
ATOM      6  C   UNL     1      -3.442   3.122  15.606  1.00  0.00    -0.073 C 
ATOM      7  C   UNL     1      -2.233   3.592  15.967  1.00  0.00     0.008 C 
ATOM      8  C   UNL     1      -4.663   3.710  16.275  1.00  0.00     0.031 C 
ATOM      9  C   UNL     1      -5.927   2.917  15.936  1.00  0.00     0.005 C 
ATOM     10  C   UNL     1      -6.126   2.776  14.418  1.00  0.00     0.008 C 
ATOM     11  C   UNL     1      -4.827   2.393  13.612  1.00  0.00    -0.018 C 
ATOM     12  C   UNL     1      -5.140   1.170  12.715  1.00  0.00     0.088 C 
ATOM     13  C   UNL     1      -3.924   0.664  11.999  1.00  0.00     0.159 C 
ATOM     14  O   UNL     1      -4.025   0.357  10.781  1.00  0.00    -0.295 OA
ATOM     15  C   UNL     1      -4.435   3.599  12.713  1.00  0.00     0.012 C 
ATOM     16  C   UNL     1      -1.914  -1.401  11.304  1.00  0.00     0.039 C 
ENDROOT
TORSDOF 0
ENDMDL
MODEL 6
REMARK VINA RESULT:    -5.689      4.435      6.519
REMARK INTER + INTRA:          -5.689
REMARK INTER:                  -5.689
REMARK INTRA:                   0.000
REMARK UNBOUND:                 0.000
REMARK SMILES C=C1CCC[C@]2(C)CC(=O)C(=C(C)C)C[C@@H]12
REMARK SMILES IDX 13 1 12 2 11 3 15 4 16 5 2 6 1 7 3 8 4 9 5 10 6 11 8 12 9 13
REMARK SMILES IDX 10 14 7 15 14 16
REMARK H PARENT
REMARK Flexibility Score: inf
ROOT
ATOM      1  C   UNL     1      -8.432   3.922  15.446  1.00  0.00     0.039 C 
ATOM      2  C   UNL     1      -7.200   4.602  15.998  1.00  0.00    -0.070 C 
ATOM      3  C   UNL     1      -5.947   4.244  15.586  1.00  0.00    -0.006 C 
ATOM      4  C   UNL     1      -5.746   3.129  14.568  1.00  0.00     0.047 C 
ATOM      5  C   UNL     1      -4.385   2.399  14.714  1.00  0.00     0.025 C 
ATOM      6  C   UNL     1      -4.103   1.351  13.632  1.00  0.00    -0.073 C 
ATOM      7  C   UNL     1      -5.008   0.956  12.717  1.00  0.00     0.008 C 
ATOM      8  C   UNL     1      -2.737   0.704  13.608  1.00  0.00     0.031 C 
ATOM      9  C   UNL     1      -1.913   1.082  14.841  1.00  0.00     0.005 C 
ATOM     10  C   UNL     1      -1.815   2.605  15.022  1.00  0.00     0.008 C 
ATOM     11  C   UNL     1      -3.171   3.384  14.825  1.00  0.00    -0.018 C 
ATOM     12  C   UNL     1      -3.401   4.301  16.051  1.00  0.00     0.088 C 
ATOM     13  C   UNL     1      -4.730   4.994  16.002  1.00  0.00     0.159 C 
ATOM     14  O   UNL     1      -4.784   6.218  16.300  1.00  0.00    -0.295 OA
ATOM     15  C   UNL     1      -3.051   4.261  13.547  1.00  0.00     0.012 C 
ATOM     16  C   UNL     1      -7.420   5.664  17.052  1.00  0.00     0.039 C 
ENDROOT
TORSDOF 0
ENDMDL
MODEL 7
REMARK VINA RESULT:    -5.673      2.684      4.848
REMARK INTER + INTRA:          -5.673
REMARK INTER:                  -5.673
REMARK INTRA:                   0.000
REMARK UNBOUND:                 0.000
REMARK SMILES C=C1CCC[C@]2(C)CC(=O)C(=C(C)C)C[C@@H]12
REMARK SMILES IDX 13 1 12 2 11 3 15 4 16 5 2 6 1 7 3 8 4 9 5 10 6 11 8 12 9 13
REMARK SMILES IDX 10 14 7 15 14 16
REMARK H PARENT
REMARK Flexibility Score: inf
ROOT
ATOM      1  C   UNL     1      -5.134   6.091  13.559  1.00  0.00     0.039 C 
ATOM      2  C   UNL     1      -5.449   4.714  14.097  1.00  0.00    -0.070 C 
ATOM      3  C   UNL     1      -4.898   3.592  13.544  1.00  0.00    -0.006 C 
ATOM      4  C   UNL     1      -3.958   3.689  12.349  1.00  0.00     0.047 C 
ATOM      5  C   UNL     1      -3.973   2.426  11.448  1.00  0.00     0.025 C 
ATOM      6  C   UNL     1      -2.954   2.444  10.304  1.00  0.00    -0.073 C 
ATOM      7  C   UNL     1      -2.211   3.518   9.980  1.00  0.00     0.008 C 
ATOM      8  C   UNL     1      -2.794   1.191   9.475  1.00  0.00     0.031 C 
ATOM      9  C   UNL     1      -3.864   0.151   9.814  1.00  0.00     0.005 C 
ATOM     10  C   UNL     1      -3.902  -0.167  11.318  1.00  0.00     0.008 C 
ATOM     11  C   UNL     1      -3.831   1.094  12.262  1.00  0.00    -0.018 C 
ATOM     12  C   UNL     1      -4.997   1.019  13.279  1.00  0.00     0.088 C 
ATOM     13  C   UNL     1      -5.076   2.241  14.144  1.00  0.00     0.159 C 
ATOM     14  O   UNL     1      -5.275   2.094  15.380  1.00  0.00    -0.295 OA
ATOM     15  C   UNL     1      -2.480   1.055  13.030  1.00  0.00     0.012 C 
ATOM     16  C   UNL     1      -6.431   4.637  15.244  1.00  0.00     0.039 C 
ENDROOT
TORSDOF 0
ENDMDL
MODEL 8
REMARK VINA RESULT:    -5.582      1.925      4.843
REMARK INTER + INTRA:          -5.582
REMARK INTER:                  -5.582
REMARK INTRA:                   0.000
REMARK UNBOUND:                 0.000
REMARK SMILES C=C1CCC[C@]2(C)CC(=O)C(=C(C)C)C[C@@H]12
REMARK SMILES IDX 13 1 12 2 11 3 15 4 16 5 2 6 1 7 3 8 4 9 5 10 6 11 8 12 9 13
REMARK SMILES IDX 10 14 7 15 14 16
REMARK H PARENT
REMARK Flexibility Score: inf
ROOT
ATOM      1  C   UNL     1      -1.998  -3.703  12.253  1.00  0.00     0.039 C 
ATOM      2  C   UNL     1      -2.828  -3.234  11.079  1.00  0.00    -0.070 C 
ATOM      3  C   UNL     1      -2.886  -1.912  10.735  1.00  0.00    -0.006 C 
ATOM      4  C   UNL     1      -2.133  -0.859  11.537  1.00  0.00     0.047 C 
ATOM      5  C   UNL     1      -2.797   0.543  11.491  1.00  0.00     0.025 C 
ATOM      6  C   UNL     1      -2.002   1.649  12.191  1.00  0.00    -0.073 C 
ATOM      7  C   UNL     1      -0.901   1.426  12.934  1.00  0.00     0.008 C 
ATOM      8  C   UNL     1      -2.497   3.072  12.062  1.00  0.00     0.031 C 
ATOM      9  C   UNL     1      -3.872   3.129  11.393  1.00  0.00     0.005 C 
ATOM     10  C   UNL     1      -3.884   2.400  10.040  1.00  0.00     0.008 C 
ATOM     11  C   UNL     1      -3.168   0.996  10.038  1.00  0.00    -0.018 C 
ATOM     12  C   UNL     1      -4.133  -0.053   9.432  1.00  0.00     0.088 C 
ATOM     13  C   UNL     1      -3.574  -1.444   9.499  1.00  0.00     0.159 C 
ATOM     14  O   UNL     1      -3.685  -2.188   8.488  1.00  0.00    -0.295 OA
ATOM     15  C   UNL     1      -1.898   1.096   9.147  1.00  0.00     0.012 C 
ATOM     16  C   UNL     1      -3.615  -4.288  10.334  1.00  0.00     0.039 C 
ENDROOT
TORSDOF 0
ENDMDL
MODEL 9
REMARK VINA RESULT:    -5.542      1.854      2.598
REMARK INTER + INTRA:          -5.542
REMARK INTER:                  -5.542
REMARK INTRA:                   0.000
REMARK UNBOUND:                 0.000
REMARK SMILES C=C1CCC[C@]2(C)CC(=O)C(=C(C)C)C[C@@H]12
REMARK SMILES IDX 13 1 12 2 11 3 15 4 16 5 2 6 1 7 3 8 4 9 5 10 6 11 8 12 9 13
REMARK SMILES IDX 10 14 7 15 14 16
REMARK H PARENT
REMARK Flexibility Score: inf
ROOT
ATOM      1  C   UNL     1      -5.164   1.582  12.959  1.00  0.00     0.039 C 
ATOM      2  C   UNL     1      -3.762   1.105  13.265  1.00  0.00    -0.070 C 
ATOM      3  C   UNL     1      -3.082   0.297  12.397  1.00  0.00    -0.006 C 
ATOM      4  C   UNL     1      -3.723  -0.171  11.097  1.00  0.00     0.047 C 
ATOM      5  C   UNL     1      -3.178  -1.535  10.597  1.00  0.00     0.025 C 
ATOM      6  C   UNL     1      -3.717  -1.978   9.233  1.00  0.00    -0.073 C 
ATOM      7  C   UNL     1      -4.706  -1.342   8.576  1.00  0.00     0.008 C 
ATOM      8  C   UNL     1      -3.123  -3.215   8.600  1.00  0.00     0.031 C 
ATOM      9  C   UNL     1      -2.190  -3.948   9.567  1.00  0.00     0.005 C 
ATOM     10  C   UNL     1      -1.101  -3.021  10.129  1.00  0.00     0.008 C 
ATOM     11  C   UNL     1      -1.613  -1.604  10.594  1.00  0.00    -0.018 C 
ATOM     12  C   UNL     1      -1.112  -1.344  12.037  1.00  0.00     0.088 C 
ATOM     13  C   UNL     1      -1.652  -0.065  12.604  1.00  0.00     0.159 C 
ATOM     14  O   UNL     1      -0.869   0.693  13.235  1.00  0.00    -0.295 OA
ATOM     15  C   UNL     1      -1.013  -0.530   9.644  1.00  0.00     0.012 C 
ATOM     16  C   UNL     1      -3.168   1.532  14.588  1.00  0.00     0.039 C 
ENDROOT
TORSDOF 0
ENDMDL
