MODEL 1
REMARK VINA RESULT:    -4.439      0.000      0.000
REMARK INTER + INTRA:          -7.022
REMARK INTER:                  -6.515
REMARK INTRA:                  -0.507
REMARK UNBOUND:                -0.507
REMARK SMILES C=C1C=C[C@@H](C(C)C)CCC(C)=CCC1
REMARK SMILES IDX 3 1 4 2 5 3 9 4 10 5 11 6 12 7 13 8 6 10 7 11 8 12 2 13 1 14
REMARK SMILES IDX 15 15 14 16
REMARK H PARENT
REMARK Flexibility Score: 70.00
ROOT
ATOM      1  C   UNL     1     -47.968 -50.664  17.919  1.00  0.00    -0.001 C 
ATOM      2  C   UNL     1     -47.291 -49.564  18.305  1.00  0.00    -0.023 C 
ENDROOT
BRANCH   2   3
ATOM      3  C   UNL     1     -47.666 -48.093  18.183  1.00  0.00     0.014 C 
BRANCH   3   4
ATOM      4  C   UNL     1     -48.530 -47.602  19.387  1.00  0.00     0.012 C 
BRANCH   4   5
ATOM      5  C   UNL     1     -48.859 -48.602  20.516  1.00  0.00     0.031 C 
BRANCH   5   6
ATOM      6  C   UNL     1     -50.351 -48.746  20.765  1.00  0.00    -0.077 C 
ATOM      7  C   UNL     1     -51.058 -47.665  21.546  1.00  0.00     0.039 C 
ATOM      8  C   UNL     1     -51.093 -49.790  20.329  1.00  0.00    -0.028 CG0
ATOM      9  G   UNL     1     -50.640 -50.897  19.408  1.00  0.00     0.000 G0
ENDBRANCH   5   6
ENDBRANCH   4   5
ENDBRANCH   3   4
BRANCH   3  10
ATOM     10  C   UNL     1     -48.048 -47.588  16.751  1.00  0.00    -0.010 C 
ATOM     11  C   UNL     1     -46.996 -48.032  15.716  1.00  0.00     0.008 C 
ATOM     12  C   UNL     1     -48.192 -46.058  16.681  1.00  0.00     0.008 C 
ENDBRANCH   3  10
ENDBRANCH   2   3
BRANCH   1  13
ATOM     13  C   UNL     1     -49.265 -50.737  17.210  1.00  0.00    -0.055 C 
ATOM     14  C   UNL     1     -49.230 -50.994  15.897  1.00  0.00     0.012 C 
BRANCH  13  15
ATOM     15  C   UNL     1     -50.613 -50.603  17.902  1.00  0.00     0.039 C 
BRANCH  15  16
ATOM     16  C   UNL     1     -50.654 -50.900  19.413  1.00  0.00     0.032 CG0
ATOM     17  G   UNL     1     -51.098 -49.785  20.330  1.00  0.00     0.000 G0
ENDBRANCH  15  16
ENDBRANCH  13  15
ENDBRANCH   1  13
TORSDOF 1
ENDMDL
MODEL 2
REMARK VINA RESULT:    -4.306     10.802     12.434
REMARK INTER + INTRA:          -6.827
REMARK INTER:                  -6.304
REMARK INTRA:                  -0.523
REMARK UNBOUND:                -0.507
REMARK SMILES C=C1C=C[C@@H](C(C)C)CCC(C)=CCC1
REMARK SMILES IDX 3 1 4 2 5 3 9 4 10 5 11 6 12 7 13 8 6 10 7 11 8 12 2 13 1 14
REMARK SMILES IDX 15 15 14 16
REMARK H PARENT
REMARK Flexibility Score: 70.00
ROOT
ATOM      1  C   UNL     1     -40.987 -50.165  28.611  1.00  0.00    -0.001 C 
ATOM      2  C   UNL     1     -40.175 -49.277  28.005  1.00  0.00    -0.023 C 
ENDROOT
BRANCH   2   3
ATOM      3  C   UNL     1     -40.106 -47.763  28.146  1.00  0.00     0.014 C 
BRANCH   3   4
ATOM      4  C   UNL     1     -41.029 -47.030  27.122  1.00  0.00     0.012 C 
BRANCH   4   5
ATOM      5  C   UNL     1     -41.789 -47.876  26.077  1.00  0.00     0.031 C 
BRANCH   5   6
ATOM      6  C   UNL     1     -43.285 -47.613  26.077  1.00  0.00    -0.077 C 
ATOM      7  C   UNL     1     -43.828 -46.545  25.158  1.00  0.00     0.039 C 
ATOM      8  C   UNL     1     -44.171 -48.279  26.853  1.00  0.00    -0.028 CG0
ATOM      9  G   UNL     1     -43.883 -49.479  27.723  1.00  0.00     0.000 G0
ENDBRANCH   5   6
ENDBRANCH   4   5
ENDBRANCH   3   4
BRANCH   3  10
ATOM     10  C   UNL     1     -38.691 -47.153  28.425  1.00  0.00    -0.010 C 
ATOM     11  C   UNL     1     -37.752 -48.208  29.042  1.00  0.00     0.008 C 
ATOM     12  C   UNL     1     -38.744 -45.935  29.363  1.00  0.00     0.008 C 
ENDBRANCH   3  10
ENDBRANCH   2   3
BRANCH   1  13
ATOM     13  C   UNL     1     -42.091 -49.896  29.561  1.00  0.00    -0.055 C 
ATOM     14  C   UNL     1     -41.874 -50.190  30.848  1.00  0.00     0.012 C 
BRANCH  13  15
ATOM     15  C   UNL     1     -43.409 -49.251  29.160  1.00  0.00     0.039 C 
BRANCH  15  16
ATOM     16  C   UNL     1     -43.896 -49.497  27.719  1.00  0.00     0.032 CG0
ATOM     17  G   UNL     1     -44.169 -48.285  26.861  1.00  0.00     0.000 G0
ENDBRANCH  15  16
ENDBRANCH  13  15
ENDBRANCH   1  13
TORSDOF 1
ENDMDL
MODEL 3
REMARK VINA RESULT:    -4.290     12.208     13.937
REMARK INTER + INTRA:          -6.804
REMARK INTER:                  -6.180
REMARK INTRA:                  -0.624
REMARK UNBOUND:                -0.507
REMARK SMILES C=C1C=C[C@@H](C(C)C)CCC(C)=CCC1
REMARK SMILES IDX 3 1 4 2 5 3 9 4 10 5 11 6 12 7 13 8 6 10 7 11 8 12 2 13 1 14
REMARK SMILES IDX 15 15 14 16
REMARK H PARENT
REMARK Flexibility Score: 70.00
ROOT
ATOM      1  C   UNL     1     -43.631 -51.454  30.435  1.00  0.00    -0.001 C 
ATOM      2  C   UNL     1     -44.599 -50.710  29.862  1.00  0.00    -0.023 C 
ENDROOT
BRANCH   2   3
ATOM      3  C   UNL     1     -45.093 -49.313  30.211  1.00  0.00     0.014 C 
BRANCH   3   4
ATOM      4  C   UNL     1     -46.559 -49.321  30.747  1.00  0.00     0.012 C 
BRANCH   4   5
ATOM      5  C   UNL     1     -46.963 -50.397  31.778  1.00  0.00     0.031 C 
BRANCH   5   6
ATOM      6  C   UNL     1     -46.529 -50.054  33.193  1.00  0.00    -0.077 C 
ATOM      7  C   UNL     1     -47.305 -49.005  33.951  1.00  0.00     0.039 C 
ATOM      8  C   UNL     1     -45.482 -50.634  33.824  1.00  0.00    -0.028 CG0
ATOM      9  G   UNL     1     -44.666 -51.804  33.330  1.00  0.00     0.000 G0
ENDBRANCH   5   6
ENDBRANCH   4   5
ENDBRANCH   3   4
BRANCH   3  10
ATOM     10  C   UNL     1     -44.674 -48.162  29.236  1.00  0.00    -0.010 C 
ATOM     11  C   UNL     1     -45.406 -48.295  27.887  1.00  0.00     0.008 C 
ATOM     12  C   UNL     1     -43.158 -48.131  28.971  1.00  0.00     0.008 C 
ENDBRANCH   3  10
ENDBRANCH   2   3
BRANCH   1  13
ATOM     13  C   UNL     1     -42.805 -51.124  31.618  1.00  0.00    -0.055 C 
ATOM     14  C   UNL     1     -41.719 -50.369  31.412  1.00  0.00     0.012 C 
BRANCH  13  15
ATOM     15  C   UNL     1     -43.160 -51.538  33.037  1.00  0.00     0.039 C 
BRANCH  15  16
ATOM     16  C   UNL     1     -44.648 -51.804  33.334  1.00  0.00     0.032 CG0
ATOM     17  G   UNL     1     -45.481 -50.639  33.813  1.00  0.00     0.000 G0
ENDBRANCH  15  16
ENDBRANCH  13  15
ENDBRANCH   1  13
TORSDOF 1
ENDMDL
MODEL 4
REMARK VINA RESULT:    -4.289      0.858      3.334
REMARK INTER + INTRA:          -6.802
REMARK INTER:                  -6.201
REMARK INTRA:                  -0.601
REMARK UNBOUND:                -0.507
REMARK SMILES C=C1C=C[C@@H](C(C)C)CCC(C)=CCC1
REMARK SMILES IDX 3 1 4 2 5 3 9 4 10 5 11 6 12 7 13 8 6 10 7 11 8 12 2 13 1 14
REMARK SMILES IDX 15 15 14 16
REMARK H PARENT
REMARK Flexibility Score: 70.00
ROOT
ATOM      1  C   UNL     1     -48.869 -48.010  20.287  1.00  0.00    -0.001 C 
ATOM      2  C   UNL     1     -48.159 -47.753  19.171  1.00  0.00    -0.023 C 
ENDROOT
BRANCH   2   3
ATOM      3  C   UNL     1     -48.199 -48.434  17.809  1.00  0.00     0.014 C 
BRANCH   3   4
ATOM      4  C   UNL     1     -47.412 -49.782  17.798  1.00  0.00     0.012 C 
BRANCH   4   5
ATOM      5  C   UNL     1     -48.210 -51.102  17.744  1.00  0.00     0.031 C 
BRANCH   5   6
ATOM      6  C   UNL     1     -49.470 -51.000  16.902  1.00  0.00    -0.077 C 
ATOM      7  C   UNL     1     -49.354 -51.181  15.408  1.00  0.00     0.039 C 
ATOM      8  C   UNL     1     -50.700 -50.753  17.407  1.00  0.00    -0.028 CG0
ATOM      9  G   UNL     1     -51.080 -50.692  18.868  1.00  0.00     0.000 G0
ENDBRANCH   5   6
ENDBRANCH   4   5
ENDBRANCH   3   4
BRANCH   3  10
ATOM     10  C   UNL     1     -48.073 -47.499  16.559  1.00  0.00    -0.010 C 
ATOM     11  C   UNL     1     -46.988 -48.018  15.596  1.00  0.00     0.008 C 
ATOM     12  C   UNL     1     -47.741 -46.045  16.937  1.00  0.00     0.008 C 
ENDBRANCH   3  10
ENDBRANCH   2   3
BRANCH   1  13
ATOM     13  C   UNL     1     -49.865 -49.081  20.511  1.00  0.00    -0.055 C 
ATOM     14  C   UNL     1     -49.738 -49.811  21.625  1.00  0.00     0.012 C 
BRANCH  13  15
ATOM     15  C   UNL     1     -51.043 -49.344  19.585  1.00  0.00     0.039 C 
BRANCH  15  16
ATOM     16  C   UNL     1     -51.083 -50.713  18.879  1.00  0.00     0.032 CG0
ATOM     17  G   UNL     1     -50.704 -50.753  17.418  1.00  0.00     0.000 G0
ENDBRANCH  15  16
ENDBRANCH  13  15
ENDBRANCH   1  13
TORSDOF 1
ENDMDL
MODEL 5
REMARK VINA RESULT:    -4.247      3.559      5.970
REMARK INTER + INTRA:          -6.740
REMARK INTER:                  -6.245
REMARK INTRA:                  -0.495
REMARK UNBOUND:                -0.507
REMARK SMILES C=C1C=C[C@@H](C(C)C)CCC(C)=CCC1
REMARK SMILES IDX 3 1 4 2 5 3 9 4 10 5 11 6 12 7 13 8 6 10 7 11 8 12 2 13 1 14
REMARK SMILES IDX 15 15 14 16
REMARK H PARENT
REMARK Flexibility Score: 70.00
ROOT
ATOM      1  C   UNL     1     -52.986 -49.938  21.117  1.00  0.00    -0.001 C 
ATOM      2  C   UNL     1     -53.912 -49.236  21.800  1.00  0.00    -0.023 C 
ENDROOT
BRANCH   2   3
ATOM      3  C   UNL     1     -54.155 -47.734  21.857  1.00  0.00     0.014 C 
BRANCH   3   4
ATOM      4  C   UNL     1     -53.345 -47.047  23.000  1.00  0.00     0.012 C 
BRANCH   4   5
ATOM      5  C   UNL     1     -52.501 -47.933  23.943  1.00  0.00     0.031 C 
BRANCH   5   6
ATOM      6  C   UNL     1     -51.049 -47.495  24.026  1.00  0.00    -0.077 C 
ATOM      7  C   UNL     1     -50.661 -46.482  25.076  1.00  0.00     0.039 C 
ATOM      8  C   UNL     1     -50.072 -47.958  23.213  1.00  0.00    -0.028 CG0
ATOM      9  G   UNL     1     -50.191 -49.076  22.205  1.00  0.00     0.000 G0
ENDBRANCH   5   6
ENDBRANCH   4   5
ENDBRANCH   3   4
BRANCH   3  10
ATOM     10  C   UNL     1     -55.625 -47.256  21.609  1.00  0.00    -0.010 C 
ATOM     11  C   UNL     1     -56.489 -48.407  21.057  1.00  0.00     0.008 C 
ATOM     12  C   UNL     1     -55.706 -46.069  20.634  1.00  0.00     0.008 C 
ENDBRANCH   3  10
ENDBRANCH   2   3
BRANCH   1  13
ATOM     13  C   UNL     1     -51.897 -49.420  20.259  1.00  0.00    -0.055 C 
ATOM     14  C   UNL     1     -52.037 -49.571  18.936  1.00  0.00     0.012 C 
BRANCH  13  15
ATOM     15  C   UNL     1     -50.681 -48.679  20.794  1.00  0.00     0.039 C 
BRANCH  15  16
ATOM     16  C   UNL     1     -50.190 -49.070  22.201  1.00  0.00     0.032 CG0
ATOM     17  G   UNL     1     -50.051 -47.965  23.221  1.00  0.00     0.000 G0
ENDBRANCH  15  16
ENDBRANCH  13  15
ENDBRANCH   1  13
TORSDOF 1
ENDMDL
MODEL 6
REMARK VINA RESULT:    -4.220      1.790      4.223
REMARK INTER + INTRA:          -6.701
REMARK INTER:                  -6.162
REMARK INTRA:                  -0.539
REMARK UNBOUND:                -0.507
REMARK SMILES C=C1C=C[C@@H](C(C)C)CCC(C)=CCC1
REMARK SMILES IDX 3 1 4 2 5 3 9 4 10 5 11 6 12 7 13 8 6 10 7 11 8 12 2 13 1 14
REMARK SMILES IDX 15 15 14 16
REMARK H PARENT
REMARK Flexibility Score: 70.00
ROOT
ATOM      1  C   UNL     1     -50.196 -50.993  19.163  1.00  0.00    -0.001 C 
ATOM      2  C   UNL     1     -49.406 -50.130  19.832  1.00  0.00    -0.023 C 
ENDROOT
BRANCH   2   3
ATOM      3  C   UNL     1     -49.233 -48.627  19.659  1.00  0.00     0.014 C 
BRANCH   3   4
ATOM      4  C   UNL     1     -47.975 -48.271  18.807  1.00  0.00     0.012 C 
BRANCH   4   5
ATOM      5  C   UNL     1     -47.368 -49.360  17.896  1.00  0.00     0.031 C 
BRANCH   5   6
ATOM      6  C   UNL     1     -47.700 -49.157  16.427  1.00  0.00    -0.077 C 
ATOM      7  C   UNL     1     -47.012 -48.040  15.681  1.00  0.00     0.039 C 
ATOM      8  C   UNL     1     -48.580 -49.919  15.738  1.00  0.00    -0.028 CG0
ATOM      9  G   UNL     1     -49.261 -51.175  16.227  1.00  0.00     0.000 G0
ENDBRANCH   5   6
ENDBRANCH   4   5
ENDBRANCH   3   4
BRANCH   3  10
ATOM     10  C   UNL     1     -49.547 -47.741  20.911  1.00  0.00    -0.010 C 
ATOM     11  C   UNL     1     -48.649 -48.135  22.099  1.00  0.00     0.008 C 
ATOM     12  C   UNL     1     -51.018 -47.837  21.353  1.00  0.00     0.008 C 
ENDBRANCH   3  10
ENDBRANCH   2   3
BRANCH   1  13
ATOM     13  C   UNL     1     -51.091 -50.712  18.018  1.00  0.00    -0.055 C 
ATOM     14  C   UNL     1     -52.226 -50.051  18.277  1.00  0.00     0.012 C 
BRANCH  13  15
ATOM     15  C   UNL     1     -50.758 -51.074  16.579  1.00  0.00     0.039 C 
BRANCH  15  16
ATOM     16  C   UNL     1     -49.265 -51.178  16.214  1.00  0.00     0.032 CG0
ATOM     17  G   UNL     1     -48.579 -49.924  15.726  1.00  0.00     0.000 G0
ENDBRANCH  15  16
ENDBRANCH  13  15
ENDBRANCH   1  13
TORSDOF 1
ENDMDL
MODEL 7
REMARK VINA RESULT:    -4.090     10.215     12.213
REMARK INTER + INTRA:          -6.509
REMARK INTER:                  -5.822
REMARK INTRA:                  -0.687
REMARK UNBOUND:                -0.507
REMARK SMILES C=C1C=C[C@@H](C(C)C)CCC(C)=CCC1
REMARK SMILES IDX 3 1 4 2 5 3 9 4 10 5 11 6 12 7 13 8 6 10 7 11 8 12 2 13 1 14
REMARK SMILES IDX 15 15 14 16
REMARK H PARENT
REMARK Flexibility Score: 70.00
ROOT
ATOM      1  C   UNL     1     -44.043 -50.017  26.915  1.00  0.00    -0.001 C 
ATOM      2  C   UNL     1     -43.385 -50.370  28.038  1.00  0.00    -0.023 C 
ENDROOT
BRANCH   2   3
ATOM      3  C   UNL     1     -42.974 -49.525  29.235  1.00  0.00     0.014 C 
BRANCH   3   4
ATOM      4  C   UNL     1     -41.424 -49.463  29.411  1.00  0.00     0.012 C 
BRANCH   4   5
ATOM      5  C   UNL     1     -40.546 -49.273  28.155  1.00  0.00     0.031 C 
BRANCH   5   6
ATOM      6  C   UNL     1     -40.420 -47.818  27.734  1.00  0.00    -0.077 C 
ATOM      7  C   UNL     1     -39.415 -46.946  28.446  1.00  0.00     0.039 C 
ATOM      8  C   UNL     1     -41.158 -47.248  26.753  1.00  0.00    -0.028 CG0
ATOM      9  G   UNL     1     -42.102 -47.953  25.809  1.00  0.00     0.000 G0
ENDBRANCH   5   6
ENDBRANCH   4   5
ENDBRANCH   3   4
BRANCH   3  10
ATOM     10  C   UNL     1     -43.853 -49.666  30.523  1.00  0.00    -0.010 C 
ATOM     11  C   UNL     1     -44.694 -50.956  30.472  1.00  0.00     0.008 C 
ATOM     12  C   UNL     1     -44.799 -48.470  30.729  1.00  0.00     0.008 C 
ENDBRANCH   3  10
ENDBRANCH   2   3
BRANCH   1  13
ATOM     13  C   UNL     1     -44.506 -48.670  26.512  1.00  0.00    -0.055 C 
ATOM     14  C   UNL     1     -45.783 -48.362  26.769  1.00  0.00     0.012 C 
BRANCH  13  15
ATOM     15  C   UNL     1     -43.600 -47.617  25.893  1.00  0.00     0.039 C 
BRANCH  15  16
ATOM     16  C   UNL     1     -42.101 -47.956  25.797  1.00  0.00     0.032 CG0
ATOM     17  G   UNL     1     -41.164 -47.244  26.744  1.00  0.00     0.000 G0
ENDBRANCH  15  16
ENDBRANCH  13  15
ENDBRANCH   1  13
TORSDOF 1
ENDMDL
MODEL 8
REMARK VINA RESULT:    -3.964      2.339      4.722
REMARK INTER + INTRA:          -6.325
REMARK INTER:                  -5.631
REMARK INTRA:                  -0.694
REMARK UNBOUND:                -0.507
REMARK SMILES C=C1C=C[C@@H](C(C)C)CCC(C)=CCC1
REMARK SMILES IDX 3 1 4 2 5 3 9 4 10 5 11 6 12 7 13 8 6 10 7 11 8 12 2 13 1 14
REMARK SMILES IDX 15 15 14 16
REMARK H PARENT
REMARK Flexibility Score: 70.00
ROOT
ATOM      1  C   UNL     1     -51.777 -50.967  20.194  1.00  0.00    -0.001 C 
ATOM      2  C   UNL     1     -52.340 -50.269  21.201  1.00  0.00    -0.023 C 
ENDROOT
BRANCH   2   3
ATOM      3  C   UNL     1     -52.646 -48.782  21.307  1.00  0.00     0.014 C 
BRANCH   3   4
ATOM      4  C   UNL     1     -51.711 -48.056  22.325  1.00  0.00     0.012 C 
BRANCH   4   5
ATOM      5  C   UNL     1     -50.640 -47.087  21.781  1.00  0.00     0.031 C 
BRANCH   5   6
ATOM      6  C   UNL     1     -49.273 -47.734  21.633  1.00  0.00    -0.077 C 
ATOM      7  C   UNL     1     -48.367 -47.789  22.839  1.00  0.00     0.039 C 
ATOM      8  C   UNL     1     -48.811 -48.270  20.480  1.00  0.00    -0.028 CG0
ATOM      9  G   UNL     1     -49.590 -48.468  19.202  1.00  0.00     0.000 G0
ENDBRANCH   5   6
ENDBRANCH   4   5
ENDBRANCH   3   4
BRANCH   3  10
ATOM     10  C   UNL     1     -54.159 -48.379  21.284  1.00  0.00    -0.010 C 
ATOM     11  C   UNL     1     -54.719 -48.436  19.850  1.00  0.00     0.008 C 
ATOM     12  C   UNL     1     -54.406 -46.970  21.853  1.00  0.00     0.008 C 
ENDBRANCH   3  10
ENDBRANCH   2   3
BRANCH   1  13
ATOM     13  C   UNL     1     -51.245 -50.453  18.912  1.00  0.00    -0.055 C 
ATOM     14  C   UNL     1     -52.088 -50.416  17.872  1.00  0.00     0.012 C 
BRANCH  13  15
ATOM     15  C   UNL     1     -49.834 -49.913  18.739  1.00  0.00     0.039 C 
BRANCH  15  16
ATOM     16  C   UNL     1     -49.580 -48.465  19.200  1.00  0.00     0.032 CG0
ATOM     17  G   UNL     1     -48.803 -48.268  20.479  1.00  0.00     0.000 G0
ENDBRANCH  15  16
ENDBRANCH  13  15
ENDBRANCH   1  13
TORSDOF 1
ENDMDL
MODEL 9
REMARK VINA RESULT:    -3.963      3.404      6.482
REMARK INTER + INTRA:          -6.324
REMARK INTER:                  -5.717
REMARK INTRA:                  -0.607
REMARK UNBOUND:                -0.507
REMARK SMILES C=C1C=C[C@@H](C(C)C)CCC(C)=CCC1
REMARK SMILES IDX 3 1 4 2 5 3 9 4 10 5 11 6 12 7 13 8 6 10 7 11 8 12 2 13 1 14
REMARK SMILES IDX 15 15 14 16
REMARK H PARENT
REMARK Flexibility Score: 70.00
ROOT
ATOM      1  C   UNL     1     -52.139 -47.239  24.893  1.00  0.00    -0.001 C 
ATOM      2  C   UNL     1     -52.870 -47.029  23.780  1.00  0.00    -0.023 C 
ENDROOT
BRANCH   2   3
ATOM      3  C   UNL     1     -52.610 -47.462  22.344  1.00  0.00     0.014 C 
BRANCH   3   4
ATOM      4  C   UNL     1     -51.358 -46.759  21.732  1.00  0.00     0.012 C 
BRANCH   4   5
ATOM      5  C   UNL     1     -50.140 -47.625  21.347  1.00  0.00     0.031 C 
BRANCH   5   6
ATOM      6  C   UNL     1     -50.480 -49.100  21.213  1.00  0.00    -0.077 C 
ATOM      7  C   UNL     1     -50.999 -49.602  19.887  1.00  0.00     0.039 C 
ATOM      8  C   UNL     1     -50.347 -50.001  22.213  1.00  0.00    -0.028 CG0
ATOM      9  G   UNL     1     -49.709 -49.764  23.561  1.00  0.00     0.000 G0
ENDBRANCH   5   6
ENDBRANCH   4   5
ENDBRANCH   3   4
BRANCH   3  10
ATOM     10  C   UNL     1     -53.870 -47.643  21.432  1.00  0.00    -0.010 C 
ATOM     11  C   UNL     1     -54.968 -46.629  21.808  1.00  0.00     0.008 C 
ATOM     12  C   UNL     1     -54.462 -49.061  21.512  1.00  0.00     0.008 C 
ENDBRANCH   3  10
ENDBRANCH   2   3
BRANCH   1  13
ATOM     13  C   UNL     1     -50.828 -47.917  25.010  1.00  0.00    -0.055 C 
ATOM     14  C   UNL     1     -49.794 -47.178  25.429  1.00  0.00     0.012 C 
BRANCH  13  15
ATOM     15  C   UNL     1     -50.619 -49.401  24.747  1.00  0.00     0.039 C 
BRANCH  15  16
ATOM     16  C   UNL     1     -49.703 -49.777  23.567  1.00  0.00     0.032 CG0
ATOM     17  G   UNL     1     -50.354 -50.001  22.223  1.00  0.00     0.000 G0
ENDBRANCH  15  16
ENDBRANCH  13  15
ENDBRANCH   1  13
TORSDOF 1
ENDMDL
