MODEL 1
REMARK VINA RESULT:    -3.517      0.000      0.000
REMARK INTER + INTRA:          -4.934
REMARK INTER:                  -4.750
REMARK INTRA:                  -0.183
REMARK UNBOUND:                -0.183
REMARK SMILES CCCCCCCC(=O)[O-]
REMARK SMILES IDX 5 1 6 2 7 3 8 4 9 5 10 6 4 7 3 8 2 9 1 10
REMARK H PARENT
REMARK Flexibility Score: inf
ROOT
ATOM      1  C   UNL     1     154.594 132.614 165.256  1.00  0.00     0.000 C 
ENDROOT
BRANCH   1   2
ATOM      2  C   UNL     1     153.253 131.875 165.097  1.00  0.00     0.006 C 
BRANCH   2   3
ATOM      3  C   UNL     1     152.607 132.043 163.710  1.00  0.00     0.053 C 
BRANCH   3   4
ATOM      4  C   UNL     1     151.247 132.669 163.777  1.00  0.00     0.041 C 
ATOM      5  O   UNL     1     151.125 133.907 163.970  1.00  0.00    -0.550 OA
ATOM      6  O   UNL     1     150.111 131.878 163.657  1.00  0.00    -0.550 OA
ENDBRANCH   3   4
ENDBRANCH   2   3
ENDBRANCH   1   2
BRANCH   1   7
ATOM      7  C   UNL     1     155.303 132.299 166.581  1.00  0.00     0.000 C 
BRANCH   7   8
ATOM      8  C   UNL     1     155.567 133.579 167.381  1.00  0.00    -0.000 C 
BRANCH   8   9
ATOM      9  C   UNL     1     156.976 133.570 167.985  1.00  0.00    -0.003 C 
ATOM     10  C   UNL     1     157.815 132.430 167.411  1.00  0.00     0.004 C 
ENDBRANCH   8   9
ENDBRANCH   7   8
ENDBRANCH   1   7
TORSDOF 6
ENDMDL
MODEL 2
REMARK VINA RESULT:    -3.493      1.946      3.037
REMARK INTER + INTRA:          -4.902
REMARK INTER:                  -4.600
REMARK INTRA:                  -0.302
REMARK UNBOUND:                -0.183
REMARK SMILES CCCCCCCC(=O)[O-]
REMARK SMILES IDX 5 1 6 2 7 3 8 4 9 5 10 6 4 7 3 8 2 9 1 10
REMARK H PARENT
REMARK Flexibility Score: inf
ROOT
ATOM      1  C   UNL     1     157.009 132.005 166.837  1.00  0.00     0.000 C 
ENDROOT
BRANCH   1   2
ATOM      2  C   UNL     1     155.547 132.467 166.972  1.00  0.00     0.006 C 
BRANCH   2   3
ATOM      3  C   UNL     1     154.603 131.875 165.910  1.00  0.00     0.053 C 
BRANCH   3   4
ATOM      4  C   UNL     1     154.037 132.917 164.994  1.00  0.00     0.041 C 
ATOM      5  O   UNL     1     154.207 134.141 165.239  1.00  0.00    -0.550 OA
ATOM      6  O   UNL     1     153.292 132.537 163.884  1.00  0.00    -0.550 OA
ENDBRANCH   3   4
ENDBRANCH   2   3
ENDBRANCH   1   2
BRANCH   1   7
ATOM      7  C   UNL     1     158.007 132.957 167.511  1.00  0.00     0.000 C 
BRANCH   7   8
ATOM      8  C   UNL     1     157.434 133.522 168.815  1.00  0.00    -0.000 C 
BRANCH   8   9
ATOM      9  C   UNL     1     157.802 132.633 170.009  1.00  0.00    -0.003 C 
ATOM     10  C   UNL     1     156.696 132.637 171.061  1.00  0.00     0.004 C 
ENDBRANCH   8   9
ENDBRANCH   7   8
ENDBRANCH   1   7
TORSDOF 6
ENDMDL
MODEL 3
REMARK VINA RESULT:    -3.462      1.456      2.305
REMARK INTER + INTRA:          -4.860
REMARK INTER:                  -4.511
REMARK INTRA:                  -0.349
REMARK UNBOUND:                -0.183
REMARK SMILES CCCCCCCC(=O)[O-]
REMARK SMILES IDX 5 1 6 2 7 3 8 4 9 5 10 6 4 7 3 8 2 9 1 10
REMARK H PARENT
REMARK Flexibility Score: inf
ROOT
ATOM      1  C   UNL     1     155.659 132.358 167.190  1.00  0.00     0.000 C 
ENDROOT
BRANCH   1   2
ATOM      2  C   UNL     1     155.023 131.934 165.854  1.00  0.00     0.006 C 
BRANCH   2   3
ATOM      3  C   UNL     1     154.209 133.045 165.167  1.00  0.00     0.053 C 
BRANCH   3   4
ATOM      4  C   UNL     1     152.946 132.535 164.541  1.00  0.00     0.041 C 
ATOM      5  O   UNL     1     152.910 132.267 163.311  1.00  0.00    -0.550 OA
ATOM      6  O   UNL     1     151.799 132.386 165.310  1.00  0.00    -0.550 OA
ENDBRANCH   3   4
ENDBRANCH   2   3
ENDBRANCH   1   2
BRANCH   1   7
ATOM      7  C   UNL     1     157.193 132.318 167.167  1.00  0.00     0.000 C 
BRANCH   7   8
ATOM      8  C   UNL     1     157.786 133.613 167.734  1.00  0.00    -0.000 C 
BRANCH   8   9
ATOM      9  C   UNL     1     156.681 134.549 168.238  1.00  0.00    -0.003 C 
ATOM     10  C   UNL     1     156.675 135.864 167.462  1.00  0.00     0.004 C 
ENDBRANCH   8   9
ENDBRANCH   7   8
ENDBRANCH   1   7
TORSDOF 6
ENDMDL
MODEL 4
REMARK VINA RESULT:    -3.316      3.846      7.754
REMARK INTER + INTRA:          -4.662
REMARK INTER:                  -4.412
REMARK INTRA:                  -0.250
REMARK UNBOUND:                -0.183
REMARK SMILES CCCCCCCC(=O)[O-]
REMARK SMILES IDX 5 1 6 2 7 3 8 4 9 5 10 6 4 7 3 8 2 9 1 10
REMARK H PARENT
REMARK Flexibility Score: inf
ROOT
ATOM      1  C   UNL     1     148.753 133.401 162.927  1.00  0.00     0.000 C 
ENDROOT
BRANCH   1   2
ATOM      2  C   UNL     1     150.246 133.025 162.936  1.00  0.00     0.006 C 
BRANCH   2   3
ATOM      3  C   UNL     1     150.672 132.185 164.152  1.00  0.00     0.053 C 
BRANCH   3   4
ATOM      4  C   UNL     1     152.155 131.981 164.224  1.00  0.00     0.041 C 
ATOM      5  O   UNL     1     152.835 131.875 163.169  1.00  0.00    -0.550 OA
ATOM      6  O   UNL     1     152.784 131.875 165.459  1.00  0.00    -0.550 OA
ENDBRANCH   3   4
ENDBRANCH   2   3
ENDBRANCH   1   2
BRANCH   1   7
ATOM      7  C   UNL     1     147.839 132.247 163.362  1.00  0.00     0.000 C 
BRANCH   7   8
ATOM      8  C   UNL     1     146.620 132.133 162.440  1.00  0.00    -0.000 C 
BRANCH   8   9
ATOM      9  C   UNL     1     146.824 132.943 161.155  1.00  0.00    -0.003 C 
ATOM     10  C   UNL     1     145.680 132.714 160.171  1.00  0.00     0.004 C 
ENDBRANCH   8   9
ENDBRANCH   7   8
ENDBRANCH   1   7
TORSDOF 6
ENDMDL
MODEL 5
REMARK VINA RESULT:    -3.294      3.582      5.886
REMARK INTER + INTRA:          -4.632
REMARK INTER:                  -4.339
REMARK INTRA:                  -0.293
REMARK UNBOUND:                -0.183
REMARK SMILES CCCCCCCC(=O)[O-]
REMARK SMILES IDX 5 1 6 2 7 3 8 4 9 5 10 6 4 7 3 8 2 9 1 10
REMARK H PARENT
REMARK Flexibility Score: inf
ROOT
ATOM      1  C   UNL     1     153.796 133.141 166.041  1.00  0.00     0.000 C 
ENDROOT
BRANCH   1   2
ATOM      2  C   UNL     1     154.729 132.249 166.878  1.00  0.00     0.006 C 
BRANCH   2   3
ATOM      3  C   UNL     1     156.191 132.248 166.397  1.00  0.00     0.053 C 
BRANCH   3   4
ATOM      4  C   UNL     1     157.141 132.779 167.428  1.00  0.00     0.041 C 
ATOM      5  O   UNL     1     157.071 133.981 167.797  1.00  0.00    -0.550 OA
ATOM      6  O   UNL     1     158.125 131.954 167.958  1.00  0.00    -0.550 OA
ENDBRANCH   3   4
ENDBRANCH   2   3
ENDBRANCH   1   2
BRANCH   1   7
ATOM      7  C   UNL     1     153.976 132.951 164.528  1.00  0.00     0.000 C 
BRANCH   7   8
ATOM      8  C   UNL     1     152.874 132.056 163.951  1.00  0.00    -0.000 C 
BRANCH   8   9
ATOM      9  C   UNL     1     151.555 132.250 164.707  1.00  0.00    -0.003 C 
ATOM     10  C   UNL     1     150.366 132.254 163.750  1.00  0.00     0.004 C 
ENDBRANCH   8   9
ENDBRANCH   7   8
ENDBRANCH   1   7
TORSDOF 6
ENDMDL
MODEL 6
REMARK VINA RESULT:    -3.230      3.222      3.960
REMARK INTER + INTRA:          -4.546
REMARK INTER:                  -4.056
REMARK INTRA:                  -0.489
REMARK UNBOUND:                -0.183
REMARK SMILES CCCCCCCC(=O)[O-]
REMARK SMILES IDX 5 1 6 2 7 3 8 4 9 5 10 6 4 7 3 8 2 9 1 10
REMARK H PARENT
REMARK Flexibility Score: inf
ROOT
ATOM      1  C   UNL     1     154.986 132.292 165.745  1.00  0.00     0.000 C 
ENDROOT
BRANCH   1   2
ATOM      2  C   UNL     1     154.339 133.662 165.473  1.00  0.00     0.006 C 
BRANCH   2   3
ATOM      3  C   UNL     1     154.281 134.582 166.706  1.00  0.00     0.053 C 
BRANCH   3   4
ATOM      4  C   UNL     1     155.028 135.866 166.506  1.00  0.00     0.041 C 
ATOM      5  O   UNL     1     154.442 136.877 166.037  1.00  0.00    -0.550 OA
ATOM      6  O   UNL     1     156.383 135.937 166.807  1.00  0.00    -0.550 OA
ENDBRANCH   3   4
ENDBRANCH   2   3
ENDBRANCH   1   2
BRANCH   1   7
ATOM      7  C   UNL     1     155.798 132.256 167.047  1.00  0.00     0.000 C 
BRANCH   7   8
ATOM      8  C   UNL     1     157.303 132.225 166.757  1.00  0.00    -0.000 C 
BRANCH   8   9
ATOM      9  C   UNL     1     158.114 132.500 168.029  1.00  0.00    -0.003 C 
ATOM     10  C   UNL     1     157.318 133.346 169.019  1.00  0.00     0.004 C 
ENDBRANCH   8   9
ENDBRANCH   7   8
ENDBRANCH   1   7
TORSDOF 6
ENDMDL
MODEL 7
REMARK VINA RESULT:    -3.174      2.838      4.574
REMARK INTER + INTRA:          -4.470
REMARK INTER:                  -4.246
REMARK INTRA:                  -0.224
REMARK UNBOUND:                -0.183
REMARK SMILES CCCCCCCC(=O)[O-]
REMARK SMILES IDX 5 1 6 2 7 3 8 4 9 5 10 6 4 7 3 8 2 9 1 10
REMARK H PARENT
REMARK Flexibility Score: inf
ROOT
ATOM      1  C   UNL     1     150.705 133.401 163.788  1.00  0.00     0.000 C 
ENDROOT
BRANCH   1   2
ATOM      2  C   UNL     1     149.169 133.500 163.816  1.00  0.00     0.006 C 
BRANCH   2   3
ATOM      3  C   UNL     1     148.451 132.233 163.318  1.00  0.00     0.053 C 
BRANCH   3   4
ATOM      4  C   UNL     1     147.028 132.490 162.927  1.00  0.00     0.041 C 
ATOM      5  O   UNL     1     146.148 132.673 163.809  1.00  0.00    -0.550 OA
ATOM      6  O   UNL     1     146.665 132.495 161.586  1.00  0.00    -0.550 OA
ENDBRANCH   3   4
ENDBRANCH   2   3
ENDBRANCH   1   2
BRANCH   1   7
ATOM      7  C   UNL     1     151.212 131.985 163.480  1.00  0.00     0.000 C 
BRANCH   7   8
ATOM      8  C   UNL     1     152.721 131.875 163.729  1.00  0.00    -0.000 C 
BRANCH   8   9
ATOM      9  C   UNL     1     153.037 131.927 165.229  1.00  0.00    -0.003 C 
ATOM     10  C   UNL     1     154.471 132.388 165.475  1.00  0.00     0.004 C 
ENDBRANCH   8   9
ENDBRANCH   7   8
ENDBRANCH   1   7
TORSDOF 6
ENDMDL
MODEL 8
REMARK VINA RESULT:    -1.820      2.685      5.350
REMARK INTER + INTRA:          -2.642
REMARK INTER:                  -2.252
REMARK INTRA:                  -0.390
REMARK UNBOUND:                -0.183
REMARK SMILES CCCCCCCC(=O)[O-]
REMARK SMILES IDX 5 1 6 2 7 3 8 4 9 5 10 6 4 7 3 8 2 9 1 10
REMARK H PARENT
REMARK Flexibility Score: inf
ROOT
ATOM      1  C   UNL     1     152.872 132.146 163.610  1.00  0.00     0.000 C 
ENDROOT
BRANCH   1   2
ATOM      2  C   UNL     1     154.002 132.668 164.517  1.00  0.00     0.006 C 
BRANCH   2   3
ATOM      3  C   UNL     1     154.159 131.887 165.833  1.00  0.00     0.053 C 
BRANCH   3   4
ATOM      4  C   UNL     1     154.388 132.781 167.014  1.00  0.00     0.041 C 
ATOM      5  O   UNL     1     155.289 132.511 167.851  1.00  0.00    -0.550 OA
ATOM      6  O   UNL     1     153.583 133.897 167.208  1.00  0.00    -0.550 OA
ENDBRANCH   3   4
ENDBRANCH   2   3
ENDBRANCH   1   2
BRANCH   1   7
ATOM      7  C   UNL     1     151.566 131.875 164.370  1.00  0.00     0.000 C 
BRANCH   7   8
ATOM      8  C   UNL     1     150.388 132.609 163.718  1.00  0.00    -0.000 C 
BRANCH   8   9
ATOM      9  C   UNL     1     149.549 133.344 164.769  1.00  0.00    -0.003 C 
ATOM     10  C   UNL     1     150.017 133.008 166.183  1.00  0.00     0.004 C 
ENDBRANCH   8   9
ENDBRANCH   7   8
ENDBRANCH   1   7
TORSDOF 6
ENDMDL
