MODEL 1
REMARK VINA RESULT:    -2.122      0.000      0.000
REMARK INTER + INTRA:          -2.122
REMARK INTER:                  -2.122
REMARK INTRA:                   0.000
REMARK UNBOUND:                 0.000
REMARK SMILES CC(=O)[O-]
REMARK SMILES IDX 1 1 2 2 3 3 4 4
REMARK H PARENT
REMARK Flexibility Score: inf
ROOT
ATOM      1  C   UNL     1     -20.223 -38.722 -38.724  1.00  0.00     0.063 C 
ATOM      2  C   UNL     1     -19.042 -37.949 -38.246  1.00  0.00     0.038 C 
ATOM      3  O   UNL     1     -18.177 -38.502 -37.516  1.00  0.00    -0.550 OA
ATOM      4  O   UNL     1     -18.917 -36.602 -38.560  1.00  0.00    -0.550 OA
ENDROOT
TORSDOF 0
ENDMDL
MODEL 2
REMARK VINA RESULT:    -2.078      1.883      2.142
REMARK INTER + INTRA:          -2.078
REMARK INTER:                  -2.078
REMARK INTRA:                   0.000
REMARK UNBOUND:                 0.000
REMARK SMILES CC(=O)[O-]
REMARK SMILES IDX 1 1 2 2 3 3 4 4
REMARK H PARENT
REMARK Flexibility Score: inf
ROOT
ATOM      1  C   UNL     1     -18.357 -36.637 -38.793  1.00  0.00     0.063 C 
ATOM      2  C   UNL     1     -17.760 -37.919 -38.322  1.00  0.00     0.038 C 
ATOM      3  O   UNL     1     -18.414 -38.678 -37.560  1.00  0.00    -0.550 OA
ATOM      4  O   UNL     1     -16.461 -38.254 -38.679  1.00  0.00    -0.550 OA
ENDROOT
TORSDOF 0
ENDMDL
MODEL 3
REMARK VINA RESULT:    -2.063     20.945     21.224
REMARK INTER + INTRA:          -2.063
REMARK INTER:                  -2.063
REMARK INTRA:                   0.000
REMARK UNBOUND:                 0.000
REMARK SMILES CC(=O)[O-]
REMARK SMILES IDX 1 1 2 2 3 3 4 4
REMARK H PARENT
REMARK Flexibility Score: inf
ROOT
ATOM      1  C   UNL     1     -30.766 -21.013 -31.784  1.00  0.00     0.063 C 
ATOM      2  C   UNL     1     -29.779 -20.516 -32.786  1.00  0.00     0.038 C 
ATOM      3  O   UNL     1     -29.863 -20.876 -33.989  1.00  0.00    -0.550 OA
ATOM      4  O   UNL     1     -28.732 -19.697 -32.384  1.00  0.00    -0.550 OA
ENDROOT
TORSDOF 0
ENDMDL
MODEL 4
REMARK VINA RESULT:    -2.062     21.335     21.762
REMARK INTER + INTRA:          -2.062
REMARK INTER:                  -2.062
REMARK INTRA:                   0.000
REMARK UNBOUND:                 0.000
REMARK SMILES CC(=O)[O-]
REMARK SMILES IDX 1 1 2 2 3 3 4 4
REMARK H PARENT
REMARK Flexibility Score: inf
ROOT
ATOM      1  C   UNL     1     -29.609 -20.634 -33.072  1.00  0.00     0.063 C 
ATOM      2  C   UNL     1     -30.750 -20.686 -32.115  1.00  0.00     0.038 C 
ATOM      3  O   UNL     1     -30.859 -21.649 -31.311  1.00  0.00    -0.550 OA
ATOM      4  O   UNL     1     -31.727 -19.698 -32.142  1.00  0.00    -0.550 OA
ENDROOT
TORSDOF 0
ENDMDL
MODEL 5
REMARK VINA RESULT:    -2.053      1.424      2.523
REMARK INTER + INTRA:          -2.053
REMARK INTER:                  -2.053
REMARK INTRA:                   0.000
REMARK UNBOUND:                 0.000
REMARK SMILES CC(=O)[O-]
REMARK SMILES IDX 1 1 2 2 3 3 4 4
REMARK H PARENT
REMARK Flexibility Score: inf
ROOT
ATOM      1  C   UNL     1     -16.584 -37.841 -38.781  1.00  0.00     0.063 C 
ATOM      2  C   UNL     1     -17.980 -37.579 -38.332  1.00  0.00     0.038 C 
ATOM      3  O   UNL     1     -18.559 -36.508 -38.654  1.00  0.00    -0.550 OA
ATOM      4  O   UNL     1     -18.630 -38.491 -37.511  1.00  0.00    -0.550 OA
ENDROOT
TORSDOF 0
ENDMDL
MODEL 6
REMARK VINA RESULT:    -2.037     21.401     21.894
REMARK INTER + INTRA:          -2.037
REMARK INTER:                  -2.037
REMARK INTRA:                   0.000
REMARK UNBOUND:                 0.000
REMARK SMILES CC(=O)[O-]
REMARK SMILES IDX 1 1 2 2 3 3 4 4
REMARK H PARENT
REMARK Flexibility Score: inf
ROOT
ATOM      1  C   UNL     1     -28.030 -18.875 -32.250  1.00  0.00     0.063 C 
ATOM      2  C   UNL     1     -29.311 -19.564 -32.576  1.00  0.00     0.038 C 
ATOM      3  O   UNL     1     -29.303 -20.754 -32.987  1.00  0.00    -0.550 OA
ATOM      4  O   UNL     1     -30.514 -18.878 -32.478  1.00  0.00    -0.550 OA
ENDROOT
TORSDOF 0
ENDMDL
MODEL 7
REMARK VINA RESULT:    -2.020     21.459     21.637
REMARK INTER + INTRA:          -2.020
REMARK INTER:                  -2.020
REMARK INTRA:                   0.000
REMARK UNBOUND:                 0.000
REMARK SMILES CC(=O)[O-]
REMARK SMILES IDX 1 1 2 2 3 3 4 4
REMARK H PARENT
REMARK Flexibility Score: inf
ROOT
ATOM      1  C   UNL     1     -29.947 -20.742 -32.847  1.00  0.00     0.063 C 
ATOM      2  C   UNL     1     -29.052 -19.550 -32.828  1.00  0.00     0.038 C 
ATOM      3  O   UNL     1     -28.875 -18.875 -33.875  1.00  0.00    -0.550 OA
ATOM      4  O   UNL     1     -28.368 -19.212 -31.668  1.00  0.00    -0.550 OA
ENDROOT
TORSDOF 0
ENDMDL
MODEL 8
REMARK VINA RESULT:    -1.972     19.304     19.582
REMARK INTER + INTRA:          -1.972
REMARK INTER:                  -1.972
REMARK INTRA:                   0.000
REMARK UNBOUND:                 0.000
REMARK SMILES CC(=O)[O-]
REMARK SMILES IDX 1 1 2 2 3 3 4 4
REMARK H PARENT
REMARK Flexibility Score: inf
ROOT
ATOM      1  C   UNL     1     -31.655 -24.463 -37.919  1.00  0.00     0.063 C 
ATOM      2  C   UNL     1     -32.083 -23.372 -36.998  1.00  0.00     0.038 C 
ATOM      3  O   UNL     1     -33.028 -23.562 -36.188  1.00  0.00    -0.550 OA
ATOM      4  O   UNL     1     -31.476 -22.125 -37.067  1.00  0.00    -0.550 OA
ENDROOT
TORSDOF 0
ENDMDL
MODEL 9
REMARK VINA RESULT:    -1.897     19.243     19.764
REMARK INTER + INTRA:          -1.897
REMARK INTER:                  -1.897
REMARK INTRA:                   0.000
REMARK UNBOUND:                 0.000
REMARK SMILES CC(=O)[O-]
REMARK SMILES IDX 1 1 2 2 3 3 4 4
REMARK H PARENT
REMARK Flexibility Score: inf
ROOT
ATOM      1  C   UNL     1     -32.540 -22.996 -35.677  1.00  0.00     0.063 C 
ATOM      2  C   UNL     1     -31.811 -23.000 -36.977  1.00  0.00     0.038 C 
ATOM      3  O   UNL     1     -31.556 -21.915 -37.563  1.00  0.00    -0.550 OA
ATOM      4  O   UNL     1     -31.458 -24.204 -37.573  1.00  0.00    -0.550 OA
ENDROOT
TORSDOF 0
ENDMDL
