MODEL 1
REMARK VINA RESULT:    18.190      0.000      0.000
REMARK INTER + INTRA:          40.394
REMARK INTER:                  41.584
REMARK INTRA:                  -1.190
REMARK UNBOUND:                -1.190
REMARK SMILES CCCCCCCCCCCCCCCCCCCCCCCC(=O)[O-]
REMARK SMILES IDX 13 1 14 2 15 3 16 4 17 5 18 6 19 7 20 8 21 9 22 10 23 11
REMARK SMILES IDX 24 12 25 13 26 14 12 15 11 16 10 17 9 18 8 19 7 20 6 21 5 22
REMARK SMILES IDX 4 23 3 24 2 25 1 26
REMARK H PARENT
REMARK Flexibility Score: inf
ROOT
ATOM      1  C   UNL     1       7.736  17.119  27.242  1.00  0.00     0.000 C 
ENDROOT
BRANCH   1   2
ATOM      2  C   UNL     1       7.254  17.864  25.991  1.00  0.00     0.000 C 
BRANCH   2   3
ATOM      3  C   UNL     1       5.890  18.526  26.239  1.00  0.00     0.000 C 
BRANCH   3   4
ATOM      4  C   UNL     1       4.955  17.663  27.099  1.00  0.00     0.000 C 
BRANCH   4   5
ATOM      5  C   UNL     1       3.508  18.190  27.114  1.00  0.00     0.000 C 
BRANCH   5   6
ATOM      6  C   UNL     1       2.543  17.278  26.338  1.00  0.00     0.000 C 
BRANCH   6   7
ATOM      7  C   UNL     1       1.269  18.013  25.891  1.00  0.00     0.000 C 
BRANCH   7   8
ATOM      8  C   UNL     1       0.596  17.281  24.720  1.00  0.00     0.000 C 
BRANCH   8   9
ATOM      9  C   UNL     1       0.141  18.237  23.606  1.00  0.00     0.000 C 
BRANCH   9  10
ATOM     10  C   UNL     1       0.860  19.596  23.664  1.00  0.00     0.006 C 
BRANCH  10  11
ATOM     11  C   UNL     1       1.723  19.848  22.420  1.00  0.00     0.053 C 
BRANCH  11  12
ATOM     12  C   UNL     1       2.663  20.998  22.618  1.00  0.00     0.041 C 
ATOM     13  O   UNL     1       2.239  22.094  23.071  1.00  0.00    -0.550 OA
ATOM     14  O   UNL     1       4.006  20.863  22.288  1.00  0.00    -0.550 OA
ENDBRANCH  11  12
ENDBRANCH  10  11
ENDBRANCH   9  10
ENDBRANCH   8   9
ENDBRANCH   7   8
ENDBRANCH   6   7
ENDBRANCH   5   6
ENDBRANCH   4   5
ENDBRANCH   3   4
ENDBRANCH   2   3
ENDBRANCH   1   2
BRANCH   1  15
ATOM     15  C   UNL     1       9.112  17.625  27.690  1.00  0.00     0.000 C 
BRANCH  15  16
ATOM     16  C   UNL     1      10.093  16.457  27.879  1.00  0.00     0.000 C 
BRANCH  16  17
ATOM     17  C   UNL     1       9.864  15.319  26.871  1.00  0.00     0.000 C 
BRANCH  17  18
ATOM     18  C   UNL     1      10.887  14.180  27.022  1.00  0.00    -0.000 C 
BRANCH  18  19
ATOM     19  C   UNL     1      10.432  12.886  26.329  1.00  0.00    -0.000 C 
BRANCH  19  20
ATOM     20  C   UNL     1      10.631  11.640  27.205  1.00  0.00    -0.000 C 
BRANCH  20  21
ATOM     21  C   UNL     1      10.074  10.388  26.510  1.00  0.00    -0.000 C 
BRANCH  21  22
ATOM     22  C   UNL     1       9.137   9.573  27.415  1.00  0.00    -0.000 C 
BRANCH  22  23
ATOM     23  C   UNL     1       7.738   9.381  26.801  1.00  0.00    -0.000 C 
BRANCH  23  24
ATOM     24  C   UNL     1       6.624   9.427  27.868  1.00  0.00    -0.000 C 
BRANCH  24  25
ATOM     25  C   UNL     1       5.410  10.275  27.452  1.00  0.00    -0.003 C 
ATOM     26  C   UNL     1       5.733  11.281  26.350  1.00  0.00     0.004 C 
ENDBRANCH  24  25
ENDBRANCH  23  24
ENDBRANCH  22  23
ENDBRANCH  21  22
ENDBRANCH  20  21
ENDBRANCH  19  20
ENDBRANCH  18  19
ENDBRANCH  17  18
ENDBRANCH  16  17
ENDBRANCH  15  16
ENDBRANCH   1  15
TORSDOF 22
ENDMDL
MODEL 2
REMARK VINA RESULT:    18.214      1.828      2.708
REMARK INTER + INTRA:          40.450
REMARK INTER:                  41.716
REMARK INTRA:                  -1.267
REMARK UNBOUND:                -1.190
REMARK SMILES CCCCCCCCCCCCCCCCCCCCCCCC(=O)[O-]
REMARK SMILES IDX 13 1 14 2 15 3 16 4 17 5 18 6 19 7 20 8 21 9 22 10 23 11
REMARK SMILES IDX 24 12 25 13 26 14 12 15 11 16 10 17 9 18 8 19 7 20 6 21 5 22
REMARK SMILES IDX 4 23 3 24 2 25 1 26
REMARK H PARENT
REMARK Flexibility Score: inf
ROOT
ATOM      1  C   UNL     1       8.178  17.352  28.015  1.00  0.00     0.000 C 
ENDROOT
BRANCH   1   2
ATOM      2  C   UNL     1       7.333  17.098  26.760  1.00  0.00     0.000 C 
BRANCH   2   3
ATOM      3  C   UNL     1       6.560  18.362  26.355  1.00  0.00     0.000 C 
BRANCH   3   4
ATOM      4  C   UNL     1       5.872  18.229  24.988  1.00  0.00     0.000 C 
BRANCH   4   5
ATOM      5  C   UNL     1       5.104  19.501  24.583  1.00  0.00     0.000 C 
BRANCH   5   6
ATOM      6  C   UNL     1       4.726  19.509  23.093  1.00  0.00     0.000 C 
BRANCH   6   7
ATOM      7  C   UNL     1       4.018  20.806  22.672  1.00  0.00     0.000 C 
BRANCH   7   8
ATOM      8  C   UNL     1       2.558  20.532  22.282  1.00  0.00     0.000 C 
BRANCH   8   9
ATOM      9  C   UNL     1       1.554  21.209  23.230  1.00  0.00     0.000 C 
BRANCH   9  10
ATOM     10  C   UNL     1       0.955  20.228  24.253  1.00  0.00     0.006 C 
BRANCH  10  11
ATOM     11  C   UNL     1       0.334  18.997  23.578  1.00  0.00     0.053 C 
BRANCH  11  12
ATOM     12  C   UNL     1       0.502  17.762  24.409  1.00  0.00     0.041 C 
ATOM     13  O   UNL     1       1.158  17.804  25.484  1.00  0.00    -0.550 OA
ATOM     14  O   UNL     1      -0.056  16.560  23.990  1.00  0.00    -0.550 OA
ENDBRANCH  11  12
ENDBRANCH  10  11
ENDBRANCH   9  10
ENDBRANCH   8   9
ENDBRANCH   7   8
ENDBRANCH   6   7
ENDBRANCH   5   6
ENDBRANCH   4   5
ENDBRANCH   3   4
ENDBRANCH   2   3
ENDBRANCH   1   2
BRANCH   1  15
ATOM     15  C   UNL     1       9.652  17.009  27.767  1.00  0.00     0.000 C 
BRANCH  15  16
ATOM     16  C   UNL     1       9.785  15.821  26.802  1.00  0.00     0.000 C 
BRANCH  16  17
ATOM     17  C   UNL     1      10.655  14.688  27.369  1.00  0.00     0.000 C 
BRANCH  17  18
ATOM     18  C   UNL     1      10.906  13.566  26.346  1.00  0.00    -0.000 C 
BRANCH  18  19
ATOM     19  C   UNL     1      11.004  12.181  27.006  1.00  0.00    -0.000 C 
BRANCH  19  20
ATOM     20  C   UNL     1       9.759  11.315  26.758  1.00  0.00    -0.000 C 
BRANCH  20  21
ATOM     21  C   UNL     1      10.040   9.843  27.096  1.00  0.00    -0.000 C 
BRANCH  21  22
ATOM     22  C   UNL     1       8.811   9.119  27.667  1.00  0.00    -0.000 C 
BRANCH  22  23
ATOM     23  C   UNL     1       7.508   9.501  26.942  1.00  0.00    -0.000 C 
BRANCH  23  24
ATOM     24  C   UNL     1       6.279   9.412  27.872  1.00  0.00    -0.000 C 
BRANCH  24  25
ATOM     25  C   UNL     1       5.189  10.448  27.550  1.00  0.00    -0.003 C 
ATOM     26  C   UNL     1       5.585  11.402  26.425  1.00  0.00     0.004 C 
ENDBRANCH  24  25
ENDBRANCH  23  24
ENDBRANCH  22  23
ENDBRANCH  21  22
ENDBRANCH  20  21
ENDBRANCH  19  20
ENDBRANCH  18  19
ENDBRANCH  17  18
ENDBRANCH  16  17
ENDBRANCH  15  16
ENDBRANCH   1  15
TORSDOF 22
ENDMDL
MODEL 3
REMARK VINA RESULT:    18.307      3.300     10.115
REMARK INTER + INTRA:          40.661
REMARK INTER:                  42.097
REMARK INTRA:                  -1.436
REMARK UNBOUND:                -1.190
REMARK SMILES CCCCCCCCCCCCCCCCCCCCCCCC(=O)[O-]
REMARK SMILES IDX 13 1 14 2 15 3 16 4 17 5 18 6 19 7 20 8 21 9 22 10 23 11
REMARK SMILES IDX 24 12 25 13 26 14 12 15 11 16 10 17 9 18 8 19 7 20 6 21 5 22
REMARK SMILES IDX 4 23 3 24 2 25 1 26
REMARK H PARENT
REMARK Flexibility Score: inf
ROOT
ATOM      1  C   UNL     1       7.984  17.538  28.034  1.00  0.00     0.000 C 
ENDROOT
BRANCH   1   2
ATOM      2  C   UNL     1       9.436  17.049  27.956  1.00  0.00     0.000 C 
BRANCH   2   3
ATOM      3  C   UNL     1       9.581  15.923  26.923  1.00  0.00     0.000 C 
BRANCH   3   4
ATOM      4  C   UNL     1      10.693  14.924  27.279  1.00  0.00     0.000 C 
BRANCH   4   5
ATOM      5  C   UNL     1      10.723  13.708  26.336  1.00  0.00     0.000 C 
BRANCH   5   6
ATOM      6  C   UNL     1      11.607  12.570  26.873  1.00  0.00     0.000 C 
BRANCH   6   7
ATOM      7  C   UNL     1      10.803  11.520  27.657  1.00  0.00     0.000 C 
BRANCH   7   8
ATOM      8  C   UNL     1       9.919  10.690  26.714  1.00  0.00     0.000 C 
BRANCH   8   9
ATOM      9  C   UNL     1       9.563   9.312  27.295  1.00  0.00     0.000 C 
BRANCH   9  10
ATOM     10  C   UNL     1       8.095   9.222  27.744  1.00  0.00     0.006 C 
BRANCH  10  11
ATOM     11  C   UNL     1       7.119   9.445  26.580  1.00  0.00     0.053 C 
BRANCH  11  12
ATOM     12  C   UNL     1       5.993  10.355  26.964  1.00  0.00     0.041 C 
ATOM     13  O   UNL     1       5.222  10.047  27.912  1.00  0.00    -0.550 OA
ATOM     14  O   UNL     1       5.786  11.539  26.266  1.00  0.00    -0.550 OA
ENDBRANCH  11  12
ENDBRANCH  10  11
ENDBRANCH   9  10
ENDBRANCH   8   9
ENDBRANCH   7   8
ENDBRANCH   6   7
ENDBRANCH   5   6
ENDBRANCH   4   5
ENDBRANCH   3   4
ENDBRANCH   2   3
ENDBRANCH   1   2
BRANCH   1  15
ATOM     15  C   UNL     1       7.226  17.223  26.739  1.00  0.00     0.000 C 
BRANCH  15  16
ATOM     16  C   UNL     1       6.062  18.204  26.532  1.00  0.00     0.000 C 
BRANCH  16  17
ATOM     17  C   UNL     1       6.107  18.899  25.161  1.00  0.00     0.000 C 
BRANCH  17  18
ATOM     18  C   UNL     1       4.720  19.002  24.503  1.00  0.00    -0.000 C 
BRANCH  18  19
ATOM     19  C   UNL     1       4.798  19.457  23.037  1.00  0.00    -0.000 C 
BRANCH  19  20
ATOM     20  C   UNL     1       4.030  20.762  22.778  1.00  0.00    -0.000 C 
BRANCH  20  21
ATOM     21  C   UNL     1       2.607  20.470  22.280  1.00  0.00    -0.000 C 
BRANCH  21  22
ATOM     22  C   UNL     1       1.523  21.045  23.205  1.00  0.00    -0.000 C 
BRANCH  22  23
ATOM     23  C   UNL     1       0.969  20.001  24.191  1.00  0.00    -0.000 C 
BRANCH  23  24
ATOM     24  C   UNL     1       0.232  18.853  23.468  1.00  0.00    -0.000 C 
BRANCH  24  25
ATOM     25  C   UNL     1       0.458  17.476  24.114  1.00  0.00    -0.003 C 
ATOM     26  C   UNL     1       1.170  17.557  25.462  1.00  0.00     0.004 C 
ENDBRANCH  24  25
ENDBRANCH  23  24
ENDBRANCH  22  23
ENDBRANCH  21  22
ENDBRANCH  20  21
ENDBRANCH  19  20
ENDBRANCH  18  19
ENDBRANCH  17  18
ENDBRANCH  16  17
ENDBRANCH  15  16
ENDBRANCH   1  15
TORSDOF 22
ENDMDL
MODEL 4
REMARK VINA RESULT:    18.327      3.192      9.978
REMARK INTER + INTRA:          40.707
REMARK INTER:                  41.981
REMARK INTRA:                  -1.274
REMARK UNBOUND:                -1.190
REMARK SMILES CCCCCCCCCCCCCCCCCCCCCCCC(=O)[O-]
REMARK SMILES IDX 13 1 14 2 15 3 16 4 17 5 18 6 19 7 20 8 21 9 22 10 23 11
REMARK SMILES IDX 24 12 25 13 26 14 12 15 11 16 10 17 9 18 8 19 7 20 6 21 5 22
REMARK SMILES IDX 4 23 3 24 2 25 1 26
REMARK H PARENT
REMARK Flexibility Score: inf
ROOT
ATOM      1  C   UNL     1       8.498  17.440  28.140  1.00  0.00     0.000 C 
ENDROOT
BRANCH   1   2
ATOM      2  C   UNL     1       9.832  16.834  27.687  1.00  0.00     0.000 C 
BRANCH   2   3
ATOM      3  C   UNL     1       9.604  15.550  26.876  1.00  0.00     0.000 C 
BRANCH   3   4
ATOM      4  C   UNL     1      10.885  14.721  26.697  1.00  0.00     0.000 C 
BRANCH   4   5
ATOM      5  C   UNL     1      10.596  13.245  26.366  1.00  0.00     0.000 C 
BRANCH   5   6
ATOM      6  C   UNL     1      11.510  12.280  27.139  1.00  0.00     0.000 C 
BRANCH   6   7
ATOM      7  C   UNL     1      10.730  11.134  27.802  1.00  0.00     0.000 C 
BRANCH   7   8
ATOM      8  C   UNL     1       9.976  10.304  26.752  1.00  0.00     0.000 C 
BRANCH   8   9
ATOM      9  C   UNL     1       9.093   9.213  27.380  1.00  0.00     0.000 C 
BRANCH   9  10
ATOM     10  C   UNL     1       7.689   9.157  26.754  1.00  0.00     0.006 C 
BRANCH  10  11
ATOM     11  C   UNL     1       6.587   9.477  27.775  1.00  0.00     0.053 C 
BRANCH  11  12
ATOM     12  C   UNL     1       5.614  10.485  27.246  1.00  0.00     0.041 C 
ATOM     13  O   UNL     1       5.817  11.042  26.134  1.00  0.00    -0.550 OA
ATOM     14  O   UNL     1       4.488  10.821  27.989  1.00  0.00    -0.550 OA
ENDBRANCH  11  12
ENDBRANCH  10  11
ENDBRANCH   9  10
ENDBRANCH   8   9
ENDBRANCH   7   8
ENDBRANCH   6   7
ENDBRANCH   5   6
ENDBRANCH   4   5
ENDBRANCH   3   4
ENDBRANCH   2   3
ENDBRANCH   1   2
BRANCH   1  15
ATOM     15  C   UNL     1       7.363  17.051  27.185  1.00  0.00     0.000 C 
BRANCH  15  16
ATOM     16  C   UNL     1       7.181  18.109  26.086  1.00  0.00     0.000 C 
BRANCH  16  17
ATOM     17  C   UNL     1       5.722  18.568  25.937  1.00  0.00     0.000 C 
BRANCH  17  18
ATOM     18  C   UNL     1       4.763  17.805  26.867  1.00  0.00    -0.000 C 
BRANCH  18  19
ATOM     19  C   UNL     1       3.321  18.330  26.784  1.00  0.00    -0.000 C 
BRANCH  19  20
ATOM     20  C   UNL     1       2.347  17.302  26.190  1.00  0.00    -0.000 C 
BRANCH  20  21
ATOM     21  C   UNL     1       1.018  17.967  25.802  1.00  0.00    -0.000 C 
BRANCH  21  22
ATOM     22  C   UNL     1       0.507  17.517  24.424  1.00  0.00    -0.000 C 
BRANCH  22  23
ATOM     23  C   UNL     1       0.281  18.695  23.460  1.00  0.00    -0.000 C 
BRANCH  23  24
ATOM     24  C   UNL     1       1.335  19.808  23.646  1.00  0.00    -0.000 C 
BRANCH  24  25
ATOM     25  C   UNL     1       1.974  20.275  22.327  1.00  0.00    -0.003 C 
ATOM     26  C   UNL     1       3.256  21.078  22.536  1.00  0.00     0.004 C 
ENDBRANCH  24  25
ENDBRANCH  23  24
ENDBRANCH  22  23
ENDBRANCH  21  22
ENDBRANCH  20  21
ENDBRANCH  19  20
ENDBRANCH  18  19
ENDBRANCH  17  18
ENDBRANCH  16  17
ENDBRANCH  15  16
ENDBRANCH   1  15
TORSDOF 22
ENDMDL
MODEL 5
REMARK VINA RESULT:    19.140      3.558     10.424
REMARK INTER + INTRA:          42.567
REMARK INTER:                  43.949
REMARK INTRA:                  -1.382
REMARK UNBOUND:                -1.190
REMARK SMILES CCCCCCCCCCCCCCCCCCCCCCCC(=O)[O-]
REMARK SMILES IDX 13 1 14 2 15 3 16 4 17 5 18 6 19 7 20 8 21 9 22 10 23 11
REMARK SMILES IDX 24 12 25 13 26 14 12 15 11 16 10 17 9 18 8 19 7 20 6 21 5 22
REMARK SMILES IDX 4 23 3 24 2 25 1 26
REMARK H PARENT
REMARK Flexibility Score: inf
ROOT
ATOM      1  C   UNL     1       7.412  18.506  26.089  1.00  0.00     0.000 C 
ENDROOT
BRANCH   1   2
ATOM      2  C   UNL     1       7.735  17.284  26.957  1.00  0.00     0.000 C 
BRANCH   2   3
ATOM      3  C   UNL     1       9.057  17.483  27.714  1.00  0.00     0.000 C 
BRANCH   3   4
ATOM      4  C   UNL     1       9.839  16.175  27.905  1.00  0.00     0.000 C 
BRANCH   4   5
ATOM      5  C   UNL     1       9.591  15.164  26.770  1.00  0.00     0.000 C 
BRANCH   5   6
ATOM      6  C   UNL     1      10.864  14.394  26.380  1.00  0.00     0.000 C 
BRANCH   6   7
ATOM      7  C   UNL     1      11.011  13.071  27.148  1.00  0.00     0.000 C 
BRANCH   7   8
ATOM      8  C   UNL     1      10.192  11.956  26.480  1.00  0.00     0.000 C 
BRANCH   8   9
ATOM      9  C   UNL     1      10.316  10.609  27.212  1.00  0.00     0.000 C 
BRANCH   9  10
ATOM     10  C   UNL     1       9.283   9.577  26.728  1.00  0.00     0.006 C 
BRANCH  10  11
ATOM     11  C   UNL     1       8.311   9.165  27.842  1.00  0.00     0.053 C 
BRANCH  11  12
ATOM     12  C   UNL     1       6.887   9.445  27.471  1.00  0.00     0.041 C 
ATOM     13  O   UNL     1       5.949   9.061  28.219  1.00  0.00    -0.550 OA
ATOM     14  O   UNL     1       6.595  10.119  26.291  1.00  0.00    -0.550 OA
ENDBRANCH  11  12
ENDBRANCH  10  11
ENDBRANCH   9  10
ENDBRANCH   8   9
ENDBRANCH   7   8
ENDBRANCH   6   7
ENDBRANCH   5   6
ENDBRANCH   4   5
ENDBRANCH   3   4
ENDBRANCH   2   3
ENDBRANCH   1   2
BRANCH   1  15
ATOM     15  C   UNL     1       5.902  18.766  26.043  1.00  0.00     0.000 C 
BRANCH  15  16
ATOM     16  C   UNL     1       5.147  17.788  26.957  1.00  0.00     0.000 C 
BRANCH  16  17
ATOM     17  C   UNL     1       3.652  18.124  27.083  1.00  0.00     0.000 C 
BRANCH  17  18
ATOM     18  C   UNL     1       2.769  17.241  26.185  1.00  0.00    -0.000 C 
BRANCH  18  19
ATOM     19  C   UNL     1       1.378  17.850  25.948  1.00  0.00    -0.000 C 
BRANCH  19  20
ATOM     20  C   UNL     1       0.692  17.295  24.691  1.00  0.00    -0.000 C 
BRANCH  20  21
ATOM     21  C   UNL     1       0.084  18.430  23.853  1.00  0.00    -0.000 C 
BRANCH  21  22
ATOM     22  C   UNL     1       0.942  19.705  23.867  1.00  0.00    -0.000 C 
BRANCH  22  23
ATOM     23  C   UNL     1       1.766  19.879  22.579  1.00  0.00    -0.000 C 
BRANCH  23  24
ATOM     24  C   UNL     1       2.418  21.276  22.491  1.00  0.00    -0.000 C 
BRANCH  24  25
ATOM     25  C   UNL     1       3.955  21.239  22.505  1.00  0.00    -0.003 C 
ATOM     26  C   UNL     1       4.516  19.923  23.038  1.00  0.00     0.004 C 
ENDBRANCH  24  25
ENDBRANCH  23  24
ENDBRANCH  22  23
ENDBRANCH  21  22
ENDBRANCH  20  21
ENDBRANCH  19  20
ENDBRANCH  18  19
ENDBRANCH  17  18
ENDBRANCH  16  17
ENDBRANCH  15  16
ENDBRANCH   1  15
TORSDOF 22
ENDMDL
MODEL 6
REMARK VINA RESULT:    19.211      3.091      9.574
REMARK INTER + INTRA:          42.728
REMARK INTER:                  42.889
REMARK INTRA:                  -0.162
REMARK UNBOUND:                -1.190
REMARK SMILES CCCCCCCCCCCCCCCCCCCCCCCC(=O)[O-]
REMARK SMILES IDX 13 1 14 2 15 3 16 4 17 5 18 6 19 7 20 8 21 9 22 10 23 11
REMARK SMILES IDX 24 12 25 13 26 14 12 15 11 16 10 17 9 18 8 19 7 20 6 21 5 22
REMARK SMILES IDX 4 23 3 24 2 25 1 26
REMARK H PARENT
REMARK Flexibility Score: inf
ROOT
ATOM      1  C   UNL     1       9.939  16.746  27.900  1.00  0.00     0.000 C 
ENDROOT
BRANCH   1   2
ATOM      2  C   UNL     1       9.990  15.893  26.626  1.00  0.00     0.000 C 
BRANCH   2   3
ATOM      3  C   UNL     1       9.967  14.395  26.967  1.00  0.00     0.000 C 
BRANCH   3   4
ATOM      4  C   UNL     1      11.101  13.611  26.289  1.00  0.00     0.000 C 
BRANCH   4   5
ATOM      5  C   UNL     1      11.804  12.635  27.250  1.00  0.00     0.000 C 
BRANCH   5   6
ATOM      6  C   UNL     1      10.861  11.534  27.763  1.00  0.00     0.000 C 
BRANCH   6   7
ATOM      7  C   UNL     1       9.914  11.012  26.670  1.00  0.00     0.000 C 
BRANCH   7   8
ATOM      8  C   UNL     1       9.677   9.502  26.826  1.00  0.00     0.000 C 
BRANCH   8   9
ATOM      9  C   UNL     1       8.748   9.166  28.003  1.00  0.00     0.000 C 
BRANCH   9  10
ATOM     10  C   UNL     1       7.288   8.962  27.563  1.00  0.00     0.006 C 
BRANCH  10  11
ATOM     11  C   UNL     1       6.921   9.832  26.353  1.00  0.00     0.053 C 
BRANCH  11  12
ATOM     12  C   UNL     1       5.766  10.739  26.648  1.00  0.00     0.041 C 
ATOM     13  O   UNL     1       5.130  10.625  27.729  1.00  0.00    -0.550 OA
ATOM     14  O   UNL     1       5.384  11.703  25.722  1.00  0.00    -0.550 OA
ENDBRANCH  11  12
ENDBRANCH  10  11
ENDBRANCH   9  10
ENDBRANCH   8   9
ENDBRANCH   7   8
ENDBRANCH   6   7
ENDBRANCH   5   6
ENDBRANCH   4   5
ENDBRANCH   3   4
ENDBRANCH   2   3
ENDBRANCH   1   2
BRANCH   1  15
ATOM     15  C   UNL     1       8.671  17.607  27.937  1.00  0.00     0.000 C 
BRANCH  15  16
ATOM     16  C   UNL     1       7.656  17.137  26.883  1.00  0.00     0.000 C 
BRANCH  16  17
ATOM     17  C   UNL     1       7.051  18.299  26.079  1.00  0.00     0.000 C 
BRANCH  17  18
ATOM     18  C   UNL     1       5.513  18.273  26.065  1.00  0.00    -0.000 C 
BRANCH  18  19
ATOM     19  C   UNL     1       4.922  17.754  27.386  1.00  0.00    -0.000 C 
BRANCH  19  20
ATOM     20  C   UNL     1       3.394  17.891  27.449  1.00  0.00    -0.000 C 
BRANCH  20  21
ATOM     21  C   UNL     1       2.790  17.928  26.037  1.00  0.00    -0.000 C 
BRANCH  21  22
ATOM     22  C   UNL     1       1.253  17.915  26.047  1.00  0.00    -0.000 C 
BRANCH  22  23
ATOM     23  C   UNL     1       0.644  19.110  25.293  1.00  0.00    -0.000 C 
BRANCH  23  24
ATOM     24  C   UNL     1       0.704  18.922  23.762  1.00  0.00    -0.000 C 
BRANCH  24  25
ATOM     25  C   UNL     1      -0.188  17.780  23.248  1.00  0.00    -0.003 C 
ATOM     26  C   UNL     1      -0.056  16.501  24.071  1.00  0.00     0.004 C 
ENDBRANCH  24  25
ENDBRANCH  23  24
ENDBRANCH  22  23
ENDBRANCH  21  22
ENDBRANCH  20  21
ENDBRANCH  19  20
ENDBRANCH  18  19
ENDBRANCH  17  18
ENDBRANCH  16  17
ENDBRANCH  15  16
ENDBRANCH   1  15
TORSDOF 22
ENDMDL
MODEL 7
REMARK VINA RESULT:    19.600      1.760      3.025
REMARK INTER + INTRA:          43.618
REMARK INTER:                  45.006
REMARK INTRA:                  -1.388
REMARK UNBOUND:                -1.190
REMARK SMILES CCCCCCCCCCCCCCCCCCCCCCCC(=O)[O-]
REMARK SMILES IDX 13 1 14 2 15 3 16 4 17 5 18 6 19 7 20 8 21 9 22 10 23 11
REMARK SMILES IDX 24 12 25 13 26 14 12 15 11 16 10 17 9 18 8 19 7 20 6 21 5 22
REMARK SMILES IDX 4 23 3 24 2 25 1 26
REMARK H PARENT
REMARK Flexibility Score: inf
ROOT
ATOM      1  C   UNL     1       9.572  16.011  26.763  1.00  0.00     0.000 C 
ENDROOT
BRANCH   1   2
ATOM      2  C   UNL     1       9.530  17.225  27.699  1.00  0.00     0.000 C 
BRANCH   2   3
ATOM      3  C   UNL     1       8.090  17.529  28.139  1.00  0.00     0.000 C 
BRANCH   3   4
ATOM      4  C   UNL     1       7.043  17.071  27.113  1.00  0.00     0.000 C 
BRANCH   4   5
ATOM      5  C   UNL     1       6.685  18.172  26.098  1.00  0.00     0.000 C 
BRANCH   5   6
ATOM      6  C   UNL     1       5.170  18.423  26.014  1.00  0.00     0.000 C 
BRANCH   6   7
ATOM      7  C   UNL     1       4.449  18.127  27.338  1.00  0.00     0.000 C 
BRANCH   7   8
ATOM      8  C   UNL     1       3.077  17.484  27.083  1.00  0.00     0.000 C 
BRANCH   8   9
ATOM      9  C   UNL     1       2.486  17.871  25.717  1.00  0.00     0.000 C 
BRANCH   9  10
ATOM     10  C   UNL     1       1.041  18.389  25.825  1.00  0.00     0.006 C 
BRANCH  10  11
ATOM     11  C   UNL     1       0.493  18.859  24.470  1.00  0.00     0.053 C 
BRANCH  11  12
ATOM     12  C   UNL     1       0.105  17.707  23.596  1.00  0.00     0.041 C 
ATOM     13  O   UNL     1      -0.162  16.586  24.104  1.00  0.00    -0.550 OA
ATOM     14  O   UNL     1       0.050  17.868  22.216  1.00  0.00    -0.550 OA
ENDBRANCH  11  12
ENDBRANCH  10  11
ENDBRANCH   9  10
ENDBRANCH   8   9
ENDBRANCH   7   8
ENDBRANCH   6   7
ENDBRANCH   5   6
ENDBRANCH   4   5
ENDBRANCH   3   4
ENDBRANCH   2   3
ENDBRANCH   1   2
BRANCH   1  15
ATOM     15  C   UNL     1      10.798  15.135  27.048  1.00  0.00     0.000 C 
BRANCH  15  16
ATOM     16  C   UNL     1      10.684  13.780  26.333  1.00  0.00     0.000 C 
BRANCH  16  17
ATOM     17  C   UNL     1      11.761  12.779  26.781  1.00  0.00     0.000 C 
BRANCH  17  18
ATOM     18  C   UNL     1      11.201  11.674  27.693  1.00  0.00    -0.000 C 
BRANCH  18  19
ATOM     19  C   UNL     1       9.950  11.003  27.103  1.00  0.00    -0.000 C 
BRANCH  19  20
ATOM     20  C   UNL     1      10.027   9.470  27.133  1.00  0.00    -0.000 C 
BRANCH  20  21
ATOM     21  C   UNL     1       8.789   8.872  27.818  1.00  0.00    -0.000 C 
BRANCH  21  22
ATOM     22  C   UNL     1       7.486   9.176  27.063  1.00  0.00    -0.000 C 
BRANCH  22  23
ATOM     23  C   UNL     1       6.246   9.126  27.974  1.00  0.00    -0.000 C 
BRANCH  23  24
ATOM     24  C   UNL     1       5.322  10.345  27.765  1.00  0.00    -0.000 C 
BRANCH  24  25
ATOM     25  C   UNL     1       5.487  11.012  26.389  1.00  0.00    -0.003 C 
ATOM     26  C   UNL     1       5.376  12.533  26.445  1.00  0.00     0.004 C 
ENDBRANCH  24  25
ENDBRANCH  23  24
ENDBRANCH  22  23
ENDBRANCH  21  22
ENDBRANCH  20  21
ENDBRANCH  19  20
ENDBRANCH  18  19
ENDBRANCH  17  18
ENDBRANCH  16  17
ENDBRANCH  15  16
ENDBRANCH   1  15
TORSDOF 22
ENDMDL
MODEL 8
REMARK VINA RESULT:    19.830      3.646      5.653
REMARK INTER + INTRA:          44.144
REMARK INTER:                  44.596
REMARK INTRA:                  -0.452
REMARK UNBOUND:                -1.190
REMARK SMILES CCCCCCCCCCCCCCCCCCCCCCCC(=O)[O-]
REMARK SMILES IDX 13 1 14 2 15 3 16 4 17 5 18 6 19 7 20 8 21 9 22 10 23 11
REMARK SMILES IDX 24 12 25 13 26 14 12 15 11 16 10 17 9 18 8 19 7 20 6 21 5 22
REMARK SMILES IDX 4 23 3 24 2 25 1 26
REMARK H PARENT
REMARK Flexibility Score: inf
ROOT
ATOM      1  C   UNL     1       5.244  18.483  25.985  1.00  0.00     0.000 C 
ENDROOT
BRANCH   1   2
ATOM      2  C   UNL     1       4.539  17.806  27.166  1.00  0.00     0.000 C 
BRANCH   2   3
ATOM      3  C   UNL     1       3.104  18.332  27.324  1.00  0.00     0.000 C 
BRANCH   3   4
ATOM      4  C   UNL     1       2.053  17.391  26.717  1.00  0.00     0.000 C 
BRANCH   4   5
ATOM      5  C   UNL     1       2.056  17.411  25.177  1.00  0.00     0.000 C 
BRANCH   5   6
ATOM      6  C   UNL     1       0.681  17.062  24.583  1.00  0.00     0.000 C 
BRANCH   6   7
ATOM      7  C   UNL     1       0.076  18.222  23.775  1.00  0.00     0.000 C 
BRANCH   7   8
ATOM      8  C   UNL     1       0.014  19.504  24.620  1.00  0.00     0.000 C 
BRANCH   8   9
ATOM      9  C   UNL     1       0.968  20.597  24.111  1.00  0.00     0.000 C 
BRANCH   9  10
ATOM     10  C   UNL     1       1.735  20.169  22.848  1.00  0.00     0.006 C 
BRANCH  10  11
ATOM     11  C   UNL     1       2.618  21.297  22.297  1.00  0.00     0.053 C 
BRANCH  11  12
ATOM     12  C   UNL     1       4.073  20.948  22.362  1.00  0.00     0.041 C 
ATOM     13  O   UNL     1       4.452  19.919  22.980  1.00  0.00    -0.550 OA
ATOM     14  O   UNL     1       5.013  21.769  21.750  1.00  0.00    -0.550 OA
ENDBRANCH  11  12
ENDBRANCH  10  11
ENDBRANCH   9  10
ENDBRANCH   8   9
ENDBRANCH   7   8
ENDBRANCH   6   7
ENDBRANCH   5   6
ENDBRANCH   4   5
ENDBRANCH   3   4
ENDBRANCH   2   3
ENDBRANCH   1   2
BRANCH   1  15
ATOM     15  C   UNL     1       6.750  18.196  26.002  1.00  0.00     0.000 C 
BRANCH  15  16
ATOM     16  C   UNL     1       7.110  17.222  27.135  1.00  0.00     0.000 C 
BRANCH  16  17
ATOM     17  C   UNL     1       8.382  16.409  26.838  1.00  0.00     0.000 C 
BRANCH  17  18
ATOM     18  C   UNL     1       9.635  17.007  27.501  1.00  0.00    -0.000 C 
BRANCH  18  19
ATOM     19  C   UNL     1       9.295  18.131  28.493  1.00  0.00    -0.000 C 
BRANCH  19  20
ATOM     20  C   UNL     1       8.068  17.809  29.360  1.00  0.00    -0.000 C 
BRANCH  20  21
ATOM     21  C   UNL     1       8.441  16.853  30.502  1.00  0.00    -0.000 C 
BRANCH  21  22
ATOM     22  C   UNL     1       7.747  17.209  31.827  1.00  0.00    -0.000 C 
BRANCH  22  23
ATOM     23  C   UNL     1       8.654  18.015  32.774  1.00  0.00    -0.000 C 
BRANCH  23  24
ATOM     24  C   UNL     1       8.053  19.395  33.119  1.00  0.00    -0.000 C 
BRANCH  24  25
ATOM     25  C   UNL     1       6.693  19.657  32.449  1.00  0.00    -0.003 C 
ATOM     26  C   UNL     1       6.195  21.087  32.649  1.00  0.00     0.004 C 
ENDBRANCH  24  25
ENDBRANCH  23  24
ENDBRANCH  22  23
ENDBRANCH  21  22
ENDBRANCH  20  21
ENDBRANCH  19  20
ENDBRANCH  18  19
ENDBRANCH  17  18
ENDBRANCH  16  17
ENDBRANCH  15  16
ENDBRANCH   1  15
TORSDOF 22
ENDMDL
