MODEL 1
REMARK VINA RESULT:    -4.346      0.000      0.000
REMARK INTER + INTRA:         -15.686
REMARK INTER:                 -11.459
REMARK INTRA:                  -4.228
REMARK UNBOUND:                -4.228
REMARK SMILES CCCCCCCCCCCCCCCCCCCCCCCCCCCCCC(=O)[O-]
REMARK SMILES IDX 16 1 17 2 18 3 19 4 20 5 21 6 22 7 23 8 24 9 25 10 26 11
REMARK SMILES IDX 27 12 28 13 29 14 30 15 31 16 32 17 15 18 14 19 13 20 12 21
REMARK SMILES IDX 11 22 10 23 9 24 8 25 7 26 6 27 5 28 4 29 3 30 2 31 1 32
REMARK H PARENT
REMARK Flexibility Score: inf
ROOT
ATOM      1  C   UNL     1       7.111  -2.470  39.020  1.00  0.00     0.000 C 
ENDROOT
BRANCH   1   2
ATOM      2  C   UNL     1       6.449  -2.905  37.701  1.00  0.00     0.000 C 
BRANCH   2   3
ATOM      3  C   UNL     1       6.617  -1.870  36.572  1.00  0.00     0.000 C 
BRANCH   3   4
ATOM      4  C   UNL     1       7.252  -2.415  35.276  1.00  0.00     0.000 C 
BRANCH   4   5
ATOM      5  C   UNL     1       7.834  -3.841  35.365  1.00  0.00     0.000 C 
BRANCH   5   6
ATOM      6  C   UNL     1       9.343  -3.924  35.048  1.00  0.00     0.000 C 
BRANCH   6   7
ATOM      7  C   UNL     1       9.713  -5.187  34.250  1.00  0.00     0.000 C 
BRANCH   7   8
ATOM      8  C   UNL     1      10.267  -4.870  32.849  1.00  0.00     0.000 C 
BRANCH   8   9
ATOM      9  C   UNL     1      11.629  -5.511  32.524  1.00  0.00     0.000 C 
BRANCH   9  10
ATOM     10  C   UNL     1      12.703  -5.214  33.585  1.00  0.00     0.000 C 
BRANCH  10  11
ATOM     11  C   UNL     1      13.399  -6.495  34.092  1.00  0.00     0.000 C 
BRANCH  11  12
ATOM     12  C   UNL     1      12.745  -7.108  35.344  1.00  0.00     0.000 C 
BRANCH  12  13
ATOM     13  C   UNL     1      11.795  -8.272  35.017  1.00  0.00     0.006 C 
BRANCH  13  14
ATOM     14  C   UNL     1      12.171  -8.984  33.710  1.00  0.00     0.053 C 
BRANCH  14  15
ATOM     15  C   UNL     1      12.796 -10.325  33.954  1.00  0.00     0.041 C 
ATOM     16  O   UNL     1      12.837 -11.186  33.035  1.00  0.00    -0.550 OA
ATOM     17  O   UNL     1      13.311 -10.632  35.209  1.00  0.00    -0.550 OA
ENDBRANCH  14  15
ENDBRANCH  13  14
ENDBRANCH  12  13
ENDBRANCH  11  12
ENDBRANCH  10  11
ENDBRANCH   9  10
ENDBRANCH   8   9
ENDBRANCH   7   8
ENDBRANCH   6   7
ENDBRANCH   5   6
ENDBRANCH   4   5
ENDBRANCH   3   4
ENDBRANCH   2   3
ENDBRANCH   1   2
BRANCH   1  18
ATOM     18  C   UNL     1       8.643  -2.613  38.989  1.00  0.00     0.000 C 
BRANCH  18  19
ATOM     19  C   UNL     1       9.150  -4.062  38.852  1.00  0.00     0.000 C 
BRANCH  19  20
ATOM     20  C   UNL     1      10.666  -4.191  38.619  1.00  0.00     0.000 C 
BRANCH  20  21
ATOM     21  C   UNL     1      11.375  -4.997  39.724  1.00  0.00     0.000 C 
BRANCH  21  22
ATOM     22  C   UNL     1      12.359  -4.151  40.545  1.00  0.00     0.000 C 
BRANCH  22  23
ATOM     23  C   UNL     1      11.667  -3.030  41.339  1.00  0.00     0.000 C 
BRANCH  23  24
ATOM     24  C   UNL     1      10.782  -3.596  42.464  1.00  0.00    -0.000 C 
BRANCH  24  25
ATOM     25  C   UNL     1       9.425  -2.875  42.551  1.00  0.00    -0.000 C 
BRANCH  25  26
ATOM     26  C   UNL     1       8.245  -3.861  42.609  1.00  0.00    -0.000 C 
BRANCH  26  27
ATOM     27  C   UNL     1       8.712  -5.319  42.455  1.00  0.00    -0.000 C 
BRANCH  27  28
ATOM     28  C   UNL     1       7.789  -6.139  41.537  1.00  0.00    -0.000 C 
BRANCH  28  29
ATOM     29  C   UNL     1       8.209  -7.614  41.444  1.00  0.00    -0.000 C 
BRANCH  29  30
ATOM     30  C   UNL     1       7.690  -8.406  42.654  1.00  0.00    -0.000 C 
BRANCH  30  31
ATOM     31  C   UNL     1       7.472  -9.892  42.337  1.00  0.00    -0.003 C 
ATOM     32  C   UNL     1       6.541 -10.115  41.147  1.00  0.00     0.004 C 
ENDBRANCH  30  31
ENDBRANCH  29  30
ENDBRANCH  28  29
ENDBRANCH  27  28
ENDBRANCH  26  27
ENDBRANCH  25  26
ENDBRANCH  24  25
ENDBRANCH  23  24
ENDBRANCH  22  23
ENDBRANCH  21  22
ENDBRANCH  20  21
ENDBRANCH  19  20
ENDBRANCH  18  19
ENDBRANCH   1  18
TORSDOF 28
ENDMDL
MODEL 2
REMARK VINA RESULT:    -4.324      2.344      8.061
REMARK INTER + INTRA:         -15.630
REMARK INTER:                 -11.511
REMARK INTRA:                  -4.119
REMARK UNBOUND:                -4.228
REMARK SMILES CCCCCCCCCCCCCCCCCCCCCCCCCCCCCC(=O)[O-]
REMARK SMILES IDX 16 1 17 2 18 3 19 4 20 5 21 6 22 7 23 8 24 9 25 10 26 11
REMARK SMILES IDX 27 12 28 13 29 14 30 15 31 16 32 17 15 18 14 19 13 20 12 21
REMARK SMILES IDX 11 22 10 23 9 24 8 25 7 26 6 27 5 28 4 29 3 30 2 31 1 32
REMARK H PARENT
REMARK Flexibility Score: inf
ROOT
ATOM      1  C   UNL     1      11.037  -5.111  40.047  1.00  0.00     0.000 C 
ENDROOT
BRANCH   1   2
ATOM      2  C   UNL     1      11.840  -3.854  40.424  1.00  0.00     0.000 C 
BRANCH   2   3
ATOM      3  C   UNL     1      11.931  -3.630  41.945  1.00  0.00     0.000 C 
BRANCH   3   4
ATOM      4  C   UNL     1      11.499  -2.229  42.426  1.00  0.00     0.000 C 
BRANCH   4   5
ATOM      5  C   UNL     1      10.440  -1.520  41.556  1.00  0.00     0.000 C 
BRANCH   5   6
ATOM      6  C   UNL     1       9.102  -1.262  42.280  1.00  0.00     0.000 C 
BRANCH   6   7
ATOM      7  C   UNL     1       8.640  -2.467  43.119  1.00  0.00     0.000 C 
BRANCH   7   8
ATOM      8  C   UNL     1       7.940  -3.551  42.279  1.00  0.00     0.000 C 
BRANCH   8   9
ATOM      9  C   UNL     1       7.554  -4.827  43.047  1.00  0.00     0.000 C 
BRANCH   9  10
ATOM     10  C   UNL     1       7.538  -6.084  42.160  1.00  0.00     0.000 C 
BRANCH  10  11
ATOM     11  C   UNL     1       8.698  -7.048  42.483  1.00  0.00     0.000 C 
BRANCH  11  12
ATOM     12  C   UNL     1       8.733  -8.307  41.596  1.00  0.00     0.000 C 
BRANCH  12  13
ATOM     13  C   UNL     1       7.690  -9.361  42.007  1.00  0.00     0.006 C 
BRANCH  13  14
ATOM     14  C   UNL     1       6.776  -9.763  40.841  1.00  0.00     0.053 C 
BRANCH  14  15
ATOM     15  C   UNL     1       7.061 -11.152  40.351  1.00  0.00     0.041 C 
ATOM     16  O   UNL     1       8.246 -11.578  40.296  1.00  0.00    -0.550 OA
ATOM     17  O   UNL     1       6.016 -11.966  39.928  1.00  0.00    -0.550 OA
ENDBRANCH  14  15
ENDBRANCH  13  14
ENDBRANCH  12  13
ENDBRANCH  11  12
ENDBRANCH  10  11
ENDBRANCH   9  10
ENDBRANCH   8   9
ENDBRANCH   7   8
ENDBRANCH   6   7
ENDBRANCH   5   6
ENDBRANCH   4   5
ENDBRANCH   3   4
ENDBRANCH   2   3
ENDBRANCH   1   2
BRANCH   1  18
ATOM     18  C   UNL     1       9.600  -4.786  39.605  1.00  0.00     0.000 C 
BRANCH  18  19
ATOM     19  C   UNL     1       9.478  -3.587  38.645  1.00  0.00     0.000 C 
BRANCH  19  20
ATOM     20  C   UNL     1       8.178  -2.777  38.792  1.00  0.00     0.000 C 
BRANCH  20  21
ATOM     21  C   UNL     1       7.100  -3.185  37.770  1.00  0.00     0.000 C 
BRANCH  21  22
ATOM     22  C   UNL     1       7.366  -2.628  36.363  1.00  0.00     0.000 C 
BRANCH  22  23
ATOM     23  C   UNL     1       7.280  -3.705  35.268  1.00  0.00     0.000 C 
BRANCH  23  24
ATOM     24  C   UNL     1       8.558  -4.559  35.212  1.00  0.00    -0.000 C 
BRANCH  24  25
ATOM     25  C   UNL     1       9.801  -3.718  34.871  1.00  0.00    -0.000 C 
BRANCH  25  26
ATOM     26  C   UNL     1      11.091  -4.322  35.452  1.00  0.00    -0.000 C 
BRANCH  26  27
ATOM     27  C   UNL     1      12.161  -4.534  34.366  1.00  0.00    -0.000 C 
BRANCH  27  28
ATOM     28  C   UNL     1      13.175  -5.628  34.744  1.00  0.00    -0.000 C 
BRANCH  28  29
ATOM     29  C   UNL     1      12.763  -7.017  34.232  1.00  0.00    -0.000 C 
BRANCH  29  30
ATOM     30  C   UNL     1      12.214  -6.930  32.800  1.00  0.00    -0.000 C 
BRANCH  30  31
ATOM     31  C   UNL     1      10.713  -7.240  32.723  1.00  0.00    -0.003 C 
ATOM     32  C   UNL     1      10.159  -7.819  34.024  1.00  0.00     0.004 C 
ENDBRANCH  30  31
ENDBRANCH  29  30
ENDBRANCH  28  29
ENDBRANCH  27  28
ENDBRANCH  26  27
ENDBRANCH  25  26
ENDBRANCH  24  25
ENDBRANCH  23  24
ENDBRANCH  22  23
ENDBRANCH  21  22
ENDBRANCH  20  21
ENDBRANCH  19  20
ENDBRANCH  18  19
ENDBRANCH   1  18
TORSDOF 28
ENDMDL
MODEL 3
REMARK VINA RESULT:    -4.257      3.125      8.180
REMARK INTER + INTRA:         -15.452
REMARK INTER:                 -10.618
REMARK INTRA:                  -4.834
REMARK UNBOUND:                -4.228
REMARK SMILES CCCCCCCCCCCCCCCCCCCCCCCCCCCCCC(=O)[O-]
REMARK SMILES IDX 16 1 17 2 18 3 19 4 20 5 21 6 22 7 23 8 24 9 25 10 26 11
REMARK SMILES IDX 27 12 28 13 29 14 30 15 31 16 32 17 15 18 14 19 13 20 12 21
REMARK SMILES IDX 11 22 10 23 9 24 8 25 7 26 6 27 5 28 4 29 3 30 2 31 1 32
REMARK H PARENT
REMARK Flexibility Score: inf
ROOT
ATOM      1  C   UNL     1       8.627  -1.500  44.251  1.00  0.00     0.000 C 
ENDROOT
BRANCH   1   2
ATOM      2  C   UNL     1       9.173  -0.069  44.401  1.00  0.00     0.000 C 
BRANCH   2   3
ATOM      3  C   UNL     1      10.411   0.010  45.315  1.00  0.00     0.000 C 
BRANCH   3   4
ATOM      4  C   UNL     1      11.720   0.415  44.607  1.00  0.00     0.000 C 
BRANCH   4   5
ATOM      5  C   UNL     1      11.560   0.999  43.188  1.00  0.00     0.000 C 
BRANCH   5   6
ATOM      6  C   UNL     1      12.220   0.149  42.081  1.00  0.00     0.000 C 
BRANCH   6   7
ATOM      7  C   UNL     1      12.446  -1.311  42.509  1.00  0.00     0.000 C 
BRANCH   7   8
ATOM      8  C   UNL     1      12.235  -2.314  41.360  1.00  0.00     0.000 C 
BRANCH   8   9
ATOM      9  C   UNL     1      11.882  -3.747  41.798  1.00  0.00     0.000 C 
BRANCH   9  10
ATOM     10  C   UNL     1      11.335  -4.612  40.649  1.00  0.00     0.000 C 
BRANCH  10  11
ATOM     11  C   UNL     1       9.895  -5.097  40.912  1.00  0.00     0.000 C 
BRANCH  11  12
ATOM     12  C   UNL     1       9.610  -5.442  42.386  1.00  0.00     0.000 C 
BRANCH  12  13
ATOM     13  C   UNL     1       8.144  -5.833  42.639  1.00  0.00     0.006 C 
BRANCH  13  14
ATOM     14  C   UNL     1       7.634  -6.872  41.630  1.00  0.00     0.053 C 
BRANCH  14  15
ATOM     15  C   UNL     1       8.175  -8.244  41.907  1.00  0.00     0.041 C 
ATOM     16  O   UNL     1       9.151  -8.689  41.247  1.00  0.00    -0.550 OA
ATOM     17  O   UNL     1       7.578  -9.041  42.878  1.00  0.00    -0.550 OA
ENDBRANCH  14  15
ENDBRANCH  13  14
ENDBRANCH  12  13
ENDBRANCH  11  12
ENDBRANCH  10  11
ENDBRANCH   9  10
ENDBRANCH   8   9
ENDBRANCH   7   8
ENDBRANCH   6   7
ENDBRANCH   5   6
ENDBRANCH   4   5
ENDBRANCH   3   4
ENDBRANCH   2   3
ENDBRANCH   1   2
BRANCH   1  18
ATOM     18  C   UNL     1       8.774  -2.042  42.818  1.00  0.00     0.000 C 
BRANCH  18  19
ATOM     19  C   UNL     1       8.640  -0.978  41.712  1.00  0.00     0.000 C 
BRANCH  19  20
ATOM     20  C   UNL     1       8.850  -1.508  40.282  1.00  0.00     0.000 C 
BRANCH  20  21
ATOM     21  C   UNL     1       7.699  -2.414  39.805  1.00  0.00     0.000 C 
BRANCH  21  22
ATOM     22  C   UNL     1       7.936  -2.995  38.403  1.00  0.00     0.000 C 
BRANCH  22  23
ATOM     23  C   UNL     1       7.009  -2.384  37.338  1.00  0.00     0.000 C 
BRANCH  23  24
ATOM     24  C   UNL     1       7.442  -2.782  35.915  1.00  0.00    -0.000 C 
BRANCH  24  25
ATOM     25  C   UNL     1       8.165  -4.141  35.890  1.00  0.00    -0.000 C 
BRANCH  25  26
ATOM     26  C   UNL     1       9.026  -4.319  34.627  1.00  0.00    -0.000 C 
BRANCH  26  27
ATOM     27  C   UNL     1      10.523  -4.423  34.967  1.00  0.00    -0.000 C 
BRANCH  27  28
ATOM     28  C   UNL     1      10.811  -4.129  36.450  1.00  0.00    -0.000 C 
BRANCH  28  29
ATOM     29  C   UNL     1      12.287  -4.350  36.818  1.00  0.00    -0.000 C 
BRANCH  29  30
ATOM     30  C   UNL     1      12.808  -3.202  37.695  1.00  0.00    -0.000 C 
BRANCH  30  31
ATOM     31  C   UNL     1      14.037  -2.508  37.091  1.00  0.00    -0.003 C 
ATOM     32  C   UNL     1      13.887  -2.232  35.596  1.00  0.00     0.004 C 
ENDBRANCH  30  31
ENDBRANCH  29  30
ENDBRANCH  28  29
ENDBRANCH  27  28
ENDBRANCH  26  27
ENDBRANCH  25  26
ENDBRANCH  24  25
ENDBRANCH  23  24
ENDBRANCH  22  23
ENDBRANCH  21  22
ENDBRANCH  20  21
ENDBRANCH  19  20
ENDBRANCH  18  19
ENDBRANCH   1  18
TORSDOF 28
ENDMDL
MODEL 4
REMARK VINA RESULT:    -4.242      3.891      8.731
REMARK INTER + INTRA:         -15.413
REMARK INTER:                 -12.473
REMARK INTRA:                  -2.940
REMARK UNBOUND:                -4.228
REMARK SMILES CCCCCCCCCCCCCCCCCCCCCCCCCCCCCC(=O)[O-]
REMARK SMILES IDX 16 1 17 2 18 3 19 4 20 5 21 6 22 7 23 8 24 9 25 10 26 11
REMARK SMILES IDX 27 12 28 13 29 14 30 15 31 16 32 17 15 18 14 19 13 20 12 21
REMARK SMILES IDX 11 22 10 23 9 24 8 25 7 26 6 27 5 28 4 29 3 30 2 31 1 32
REMARK H PARENT
REMARK Flexibility Score: inf
ROOT
ATOM      1  C   UNL     1       7.428  -9.932  41.927  1.00  0.00     0.000 C 
ENDROOT
BRANCH   1   2
ATOM      2  C   UNL     1       7.561  -8.451  41.533  1.00  0.00     0.000 C 
BRANCH   2   3
ATOM      3  C   UNL     1       8.997  -7.914  41.680  1.00  0.00     0.000 C 
BRANCH   3   4
ATOM      4  C   UNL     1       9.212  -6.938  42.854  1.00  0.00     0.000 C 
BRANCH   4   5
ATOM      5  C   UNL     1       7.930  -6.353  43.481  1.00  0.00     0.000 C 
BRANCH   5   6
ATOM      6  C   UNL     1       7.453  -5.038  42.827  1.00  0.00     0.000 C 
BRANCH   6   7
ATOM      7  C   UNL     1       8.525  -4.405  41.921  1.00  0.00     0.000 C 
BRANCH   7   8
ATOM      8  C   UNL     1       7.998  -4.071  40.513  1.00  0.00     0.000 C 
BRANCH   8   9
ATOM      9  C   UNL     1       7.872  -2.568  40.201  1.00  0.00     0.000 C 
BRANCH   9  10
ATOM     10  C   UNL     1       7.791  -2.270  38.694  1.00  0.00     0.000 C 
BRANCH  10  11
ATOM     11  C   UNL     1       7.822  -3.553  37.838  1.00  0.00     0.000 C 
BRANCH  11  12
ATOM     12  C   UNL     1       6.968  -3.474  36.559  1.00  0.00     0.000 C 
BRANCH  12  13
ATOM     13  C   UNL     1       7.812  -3.460  35.272  1.00  0.00     0.006 C 
BRANCH  13  14
ATOM     14  C   UNL     1       9.180  -4.130  35.464  1.00  0.00     0.053 C 
BRANCH  14  15
ATOM     15  C   UNL     1       9.543  -5.018  34.310  1.00  0.00     0.041 C 
ATOM     16  O   UNL     1       9.862  -4.519  33.198  1.00  0.00    -0.550 OA
ATOM     17  O   UNL     1       9.500  -6.400  34.459  1.00  0.00    -0.550 OA
ENDBRANCH  14  15
ENDBRANCH  13  14
ENDBRANCH  12  13
ENDBRANCH  11  12
ENDBRANCH  10  11
ENDBRANCH   9  10
ENDBRANCH   8   9
ENDBRANCH   7   8
ENDBRANCH   6   7
ENDBRANCH   5   6
ENDBRANCH   4   5
ENDBRANCH   3   4
ENDBRANCH   2   3
ENDBRANCH   1   2
BRANCH   1  18
ATOM     18  C   UNL     1       7.184 -10.125  43.434  1.00  0.00     0.000 C 
BRANCH  18  19
ATOM     19  C   UNL     1       6.178 -11.238  43.785  1.00  0.00     0.000 C 
BRANCH  19  20
ATOM     20  C   UNL     1       6.104 -12.383  42.760  1.00  0.00     0.000 C 
BRANCH  20  21
ATOM     21  C   UNL     1       7.327 -13.318  42.818  1.00  0.00     0.000 C 
BRANCH  21  22
ATOM     22  C   UNL     1       7.026 -14.658  43.504  1.00  0.00     0.000 C 
BRANCH  22  23
ATOM     23  C   UNL     1       8.133 -15.704  43.284  1.00  0.00     0.000 C 
BRANCH  23  24
ATOM     24  C   UNL     1       9.360 -15.425  44.169  1.00  0.00    -0.000 C 
BRANCH  24  25
ATOM     25  C   UNL     1      10.678 -15.791  43.463  1.00  0.00    -0.000 C 
BRANCH  25  26
ATOM     26  C   UNL     1      10.475 -16.077  41.965  1.00  0.00    -0.000 C 
BRANCH  26  27
ATOM     27  C   UNL     1      11.130 -14.999  41.084  1.00  0.00    -0.000 C 
BRANCH  27  28
ATOM     28  C   UNL     1      10.105 -14.009  40.505  1.00  0.00    -0.000 C 
BRANCH  28  29
ATOM     29  C   UNL     1       9.385 -14.563  39.265  1.00  0.00    -0.000 C 
BRANCH  29  30
ATOM     30  C   UNL     1       7.928 -14.917  39.594  1.00  0.00    -0.000 C 
BRANCH  30  31
ATOM     31  C   UNL     1       6.921 -14.024  38.855  1.00  0.00    -0.003 C 
ATOM     32  C   UNL     1       7.230 -12.535  39.002  1.00  0.00     0.004 C 
ENDBRANCH  30  31
ENDBRANCH  29  30
ENDBRANCH  28  29
ENDBRANCH  27  28
ENDBRANCH  26  27
ENDBRANCH  25  26
ENDBRANCH  24  25
ENDBRANCH  23  24
ENDBRANCH  22  23
ENDBRANCH  21  22
ENDBRANCH  20  21
ENDBRANCH  19  20
ENDBRANCH  18  19
ENDBRANCH   1  18
TORSDOF 28
ENDMDL
MODEL 5
REMARK VINA RESULT:    -4.230      2.169      4.313
REMARK INTER + INTRA:         -15.383
REMARK INTER:                 -11.506
REMARK INTRA:                  -3.877
REMARK UNBOUND:                -4.228
REMARK SMILES CCCCCCCCCCCCCCCCCCCCCCCCCCCCCC(=O)[O-]
REMARK SMILES IDX 16 1 17 2 18 3 19 4 20 5 21 6 22 7 23 8 24 9 25 10 26 11
REMARK SMILES IDX 27 12 28 13 29 14 30 15 31 16 32 17 15 18 14 19 13 20 12 21
REMARK SMILES IDX 11 22 10 23 9 24 8 25 7 26 6 27 5 28 4 29 3 30 2 31 1 32
REMARK H PARENT
REMARK Flexibility Score: inf
ROOT
ATOM      1  C   UNL     1       8.702  -1.738  42.787  1.00  0.00     0.000 C 
ENDROOT
BRANCH   1   2
ATOM      2  C   UNL     1       8.747  -0.440  41.962  1.00  0.00     0.000 C 
BRANCH   2   3
ATOM      3  C   UNL     1       8.576  -0.680  40.450  1.00  0.00     0.000 C 
BRANCH   3   4
ATOM      4  C   UNL     1       8.507  -2.162  40.027  1.00  0.00     0.000 C 
BRANCH   4   5
ATOM      5  C   UNL     1       7.309  -2.548  39.135  1.00  0.00     0.000 C 
BRANCH   5   6
ATOM      6  C   UNL     1       7.692  -3.387  37.897  1.00  0.00     0.000 C 
BRANCH   6   7
ATOM      7  C   UNL     1       6.729  -3.173  36.715  1.00  0.00     0.000 C 
BRANCH   7   8
ATOM      8  C   UNL     1       7.413  -3.343  35.346  1.00  0.00     0.000 C 
BRANCH   8   9
ATOM      9  C   UNL     1       8.362  -4.550  35.235  1.00  0.00     0.000 C 
BRANCH   9  10
ATOM     10  C   UNL     1       9.694  -4.208  34.544  1.00  0.00     0.000 C 
BRANCH  10  11
ATOM     11  C   UNL     1      10.177  -5.335  33.607  1.00  0.00     0.000 C 
BRANCH  11  12
ATOM     12  C   UNL     1      11.408  -4.962  32.761  1.00  0.00     0.000 C 
BRANCH  12  13
ATOM     13  C   UNL     1      12.131  -6.188  32.177  1.00  0.00     0.006 C 
BRANCH  13  14
ATOM     14  C   UNL     1      12.016  -7.420  33.084  1.00  0.00     0.053 C 
BRANCH  14  15
ATOM     15  C   UNL     1      13.330  -8.125  33.252  1.00  0.00     0.041 C 
ATOM     16  O   UNL     1      13.950  -8.565  32.248  1.00  0.00    -0.550 OA
ATOM     17  O   UNL     1      13.855  -8.318  34.526  1.00  0.00    -0.550 OA
ENDBRANCH  14  15
ENDBRANCH  13  14
ENDBRANCH  12  13
ENDBRANCH  11  12
ENDBRANCH  10  11
ENDBRANCH   9  10
ENDBRANCH   8   9
ENDBRANCH   7   8
ENDBRANCH   6   7
ENDBRANCH   5   6
ENDBRANCH   4   5
ENDBRANCH   3   4
ENDBRANCH   2   3
ENDBRANCH   1   2
BRANCH   1  18
ATOM     18  C   UNL     1       8.792  -1.481  44.301  1.00  0.00     0.000 C 
BRANCH  18  19
ATOM     19  C   UNL     1       8.870   0.006  44.697  1.00  0.00     0.000 C 
BRANCH  19  20
ATOM     20  C   UNL     1      10.177   0.415  45.400  1.00  0.00     0.000 C 
BRANCH  20  21
ATOM     21  C   UNL     1      11.254   0.912  44.418  1.00  0.00     0.000 C 
BRANCH  21  22
ATOM     22  C   UNL     1      12.545   0.081  44.472  1.00  0.00     0.000 C 
BRANCH  22  23
ATOM     23  C   UNL     1      12.489  -1.168  43.575  1.00  0.00     0.000 C 
BRANCH  23  24
ATOM     24  C   UNL     1      12.543  -0.797  42.083  1.00  0.00    -0.000 C 
BRANCH  24  25
ATOM     25  C   UNL     1      12.145  -1.977  41.179  1.00  0.00    -0.000 C 
BRANCH  25  26
ATOM     26  C   UNL     1      11.896  -3.267  41.981  1.00  0.00    -0.000 C 
BRANCH  26  27
ATOM     27  C   UNL     1      11.222  -4.351  41.122  1.00  0.00    -0.000 C 
BRANCH  27  28
ATOM     28  C   UNL     1      10.052  -5.036  41.850  1.00  0.00    -0.000 C 
BRANCH  28  29
ATOM     29  C   UNL     1       8.982  -5.564  40.880  1.00  0.00    -0.000 C 
BRANCH  29  30
ATOM     30  C   UNL     1       7.618  -5.666  41.577  1.00  0.00    -0.000 C 
BRANCH  30  31
ATOM     31  C   UNL     1       7.725  -5.562  43.105  1.00  0.00    -0.003 C 
ATOM     32  C   UNL     1       7.876  -6.923  43.783  1.00  0.00     0.004 C 
ENDBRANCH  30  31
ENDBRANCH  29  30
ENDBRANCH  28  29
ENDBRANCH  27  28
ENDBRANCH  26  27
ENDBRANCH  25  26
ENDBRANCH  24  25
ENDBRANCH  23  24
ENDBRANCH  22  23
ENDBRANCH  21  22
ENDBRANCH  20  21
ENDBRANCH  19  20
ENDBRANCH  18  19
ENDBRANCH   1  18
TORSDOF 28
ENDMDL
MODEL 6
REMARK VINA RESULT:    -4.202      2.814      4.359
REMARK INTER + INTRA:         -15.308
REMARK INTER:                 -10.076
REMARK INTRA:                  -5.233
REMARK UNBOUND:                -4.228
REMARK SMILES CCCCCCCCCCCCCCCCCCCCCCCCCCCCCC(=O)[O-]
REMARK SMILES IDX 16 1 17 2 18 3 19 4 20 5 21 6 22 7 23 8 24 9 25 10 26 11
REMARK SMILES IDX 27 12 28 13 29 14 30 15 31 16 32 17 15 18 14 19 13 20 12 21
REMARK SMILES IDX 11 22 10 23 9 24 8 25 7 26 6 27 5 28 4 29 3 30 2 31 1 32
REMARK H PARENT
REMARK Flexibility Score: inf
ROOT
ATOM      1  C   UNL     1       6.787  -2.485  37.359  1.00  0.00     0.000 C 
ENDROOT
BRANCH   1   2
ATOM      2  C   UNL     1       6.981  -3.383  36.125  1.00  0.00     0.000 C 
BRANCH   2   3
ATOM      3  C   UNL     1       8.461  -3.579  35.748  1.00  0.00     0.000 C 
BRANCH   3   4
ATOM      4  C   UNL     1       8.759  -4.830  34.896  1.00  0.00     0.000 C 
BRANCH   4   5
ATOM      5  C   UNL     1       9.804  -4.644  33.777  1.00  0.00     0.000 C 
BRANCH   5   6
ATOM      6  C   UNL     1      10.430  -5.964  33.275  1.00  0.00     0.000 C 
BRANCH   6   7
ATOM      7  C   UNL     1      11.958  -5.999  33.451  1.00  0.00     0.000 C 
BRANCH   7   8
ATOM      8  C   UNL     1      12.405  -6.868  34.642  1.00  0.00     0.000 C 
BRANCH   8   9
ATOM      9  C   UNL     1      13.240  -6.136  35.708  1.00  0.00     0.000 C 
BRANCH   9  10
ATOM     10  C   UNL     1      12.376  -5.413  36.758  1.00  0.00     0.000 C 
BRANCH  10  11
ATOM     11  C   UNL     1      12.370  -3.883  36.561  1.00  0.00     0.000 C 
BRANCH  11  12
ATOM     12  C   UNL     1      13.773  -3.264  36.416  1.00  0.00     0.000 C 
BRANCH  12  13
ATOM     13  C   UNL     1      13.962  -2.505  35.091  1.00  0.00     0.006 C 
BRANCH  13  14
ATOM     14  C   UNL     1      12.708  -2.554  34.207  1.00  0.00     0.053 C 
BRANCH  14  15
ATOM     15  C   UNL     1      13.037  -2.420  32.749  1.00  0.00     0.041 C 
ATOM     16  O   UNL     1      12.152  -2.621  31.875  1.00  0.00    -0.550 OA
ATOM     17  O   UNL     1      14.332  -2.097  32.357  1.00  0.00    -0.550 OA
ENDBRANCH  14  15
ENDBRANCH  13  14
ENDBRANCH  12  13
ENDBRANCH  11  12
ENDBRANCH  10  11
ENDBRANCH   9  10
ENDBRANCH   8   9
ENDBRANCH   7   8
ENDBRANCH   6   7
ENDBRANCH   5   6
ENDBRANCH   4   5
ENDBRANCH   3   4
ENDBRANCH   2   3
ENDBRANCH   1   2
BRANCH   1  18
ATOM     18  C   UNL     1       7.945  -2.604  38.366  1.00  0.00     0.000 C 
BRANCH  18  19
ATOM     19  C   UNL     1       7.534  -3.124  39.758  1.00  0.00     0.000 C 
BRANCH  19  20
ATOM     20  C   UNL     1       8.153  -2.355  40.938  1.00  0.00     0.000 C 
BRANCH  20  21
ATOM     21  C   UNL     1       8.625  -0.941  40.550  1.00  0.00     0.000 C 
BRANCH  21  22
ATOM     22  C   UNL     1       9.800  -0.445  41.405  1.00  0.00     0.000 C 
BRANCH  22  23
ATOM     23  C   UNL     1      10.098  -1.363  42.602  1.00  0.00     0.000 C 
BRANCH  23  24
ATOM     24  C   UNL     1      11.503  -1.983  42.505  1.00  0.00    -0.000 C 
BRANCH  24  25
ATOM     25  C   UNL     1      12.236  -1.554  41.221  1.00  0.00    -0.000 C 
BRANCH  25  26
ATOM     26  C   UNL     1      12.363  -2.707  40.210  1.00  0.00    -0.000 C 
BRANCH  26  27
ATOM     27  C   UNL     1      11.920  -4.050  40.818  1.00  0.00    -0.000 C 
BRANCH  27  28
ATOM     28  C   UNL     1      10.881  -4.776  39.946  1.00  0.00    -0.000 C 
BRANCH  28  29
ATOM     29  C   UNL     1       9.985  -5.722  40.761  1.00  0.00    -0.000 C 
BRANCH  29  30
ATOM     30  C   UNL     1       9.859  -5.238  42.213  1.00  0.00    -0.000 C 
BRANCH  30  31
ATOM     31  C   UNL     1       8.681  -5.887  42.953  1.00  0.00    -0.003 C 
ATOM     32  C   UNL     1       7.458  -6.089  42.059  1.00  0.00     0.004 C 
ENDBRANCH  30  31
ENDBRANCH  29  30
ENDBRANCH  28  29
ENDBRANCH  27  28
ENDBRANCH  26  27
ENDBRANCH  25  26
ENDBRANCH  24  25
ENDBRANCH  23  24
ENDBRANCH  22  23
ENDBRANCH  21  22
ENDBRANCH  20  21
ENDBRANCH  19  20
ENDBRANCH  18  19
ENDBRANCH   1  18
TORSDOF 28
ENDMDL
MODEL 7
REMARK VINA RESULT:    -4.190      3.312      8.199
REMARK INTER + INTRA:         -15.277
REMARK INTER:                 -11.403
REMARK INTRA:                  -3.874
REMARK UNBOUND:                -4.228
REMARK SMILES CCCCCCCCCCCCCCCCCCCCCCCCCCCCCC(=O)[O-]
REMARK SMILES IDX 16 1 17 2 18 3 19 4 20 5 21 6 22 7 23 8 24 9 25 10 26 11
REMARK SMILES IDX 27 12 28 13 29 14 30 15 31 16 32 17 15 18 14 19 13 20 12 21
REMARK SMILES IDX 11 22 10 23 9 24 8 25 7 26 6 27 5 28 4 29 3 30 2 31 1 32
REMARK H PARENT
REMARK Flexibility Score: inf
ROOT
ATOM      1  C   UNL     1       8.724  -2.180  43.489  1.00  0.00     0.000 C 
ENDROOT
BRANCH   1   2
ATOM      2  C   UNL     1       8.832  -0.674  43.785  1.00  0.00     0.000 C 
BRANCH   2   3
ATOM      3  C   UNL     1       9.727  -0.361  45.000  1.00  0.00     0.000 C 
BRANCH   3   4
ATOM      4  C   UNL     1      10.941   0.542  44.702  1.00  0.00     0.000 C 
BRANCH   4   5
ATOM      5  C   UNL     1      11.354   0.640  43.218  1.00  0.00     0.000 C 
BRANCH   5   6
ATOM      6  C   UNL     1      12.581  -0.221  42.849  1.00  0.00     0.000 C 
BRANCH   6   7
ATOM      7  C   UNL     1      12.231  -1.372  41.889  1.00  0.00     0.000 C 
BRANCH   7   8
ATOM      8  C   UNL     1      12.417  -2.762  42.525  1.00  0.00     0.000 C 
BRANCH   8   9
ATOM      9  C   UNL     1      11.487  -3.860  41.979  1.00  0.00     0.000 C 
BRANCH   9  10
ATOM     10  C   UNL     1      11.893  -4.352  40.578  1.00  0.00     0.000 C 
BRANCH  10  11
ATOM     11  C   UNL     1      10.892  -5.374  40.001  1.00  0.00     0.000 C 
BRANCH  11  12
ATOM     12  C   UNL     1       9.645  -5.593  40.878  1.00  0.00     0.000 C 
BRANCH  12  13
ATOM     13  C   UNL     1       9.422  -7.069  41.249  1.00  0.00     0.006 C 
BRANCH  13  14
ATOM     14  C   UNL     1       8.033  -7.316  41.854  1.00  0.00     0.053 C 
BRANCH  14  15
ATOM     15  C   UNL     1       7.906  -6.743  43.234  1.00  0.00     0.041 C 
ATOM     16  O   UNL     1       8.327  -7.386  44.233  1.00  0.00    -0.550 OA
ATOM     17  O   UNL     1       7.295  -5.507  43.418  1.00  0.00    -0.550 OA
ENDBRANCH  14  15
ENDBRANCH  13  14
ENDBRANCH  12  13
ENDBRANCH  11  12
ENDBRANCH  10  11
ENDBRANCH   9  10
ENDBRANCH   8   9
ENDBRANCH   7   8
ENDBRANCH   6   7
ENDBRANCH   5   6
ENDBRANCH   4   5
ENDBRANCH   3   4
ENDBRANCH   2   3
ENDBRANCH   1   2
BRANCH   1  18
ATOM     18  C   UNL     1       8.251  -2.469  42.053  1.00  0.00     0.000 C 
BRANCH  18  19
ATOM     19  C   UNL     1       8.646  -1.398  41.018  1.00  0.00     0.000 C 
BRANCH  19  20
ATOM     20  C   UNL     1       8.429  -1.812  39.552  1.00  0.00     0.000 C 
BRANCH  20  21
ATOM     21  C   UNL     1       7.602  -3.103  39.411  1.00  0.00     0.000 C 
BRANCH  21  22
ATOM     22  C   UNL     1       7.668  -3.707  38.000  1.00  0.00     0.000 C 
BRANCH  22  23
ATOM     23  C   UNL     1       6.776  -2.965  36.989  1.00  0.00     0.000 C 
BRANCH  23  24
ATOM     24  C   UNL     1       7.256  -3.184  35.544  1.00  0.00    -0.000 C 
BRANCH  24  25
ATOM     25  C   UNL     1       8.214  -4.383  35.427  1.00  0.00    -0.000 C 
BRANCH  25  26
ATOM     26  C   UNL     1       9.621  -3.962  34.970  1.00  0.00    -0.000 C 
BRANCH  26  27
ATOM     27  C   UNL     1      10.515  -5.180  34.682  1.00  0.00    -0.000 C 
BRANCH  27  28
ATOM     28  C   UNL     1      10.689  -5.441  33.175  1.00  0.00    -0.000 C 
BRANCH  28  29
ATOM     29  C   UNL     1      10.546  -6.928  32.814  1.00  0.00    -0.000 C 
BRANCH  29  30
ATOM     30  C   UNL     1      10.547  -7.799  34.079  1.00  0.00    -0.000 C 
BRANCH  30  31
ATOM     31  C   UNL     1      11.882  -8.524  34.297  1.00  0.00    -0.003 C 
ATOM     32  C   UNL     1      12.293  -8.581  35.768  1.00  0.00     0.004 C 
ENDBRANCH  30  31
ENDBRANCH  29  30
ENDBRANCH  28  29
ENDBRANCH  27  28
ENDBRANCH  26  27
ENDBRANCH  25  26
ENDBRANCH  24  25
ENDBRANCH  23  24
ENDBRANCH  22  23
ENDBRANCH  21  22
ENDBRANCH  20  21
ENDBRANCH  19  20
ENDBRANCH  18  19
ENDBRANCH   1  18
TORSDOF 28
ENDMDL
MODEL 8
REMARK VINA RESULT:    -4.138      4.315      8.311
REMARK INTER + INTRA:         -15.139
REMARK INTER:                 -10.976
REMARK INTRA:                  -4.163
REMARK UNBOUND:                -4.228
REMARK SMILES CCCCCCCCCCCCCCCCCCCCCCCCCCCCCC(=O)[O-]
REMARK SMILES IDX 16 1 17 2 18 3 19 4 20 5 21 6 22 7 23 8 24 9 25 10 26 11
REMARK SMILES IDX 27 12 28 13 29 14 30 15 31 16 32 17 15 18 14 19 13 20 12 21
REMARK SMILES IDX 11 22 10 23 9 24 8 25 7 26 6 27 5 28 4 29 3 30 2 31 1 32
REMARK H PARENT
REMARK Flexibility Score: inf
ROOT
ATOM      1  C   UNL     1       8.562  -6.980  41.583  1.00  0.00     0.000 C 
ENDROOT
BRANCH   1   2
ATOM      2  C   UNL     1       8.679  -5.814  42.580  1.00  0.00     0.000 C 
BRANCH   2   3
ATOM      3  C   UNL     1       7.989  -4.528  42.087  1.00  0.00     0.000 C 
BRANCH   3   4
ATOM      4  C   UNL     1       8.368  -3.246  42.856  1.00  0.00     0.000 C 
BRANCH   4   5
ATOM      5  C   UNL     1       8.394  -1.948  42.022  1.00  0.00     0.000 C 
BRANCH   5   6
ATOM      6  C   UNL     1       9.763  -1.643  41.376  1.00  0.00     0.000 C 
BRANCH   6   7
ATOM      7  C   UNL     1      10.919  -1.685  42.391  1.00  0.00     0.000 C 
BRANCH   7   8
ATOM      8  C   UNL     1      12.182  -2.366  41.832  1.00  0.00     0.000 C 
BRANCH   8   9
ATOM      9  C   UNL     1      12.086  -3.894  41.675  1.00  0.00     0.000 C 
BRANCH   9  10
ATOM     10  C   UNL     1      12.145  -4.355  40.208  1.00  0.00     0.000 C 
BRANCH  10  11
ATOM     11  C   UNL     1      10.764  -4.787  39.672  1.00  0.00     0.000 C 
BRANCH  11  12
ATOM     12  C   UNL     1      10.184  -3.840  38.604  1.00  0.00     0.000 C 
BRANCH  12  13
ATOM     13  C   UNL     1       8.647  -3.875  38.542  1.00  0.00     0.006 C 
BRANCH  13  14
ATOM     14  C   UNL     1       8.119  -3.801  37.103  1.00  0.00     0.053 C 
BRANCH  14  15
ATOM     15  C   UNL     1       7.057  -2.753  36.942  1.00  0.00     0.041 C 
ATOM     16  O   UNL     1       6.189  -2.583  37.839  1.00  0.00    -0.550 OA
ATOM     17  O   UNL     1       7.012  -1.984  35.784  1.00  0.00    -0.550 OA
ENDBRANCH  14  15
ENDBRANCH  13  14
ENDBRANCH  12  13
ENDBRANCH  11  12
ENDBRANCH  10  11
ENDBRANCH   9  10
ENDBRANCH   8   9
ENDBRANCH   7   8
ENDBRANCH   6   7
ENDBRANCH   5   6
ENDBRANCH   4   5
ENDBRANCH   3   4
ENDBRANCH   2   3
ENDBRANCH   1   2
BRANCH   1  18
ATOM     18  C   UNL     1       7.832  -8.197  42.178  1.00  0.00     0.000 C 
BRANCH  18  19
ATOM     19  C   UNL     1       7.991  -8.359  43.702  1.00  0.00     0.000 C 
BRANCH  19  20
ATOM     20  C   UNL     1       7.567  -9.735  44.248  1.00  0.00     0.000 C 
BRANCH  20  21
ATOM     21  C   UNL     1       6.755 -10.558  43.232  1.00  0.00     0.000 C 
BRANCH  21  22
ATOM     22  C   UNL     1       7.087 -12.057  43.272  1.00  0.00     0.000 C 
BRANCH  22  23
ATOM     23  C   UNL     1       5.834 -12.945  43.365  1.00  0.00     0.000 C 
BRANCH  23  24
ATOM     24  C   UNL     1       6.137 -14.397  42.956  1.00  0.00    -0.000 C 
BRANCH  24  25
ATOM     25  C   UNL     1       7.643 -14.711  43.013  1.00  0.00    -0.000 C 
BRANCH  25  26
ATOM     26  C   UNL     1       8.043 -15.825  42.030  1.00  0.00    -0.000 C 
BRANCH  26  27
ATOM     27  C   UNL     1       9.035 -15.318  40.968  1.00  0.00    -0.000 C 
BRANCH  27  28
ATOM     28  C   UNL     1       8.380 -14.355  39.962  1.00  0.00    -0.000 C 
BRANCH  28  29
ATOM     29  C   UNL     1       8.963 -12.935  40.040  1.00  0.00    -0.000 C 
BRANCH  29  30
ATOM     30  C   UNL     1       7.877 -11.883  39.771  1.00  0.00    -0.000 C 
BRANCH  30  31
ATOM     31  C   UNL     1       6.581 -12.499  39.224  1.00  0.00    -0.003 C 
ATOM     32  C   UNL     1       5.335 -12.001  39.955  1.00  0.00     0.004 C 
ENDBRANCH  30  31
ENDBRANCH  29  30
ENDBRANCH  28  29
ENDBRANCH  27  28
ENDBRANCH  26  27
ENDBRANCH  25  26
ENDBRANCH  24  25
ENDBRANCH  23  24
ENDBRANCH  22  23
ENDBRANCH  21  22
ENDBRANCH  20  21
ENDBRANCH  19  20
ENDBRANCH  18  19
ENDBRANCH   1  18
TORSDOF 28
ENDMDL
MODEL 9
REMARK VINA RESULT:    -4.127      3.160      7.741
REMARK INTER + INTRA:         -15.109
REMARK INTER:                 -10.913
REMARK INTRA:                  -4.196
REMARK UNBOUND:                -4.228
REMARK SMILES CCCCCCCCCCCCCCCCCCCCCCCCCCCCCC(=O)[O-]
REMARK SMILES IDX 16 1 17 2 18 3 19 4 20 5 21 6 22 7 23 8 24 9 25 10 26 11
REMARK SMILES IDX 27 12 28 13 29 14 30 15 31 16 32 17 15 18 14 19 13 20 12 21
REMARK SMILES IDX 11 22 10 23 9 24 8 25 7 26 6 27 5 28 4 29 3 30 2 31 1 32
REMARK H PARENT
REMARK Flexibility Score: inf
ROOT
ATOM      1  C   UNL     1      11.607   0.294  43.474  1.00  0.00     0.000 C 
ENDROOT
BRANCH   1   2
ATOM      2  C   UNL     1      12.611  -0.868  43.371  1.00  0.00     0.000 C 
BRANCH   2   3
ATOM      3  C   UNL     1      12.561  -1.588  42.010  1.00  0.00     0.000 C 
BRANCH   3   4
ATOM      4  C   UNL     1      12.149  -0.702  40.817  1.00  0.00     0.000 C 
BRANCH   4   5
ATOM      5  C   UNL     1      12.772  -1.081  39.457  1.00  0.00     0.000 C 
BRANCH   5   6
ATOM      6  C   UNL     1      13.142  -2.575  39.329  1.00  0.00     0.000 C 
BRANCH   6   7
ATOM      7  C   UNL     1      12.220  -3.332  38.356  1.00  0.00     0.000 C 
BRANCH   7   8
ATOM      8  C   UNL     1      10.811  -3.571  38.928  1.00  0.00     0.000 C 
BRANCH   8   9
ATOM      9  C   UNL     1      10.662  -4.835  39.795  1.00  0.00     0.000 C 
BRANCH   9  10
ATOM     10  C   UNL     1      10.972  -4.585  41.282  1.00  0.00     0.000 C 
BRANCH  10  11
ATOM     11  C   UNL     1       9.757  -4.867  42.191  1.00  0.00     0.000 C 
BRANCH  11  12
ATOM     12  C   UNL     1       8.553  -5.482  41.453  1.00  0.00     0.000 C 
BRANCH  12  13
ATOM     13  C   UNL     1       7.557  -6.172  42.400  1.00  0.00     0.006 C 
BRANCH  13  14
ATOM     14  C   UNL     1       8.260  -7.004  43.482  1.00  0.00     0.053 C 
BRANCH  14  15
ATOM     15  C   UNL     1       8.185  -8.477  43.203  1.00  0.00     0.041 C 
ATOM     16  O   UNL     1       7.939  -9.290  44.133  1.00  0.00    -0.550 OA
ATOM     17  O   UNL     1       8.415  -8.951  41.915  1.00  0.00    -0.550 OA
ENDBRANCH  14  15
ENDBRANCH  13  14
ENDBRANCH  12  13
ENDBRANCH  11  12
ENDBRANCH  10  11
ENDBRANCH   9  10
ENDBRANCH   8   9
ENDBRANCH   7   8
ENDBRANCH   6   7
ENDBRANCH   5   6
ENDBRANCH   4   5
ENDBRANCH   3   4
ENDBRANCH   2   3
ENDBRANCH   1   2
BRANCH   1  18
ATOM     18  C   UNL     1      10.445  -0.011  44.436  1.00  0.00     0.000 C 
BRANCH  18  19
ATOM     19  C   UNL     1       9.063  -0.115  43.761  1.00  0.00     0.000 C 
BRANCH  19  20
ATOM     20  C   UNL     1       8.866   0.819  42.554  1.00  0.00     0.000 C 
BRANCH  20  21
ATOM     21  C   UNL     1       8.311   0.090  41.316  1.00  0.00     0.000 C 
BRANCH  21  22
ATOM     22  C   UNL     1       8.807  -1.359  41.201  1.00  0.00     0.000 C 
BRANCH  22  23
ATOM     23  C   UNL     1       7.852  -2.256  40.396  1.00  0.00     0.000 C 
BRANCH  23  24
ATOM     24  C   UNL     1       7.548  -1.660  39.010  1.00  0.00    -0.000 C 
BRANCH  24  25
ATOM     25  C   UNL     1       6.700  -2.611  38.146  1.00  0.00    -0.000 C 
BRANCH  25  26
ATOM     26  C   UNL     1       6.424  -2.035  36.746  1.00  0.00    -0.000 C 
BRANCH  26  27
ATOM     27  C   UNL     1       6.752  -3.050  35.637  1.00  0.00    -0.000 C 
BRANCH  27  28
ATOM     28  C   UNL     1       7.934  -3.963  36.006  1.00  0.00    -0.000 C 
BRANCH  28  29
ATOM     29  C   UNL     1       8.911  -4.164  34.836  1.00  0.00    -0.000 C 
BRANCH  29  30
ATOM     30  C   UNL     1      10.328  -4.450  35.352  1.00  0.00    -0.000 C 
BRANCH  30  31
ATOM     31  C   UNL     1      11.386  -4.390  34.240  1.00  0.00    -0.003 C 
ATOM     32  C   UNL     1      10.789  -4.563  32.844  1.00  0.00     0.004 C 
ENDBRANCH  30  31
ENDBRANCH  29  30
ENDBRANCH  28  29
ENDBRANCH  27  28
ENDBRANCH  26  27
ENDBRANCH  25  26
ENDBRANCH  24  25
ENDBRANCH  23  24
ENDBRANCH  22  23
ENDBRANCH  21  22
ENDBRANCH  20  21
ENDBRANCH  19  20
ENDBRANCH  18  19
ENDBRANCH   1  18
TORSDOF 28
ENDMDL
