MODEL 1
REMARK VINA RESULT:    -4.727      0.000      0.000
REMARK INTER + INTRA:          -7.200
REMARK INTER:                  -7.214
REMARK INTRA:                   0.014
REMARK UNBOUND:                 0.014
REMARK SMILES CC1=CCC[C@H](C)C(=O)C[C@@H](C(C)C)C(=O)C1
REMARK SMILES IDX 8 1 9 2 6 3 7 4 5 5 4 6 3 7 2 8 1 9 10 11 11 12 15 13 16 14
REMARK SMILES IDX 17 15 12 17 13 18 14 19
REMARK H PARENT
REMARK Flexibility Score: 70.00
ROOT
ATOM      1  C   UNL     1      20.409  28.737 -11.956  1.00  0.00     0.136 C 
ATOM      2  O   UNL     1      20.158  27.739 -11.295  1.00  0.00    -0.299 OA
ENDROOT
BRANCH   1   3
ATOM      3  C   UNL     1      21.604  29.598 -11.601  1.00  0.00     0.053 C 
ATOM      4  C   UNL     1      22.499  28.840 -10.616  1.00  0.00     0.016 C 
BRANCH   3   5
ATOM      5  C   UNL     1      22.412  30.005 -12.854  1.00  0.00     0.015 C 
BRANCH   5   6
ATOM      6  C   UNL     1      22.864  28.807 -13.702  1.00  0.00     0.028 C 
BRANCH   6   7
ATOM      7  C   UNL     1      22.899  29.156 -15.171  1.00  0.00    -0.028 C 
ATOM      8  C   UNL     1      22.126  28.605 -16.134  1.00  0.00    -0.070 CG0
ATOM      9  C   UNL     1      22.305  29.093 -17.549  1.00  0.00     0.039 C 
ATOM     10  G   UNL     1      21.068  27.554 -15.855  1.00  0.00     0.000 G0
ENDBRANCH   6   7
ENDBRANCH   5   6
ENDBRANCH   3   5
ENDBRANCH   1   3
BRANCH   1  11
ATOM     11  C   UNL     1      19.491  29.110 -13.091  1.00  0.00     0.087 C 
BRANCH  11  12
ATOM     12  C   UNL     1      19.206  27.904 -14.024  1.00  0.00     0.066 C 
BRANCH  12  13
ATOM     13  C   UNL     1      19.771  28.197 -15.405  1.00  0.00     0.140 C 
ATOM     14  O   UNL     1      19.132  28.896 -16.179  1.00  0.00    -0.299 OA
BRANCH  13  15
ATOM     15  C   UNL     1      21.058  27.569 -15.878  1.00  0.00     0.106 CG0
ATOM     16  G   UNL     1      22.121  28.624 -16.120  1.00  0.00     0.000 G0
ENDBRANCH  13  15
ENDBRANCH  12  13
BRANCH  12  17
ATOM     17  C   UNL     1      17.679  27.574 -14.118  1.00  0.00    -0.006 C 
ATOM     18  C   UNL     1      17.435  26.251 -14.872  1.00  0.00     0.008 C 
ATOM     19  C   UNL     1      17.019  27.473 -12.729  1.00  0.00     0.008 C 
ENDBRANCH  12  17
ENDBRANCH  11  12
ENDBRANCH   1  11
TORSDOF 1
ENDMDL
MODEL 2
REMARK VINA RESULT:    -4.604      1.828      4.782
REMARK INTER + INTRA:          -7.011
REMARK INTER:                  -7.060
REMARK INTRA:                   0.049
REMARK UNBOUND:                 0.014
REMARK SMILES CC1=CCC[C@H](C)C(=O)C[C@@H](C(C)C)C(=O)C1
REMARK SMILES IDX 8 1 9 2 6 3 7 4 5 5 4 6 3 7 2 8 1 9 10 11 11 12 15 13 16 14
REMARK SMILES IDX 17 15 12 17 13 18 14 19
REMARK H PARENT
REMARK Flexibility Score: 70.00
ROOT
ATOM      1  C   UNL     1      19.763  27.928 -16.005  1.00  0.00     0.136 C 
ATOM      2  O   UNL     1      20.056  26.750 -16.150  1.00  0.00    -0.299 OA
ENDROOT
BRANCH   1   3
ATOM      3  C   UNL     1      18.569  28.310 -15.152  1.00  0.00     0.053 C 
ATOM      4  C   UNL     1      17.683  27.080 -14.941  1.00  0.00     0.016 C 
BRANCH   3   5
ATOM      5  C   UNL     1      19.000  28.900 -13.790  1.00  0.00     0.015 C 
BRANCH   5   6
ATOM      6  C   UNL     1      20.204  28.176 -13.168  1.00  0.00     0.028 C 
BRANCH   6   7
ATOM      7  C   UNL     1      21.231  29.158 -12.657  1.00  0.00    -0.028 C 
ATOM      8  C   UNL     1      22.485  29.314 -13.141  1.00  0.00    -0.070 CG0
ATOM      9  C   UNL     1      23.364  30.357 -12.500  1.00  0.00     0.039 C 
ATOM     10  G   UNL     1      23.031  28.523 -14.315  1.00  0.00     0.000 G0
ENDBRANCH   6   7
ENDBRANCH   5   6
ENDBRANCH   3   5
ENDBRANCH   1   3
BRANCH   1  11
ATOM     11  C   UNL     1      20.578  28.977 -16.716  1.00  0.00     0.087 C 
BRANCH  11  12
ATOM     12  C   UNL     1      22.079  28.595 -16.781  1.00  0.00     0.066 C 
BRANCH  12  13
ATOM     13  C   UNL     1      22.813  29.252 -15.622  1.00  0.00     0.140 C 
ATOM     14  O   UNL     1      23.291  30.368 -15.770  1.00  0.00    -0.299 OA
BRANCH  13  15
ATOM     15  C   UNL     1      23.046  28.522 -14.323  1.00  0.00     0.106 CG0
ATOM     16  G   UNL     1      22.494  29.308 -13.150  1.00  0.00     0.000 G0
ENDBRANCH  13  15
ENDBRANCH  12  13
BRANCH  12  17
ATOM     17  C   UNL     1      22.737  29.000 -18.142  1.00  0.00    -0.006 C 
ATOM     18  C   UNL     1      23.982  28.142 -18.444  1.00  0.00     0.008 C 
ATOM     19  C   UNL     1      21.757  28.870 -19.324  1.00  0.00     0.008 C 
ENDBRANCH  12  17
ENDBRANCH  11  12
ENDBRANCH   1  11
TORSDOF 1
ENDMDL
MODEL 3
REMARK VINA RESULT:    -4.567      1.781      4.205
REMARK INTER + INTRA:          -6.956
REMARK INTER:                  -6.942
REMARK INTRA:                  -0.013
REMARK UNBOUND:                 0.014
REMARK SMILES CC1=CCC[C@H](C)C(=O)C[C@@H](C(C)C)C(=O)C1
REMARK SMILES IDX 8 1 9 2 6 3 7 4 5 5 4 6 3 7 2 8 1 9 10 11 11 12 15 13 16 14
REMARK SMILES IDX 17 15 12 17 13 18 14 19
REMARK H PARENT
REMARK Flexibility Score: 70.00
ROOT
ATOM      1  C   UNL     1      22.881  29.542 -13.586  1.00  0.00     0.136 C 
ATOM      2  O   UNL     1      23.213  30.644 -13.998  1.00  0.00    -0.299 OA
ENDROOT
BRANCH   1   3
ATOM      3  C   UNL     1      22.754  29.298 -12.096  1.00  0.00     0.053 C 
ATOM      4  C   UNL     1      22.813  30.638 -11.357  1.00  0.00     0.016 C 
BRANCH   3   5
ATOM      5  C   UNL     1      21.448  28.551 -11.745  1.00  0.00     0.015 C 
BRANCH   5   6
ATOM      6  C   UNL     1      20.199  29.176 -12.383  1.00  0.00     0.028 C 
BRANCH   6   7
ATOM      7  C   UNL     1      19.177  28.122 -12.740  1.00  0.00    -0.028 C 
ATOM      8  C   UNL     1      18.705  27.867 -13.981  1.00  0.00    -0.070 CG0
ATOM      9  C   UNL     1      17.689  26.764 -14.136  1.00  0.00     0.039 C 
ATOM     10  G   UNL     1      19.174  28.604 -15.221  1.00  0.00     0.000 G0
ENDBRANCH   6   7
ENDBRANCH   5   6
ENDBRANCH   3   5
ENDBRANCH   1   3
BRANCH   1  11
ATOM     11  C   UNL     1      22.645  28.433 -14.578  1.00  0.00     0.087 C 
BRANCH  11  12
ATOM     12  C   UNL     1      21.743  28.892 -15.753  1.00  0.00     0.066 C 
BRANCH  12  13
ATOM     13  C   UNL     1      20.471  28.058 -15.762  1.00  0.00     0.140 C 
ATOM     14  O   UNL     1      20.486  26.947 -16.274  1.00  0.00    -0.299 OA
BRANCH  13  15
ATOM     15  C   UNL     1      19.167  28.606 -15.238  1.00  0.00     0.106 CG0
ATOM     16  G   UNL     1      18.729  27.866 -13.989  1.00  0.00     0.000 G0
ENDBRANCH  13  15
ENDBRANCH  12  13
BRANCH  12  17
ATOM     17  C   UNL     1      22.470  28.791 -17.135  1.00  0.00    -0.006 C 
ATOM     18  C   UNL     1      22.914  30.178 -17.642  1.00  0.00     0.008 C 
ATOM     19  C   UNL     1      23.708  27.875 -17.076  1.00  0.00     0.008 C 
ENDBRANCH  12  17
ENDBRANCH  11  12
ENDBRANCH   1  11
TORSDOF 1
ENDMDL
MODEL 4
REMARK VINA RESULT:    -4.334      2.053      5.309
REMARK INTER + INTRA:          -6.600
REMARK INTER:                  -6.394
REMARK INTRA:                  -0.206
REMARK UNBOUND:                 0.014
REMARK SMILES CC1=CCC[C@H](C)C(=O)C[C@@H](C(C)C)C(=O)C1
REMARK SMILES IDX 8 1 9 2 6 3 7 4 5 5 4 6 3 7 2 8 1 9 10 11 11 12 15 13 16 14
REMARK SMILES IDX 17 15 12 17 13 18 14 19
REMARK H PARENT
REMARK Flexibility Score: 70.00
ROOT
ATOM      1  C   UNL     1      22.665  28.724 -15.127  1.00  0.00     0.136 C 
ATOM      2  O   UNL     1      23.618  28.011 -15.405  1.00  0.00    -0.299 OA
ENDROOT
BRANCH   1   3
ATOM      3  C   UNL     1      21.524  28.879 -16.112  1.00  0.00     0.053 C 
ATOM      4  C   UNL     1      22.076  28.826 -17.539  1.00  0.00     0.016 C 
BRANCH   3   5
ATOM      5  C   UNL     1      20.442  27.793 -15.915  1.00  0.00     0.015 C 
BRANCH   5   6
ATOM      6  C   UNL     1      19.123  28.343 -15.352  1.00  0.00     0.028 C 
BRANCH   6   7
ATOM      7  C   UNL     1      18.749  27.658 -14.059  1.00  0.00    -0.028 C 
ATOM      8  C   UNL     1      19.124  28.049 -12.820  1.00  0.00    -0.070 CG0
ATOM      9  C   UNL     1      18.640  27.234 -11.647  1.00  0.00     0.039 C 
ATOM     10  G   UNL     1      19.968  29.281 -12.553  1.00  0.00     0.000 G0
ENDBRANCH   6   7
ENDBRANCH   5   6
ENDBRANCH   3   5
ENDBRANCH   1   3
BRANCH   1  11
ATOM     11  C   UNL     1      22.668  29.469 -13.817  1.00  0.00     0.087 C 
BRANCH  11  12
ATOM     12  C   UNL     1      22.491  28.513 -12.609  1.00  0.00     0.066 C 
BRANCH  12  13
ATOM     13  C   UNL     1      21.257  28.926 -11.821  1.00  0.00     0.140 C 
ATOM     14  O   UNL     1      21.284  28.884 -10.599  1.00  0.00    -0.299 OA
BRANCH  13  15
ATOM     15  C   UNL     1      19.970  29.298 -12.512  1.00  0.00     0.106 CG0
ATOM     16  G   UNL     1      19.138  28.066 -12.813  1.00  0.00     0.000 G0
ENDBRANCH  13  15
ENDBRANCH  12  13
BRANCH  12  17
ATOM     17  C   UNL     1      23.749  28.491 -11.679  1.00  0.00    -0.006 C 
ATOM     18  C   UNL     1      24.702  27.336 -12.045  1.00  0.00     0.008 C 
ATOM     19  C   UNL     1      24.540  29.813 -11.739  1.00  0.00     0.008 C 
ENDBRANCH  12  17
ENDBRANCH  11  12
ENDBRANCH   1  11
TORSDOF 1
ENDMDL
MODEL 5
REMARK VINA RESULT:    -4.207     15.739     17.704
REMARK INTER + INTRA:          -6.406
REMARK INTER:                  -6.246
REMARK INTRA:                  -0.160
REMARK UNBOUND:                 0.014
REMARK SMILES CC1=CCC[C@H](C)C(=O)C[C@@H](C(C)C)C(=O)C1
REMARK SMILES IDX 8 1 9 2 6 3 7 4 5 5 4 6 3 7 2 8 1 9 10 11 11 12 15 13 16 14
REMARK SMILES IDX 17 15 12 17 13 18 14 19
REMARK H PARENT
REMARK Flexibility Score: 70.00
ROOT
ATOM      1  C   UNL     1      32.285  36.039 -21.547  1.00  0.00     0.136 C 
ATOM      2  O   UNL     1      31.676  35.350 -20.742  1.00  0.00    -0.299 OA
ENDROOT
BRANCH   1   3
ATOM      3  C   UNL     1      33.334  35.410 -22.441  1.00  0.00     0.053 C 
ATOM      4  C   UNL     1      34.248  34.516 -21.598  1.00  0.00     0.016 C 
BRANCH   3   5
ATOM      5  C   UNL     1      32.698  34.594 -23.589  1.00  0.00     0.015 C 
BRANCH   5   6
ATOM      6  C   UNL     1      32.803  35.285 -24.957  1.00  0.00     0.028 C 
BRANCH   6   7
ATOM      7  C   UNL     1      34.062  36.112 -25.059  1.00  0.00    -0.028 C 
ATOM      8  C   UNL     1      34.117  37.460 -25.166  1.00  0.00    -0.070 CG0
ATOM      9  C   UNL     1      35.477  38.106 -25.250  1.00  0.00     0.039 C 
ATOM     10  G   UNL     1      32.887  38.348 -25.164  1.00  0.00     0.000 G0
ENDBRANCH   6   7
ENDBRANCH   5   6
ENDBRANCH   3   5
ENDBRANCH   1   3
BRANCH   1  11
ATOM     11  C   UNL     1      32.004  37.519 -21.601  1.00  0.00     0.087 C 
BRANCH  11  12
ATOM     12  C   UNL     1      31.431  37.948 -22.977  1.00  0.00     0.066 C 
BRANCH  12  13
ATOM     13  C   UNL     1      32.494  38.721 -23.741  1.00  0.00     0.140 C 
ATOM     14  O   UNL     1      32.992  39.716 -23.234  1.00  0.00    -0.299 OA
BRANCH  13  15
ATOM     15  C   UNL     1      32.882  38.345 -25.149  1.00  0.00     0.106 CG0
ATOM     16  G   UNL     1      34.122  37.472 -25.157  1.00  0.00     0.000 G0
ENDBRANCH  13  15
ENDBRANCH  12  13
BRANCH  12  17
ATOM     17  C   UNL     1      30.128  38.803 -22.838  1.00  0.00    -0.006 C 
ATOM     18  C   UNL     1      29.368  38.895 -24.176  1.00  0.00     0.008 C 
ATOM     19  C   UNL     1      29.171  38.236 -21.771  1.00  0.00     0.008 C 
ENDBRANCH  12  17
ENDBRANCH  11  12
ENDBRANCH   1  11
TORSDOF 1
ENDMDL
MODEL 6
REMARK VINA RESULT:    -4.155      1.916      3.016
REMARK INTER + INTRA:          -6.327
REMARK INTER:                  -6.580
REMARK INTRA:                   0.253
REMARK UNBOUND:                 0.014
REMARK SMILES CC1=CCC[C@H](C)C(=O)C[C@@H](C(C)C)C(=O)C1
REMARK SMILES IDX 8 1 9 2 6 3 7 4 5 5 4 6 3 7 2 8 1 9 10 11 11 12 15 13 16 14
REMARK SMILES IDX 17 15 12 17 13 18 14 19
REMARK H PARENT
REMARK Flexibility Score: 70.00
ROOT
ATOM      1  C   UNL     1      19.910  28.260 -11.554  1.00  0.00     0.136 C 
ATOM      2  O   UNL     1      18.976  27.477 -11.461  1.00  0.00    -0.299 OA
ENDROOT
BRANCH   1   3
ATOM      3  C   UNL     1      20.875  28.427 -10.398  1.00  0.00     0.053 C 
ATOM      4  C   UNL     1      20.120  28.251  -9.078  1.00  0.00     0.016 C 
BRANCH   3   5
ATOM      5  C   UNL     1      22.050  27.426 -10.480  1.00  0.00     0.015 C 
BRANCH   5   6
ATOM      6  C   UNL     1      23.428  28.101 -10.442  1.00  0.00     0.028 C 
BRANCH   6   7
ATOM      7  C   UNL     1      23.397  29.452 -11.116  1.00  0.00    -0.028 C 
ATOM      8  C   UNL     1      23.294  29.670 -12.447  1.00  0.00    -0.070 CG0
ATOM      9  C   UNL     1      23.272  31.098 -12.929  1.00  0.00     0.039 C 
ATOM     10  G   UNL     1      23.160  28.555 -13.468  1.00  0.00     0.000 G0
ENDBRANCH   6   7
ENDBRANCH   5   6
ENDBRANCH   3   5
ENDBRANCH   1   3
BRANCH   1  11
ATOM     11  C   UNL     1      20.055  29.078 -12.812  1.00  0.00     0.087 C 
BRANCH  11  12
ATOM     12  C   UNL     1      20.599  28.230 -13.992  1.00  0.00     0.066 C 
BRANCH  12  13
ATOM     13  C   UNL     1      21.978  28.741 -14.379  1.00  0.00     0.140 C 
ATOM     14  O   UNL     1      22.140  29.257 -15.476  1.00  0.00    -0.299 OA
BRANCH  13  15
ATOM     15  C   UNL     1      23.172  28.542 -13.479  1.00  0.00     0.106 CG0
ATOM     16  G   UNL     1      23.279  29.662 -12.461  1.00  0.00     0.000 G0
ENDBRANCH  13  15
ENDBRANCH  12  13
BRANCH  12  17
ATOM     17  C   UNL     1      19.643  28.252 -15.230  1.00  0.00    -0.006 C 
ATOM     18  C   UNL     1      19.768  26.960 -16.062  1.00  0.00     0.008 C 
ATOM     19  C   UNL     1      18.166  28.428 -14.822  1.00  0.00     0.008 C 
ENDBRANCH  12  17
ENDBRANCH  11  12
ENDBRANCH   1  11
TORSDOF 1
ENDMDL
MODEL 7
REMARK VINA RESULT:    -4.000      2.084      4.721
REMARK INTER + INTRA:          -6.090
REMARK INTER:                  -6.754
REMARK INTRA:                   0.664
REMARK UNBOUND:                 0.014
REMARK SMILES CC1=CCC[C@H](C)C(=O)C[C@@H](C(C)C)C(=O)C1
REMARK SMILES IDX 8 1 9 2 6 3 7 4 5 5 4 6 3 7 2 8 1 9 10 11 11 12 15 13 16 14
REMARK SMILES IDX 17 15 12 17 13 18 14 19
REMARK H PARENT
REMARK Flexibility Score: 70.00
ROOT
ATOM      1  C   UNL     1      18.927  27.785 -14.088  1.00  0.00     0.136 C 
ATOM      2  O   UNL     1      18.643  27.065 -15.034  1.00  0.00    -0.299 OA
ENDROOT
BRANCH   1   3
ATOM      3  C   UNL     1      18.139  27.685 -12.797  1.00  0.00     0.053 C 
ATOM      4  C   UNL     1      17.030  26.642 -12.961  1.00  0.00     0.016 C 
BRANCH   3   5
ATOM      5  C   UNL     1      19.043  27.321 -11.598  1.00  0.00     0.015 C 
BRANCH   5   6
ATOM      6  C   UNL     1      19.572  28.548 -10.840  1.00  0.00     0.028 C 
BRANCH   6   7
ATOM      7  C   UNL     1      20.995  28.339 -10.381  1.00  0.00    -0.028 C 
ATOM      8  C   UNL     1      22.107  28.721 -11.050  1.00  0.00    -0.070 CG0
ATOM      9  C   UNL     1      23.445  28.428 -10.420  1.00  0.00     0.039 C 
ATOM     10  G   UNL     1      22.071  29.460 -12.374  1.00  0.00     0.000 G0
ENDBRANCH   6   7
ENDBRANCH   5   6
ENDBRANCH   3   5
ENDBRANCH   1   3
BRANCH   1  11
ATOM     11  C   UNL     1      20.038  28.792 -14.244  1.00  0.00     0.087 C 
BRANCH  11  12
ATOM     12  C   UNL     1      21.395  28.110 -14.557  1.00  0.00     0.066 C 
BRANCH  12  13
ATOM     13  C   UNL     1      22.424  28.549 -13.527  1.00  0.00     0.140 C 
ATOM     14  O   UNL     1      23.559  28.095 -13.581  1.00  0.00    -0.299 OA
BRANCH  13  15
ATOM     15  C   UNL     1      22.055  29.460 -12.384  1.00  0.00     0.106 CG0
ATOM     16  G   UNL     1      22.123  28.726 -11.058  1.00  0.00     0.000 G0
ENDBRANCH  13  15
ENDBRANCH  12  13
BRANCH  12  17
ATOM     17  C   UNL     1      21.901  28.428 -16.003  1.00  0.00    -0.006 C 
ATOM     18  C   UNL     1      20.728  28.724 -16.959  1.00  0.00     0.008 C 
ATOM     19  C   UNL     1      22.868  29.629 -16.030  1.00  0.00     0.008 C 
ENDBRANCH  12  17
ENDBRANCH  11  12
ENDBRANCH   1  11
TORSDOF 1
ENDMDL
MODEL 8
REMARK VINA RESULT:    -3.998     15.299     17.240
REMARK INTER + INTRA:          -6.087
REMARK INTER:                  -6.043
REMARK INTRA:                  -0.044
REMARK UNBOUND:                 0.014
REMARK SMILES CC1=CCC[C@H](C)C(=O)C[C@@H](C(C)C)C(=O)C1
REMARK SMILES IDX 8 1 9 2 6 3 7 4 5 5 4 6 3 7 2 8 1 9 10 11 11 12 15 13 16 14
REMARK SMILES IDX 17 15 12 17 13 18 14 19
REMARK H PARENT
REMARK Flexibility Score: 70.00
ROOT
ATOM      1  C   UNL     1      31.838  35.655 -21.207  1.00  0.00     0.136 C 
ATOM      2  O   UNL     1      30.765  35.076 -21.302  1.00  0.00    -0.299 OA
ENDROOT
BRANCH   1   3
ATOM      3  C   UNL     1      33.064  34.902 -20.731  1.00  0.00     0.053 C 
ATOM      4  C   UNL     1      32.784  33.398 -20.776  1.00  0.00     0.016 C 
BRANCH   3   5
ATOM      5  C   UNL     1      34.311  35.240 -21.579  1.00  0.00     0.015 C 
BRANCH   5   6
ATOM      6  C   UNL     1      34.170  34.839 -23.055  1.00  0.00     0.028 C 
BRANCH   6   7
ATOM      7  C   UNL     1      34.956  35.765 -23.953  1.00  0.00    -0.028 C 
ATOM      8  C   UNL     1      34.431  36.675 -24.805  1.00  0.00    -0.070 CG0
ATOM      9  C   UNL     1      35.385  37.515 -25.616  1.00  0.00     0.039 C 
ATOM     10  G   UNL     1      32.941  36.916 -24.954  1.00  0.00     0.000 G0
ENDBRANCH   6   7
ENDBRANCH   5   6
ENDBRANCH   3   5
ENDBRANCH   1   3
BRANCH   1  11
ATOM     11  C   UNL     1      31.905  37.125 -21.530  1.00  0.00     0.087 C 
BRANCH  11  12
ATOM     12  C   UNL     1      31.310  37.437 -22.927  1.00  0.00     0.066 C 
BRANCH  12  13
ATOM     13  C   UNL     1      32.431  37.855 -23.866  1.00  0.00     0.140 C 
ATOM     14  O   UNL     1      32.888  38.987 -23.787  1.00  0.00    -0.299 OA
BRANCH  13  15
ATOM     15  C   UNL     1      32.930  36.938 -24.954  1.00  0.00     0.106 CG0
ATOM     16  G   UNL     1      34.420  36.688 -24.815  1.00  0.00     0.000 G0
ENDBRANCH  13  15
ENDBRANCH  12  13
BRANCH  12  17
ATOM     17  C   UNL     1      30.206  38.545 -22.870  1.00  0.00    -0.006 C 
ATOM     18  C   UNL     1      29.495  38.704 -24.229  1.00  0.00     0.008 C 
ATOM     19  C   UNL     1      29.141  38.250 -21.795  1.00  0.00     0.008 C 
ENDBRANCH  12  17
ENDBRANCH  11  12
ENDBRANCH   1  11
TORSDOF 1
ENDMDL
MODEL 9
REMARK VINA RESULT:    -3.928      9.107     11.785
REMARK INTER + INTRA:          -5.981
REMARK INTER:                  -5.932
REMARK INTRA:                  -0.048
REMARK UNBOUND:                 0.014
REMARK SMILES CC1=CCC[C@H](C)C(=O)C[C@@H](C(C)C)C(=O)C1
REMARK SMILES IDX 8 1 9 2 6 3 7 4 5 5 4 6 3 7 2 8 1 9 10 11 11 12 15 13 16 14
REMARK SMILES IDX 17 15 12 17 13 18 14 19
REMARK H PARENT
REMARK Flexibility Score: 70.00
ROOT
ATOM      1  C   UNL     1      20.916  23.690 -26.192  1.00  0.00     0.136 C 
ATOM      2  O   UNL     1      21.087  24.131 -27.319  1.00  0.00    -0.299 OA
ENDROOT
BRANCH   1   3
ATOM      3  C   UNL     1      22.006  22.874 -25.526  1.00  0.00     0.053 C 
ATOM      4  C   UNL     1      23.311  23.036 -26.310  1.00  0.00     0.016 C 
BRANCH   3   5
ATOM      5  C   UNL     1      22.213  23.286 -24.051  1.00  0.00     0.015 C 
BRANCH   5   6
ATOM      6  C   UNL     1      22.647  24.750 -23.883  1.00  0.00     0.028 C 
BRANCH   6   7
ATOM      7  C   UNL     1      21.966  25.392 -22.698  1.00  0.00    -0.028 C 
ATOM      8  C   UNL     1      21.004  26.341 -22.758  1.00  0.00    -0.070 CG0
ATOM      9  C   UNL     1      20.440  26.856 -21.458  1.00  0.00     0.039 C 
ATOM     10  G   UNL     1      20.441  26.878 -24.060  1.00  0.00     0.000 G0
ENDBRANCH   6   7
ENDBRANCH   5   6
ENDBRANCH   3   5
ENDBRANCH   1   3
BRANCH   1  11
ATOM     11  C   UNL     1      19.599  23.936 -25.503  1.00  0.00     0.087 C 
BRANCH  11  12
ATOM     12  C   UNL     1      19.080  25.376 -25.748  1.00  0.00     0.066 C 
BRANCH  12  13
ATOM     13  C   UNL     1      19.172  26.168 -24.453  1.00  0.00     0.140 C 
ATOM     14  O   UNL     1      18.177  26.288 -23.751  1.00  0.00    -0.299 OA
BRANCH  13  15
ATOM     15  C   UNL     1      20.437  26.888 -24.058  1.00  0.00     0.106 CG0
ATOM     16  G   UNL     1      21.006  26.323 -22.771  1.00  0.00     0.000 G0
ENDBRANCH  13  15
ENDBRANCH  12  13
BRANCH  12  17
ATOM     17  C   UNL     1      17.614  25.395 -26.295  1.00  0.00    -0.006 C 
ATOM     18  C   UNL     1      17.467  26.369 -27.482  1.00  0.00     0.008 C 
ATOM     19  C   UNL     1      17.144  23.999 -26.748  1.00  0.00     0.008 C 
ENDBRANCH  12  17
ENDBRANCH  11  12
ENDBRANCH   1  11
TORSDOF 1
ENDMDL
