MODEL 1
REMARK VINA RESULT:    -3.535      0.000      0.000
REMARK INTER + INTRA:          -3.598
REMARK INTER:                  -4.362
REMARK INTRA:                   0.763
REMARK UNBOUND:                 0.763
REMARK SMILES CC1=CC=CC(C)(C)CC1=O
REMARK SMILES IDX 1 1 2 2 3 3 10 4 11 5 9 6 4 8 5 9 6 10 7 11 8 12
REMARK H PARENT
REMARK Flexibility Score: 80.00
ROOT
ATOM      1  C   UNL     1       6.748 -20.225  26.512  1.00  0.00     0.048 C 
ATOM      2  C   UNL     1       6.941 -19.782  25.081  1.00  0.00    -0.008 C 
ATOM      3  C   UNL     1       6.792 -20.712  24.112  1.00  0.00     0.007 C 
ENDROOT
BRANCH   2   4
ATOM      4  C   UNL     1       7.354 -18.374  24.859  1.00  0.00     0.159 C 
ATOM      5  O   UNL     1       7.714 -17.681  25.850  1.00  0.00    -0.295 OA
BRANCH   4   6
ATOM      6  C   UNL     1       7.354 -17.715  23.514  1.00  0.00     0.091 CG0
ATOM      7  G   UNL     1       8.268 -18.424  22.489  1.00  0.00     0.000 G0
ENDBRANCH   4   6
ENDBRANCH   2   4
BRANCH   3   8
ATOM      8  C   UNL     1       6.942 -20.588  22.644  1.00  0.00    -0.003 C 
ATOM      9  C   UNL     1       7.569 -19.639  21.936  1.00  0.00    -0.020 C 
BRANCH   9  10
ATOM     10  C   UNL     1       8.267 -18.420  22.490  1.00  0.00    -0.010 CG0
ATOM     11  C   UNL     1       8.525 -17.438  21.325  1.00  0.00     0.016 C 
ATOM     12  C   UNL     1       9.635 -18.823  23.088  1.00  0.00     0.016 C 
ATOM     13  G   UNL     1       7.351 -17.718  23.517  1.00  0.00     0.000 G0
ENDBRANCH   9  10
ENDBRANCH   3   8
TORSDOF 0
ENDMDL
MODEL 2
REMARK VINA RESULT:    -3.491      7.872      9.639
REMARK INTER + INTRA:          -3.544
REMARK INTER:                  -4.286
REMARK INTRA:                   0.742
REMARK UNBOUND:                 0.763
REMARK SMILES CC1=CC=CC(C)(C)CC1=O
REMARK SMILES IDX 1 1 2 2 3 3 10 4 11 5 9 6 4 8 5 9 6 10 7 11 8 12
REMARK H PARENT
REMARK Flexibility Score: 80.00
ROOT
ATOM      1  C   UNL     1      19.371 -19.918  23.181  1.00  0.00     0.048 C 
ATOM      2  C   UNL     1      17.929 -20.363  23.248  1.00  0.00    -0.008 C 
ATOM      3  C   UNL     1      17.021 -19.652  22.545  1.00  0.00     0.007 C 
ENDROOT
BRANCH   2   4
ATOM      4  C   UNL     1      17.614 -21.503  24.145  1.00  0.00     0.159 C 
ATOM      5  O   UNL     1      18.499 -21.907  24.950  1.00  0.00    -0.295 OA
BRANCH   4   6
ATOM      6  C   UNL     1      16.300 -22.220  24.139  1.00  0.00     0.091 CG0
ATOM      7  G   UNL     1      15.104 -21.301  24.475  1.00  0.00     0.000 G0
ENDBRANCH   4   6
ENDBRANCH   2   4
BRANCH   3   8
ATOM      8  C   UNL     1      15.554 -19.825  22.437  1.00  0.00    -0.003 C 
ATOM      9  C   UNL     1      14.723 -20.507  23.236  1.00  0.00    -0.020 C 
BRANCH   9  10
ATOM     10  C   UNL     1      15.108 -21.307  24.458  1.00  0.00    -0.010 CG0
ATOM     11  C   UNL     1      13.919 -22.221  24.834  1.00  0.00     0.016 C 
ATOM     12  C   UNL     1      15.373 -20.355  25.648  1.00  0.00     0.016 C 
ATOM     13  G   UNL     1      16.322 -22.205  24.132  1.00  0.00     0.000 G0
ENDBRANCH   9  10
ENDBRANCH   3   8
TORSDOF 0
ENDMDL
MODEL 3
REMARK VINA RESULT:    -3.413      1.755      3.154
REMARK INTER + INTRA:          -3.448
REMARK INTER:                  -4.198
REMARK INTRA:                   0.750
REMARK UNBOUND:                 0.763
REMARK SMILES CC1=CC=CC(C)(C)CC1=O
REMARK SMILES IDX 1 1 2 2 3 3 10 4 11 5 9 6 4 8 5 9 6 10 7 11 8 12
REMARK H PARENT
REMARK Flexibility Score: 80.00
ROOT
ATOM      1  C   UNL     1       7.804 -21.246  21.696  1.00  0.00     0.048 C 
ATOM      2  C   UNL     1       7.878 -20.351  22.912  1.00  0.00    -0.008 C 
ATOM      3  C   UNL     1       6.987 -20.568  23.903  1.00  0.00     0.007 C 
ENDROOT
BRANCH   2   4
ATOM      4  C   UNL     1       8.877 -19.254  22.883  1.00  0.00     0.159 C 
ATOM      5  O   UNL     1       9.476 -19.004  21.801  1.00  0.00    -0.295 OA
BRANCH   4   6
ATOM      6  C   UNL     1       9.232 -18.429  24.081  1.00  0.00     0.091 CG0
ATOM      7  G   UNL     1       8.021 -17.683  24.687  1.00  0.00     0.000 G0
ENDBRANCH   4   6
ENDBRANCH   2   4
BRANCH   3   8
ATOM      8  C   UNL     1       6.796 -19.849  25.185  1.00  0.00    -0.003 C 
ATOM      9  C   UNL     1       7.214 -18.626  25.537  1.00  0.00    -0.020 C 
BRANCH   9  10
ATOM     10  C   UNL     1       8.027 -17.677  24.689  1.00  0.00    -0.010 CG0
ATOM     11  C   UNL     1       8.584 -16.564  25.606  1.00  0.00     0.016 C 
ATOM     12  C   UNL     1       7.121 -17.011  23.627  1.00  0.00     0.016 C 
ATOM     13  G   UNL     1       9.223 -18.430  24.066  1.00  0.00     0.000 G0
ENDBRANCH   9  10
ENDBRANCH   3   8
TORSDOF 0
ENDMDL
MODEL 4
REMARK VINA RESULT:    -3.360      2.554      3.241
REMARK INTER + INTRA:          -3.382
REMARK INTER:                  -4.124
REMARK INTRA:                   0.742
REMARK UNBOUND:                 0.763
REMARK SMILES CC1=CC=CC(C)(C)CC1=O
REMARK SMILES IDX 1 1 2 2 3 3 10 4 11 5 9 6 4 8 5 9 6 10 7 11 8 12
REMARK H PARENT
REMARK Flexibility Score: 80.00
ROOT
ATOM      1  C   UNL     1       6.751 -20.473  23.970  1.00  0.00     0.048 C 
ATOM      2  C   UNL     1       7.242 -20.710  22.561  1.00  0.00    -0.008 C 
ATOM      3  C   UNL     1       7.458 -21.988  22.180  1.00  0.00     0.007 C 
ENDROOT
BRANCH   2   4
ATOM      4  C   UNL     1       7.522 -19.511  21.732  1.00  0.00     0.159 C 
ATOM      5  O   UNL     1       7.538 -18.377  22.287  1.00  0.00    -0.295 OA
BRANCH   4   6
ATOM      6  C   UNL     1       7.773 -19.567  20.257  1.00  0.00     0.091 CG0
ATOM      7  G   UNL     1       8.997 -20.431  19.880  1.00  0.00     0.000 G0
ENDBRANCH   4   6
ENDBRANCH   2   4
BRANCH   3   8
ATOM      8  C   UNL     1       7.957 -22.525  20.893  1.00  0.00    -0.003 C 
ATOM      9  C   UNL     1       8.615 -21.893  19.912  1.00  0.00    -0.020 C 
BRANCH   9  10
ATOM     10  C   UNL     1       8.988 -20.429  19.880  1.00  0.00    -0.010 CG0
ATOM     11  C   UNL     1       9.384 -20.062  18.432  1.00  0.00     0.016 C 
ATOM     12  C   UNL     1      10.215 -20.178  20.788  1.00  0.00     0.016 C 
ATOM     13  G   UNL     1       7.766 -19.572  20.278  1.00  0.00     0.000 G0
ENDBRANCH   9  10
ENDBRANCH   3   8
TORSDOF 0
ENDMDL
MODEL 5
REMARK VINA RESULT:    -3.352      1.520      2.230
REMARK INTER + INTRA:          -3.373
REMARK INTER:                  -4.133
REMARK INTRA:                   0.760
REMARK UNBOUND:                 0.763
REMARK SMILES CC1=CC=CC(C)(C)CC1=O
REMARK SMILES IDX 1 1 2 2 3 3 10 4 11 5 9 6 4 8 5 9 6 10 7 11 8 12
REMARK H PARENT
REMARK Flexibility Score: 80.00
ROOT
ATOM      1  C   UNL     1       6.736 -20.936  23.964  1.00  0.00     0.048 C 
ATOM      2  C   UNL     1       7.237 -19.541  23.673  1.00  0.00    -0.008 C 
ATOM      3  C   UNL     1       7.580 -19.252  22.399  1.00  0.00     0.007 C 
ENDROOT
BRANCH   2   4
ATOM      4  C   UNL     1       7.386 -18.622  24.829  1.00  0.00     0.159 C 
ATOM      5  O   UNL     1       7.271 -19.088  25.996  1.00  0.00    -0.295 OA
BRANCH   4   6
ATOM      6  C   UNL     1       7.651 -17.155  24.689  1.00  0.00     0.091 CG0
ATOM      7  G   UNL     1       8.966 -16.843  23.940  1.00  0.00     0.000 G0
ENDBRANCH   4   6
ENDBRANCH   2   4
BRANCH   3   8
ATOM      8  C   UNL     1       8.121 -18.000  21.820  1.00  0.00    -0.003 C 
ATOM      9  C   UNL     1       8.716 -16.972  22.439  1.00  0.00    -0.020 C 
BRANCH   9  10
ATOM     10  C   UNL     1       8.955 -16.835  23.924  1.00  0.00    -0.010 CG0
ATOM     11  C   UNL     1       9.336 -15.366  24.221  1.00  0.00     0.016 C 
ATOM     12  C   UNL     1      10.141 -17.731  24.352  1.00  0.00     0.016 C 
ATOM     13  G   UNL     1       7.655 -17.160  24.693  1.00  0.00     0.000 G0
ENDBRANCH   9  10
ENDBRANCH   3   8
TORSDOF 0
ENDMDL
MODEL 6
REMARK VINA RESULT:    -3.308      2.676      4.447
REMARK INTER + INTRA:          -3.318
REMARK INTER:                  -4.071
REMARK INTRA:                   0.753
REMARK UNBOUND:                 0.763
REMARK SMILES CC1=CC=CC(C)(C)CC1=O
REMARK SMILES IDX 1 1 2 2 3 3 10 4 11 5 9 6 4 8 5 9 6 10 7 11 8 12
REMARK H PARENT
REMARK Flexibility Score: 80.00
ROOT
ATOM      1  C   UNL     1       6.738 -15.542  19.307  1.00  0.00     0.048 C 
ATOM      2  C   UNL     1       7.090 -16.172  20.635  1.00  0.00    -0.008 C 
ATOM      3  C   UNL     1       6.895 -15.435  21.749  1.00  0.00     0.007 C 
ENDROOT
BRANCH   2   4
ATOM      4  C   UNL     1       7.696 -17.527  20.600  1.00  0.00     0.159 C 
ATOM      5  O   UNL     1       8.056 -18.004  19.488  1.00  0.00    -0.295 OA
BRANCH   4   6
ATOM      6  C   UNL     1       7.892 -18.375  21.818  1.00  0.00     0.091 CG0
ATOM      7  G   UNL     1       8.772 -17.701  22.894  1.00  0.00     0.000 G0
ENDBRANCH   4   6
ENDBRANCH   2   4
BRANCH   3   8
ATOM      8  C   UNL     1       7.167 -15.765  23.168  1.00  0.00    -0.003 C 
ATOM      9  C   UNL     1       7.966 -16.712  23.676  1.00  0.00    -0.020 C 
BRANCH   9  10
ATOM     10  C   UNL     1       8.780 -17.715  22.893  1.00  0.00    -0.010 CG0
ATOM     11  C   UNL     1       9.250 -18.822  23.864  1.00  0.00     0.016 C 
ATOM     12  C   UNL     1      10.036 -17.030  22.306  1.00  0.00     0.016 C 
ATOM     13  G   UNL     1       7.896 -18.369  21.808  1.00  0.00     0.000 G0
ENDBRANCH   9  10
ENDBRANCH   3   8
TORSDOF 0
ENDMDL
MODEL 7
REMARK VINA RESULT:    -3.291      2.908      4.042
REMARK INTER + INTRA:          -3.297
REMARK INTER:                  -4.040
REMARK INTRA:                   0.743
REMARK UNBOUND:                 0.763
REMARK SMILES CC1=CC=CC(C)(C)CC1=O
REMARK SMILES IDX 1 1 2 2 3 3 10 4 11 5 9 6 4 8 5 9 6 10 7 11 8 12
REMARK H PARENT
REMARK Flexibility Score: 80.00
ROOT
ATOM      1  C   UNL     1      12.325 -18.235  25.439  1.00  0.00     0.048 C 
ATOM      2  C   UNL     1      11.028 -17.501  25.188  1.00  0.00    -0.008 C 
ATOM      3  C   UNL     1       9.947 -17.879  25.903  1.00  0.00     0.007 C 
ENDROOT
BRANCH   2   4
ATOM      4  C   UNL     1      11.030 -16.471  24.119  1.00  0.00     0.159 C 
ATOM      5  O   UNL     1      12.033 -16.388  23.357  1.00  0.00    -0.295 OA
BRANCH   4   6
ATOM      6  C   UNL     1       9.907 -15.507  23.899  1.00  0.00     0.091 CG0
ATOM      7  G   UNL     1       8.556 -16.200  23.612  1.00  0.00     0.000 G0
ENDBRANCH   4   6
ENDBRANCH   2   4
BRANCH   3   8
ATOM      8  C   UNL     1       8.554 -17.374  25.861  1.00  0.00    -0.003 C 
ATOM      9  C   UNL     1       7.940 -16.673  24.899  1.00  0.00    -0.020 C 
BRANCH   9  10
ATOM     10  C   UNL     1       8.554 -16.194  23.605  1.00  0.00    -0.010 CG0
ATOM     11  C   UNL     1       7.618 -15.129  22.989  1.00  0.00     0.016 C 
ATOM     12  C   UNL     1       8.661 -17.370  22.606  1.00  0.00     0.016 C 
ATOM     13  G   UNL     1       9.919 -15.529  23.891  1.00  0.00     0.000 G0
ENDBRANCH   9  10
ENDBRANCH   3   8
TORSDOF 0
ENDMDL
MODEL 8
REMARK VINA RESULT:    -3.193      1.920      3.084
REMARK INTER + INTRA:          -3.176
REMARK INTER:                  -3.925
REMARK INTRA:                   0.750
REMARK UNBOUND:                 0.763
REMARK SMILES CC1=CC=CC(C)(C)CC1=O
REMARK SMILES IDX 1 1 2 2 3 3 10 4 11 5 9 6 4 8 5 9 6 10 7 11 8 12
REMARK H PARENT
REMARK Flexibility Score: 80.00
ROOT
ATOM      1  C   UNL     1       8.471 -22.080  21.298  1.00  0.00     0.048 C 
ATOM      2  C   UNL     1       8.177 -20.964  22.273  1.00  0.00    -0.008 C 
ATOM      3  C   UNL     1       6.967 -20.961  22.874  1.00  0.00     0.007 C 
ENDROOT
BRANCH   2   4
ATOM      4  C   UNL     1       9.216 -19.917  22.435  1.00  0.00     0.159 C 
ATOM      5  O   UNL     1      10.187 -19.894  21.630  1.00  0.00    -0.295 OA
BRANCH   4   6
ATOM      6  C   UNL     1       9.186 -18.884  23.519  1.00  0.00     0.091 CG0
ATOM      7  G   UNL     1       7.924 -17.994  23.476  1.00  0.00     0.000 G0
ENDBRANCH   4   6
ENDBRANCH   2   4
BRANCH   3   8
ATOM      8  C   UNL     1       6.388 -19.999  23.840  1.00  0.00    -0.003 C 
ATOM      9  C   UNL     1       6.764 -18.741  24.108  1.00  0.00    -0.020 C 
BRANCH   9  10
ATOM     10  C   UNL     1       7.921 -17.998  23.484  1.00  0.00    -0.010 CG0
ATOM     11  C   UNL     1       8.208 -16.743  24.339  1.00  0.00     0.016 C 
ATOM     12  C   UNL     1       7.541 -17.530  22.060  1.00  0.00     0.016 C 
ATOM     13  G   UNL     1       9.182 -18.891  23.501  1.00  0.00     0.000 G0
ENDBRANCH   9  10
ENDBRANCH   3   8
TORSDOF 0
ENDMDL
MODEL 9
REMARK VINA RESULT:    -3.169      2.046      3.225
REMARK INTER + INTRA:          -3.147
REMARK INTER:                  -3.900
REMARK INTRA:                   0.753
REMARK UNBOUND:                 0.763
REMARK SMILES CC1=CC=CC(C)(C)CC1=O
REMARK SMILES IDX 1 1 2 2 3 3 10 4 11 5 9 6 4 8 5 9 6 10 7 11 8 12
REMARK H PARENT
REMARK Flexibility Score: 80.00
ROOT
ATOM      1  C   UNL     1       7.399 -16.430  23.279  1.00  0.00     0.048 C 
ATOM      2  C   UNL     1       7.337 -17.912  22.993  1.00  0.00    -0.008 C 
ATOM      3  C   UNL     1       6.895 -18.722  23.979  1.00  0.00     0.007 C 
ENDROOT
BRANCH   2   4
ATOM      4  C   UNL     1       7.842 -18.367  21.673  1.00  0.00     0.159 C 
ATOM      5  O   UNL     1       8.474 -17.549  20.948  1.00  0.00    -0.295 OA
BRANCH   4   6
ATOM      6  C   UNL     1       7.630 -19.750  21.140  1.00  0.00     0.091 CG0
ATOM      7  G   UNL     1       8.220 -20.850  22.050  1.00  0.00     0.000 G0
ENDBRANCH   4   6
ENDBRANCH   2   4
BRANCH   3   8
ATOM      8  C   UNL     1       6.751 -20.196  24.006  1.00  0.00    -0.003 C 
ATOM      9  C   UNL     1       7.312 -21.114  23.208  1.00  0.00    -0.020 C 
BRANCH   9  10
ATOM     10  C   UNL     1       8.231 -20.847  22.039  1.00  0.00    -0.010 CG0
ATOM     11  C   UNL     1       8.333 -22.139  21.197  1.00  0.00     0.016 C 
ATOM     12  C   UNL     1       9.648 -20.498  22.552  1.00  0.00     0.016 C 
ATOM     13  G   UNL     1       7.629 -19.737  21.148  1.00  0.00     0.000 G0
ENDBRANCH   9  10
ENDBRANCH   3   8
TORSDOF 0
ENDMDL
