MODEL 1
REMARK VINA RESULT:    -6.955      0.000      0.000
REMARK INTER + INTRA:          -7.565
REMARK INTER:                  -7.565
REMARK INTRA:                   0.000
REMARK UNBOUND:                 0.000
REMARK SMILES Cc1cc(O)c2c(c1)C(=O)c1cc(O)cc(O)c1C2=O
REMARK SMILES IDX 1 1 2 2 8 3 7 4 6 5 4 6 3 7 19 8 20 9 18 10 11 11 9 12 10 13
REMARK SMILES IDX 12 14 13 15 15 16 16 17 5 18 17 20 14 22
REMARK H PARENT 5 19 17 21 14 23
REMARK Flexibility Score: inf
ROOT
ATOM      1  C   UNL     1       1.911 -15.647  -1.742  1.00  0.00     0.044 C 
ATOM      2  C   UNL     1       2.015 -16.510  -2.965  1.00  0.00    -0.047 A 
ATOM      3  C   UNL     1       1.451 -17.789  -2.974  1.00  0.00     0.016 A 
ATOM      4  C   UNL     1       1.582 -18.625  -4.097  1.00  0.00     0.038 A 
ATOM      5  C   UNL     1       2.315 -18.183  -5.223  1.00  0.00     0.076 A 
ATOM      6  C   UNL     1       2.833 -16.859  -5.230  1.00  0.00     0.127 A 
ATOM      7  C   UNL     1       2.710 -16.058  -4.090  1.00  0.00     0.050 A 
ATOM      8  C   UNL     1       2.566 -19.150  -6.328  1.00  0.00     0.201 C 
ATOM      9  O   UNL     1       3.523 -18.966  -7.126  1.00  0.00    -0.288 OA
ATOM     10  C   UNL     1       1.763 -20.397  -6.426  1.00  0.00     0.076 A 
ATOM     11  C   UNL     1       0.984 -20.801  -5.322  1.00  0.00     0.041 A 
ATOM     12  C   UNL     1       0.945 -19.964  -4.101  1.00  0.00     0.194 C 
ATOM     13  O   UNL     1       0.353 -20.384  -3.070  1.00  0.00    -0.289 OA
ATOM     14  C   UNL     1       0.249 -21.998  -5.385  1.00  0.00     0.059 A 
ATOM     15  C   UNL     1       0.278 -22.789  -6.534  1.00  0.00     0.120 A 
ATOM     16  C   UNL     1       1.042 -22.389  -7.634  1.00  0.00     0.093 A 
ATOM     17  C   UNL     1       1.783 -21.201  -7.590  1.00  0.00     0.131 A 
ENDROOT
BRANCH   6  18
ATOM     18  O   UNL     1       3.443 -16.286  -6.348  1.00  0.00    -0.507 OA
ATOM     19  H   UNL     1       3.106 -15.451  -6.805  1.00  0.00     0.293 HD
ENDBRANCH   6  18
BRANCH  17  20
ATOM     20  O   UNL     1       2.527 -20.818  -8.707  1.00  0.00    -0.507 OA
ATOM     21  H   UNL     1       2.805 -19.856  -8.859  1.00  0.00     0.293 HD
ENDBRANCH  17  20
BRANCH  15  22
ATOM     22  O   UNL     1      -0.459 -23.971  -6.573  1.00  0.00    -0.508 OA
ATOM     23  H   UNL     1      -0.108 -24.828  -6.161  1.00  0.00     0.293 HD
ENDBRANCH  15  22
TORSDOF 3
ENDMDL
MODEL 2
REMARK VINA RESULT:    -6.499     11.898     13.380
REMARK INTER + INTRA:          -7.069
REMARK INTER:                  -7.069
REMARK INTRA:                   0.000
REMARK UNBOUND:                 0.000
REMARK SMILES Cc1cc(O)c2c(c1)C(=O)c1cc(O)cc(O)c1C2=O
REMARK SMILES IDX 1 1 2 2 8 3 7 4 6 5 4 6 3 7 19 8 20 9 18 10 11 11 9 12 10 13
REMARK SMILES IDX 12 14 13 15 15 16 16 17 5 18 17 20 14 22
REMARK H PARENT 5 19 17 21 14 23
REMARK Flexibility Score: inf
ROOT
ATOM      1  C   UNL     1       4.806 -21.904  10.125  1.00  0.00     0.044 C 
ATOM      2  C   UNL     1       5.007 -22.970   9.088  1.00  0.00    -0.047 A 
ATOM      3  C   UNL     1       5.093 -22.629   7.735  1.00  0.00     0.016 A 
ATOM      4  C   UNL     1       5.235 -23.622   6.751  1.00  0.00     0.038 A 
ATOM      5  C   UNL     1       5.264 -24.987   7.125  1.00  0.00     0.076 A 
ATOM      6  C   UNL     1       5.237 -25.322   8.506  1.00  0.00     0.127 A 
ATOM      7  C   UNL     1       5.070 -24.315   9.463  1.00  0.00     0.050 A 
ATOM      8  C   UNL     1       5.257 -26.016   6.048  1.00  0.00     0.201 C 
ATOM      9  O   UNL     1       4.871 -27.189   6.296  1.00  0.00    -0.288 OA
ATOM     10  C   UNL     1       5.593 -25.637   4.650  1.00  0.00     0.076 A 
ATOM     11  C   UNL     1       5.624 -24.272   4.297  1.00  0.00     0.041 A 
ATOM     12  C   UNL     1       5.361 -23.239   5.324  1.00  0.00     0.194 C 
ATOM     13  O   UNL     1       5.264 -22.027   4.986  1.00  0.00    -0.289 OA
ATOM     14  C   UNL     1       5.903 -23.899   2.971  1.00  0.00     0.059 A 
ATOM     15  C   UNL     1       6.156 -24.868   1.999  1.00  0.00     0.120 A 
ATOM     16  C   UNL     1       6.135 -26.222   2.346  1.00  0.00     0.093 A 
ATOM     17  C   UNL     1       5.857 -26.614   3.662  1.00  0.00     0.131 A 
ENDROOT
BRANCH   6  18
ATOM     18  O   UNL     1       5.406 -26.626   8.976  1.00  0.00    -0.507 OA
ATOM     19  H   UNL     1       4.686 -27.148   9.455  1.00  0.00     0.293 HD
ENDBRANCH   6  18
BRANCH  17  20
ATOM     20  O   UNL     1       5.854 -27.972   3.983  1.00  0.00    -0.507 OA
ATOM     21  H   UNL     1       6.301 -28.322   4.822  1.00  0.00     0.293 HD
ENDBRANCH  17  20
BRANCH  15  22
ATOM     22  O   UNL     1       6.430 -24.474   0.691  1.00  0.00    -0.508 OA
ATOM     23  H   UNL     1       7.382 -24.361   0.360  1.00  0.00     0.293 HD
ENDBRANCH  15  22
TORSDOF 3
ENDMDL
MODEL 3
REMARK VINA RESULT:    -6.234     10.755     12.697
REMARK INTER + INTRA:          -6.780
REMARK INTER:                  -6.780
REMARK INTRA:                   0.000
REMARK UNBOUND:                 0.000
REMARK SMILES Cc1cc(O)c2c(c1)C(=O)c1cc(O)cc(O)c1C2=O
REMARK SMILES IDX 1 1 2 2 8 3 7 4 6 5 4 6 3 7 19 8 20 9 18 10 11 11 9 12 10 13
REMARK SMILES IDX 12 14 13 15 15 16 16 17 5 18 17 20 14 22
REMARK H PARENT 5 19 17 21 14 23
REMARK Flexibility Score: inf
ROOT
ATOM      1  C   UNL     1     -10.070 -21.942  -0.181  1.00  0.00     0.044 C 
ATOM      2  C   UNL     1      -9.329 -23.046  -0.876  1.00  0.00    -0.047 A 
ATOM      3  C   UNL     1      -9.733 -24.375  -0.716  1.00  0.00     0.016 A 
ATOM      4  C   UNL     1      -9.019 -25.421  -1.324  1.00  0.00     0.038 A 
ATOM      5  C   UNL     1      -7.861 -25.136  -2.087  1.00  0.00     0.076 A 
ATOM      6  C   UNL     1      -7.493 -23.779  -2.295  1.00  0.00     0.127 A 
ATOM      7  C   UNL     1      -8.206 -22.759  -1.657  1.00  0.00     0.050 A 
ATOM      8  C   UNL     1      -7.042 -26.277  -2.584  1.00  0.00     0.201 C 
ATOM      9  O   UNL     1      -5.832 -26.103  -2.889  1.00  0.00    -0.288 OA
ATOM     10  C   UNL     1      -7.613 -27.649  -2.614  1.00  0.00     0.076 A 
ATOM     11  C   UNL     1      -8.802 -27.914  -1.904  1.00  0.00     0.041 A 
ATOM     12  C   UNL     1      -9.484 -26.822  -1.173  1.00  0.00     0.194 C 
ATOM     13  O   UNL     1     -10.474 -27.080  -0.435  1.00  0.00    -0.289 OA
ATOM     14  C   UNL     1      -9.334 -29.215  -1.891  1.00  0.00     0.059 A 
ATOM     15  C   UNL     1      -8.699 -30.248  -2.581  1.00  0.00     0.120 A 
ATOM     16  C   UNL     1      -7.525 -29.989  -3.294  1.00  0.00     0.093 A 
ATOM     17  C   UNL     1      -6.978 -28.699  -3.317  1.00  0.00     0.131 A 
ENDROOT
BRANCH   6  18
ATOM     18  O   UNL     1      -6.455 -23.394  -3.147  1.00  0.00    -0.507 OA
ATOM     19  H   UNL     1      -5.480 -23.579  -2.963  1.00  0.00     0.293 HD
ENDBRANCH   6  18
BRANCH  17  20
ATOM     20  O   UNL     1      -5.812 -28.466  -4.047  1.00  0.00    -0.507 OA
ATOM     21  H   UNL     1      -5.335 -27.572  -4.019  1.00  0.00     0.293 HD
ENDBRANCH  17  20
BRANCH  15  22
ATOM     22  O   UNL     1      -9.245 -31.530  -2.554  1.00  0.00    -0.508 OA
ATOM     23  H   UNL     1      -9.809 -31.882  -3.320  1.00  0.00     0.293 HD
ENDBRANCH  15  22
TORSDOF 3
ENDMDL
MODEL 4
REMARK VINA RESULT:    -6.172      1.846      5.650
REMARK INTER + INTRA:          -6.713
REMARK INTER:                  -6.713
REMARK INTRA:                   0.000
REMARK UNBOUND:                 0.000
REMARK SMILES Cc1cc(O)c2c(c1)C(=O)c1cc(O)cc(O)c1C2=O
REMARK SMILES IDX 1 1 2 2 8 3 7 4 6 5 4 6 3 7 19 8 20 9 18 10 11 11 9 12 10 13
REMARK SMILES IDX 12 14 13 15 15 16 16 17 5 18 17 20 14 22
REMARK H PARENT 5 19 17 21 14 23
REMARK Flexibility Score: inf
ROOT
ATOM      1  C   UNL     1       0.500 -22.775  -7.125  1.00  0.00     0.044 C 
ATOM      2  C   UNL     1       1.359 -21.627  -6.683  1.00  0.00    -0.047 A 
ATOM      3  C   UNL     1       1.086 -20.965  -5.482  1.00  0.00     0.016 A 
ATOM      4  C   UNL     1       1.855 -19.858  -5.081  1.00  0.00     0.038 A 
ATOM      5  C   UNL     1       2.901 -19.388  -5.910  1.00  0.00     0.076 A 
ATOM      6  C   UNL     1       3.211 -20.103  -7.098  1.00  0.00     0.127 A 
ATOM      7  C   UNL     1       2.413 -21.185  -7.487  1.00  0.00     0.050 A 
ATOM      8  C   UNL     1       3.589 -18.123  -5.530  1.00  0.00     0.201 C 
ATOM      9  O   UNL     1       4.208 -17.453  -6.400  1.00  0.00    -0.288 OA
ATOM     10  C   UNL     1       3.455 -17.583  -4.152  1.00  0.00     0.076 A 
ATOM     11  C   UNL     1       2.450 -18.100  -3.307  1.00  0.00     0.041 A 
ATOM     12  C   UNL     1       1.573 -19.191  -3.787  1.00  0.00     0.194 C 
ATOM     13  O   UNL     1       0.596 -19.567  -3.083  1.00  0.00    -0.289 OA
ATOM     14  C   UNL     1       2.285 -17.573  -2.014  1.00  0.00     0.059 A 
ATOM     15  C   UNL     1       3.111 -16.547  -1.555  1.00  0.00     0.120 A 
ATOM     16  C   UNL     1       4.114 -16.038  -2.385  1.00  0.00     0.093 A 
ATOM     17  C   UNL     1       4.293 -16.547  -3.677  1.00  0.00     0.131 A 
ENDROOT
BRANCH   6  18
ATOM     18  O   UNL     1       4.312 -19.803  -7.902  1.00  0.00    -0.507 OA
ATOM     19  H   UNL     1       4.837 -18.943  -7.837  1.00  0.00     0.293 HD
ENDBRANCH   6  18
BRANCH  17  20
ATOM     20  O   UNL     1       5.310 -16.029  -4.481  1.00  0.00    -0.507 OA
ATOM     21  H   UNL     1       6.044 -15.445  -4.100  1.00  0.00     0.293 HD
ENDBRANCH  17  20
BRANCH  15  22
ATOM     22  O   UNL     1       2.929 -16.042  -0.269  1.00  0.00    -0.508 OA
ATOM     23  H   UNL     1       2.869 -15.045  -0.094  1.00  0.00     0.293 HD
ENDBRANCH  15  22
TORSDOF 3
ENDMDL
MODEL 5
REMARK VINA RESULT:    -6.102     11.500     13.866
REMARK INTER + INTRA:          -6.637
REMARK INTER:                  -6.637
REMARK INTRA:                   0.000
REMARK UNBOUND:                 0.000
REMARK SMILES Cc1cc(O)c2c(c1)C(=O)c1cc(O)cc(O)c1C2=O
REMARK SMILES IDX 1 1 2 2 8 3 7 4 6 5 4 6 3 7 19 8 20 9 18 10 11 11 9 12 10 13
REMARK SMILES IDX 12 14 13 15 15 16 16 17 5 18 17 20 14 22
REMARK H PARENT 5 19 17 21 14 23
REMARK Flexibility Score: inf
ROOT
ATOM      1  C   UNL     1       6.259 -29.595   1.112  1.00  0.00     0.044 C 
ATOM      2  C   UNL     1       5.936 -28.697   2.270  1.00  0.00    -0.047 A 
ATOM      3  C   UNL     1       6.332 -27.357   2.255  1.00  0.00     0.016 A 
ATOM      4  C   UNL     1       6.076 -26.519   3.354  1.00  0.00     0.038 A 
ATOM      5  C   UNL     1       5.433 -27.038   4.503  1.00  0.00     0.076 A 
ATOM      6  C   UNL     1       4.980 -28.385   4.486  1.00  0.00     0.127 A 
ATOM      7  C   UNL     1       5.271 -29.204   3.390  1.00  0.00     0.050 A 
ATOM      8  C   UNL     1       5.320 -26.166   5.705  1.00  0.00     0.201 C 
ATOM      9  O   UNL     1       5.151 -26.677   6.844  1.00  0.00    -0.288 OA
ATOM     10  C   UNL     1       5.519 -24.698   5.584  1.00  0.00     0.076 A 
ATOM     11  C   UNL     1       6.103 -24.178   4.410  1.00  0.00     0.041 A 
ATOM     12  C   UNL     1       6.472 -25.090   3.304  1.00  0.00     0.194 C 
ATOM     13  O   UNL     1       7.107 -24.647   2.309  1.00  0.00    -0.289 OA
ATOM     14  C   UNL     1       6.334 -22.796   4.297  1.00  0.00     0.059 A 
ATOM     15  C   UNL     1       5.985 -21.931   5.334  1.00  0.00     0.120 A 
ATOM     16  C   UNL     1       5.398 -22.440   6.496  1.00  0.00     0.093 A 
ATOM     17  C   UNL     1       5.162 -23.814   6.630  1.00  0.00     0.131 A 
ENDROOT
BRANCH   6  18
ATOM     18  O   UNL     1       4.212 -28.942   5.511  1.00  0.00    -0.507 OA
ATOM     19  H   UNL     1       4.301 -29.898   5.824  1.00  0.00     0.293 HD
ENDBRANCH   6  18
BRANCH  17  20
ATOM     20  O   UNL     1       4.563 -24.294   7.795  1.00  0.00    -0.507 OA
ATOM     21  H   UNL     1       3.614 -24.648   7.801  1.00  0.00     0.293 HD
ENDBRANCH  17  20
BRANCH  15  22
ATOM     22  O   UNL     1       6.223 -20.565   5.198  1.00  0.00    -0.508 OA
ATOM     23  H   UNL     1       7.162 -20.184   5.233  1.00  0.00     0.293 HD
ENDBRANCH  15  22
TORSDOF 3
ENDMDL
MODEL 6
REMARK VINA RESULT:    -5.982      4.407      5.650
REMARK INTER + INTRA:          -6.507
REMARK INTER:                  -6.507
REMARK INTRA:                   0.000
REMARK UNBOUND:                 0.000
REMARK SMILES Cc1cc(O)c2c(c1)C(=O)c1cc(O)cc(O)c1C2=O
REMARK SMILES IDX 1 1 2 2 8 3 7 4 6 5 4 6 3 7 19 8 20 9 18 10 11 11 9 12 10 13
REMARK SMILES IDX 12 14 13 15 15 16 16 17 5 18 17 20 14 22
REMARK H PARENT 5 19 17 21 14 23
REMARK Flexibility Score: inf
ROOT
ATOM      1  C   UNL     1       0.498 -19.621  -3.729  1.00  0.00     0.044 C 
ATOM      2  C   UNL     1       1.979 -19.842  -3.830  1.00  0.00    -0.047 A 
ATOM      3  C   UNL     1       2.521 -20.475  -4.953  1.00  0.00     0.016 A 
ATOM      4  C   UNL     1       3.900 -20.730  -5.038  1.00  0.00     0.038 A 
ATOM      5  C   UNL     1       4.752 -20.368  -3.967  1.00  0.00     0.076 A 
ATOM      6  C   UNL     1       4.202 -19.671  -2.857  1.00  0.00     0.127 A 
ATOM      7  C   UNL     1       2.822 -19.454  -2.786  1.00  0.00     0.050 A 
ATOM      8  C   UNL     1       6.178 -20.794  -4.023  1.00  0.00     0.201 C 
ATOM      9  O   UNL     1       6.858 -20.873  -2.964  1.00  0.00    -0.288 OA
ATOM     10  C   UNL     1       6.776 -21.237  -5.309  1.00  0.00     0.076 A 
ATOM     11  C   UNL     1       5.926 -21.536  -6.394  1.00  0.00     0.041 A 
ATOM     12  C   UNL     1       4.462 -21.370  -6.252  1.00  0.00     0.194 C 
ATOM     13  O   UNL     1       3.693 -21.755  -7.174  1.00  0.00    -0.289 OA
ATOM     14  C   UNL     1       6.473 -21.994  -7.606  1.00  0.00     0.059 A 
ATOM     15  C   UNL     1       7.853 -22.149  -7.747  1.00  0.00     0.120 A 
ATOM     16  C   UNL     1       8.700 -21.846  -6.678  1.00  0.00     0.093 A 
ATOM     17  C   UNL     1       8.174 -21.391  -5.462  1.00  0.00     0.131 A 
ENDROOT
BRANCH   6  18
ATOM     18  O   UNL     1       4.983 -19.149  -1.824  1.00  0.00    -0.507 OA
ATOM     19  H   UNL     1       4.734 -18.326  -1.293  1.00  0.00     0.293 HD
ENDBRANCH   6  18
BRANCH  17  20
ATOM     20  O   UNL     1       9.044 -21.083  -4.414  1.00  0.00    -0.507 OA
ATOM     21  H   UNL     1       9.946 -20.654  -4.579  1.00  0.00     0.293 HD
ENDBRANCH  17  20
BRANCH  15  22
ATOM     22  O   UNL     1       8.372 -22.603  -8.958  1.00  0.00    -0.508 OA
ATOM     23  H   UNL     1       9.192 -23.199  -8.994  1.00  0.00     0.293 HD
ENDBRANCH  15  22
TORSDOF 3
ENDMDL
MODEL 7
REMARK VINA RESULT:    -5.981     11.762     13.463
REMARK INTER + INTRA:          -6.505
REMARK INTER:                  -6.505
REMARK INTRA:                   0.000
REMARK UNBOUND:                 0.000
REMARK SMILES Cc1cc(O)c2c(c1)C(=O)c1cc(O)cc(O)c1C2=O
REMARK SMILES IDX 1 1 2 2 8 3 7 4 6 5 4 6 3 7 19 8 20 9 18 10 11 11 9 12 10 13
REMARK SMILES IDX 12 14 13 15 15 16 16 17 5 18 17 20 14 22
REMARK H PARENT 5 19 17 21 14 23
REMARK Flexibility Score: inf
ROOT
ATOM      1  C   UNL     1       7.222 -26.751  -0.000  1.00  0.00     0.044 C 
ATOM      2  C   UNL     1       7.016 -25.976   1.268  1.00  0.00    -0.047 A 
ATOM      3  C   UNL     1       6.565 -26.621   2.423  1.00  0.00     0.016 A 
ATOM      4  C   UNL     1       6.324 -25.897   3.603  1.00  0.00     0.038 A 
ATOM      5  C   UNL     1       6.513 -24.494   3.622  1.00  0.00     0.076 A 
ATOM      6  C   UNL     1       7.030 -23.855   2.462  1.00  0.00     0.127 A 
ATOM      7  C   UNL     1       7.237 -24.596   1.293  1.00  0.00     0.050 A 
ATOM      8  C   UNL     1       6.099 -23.741   4.838  1.00  0.00     0.201 C 
ATOM      9  O   UNL     1       5.855 -22.507   4.766  1.00  0.00    -0.288 OA
ATOM     10  C   UNL     1       5.860 -24.459   6.117  1.00  0.00     0.076 A 
ATOM     11  C   UNL     1       5.735 -25.864   6.102  1.00  0.00     0.041 A 
ATOM     12  C   UNL     1       5.879 -26.604   4.829  1.00  0.00     0.194 C 
ATOM     13  O   UNL     1       5.644 -27.843   4.790  1.00  0.00    -0.289 OA
ATOM     14  C   UNL     1       5.470 -26.555   7.298  1.00  0.00     0.059 A 
ATOM     15  C   UNL     1       5.336 -25.864   8.502  1.00  0.00     0.120 A 
ATOM     16  C   UNL     1       5.468 -24.472   8.524  1.00  0.00     0.093 A 
ATOM     17  C   UNL     1       5.730 -23.765   7.343  1.00  0.00     0.131 A 
ENDROOT
BRANCH   6  18
ATOM     18  O   UNL     1       7.385 -22.505   2.431  1.00  0.00    -0.507 OA
ATOM     19  H   UNL     1       6.721 -21.748   2.512  1.00  0.00     0.293 HD
ENDBRANCH   6  18
BRANCH  17  20
ATOM     20  O   UNL     1       5.869 -22.377   7.394  1.00  0.00    -0.507 OA
ATOM     21  H   UNL     1       5.273 -21.761   6.856  1.00  0.00     0.293 HD
ENDBRANCH  17  20
BRANCH  15  22
ATOM     22  O   UNL     1       5.075 -26.570   9.674  1.00  0.00    -0.508 OA
ATOM     23  H   UNL     1       5.817 -26.829  10.315  1.00  0.00     0.293 HD
ENDBRANCH  15  22
TORSDOF 3
ENDMDL
MODEL 8
REMARK VINA RESULT:    -5.977     11.417     12.518
REMARK INTER + INTRA:          -6.501
REMARK INTER:                  -6.501
REMARK INTRA:                   0.000
REMARK UNBOUND:                 0.000
REMARK SMILES Cc1cc(O)c2c(c1)C(=O)c1cc(O)cc(O)c1C2=O
REMARK SMILES IDX 1 1 2 2 8 3 7 4 6 5 4 6 3 7 19 8 20 9 18 10 11 11 9 12 10 13
REMARK SMILES IDX 12 14 13 15 15 16 16 17 5 18 17 20 14 22
REMARK H PARENT 5 19 17 21 14 23
REMARK Flexibility Score: inf
ROOT
ATOM      1  C   UNL     1       4.551 -26.168   9.172  1.00  0.00     0.044 C 
ATOM      2  C   UNL     1       5.058 -25.481   7.938  1.00  0.00    -0.047 A 
ATOM      3  C   UNL     1       5.270 -26.210   6.764  1.00  0.00     0.016 A 
ATOM      4  C   UNL     1       5.788 -25.588   5.615  1.00  0.00     0.038 A 
ATOM      5  C   UNL     1       6.127 -24.214   5.649  1.00  0.00     0.076 A 
ATOM      6  C   UNL     1       5.851 -23.467   6.826  1.00  0.00     0.127 A 
ATOM      7  C   UNL     1       5.359 -24.117   7.963  1.00  0.00     0.050 A 
ATOM      8  C   UNL     1       6.818 -23.626   4.467  1.00  0.00     0.201 C 
ATOM      9  O   UNL     1       7.495 -22.571   4.590  1.00  0.00    -0.288 OA
ATOM     10  C   UNL     1       6.808 -24.341   3.164  1.00  0.00     0.076 A 
ATOM     11  C   UNL     1       6.410 -25.694   3.126  1.00  0.00     0.041 A 
ATOM     12  C   UNL     1       5.972 -26.369   4.368  1.00  0.00     0.194 C 
ATOM     13  O   UNL     1       5.737 -27.608   4.361  1.00  0.00    -0.289 OA
ATOM     14  C   UNL     1       6.432 -26.395   1.907  1.00  0.00     0.059 A 
ATOM     15  C   UNL     1       6.839 -25.763   0.732  1.00  0.00     0.120 A 
ATOM     16  C   UNL     1       7.227 -24.420   0.764  1.00  0.00     0.093 A 
ATOM     17  C   UNL     1       7.214 -23.704   1.968  1.00  0.00     0.131 A 
ENDROOT
BRANCH   6  18
ATOM     18  O   UNL     1       6.015 -22.082   6.906  1.00  0.00    -0.507 OA
ATOM     19  H   UNL     1       6.868 -21.635   7.211  1.00  0.00     0.293 HD
ENDBRANCH   6  18
BRANCH  17  20
ATOM     20  O   UNL     1       7.594 -22.361   1.968  1.00  0.00    -0.507 OA
ATOM     21  H   UNL     1       7.372 -21.745   2.741  1.00  0.00     0.293 HD
ENDBRANCH  17  20
BRANCH  15  22
ATOM     22  O   UNL     1       6.852 -26.478  -0.463  1.00  0.00    -0.508 OA
ATOM     23  H   UNL     1       7.554 -27.186  -0.650  1.00  0.00     0.293 HD
ENDBRANCH  15  22
TORSDOF 3
ENDMDL
MODEL 9
REMARK VINA RESULT:    -5.906     12.215     13.738
REMARK INTER + INTRA:          -6.424
REMARK INTER:                  -6.424
REMARK INTRA:                   0.000
REMARK UNBOUND:                 0.000
REMARK SMILES Cc1cc(O)c2c(c1)C(=O)c1cc(O)cc(O)c1C2=O
REMARK SMILES IDX 1 1 2 2 8 3 7 4 6 5 4 6 3 7 19 8 20 9 18 10 11 11 9 12 10 13
REMARK SMILES IDX 12 14 13 15 15 16 16 17 5 18 17 20 14 22
REMARK H PARENT 5 19 17 21 14 23
REMARK Flexibility Score: inf
ROOT
ATOM      1  C   UNL     1       2.205 -27.894   9.283  1.00  0.00     0.044 C 
ATOM      2  C   UNL     1       3.172 -27.025   8.533  1.00  0.00    -0.047 A 
ATOM      3  C   UNL     1       3.232 -27.081   7.137  1.00  0.00     0.016 A 
ATOM      4  C   UNL     1       4.165 -26.307   6.426  1.00  0.00     0.038 A 
ATOM      5  C   UNL     1       5.075 -25.479   7.127  1.00  0.00     0.076 A 
ATOM      6  C   UNL     1       4.966 -25.382   8.541  1.00  0.00     0.127 A 
ATOM      7  C   UNL     1       4.046 -26.183   9.225  1.00  0.00     0.050 A 
ATOM      8  C   UNL     1       6.149 -24.796   6.354  1.00  0.00     0.201 C 
ATOM      9  O   UNL     1       7.197 -24.405   6.935  1.00  0.00    -0.288 OA
ATOM     10  C   UNL     1       6.044 -24.674   4.876  1.00  0.00     0.076 A 
ATOM     11  C   UNL     1       5.092 -25.455   4.188  1.00  0.00     0.041 A 
ATOM     12  C   UNL     1       4.190 -26.353   4.944  1.00  0.00     0.194 C 
ATOM     13  O   UNL     1       3.426 -27.144   4.326  1.00  0.00    -0.289 OA
ATOM     14  C   UNL     1       5.006 -25.380   2.787  1.00  0.00     0.059 A 
ATOM     15  C   UNL     1       5.851 -24.533   2.069  1.00  0.00     0.120 A 
ATOM     16  C   UNL     1       6.790 -23.750   2.747  1.00  0.00     0.093 A 
ATOM     17  C   UNL     1       6.893 -23.812   4.143  1.00  0.00     0.131 A 
ENDROOT
BRANCH   6  18
ATOM     18  O   UNL     1       5.720 -24.486   9.302  1.00  0.00    -0.507 OA
ATOM     19  H   UNL     1       6.226 -24.746  10.137  1.00  0.00     0.293 HD
ENDBRANCH   6  18
BRANCH  17  20
ATOM     20  O   UNL     1       7.831 -23.011   4.795  1.00  0.00    -0.507 OA
ATOM     21  H   UNL     1       8.659 -22.668   4.323  1.00  0.00     0.293 HD
ENDBRANCH  17  20
BRANCH  15  22
ATOM     22  O   UNL     1       5.747 -24.474   0.681  1.00  0.00    -0.508 OA
ATOM     23  H   UNL     1       6.035 -25.249   0.094  1.00  0.00     0.293 HD
ENDBRANCH  15  22
TORSDOF 3
ENDMDL
