MODEL 1
REMARK VINA RESULT:    -4.819      0.000      0.000
REMARK INTER + INTRA:          -5.487
REMARK INTER:                  -5.101
REMARK INTRA:                  -0.387
REMARK UNBOUND:                -0.387
REMARK SMILES CC1=CC[C@@]23[C@@H]([C@@H]12)[C@H](C(C)C)CC[C@H]3C
REMARK SMILES IDX 15 1 14 2 13 3 12 4 8 5 6 6 5 7 7 8 2 9 3 10 4 11 1 12 9 13
REMARK SMILES IDX 10 14 11 15
REMARK H PARENT
REMARK Flexibility Score: inf
ROOT
ATOM      1  C   UNL     1      24.780  65.085  13.633  1.00  0.00     0.008 C 
ATOM      2  C   UNL     1      23.540  64.274  13.218  1.00  0.00    -0.007 C 
ATOM      3  C   UNL     1      22.253  65.111  13.243  1.00  0.00     0.004 C 
ATOM      4  C   UNL     1      21.659  65.247  14.647  1.00  0.00     0.004 C 
ATOM      5  C   UNL     1      21.267  63.893  15.296  1.00  0.00    -0.004 C 
ATOM      6  C   UNL     1      22.214  62.717  14.938  1.00  0.00     0.007 C 
ATOM      7  C   UNL     1      23.401  62.936  13.986  1.00  0.00    -0.013 C 
ATOM      8  C   UNL     1      23.621  62.927  15.500  1.00  0.00     0.025 C 
ATOM      9  C   UNL     1      24.422  61.693  15.744  1.00  0.00    -0.073 C 
ATOM     10  C   UNL     1      24.689  61.025  14.630  1.00  0.00    -0.027 C 
ATOM     11  C   UNL     1      24.098  61.683  13.432  1.00  0.00     0.035 C 
ATOM     12  C   UNL     1      24.867  61.247  17.102  1.00  0.00     0.039 C 
ENDROOT
BRANCH   5  13
ATOM     13  C   UNL     1      19.758  63.539  15.091  1.00  0.00    -0.014 C 
ATOM     14  C   UNL     1      18.838  64.768  15.014  1.00  0.00     0.007 C 
ATOM     15  C   UNL     1      19.544  62.636  13.863  1.00  0.00     0.007 C 
ENDBRANCH   5  13
TORSDOF 1
ENDMDL
MODEL 2
REMARK VINA RESULT:    -4.724      1.656      5.011
REMARK INTER + INTRA:          -5.387
REMARK INTER:                  -5.128
REMARK INTRA:                  -0.259
REMARK UNBOUND:                -0.387
REMARK SMILES CC1=CC[C@@]23[C@@H]([C@@H]12)[C@H](C(C)C)CC[C@H]3C
REMARK SMILES IDX 15 1 14 2 13 3 12 4 8 5 6 6 5 7 7 8 2 9 3 10 4 11 1 12 9 13
REMARK SMILES IDX 10 14 11 15
REMARK H PARENT
REMARK Flexibility Score: inf
ROOT
ATOM      1  C   UNL     1      19.235  64.893  17.205  1.00  0.00     0.008 C 
ATOM      2  C   UNL     1      19.879  63.505  17.051  1.00  0.00    -0.007 C 
ATOM      3  C   UNL     1      20.760  63.127  18.252  1.00  0.00     0.004 C 
ATOM      4  C   UNL     1      22.156  63.751  18.187  1.00  0.00     0.004 C 
ATOM      5  C   UNL     1      22.976  63.324  16.941  1.00  0.00    -0.004 C 
ATOM      6  C   UNL     1      22.127  63.125  15.656  1.00  0.00     0.007 C 
ATOM      7  C   UNL     1      20.602  63.315  15.694  1.00  0.00    -0.013 C 
ATOM      8  C   UNL     1      21.505  64.436  15.175  1.00  0.00     0.025 C 
ATOM      9  C   UNL     1      21.185  64.516  13.721  1.00  0.00    -0.073 C 
ATOM     10  C   UNL     1      20.259  63.642  13.349  1.00  0.00    -0.027 C 
ATOM     11  C   UNL     1      19.800  62.801  14.489  1.00  0.00     0.035 C 
ATOM     12  C   UNL     1      21.846  65.472  12.777  1.00  0.00     0.039 C 
ENDROOT
BRANCH   5  13
ATOM     13  C   UNL     1      23.929  62.120  17.228  1.00  0.00    -0.014 C 
ATOM     14  C   UNL     1      24.423  61.404  15.960  1.00  0.00     0.007 C 
ATOM     15  C   UNL     1      25.125  62.531  18.105  1.00  0.00     0.007 C 
ENDBRANCH   5  13
TORSDOF 1
ENDMDL
MODEL 3
REMARK VINA RESULT:    -4.707      1.337      4.792
REMARK INTER + INTRA:          -5.368
REMARK INTER:                  -5.209
REMARK INTRA:                  -0.159
REMARK UNBOUND:                -0.387
REMARK SMILES CC1=CC[C@@]23[C@@H]([C@@H]12)[C@H](C(C)C)CC[C@H]3C
REMARK SMILES IDX 15 1 14 2 13 3 12 4 8 5 6 6 5 7 7 8 2 9 3 10 4 11 1 12 9 13
REMARK SMILES IDX 10 14 11 15
REMARK H PARENT
REMARK Flexibility Score: inf
ROOT
ATOM      1  C   UNL     1      21.344  64.742  17.256  1.00  0.00     0.008 C 
ATOM      2  C   UNL     1      21.631  63.323  16.736  1.00  0.00    -0.007 C 
ATOM      3  C   UNL     1      22.990  62.785  17.210  1.00  0.00     0.004 C 
ATOM      4  C   UNL     1      24.160  63.301  16.369  1.00  0.00     0.004 C 
ATOM      5  C   UNL     1      24.076  62.907  14.870  1.00  0.00    -0.004 C 
ATOM      6  C   UNL     1      22.633  62.874  14.299  1.00  0.00     0.007 C 
ATOM      7  C   UNL     1      21.430  63.182  15.207  1.00  0.00    -0.013 C 
ATOM      8  C   UNL     1      21.994  64.264  14.285  1.00  0.00     0.025 C 
ATOM      9  C   UNL     1      20.917  64.481  13.277  1.00  0.00    -0.073 C 
ATOM     10  C   UNL     1      19.855  63.714  13.486  1.00  0.00    -0.027 C 
ATOM     11  C   UNL     1      20.035  62.826  14.669  1.00  0.00     0.035 C 
ATOM     12  C   UNL     1      21.024  65.450  12.141  1.00  0.00     0.039 C 
ENDROOT
BRANCH   5  13
ATOM     13  C   UNL     1      24.886  61.612  14.539  1.00  0.00    -0.014 C 
ATOM     14  C   UNL     1      25.053  60.663  15.737  1.00  0.00     0.007 C 
ATOM     15  C   UNL     1      24.290  60.854  13.340  1.00  0.00     0.007 C 
ENDBRANCH   5  13
TORSDOF 1
ENDMDL
MODEL 4
REMARK VINA RESULT:    -4.705      2.589      4.568
REMARK INTER + INTRA:          -5.366
REMARK INTER:                  -5.095
REMARK INTRA:                  -0.271
REMARK UNBOUND:                -0.387
REMARK SMILES CC1=CC[C@@]23[C@@H]([C@@H]12)[C@H](C(C)C)CC[C@H]3C
REMARK SMILES IDX 15 1 14 2 13 3 12 4 8 5 6 6 5 7 7 8 2 9 3 10 4 11 1 12 9 13
REMARK SMILES IDX 10 14 11 15
REMARK H PARENT
REMARK Flexibility Score: inf
ROOT
ATOM      1  C   UNL     1      21.653  63.532  14.820  1.00  0.00     0.008 C 
ATOM      2  C   UNL     1      20.271  63.154  15.380  1.00  0.00    -0.007 C 
ATOM      3  C   UNL     1      19.125  63.535  14.430  1.00  0.00     0.004 C 
ATOM      4  C   UNL     1      18.733  65.011  14.531  1.00  0.00     0.004 C 
ATOM      5  C   UNL     1      18.238  65.432  15.941  1.00  0.00    -0.004 C 
ATOM      6  C   UNL     1      18.960  64.712  17.111  1.00  0.00     0.007 C 
ATOM      7  C   UNL     1      20.041  63.656  16.827  1.00  0.00    -0.013 C 
ATOM      8  C   UNL     1      20.441  65.088  17.184  1.00  0.00     0.025 C 
ATOM      9  C   UNL     1      21.085  64.963  18.523  1.00  0.00    -0.073 C 
ATOM     10  C   UNL     1      21.117  63.712  18.963  1.00  0.00    -0.027 C 
ATOM     11  C   UNL     1      20.482  62.769  18.001  1.00  0.00     0.035 C 
ATOM     12  C   UNL     1      21.626  66.125  19.297  1.00  0.00     0.039 C 
ENDROOT
BRANCH   5  13
ATOM     13  C   UNL     1      16.681  65.387  16.073  1.00  0.00    -0.014 C 
ATOM     14  C   UNL     1      15.971  64.809  14.839  1.00  0.00     0.007 C 
ATOM     15  C   UNL     1      16.235  64.639  17.342  1.00  0.00     0.007 C 
ENDBRANCH   5  13
TORSDOF 1
ENDMDL
MODEL 5
REMARK VINA RESULT:    -4.650      1.093      4.371
REMARK INTER + INTRA:          -5.309
REMARK INTER:                  -4.984
REMARK INTRA:                  -0.325
REMARK UNBOUND:                -0.387
REMARK SMILES CC1=CC[C@@]23[C@@H]([C@@H]12)[C@H](C(C)C)CC[C@H]3C
REMARK SMILES IDX 15 1 14 2 13 3 12 4 8 5 6 6 5 7 7 8 2 9 3 10 4 11 1 12 9 13
REMARK SMILES IDX 10 14 11 15
REMARK H PARENT
REMARK Flexibility Score: inf
ROOT
ATOM      1  C   UNL     1      22.894  66.067  13.324  1.00  0.00     0.008 C 
ATOM      2  C   UNL     1      23.561  65.175  14.385  1.00  0.00    -0.007 C 
ATOM      3  C   UNL     1      24.914  64.618  13.920  1.00  0.00     0.004 C 
ATOM      4  C   UNL     1      24.774  63.390  13.017  1.00  0.00     0.004 C 
ATOM      5  C   UNL     1      24.060  62.190  13.695  1.00  0.00    -0.004 C 
ATOM      6  C   UNL     1      22.929  62.595  14.679  1.00  0.00     0.007 C 
ATOM      7  C   UNL     1      22.618  64.078  14.940  1.00  0.00    -0.013 C 
ATOM      8  C   UNL     1      21.764  63.274  13.958  1.00  0.00     0.025 C 
ATOM      9  C   UNL     1      20.434  63.179  14.627  1.00  0.00    -0.073 C 
ATOM     10  C   UNL     1      20.403  63.797  15.800  1.00  0.00    -0.027 C 
ATOM     11  C   UNL     1      21.719  64.407  16.141  1.00  0.00     0.035 C 
ATOM     12  C   UNL     1      19.261  62.454  14.044  1.00  0.00     0.039 C 
ENDROOT
BRANCH   5  13
ATOM     13  C   UNL     1      25.062  61.164  14.316  1.00  0.00    -0.014 C 
ATOM     14  C   UNL     1      24.868  60.944  15.825  1.00  0.00     0.007 C 
ATOM     15  C   UNL     1      25.033  59.815  13.575  1.00  0.00     0.007 C 
ENDBRANCH   5  13
TORSDOF 1
ENDMDL
MODEL 6
REMARK VINA RESULT:    -4.637      1.858      4.193
REMARK INTER + INTRA:          -5.295
REMARK INTER:                  -4.953
REMARK INTRA:                  -0.341
REMARK UNBOUND:                -0.387
REMARK SMILES CC1=CC[C@@]23[C@@H]([C@@H]12)[C@H](C(C)C)CC[C@H]3C
REMARK SMILES IDX 15 1 14 2 13 3 12 4 8 5 6 6 5 7 7 8 2 9 3 10 4 11 1 12 9 13
REMARK SMILES IDX 10 14 11 15
REMARK H PARENT
REMARK Flexibility Score: inf
ROOT
ATOM      1  C   UNL     1      24.120  61.524  13.498  1.00  0.00     0.008 C 
ATOM      2  C   UNL     1      24.227  62.770  14.393  1.00  0.00    -0.007 C 
ATOM      3  C   UNL     1      24.906  62.474  15.738  1.00  0.00     0.004 C 
ATOM      4  C   UNL     1      23.953  61.854  16.763  1.00  0.00     0.004 C 
ATOM      5  C   UNL     1      22.742  62.756  17.119  1.00  0.00    -0.004 C 
ATOM      6  C   UNL     1      22.204  63.599  15.931  1.00  0.00     0.007 C 
ATOM      7  C   UNL     1      22.883  63.524  14.553  1.00  0.00    -0.013 C 
ATOM      8  C   UNL     1      21.613  62.717  14.829  1.00  0.00     0.025 C 
ATOM      9  C   UNL     1      20.581  63.355  13.961  1.00  0.00    -0.073 C 
ATOM     10  C   UNL     1      21.062  64.366  13.249  1.00  0.00    -0.027 C 
ATOM     11  C   UNL     1      22.506  64.602  13.525  1.00  0.00     0.035 C 
ATOM     12  C   UNL     1      19.152  62.912  13.907  1.00  0.00     0.039 C 
ENDROOT
BRANCH   5  13
ATOM     13  C   UNL     1      22.982  63.611  18.405  1.00  0.00    -0.014 C 
ATOM     14  C   UNL     1      23.260  65.096  18.119  1.00  0.00     0.007 C 
ATOM     15  C   UNL     1      21.825  63.471  19.410  1.00  0.00     0.007 C 
ENDBRANCH   5  13
TORSDOF 1
ENDMDL
MODEL 7
REMARK VINA RESULT:    -4.562      2.489      3.799
REMARK INTER + INTRA:          -5.215
REMARK INTER:                  -4.872
REMARK INTRA:                  -0.343
REMARK UNBOUND:                -0.387
REMARK SMILES CC1=CC[C@@]23[C@@H]([C@@H]12)[C@H](C(C)C)CC[C@H]3C
REMARK SMILES IDX 15 1 14 2 13 3 12 4 8 5 6 6 5 7 7 8 2 9 3 10 4 11 1 12 9 13
REMARK SMILES IDX 10 14 11 15
REMARK H PARENT
REMARK Flexibility Score: inf
ROOT
ATOM      1  C   UNL     1      22.176  63.515  20.366  1.00  0.00     0.008 C 
ATOM      2  C   UNL     1      21.995  64.393  19.116  1.00  0.00    -0.007 C 
ATOM      3  C   UNL     1      20.518  64.596  18.746  1.00  0.00     0.004 C 
ATOM      4  C   UNL     1      19.931  63.415  17.969  1.00  0.00     0.004 C 
ATOM      5  C   UNL     1      20.645  63.136  16.619  1.00  0.00    -0.004 C 
ATOM      6  C   UNL     1      22.174  63.400  16.641  1.00  0.00     0.007 C 
ATOM      7  C   UNL     1      22.856  63.927  17.915  1.00  0.00    -0.013 C 
ATOM      8  C   UNL     1      22.906  62.436  17.576  1.00  0.00     0.025 C 
ATOM      9  C   UNL     1      24.342  62.183  17.265  1.00  0.00    -0.073 C 
ATOM     10  C   UNL     1      25.093  63.270  17.380  1.00  0.00    -0.027 C 
ATOM     11  C   UNL     1      24.290  64.460  17.775  1.00  0.00     0.035 C 
ATOM     12  C   UNL     1      24.879  60.847  16.853  1.00  0.00     0.039 C 
ENDROOT
BRANCH   5  13
ATOM     13  C   UNL     1      19.931  63.816  15.406  1.00  0.00    -0.014 C 
ATOM     14  C   UNL     1      20.623  65.101  14.923  1.00  0.00     0.007 C 
ATOM     15  C   UNL     1      19.743  62.840  14.231  1.00  0.00     0.007 C 
ENDBRANCH   5  13
TORSDOF 1
ENDMDL
MODEL 8
REMARK VINA RESULT:    -4.471      2.534      5.039
REMARK INTER + INTRA:          -5.119
REMARK INTER:                  -4.877
REMARK INTRA:                  -0.242
REMARK UNBOUND:                -0.387
REMARK SMILES CC1=CC[C@@]23[C@@H]([C@@H]12)[C@H](C(C)C)CC[C@H]3C
REMARK SMILES IDX 15 1 14 2 13 3 12 4 8 5 6 6 5 7 7 8 2 9 3 10 4 11 1 12 9 13
REMARK SMILES IDX 10 14 11 15
REMARK H PARENT
REMARK Flexibility Score: inf
ROOT
ATOM      1  C   UNL     1      17.664  66.040  14.888  1.00  0.00     0.008 C 
ATOM      2  C   UNL     1      17.943  64.753  15.683  1.00  0.00    -0.007 C 
ATOM      3  C   UNL     1      17.878  64.972  17.202  1.00  0.00     0.004 C 
ATOM      4  C   UNL     1      19.166  65.571  17.773  1.00  0.00     0.004 C 
ATOM      5  C   UNL     1      20.421  64.686  17.551  1.00  0.00    -0.004 C 
ATOM      6  C   UNL     1      20.426  63.911  16.206  1.00  0.00     0.007 C 
ATOM      7  C   UNL     1      19.238  64.029  15.236  1.00  0.00    -0.013 C 
ATOM      8  C   UNL     1      20.504  64.856  15.005  1.00  0.00     0.025 C 
ATOM      9  C   UNL     1      21.089  64.285  13.758  1.00  0.00    -0.073 C 
ATOM     10  C   UNL     1      20.363  63.294  13.257  1.00  0.00    -0.027 C 
ATOM     11  C   UNL     1      19.163  63.007  14.091  1.00  0.00     0.035 C 
ATOM     12  C   UNL     1      22.365  64.767  13.142  1.00  0.00     0.039 C 
ENDROOT
BRANCH   5  13
ATOM     13  C   UNL     1      20.739  63.769  18.777  1.00  0.00    -0.014 C 
ATOM     14  C   UNL     1      21.878  62.769  18.523  1.00  0.00     0.007 C 
ATOM     15  C   UNL     1      21.025  64.590  20.047  1.00  0.00     0.007 C 
ENDBRANCH   5  13
TORSDOF 1
ENDMDL
MODEL 9
REMARK VINA RESULT:    -4.361      2.140      3.384
REMARK INTER + INTRA:          -5.002
REMARK INTER:                  -4.770
REMARK INTRA:                  -0.233
REMARK UNBOUND:                -0.387
REMARK SMILES CC1=CC[C@@]23[C@@H]([C@@H]12)[C@H](C(C)C)CC[C@H]3C
REMARK SMILES IDX 15 1 14 2 13 3 12 4 8 5 6 6 5 7 7 8 2 9 3 10 4 11 1 12 9 13
REMARK SMILES IDX 10 14 11 15
REMARK H PARENT
REMARK Flexibility Score: inf
ROOT
ATOM      1  C   UNL     1      24.813  63.442  15.715  1.00  0.00     0.008 C 
ATOM      2  C   UNL     1      23.457  62.723  15.608  1.00  0.00    -0.007 C 
ATOM      3  C   UNL     1      22.877  62.766  14.187  1.00  0.00     0.004 C 
ATOM      4  C   UNL     1      22.170  64.087  13.871  1.00  0.00     0.004 C 
ATOM      5  C   UNL     1      20.966  64.392  14.802  1.00  0.00    -0.004 C 
ATOM      6  C   UNL     1      21.157  63.915  16.267  1.00  0.00     0.007 C 
ATOM      7  C   UNL     1      22.440  63.177  16.685  1.00  0.00    -0.013 C 
ATOM      8  C   UNL     1      22.284  64.672  16.971  1.00  0.00     0.025 C 
ATOM      9  C   UNL     1      22.195  64.750  18.457  1.00  0.00    -0.073 C 
ATOM     10  C   UNL     1      22.281  63.563  19.041  1.00  0.00    -0.027 C 
ATOM     11  C   UNL     1      22.428  62.464  18.046  1.00  0.00     0.035 C 
ATOM     12  C   UNL     1      22.013  66.031  19.212  1.00  0.00     0.039 C 
ENDROOT
BRANCH   5  13
ATOM     13  C   UNL     1      19.601  63.939  14.192  1.00  0.00    -0.014 C 
ATOM     14  C   UNL     1      19.461  62.414  14.052  1.00  0.00     0.007 C 
ATOM     15  C   UNL     1      18.405  64.512  14.974  1.00  0.00     0.007 C 
ENDBRANCH   5  13
TORSDOF 1
ENDMDL
