MODEL 1
REMARK VINA RESULT:    93.481      0.000      0.000
REMARK INTER + INTRA:          96.214
REMARK INTER:                  96.214
REMARK INTRA:                   0.000
REMARK UNBOUND:                 0.000
REMARK SMILES CC1(C)CC[C@@]2(C)CC[C@@]3(C)C(=CC[C@H]4[C@@]5(C)CC[C@@H](O)C(C)(C)[C@H]5CC[C@@]43C)[C@H]2C1
REMARK SMILES IDX 1 1 2 2 4 3 5 4 6 5 8 6 9 7 10 8 12 9 13 10 14 11 15 12
REMARK SMILES IDX 28 13 27 14 26 15 25 16 16 17 18 18 19 19 20 20 22 21 23 22
REMARK SMILES IDX 24 23 17 24 29 25 30 26 31 27 11 28 7 29 3 30 21 31
REMARK H PARENT 21 32
REMARK Flexibility Score: inf
ROOT
ATOM      1  C   UNL     1     -30.051  26.295   5.150  1.00  0.00     0.011 C 
ATOM      2  C   UNL     1     -30.844  27.131   6.182  1.00  0.00    -0.035 C 
ATOM      3  C   UNL     1     -30.296  26.876   7.627  1.00  0.00     0.007 C 
ATOM      4  C   UNL     1     -31.359  26.370   8.619  1.00  0.00     0.008 C 
ATOM      5  C   UNL     1     -32.142  25.133   8.089  1.00  0.00    -0.026 C 
ATOM      6  C   UNL     1     -33.223  24.716   9.120  1.00  0.00     0.008 C 
ATOM      7  C   UNL     1     -34.458  25.621   9.120  1.00  0.00     0.012 C 
ATOM      8  C   UNL     1     -35.238  25.664   7.754  1.00  0.00    -0.006 C 
ATOM      9  C   UNL     1     -34.296  25.263   6.598  1.00  0.00    -0.064 C 
ATOM     10  C   UNL     1     -34.806  24.829   5.422  1.00  0.00    -0.027 C 
ATOM     11  C   UNL     1     -36.218  24.356   5.213  1.00  0.00     0.032 C 
ATOM     12  C   UNL     1     -37.228  24.773   6.325  1.00  0.00     0.006 C 
ATOM     13  C   UNL     1     -36.546  24.703   7.748  1.00  0.00    -0.020 C 
ATOM     14  C   UNL     1     -37.606  25.150   8.795  1.00  0.00     0.008 C 
ATOM     15  C   UNL     1     -38.901  24.343   8.732  1.00  0.00     0.005 C 
ATOM     16  C   UNL     1     -39.640  24.505   7.375  1.00  0.00     0.003 C 
ATOM     17  C   UNL     1     -38.692  24.129   6.149  1.00  0.00    -0.025 C 
ATOM     18  C   UNL     1     -38.635  22.573   5.902  1.00  0.00     0.010 C 
ATOM     19  C   UNL     1     -39.721  21.756   6.612  1.00  0.00     0.033 C 
ATOM     20  C   UNL     1     -41.085  22.454   6.548  1.00  0.00     0.120 C 
ATOM     21  C   UNL     1     -41.094  23.805   7.357  1.00  0.00    -0.006 C 
ATOM     22  C   UNL     1     -41.645  23.552   8.793  1.00  0.00     0.014 C 
ATOM     23  C   UNL     1     -42.124  24.761   6.699  1.00  0.00     0.014 C 
ATOM     24  C   UNL     1     -39.310  24.781   4.864  1.00  0.00     0.012 C 
ATOM     25  C   UNL     1     -36.100  23.251   8.102  1.00  0.00     0.012 C 
ATOM     26  C   UNL     1     -32.769  25.433   6.672  1.00  0.00     0.022 C 
ATOM     27  C   UNL     1     -32.361  26.805   6.069  1.00  0.00     0.015 C 
ATOM     28  C   UNL     1     -35.610  27.164   7.512  1.00  0.00     0.017 C 
ATOM     29  C   UNL     1     -31.160  23.929   7.998  1.00  0.00     0.012 C 
ATOM     30  C   UNL     1     -30.648  28.621   5.819  1.00  0.00     0.011 C 
ENDROOT
BRANCH  20  31
ATOM     31  O   UNL     1     -42.123  21.579   6.942  1.00  0.00    -0.393 OA
ATOM     32  H   UNL     1     -42.996  21.980   6.682  1.00  0.00     0.210 HD
ENDBRANCH  20  31
TORSDOF 1
ENDMDL
