MODEL 1
REMARK VINA RESULT:    -2.129      0.000      0.000
REMARK INTER + INTRA:          -2.316
REMARK INTER:                  -2.316
REMARK INTRA:                   0.000
REMARK UNBOUND:                 0.000
REMARK SMILES [NH3+]CC(=O)[O-]
REMARK SMILES IDX 2 1 1 2 3 6 4 7 5 8
REMARK H PARENT 1 3 1 4 1 5
REMARK Flexibility Score: inf
ROOT
ATOM      1  C   UNL     1      24.291  46.065  42.664  1.00  0.00     0.312 C 
ENDROOT
BRANCH   1   2
ATOM      2  N   UNL     1      25.570  46.125  43.371  1.00  0.00    -0.353 N 
ATOM      3  H   UNL     1      25.389  46.180  44.399  1.00  0.00     0.344 HD
ATOM      4  H   UNL     1      26.130  45.264  43.171  1.00  0.00     0.344 HD
ATOM      5  H   UNL     1      26.105  46.973  43.074  1.00  0.00     0.344 HD
ENDBRANCH   1   2
BRANCH   1   6
ATOM      6  C   UNL     1      24.342  45.051  41.564  1.00  0.00     0.096 C 
ATOM      7  O   UNL     1      24.103  45.392  40.376  1.00  0.00    -0.544 OA
ATOM      8  O   UNL     1      24.602  43.718  41.858  1.00  0.00    -0.544 OA
ENDBRANCH   1   6
TORSDOF 2
ENDMDL
MODEL 2
REMARK VINA RESULT:    -2.111      2.648      2.660
REMARK INTER + INTRA:          -2.296
REMARK INTER:                  -2.296
REMARK INTRA:                   0.000
REMARK UNBOUND:                 0.000
REMARK SMILES [NH3+]CC(=O)[O-]
REMARK SMILES IDX 2 1 1 2 3 6 4 7 5 8
REMARK H PARENT 1 3 1 4 1 5
REMARK Flexibility Score: inf
ROOT
ATOM      1  C   UNL     1      24.913  43.532  41.595  1.00  0.00     0.312 C 
ENDROOT
BRANCH   1   2
ATOM      2  N   UNL     1      25.513  42.377  40.928  1.00  0.00    -0.353 N 
ATOM      3  H   UNL     1      25.321  42.437  39.903  1.00  0.00     0.344 HD
ATOM      4  H   UNL     1      26.549  42.376  41.079  1.00  0.00     0.344 HD
ATOM      5  H   UNL     1      25.099  41.492  41.301  1.00  0.00     0.344 HD
ENDBRANCH   1   2
BRANCH   1   6
ATOM      6  C   UNL     1      23.817  44.115  40.757  1.00  0.00     0.096 C 
ATOM      7  O   UNL     1      23.995  45.204  40.151  1.00  0.00    -0.544 OA
ATOM      8  O   UNL     1      22.582  43.482  40.688  1.00  0.00    -0.544 OA
ENDBRANCH   1   6
TORSDOF 2
ENDMDL
MODEL 3
REMARK VINA RESULT:    -2.101      2.539      2.801
REMARK INTER + INTRA:          -2.285
REMARK INTER:                  -2.285
REMARK INTRA:                   0.000
REMARK UNBOUND:                 0.000
REMARK SMILES [NH3+]CC(=O)[O-]
REMARK SMILES IDX 2 1 1 2 3 6 4 7 5 8
REMARK H PARENT 1 3 1 4 1 5
REMARK Flexibility Score: inf
ROOT
ATOM      1  C   UNL     1      24.945  43.517  41.775  1.00  0.00     0.312 C 
ENDROOT
BRANCH   1   2
ATOM      2  N   UNL     1      25.581  42.398  41.081  1.00  0.00    -0.353 N 
ATOM      3  H   UNL     1      24.960  42.083  40.302  1.00  0.00     0.344 HD
ATOM      4  H   UNL     1      26.499  42.699  40.682  1.00  0.00     0.344 HD
ATOM      5  H   UNL     1      25.726  41.601  41.743  1.00  0.00     0.344 HD
ENDBRANCH   1   2
BRANCH   1   6
ATOM      6  C   UNL     1      23.859  44.112  40.933  1.00  0.00     0.096 C 
ATOM      7  O   UNL     1      22.762  43.510  40.798  1.00  0.00    -0.544 OA
ATOM      8  O   UNL     1      24.079  45.305  40.256  1.00  0.00    -0.544 OA
ENDBRANCH   1   6
TORSDOF 2
ENDMDL
MODEL 4
REMARK VINA RESULT:    -2.081      3.457      3.931
REMARK INTER + INTRA:          -2.263
REMARK INTER:                  -2.263
REMARK INTRA:                   0.000
REMARK UNBOUND:                 0.000
REMARK SMILES [NH3+]CC(=O)[O-]
REMARK SMILES IDX 2 1 1 2 3 6 4 7 5 8
REMARK H PARENT 1 3 1 4 1 5
REMARK Flexibility Score: inf
ROOT
ATOM      1  C   UNL     1      23.753  42.619  38.989  1.00  0.00     0.312 C 
ENDROOT
BRANCH   1   2
ATOM      2  N   UNL     1      24.905  42.001  39.645  1.00  0.00    -0.353 N 
ATOM      3  H   UNL     1      24.600  41.593  40.557  1.00  0.00     0.344 HD
ATOM      4  H   UNL     1      25.292  41.237  39.044  1.00  0.00     0.344 HD
ATOM      5  H   UNL     1      25.643  42.720  39.824  1.00  0.00     0.344 HD
ENDBRANCH   1   2
BRANCH   1   6
ATOM      6  C   UNL     1      23.101  43.616  39.895  1.00  0.00     0.096 C 
ATOM      7  O   UNL     1      21.999  43.348  40.442  1.00  0.00    -0.544 OA
ATOM      8  O   UNL     1      23.684  44.861  40.094  1.00  0.00    -0.544 OA
ENDBRANCH   1   6
TORSDOF 2
ENDMDL
MODEL 5
REMARK VINA RESULT:    -2.065     15.094     15.379
REMARK INTER + INTRA:          -2.246
REMARK INTER:                  -2.246
REMARK INTRA:                   0.000
REMARK UNBOUND:                 0.000
REMARK SMILES [NH3+]CC(=O)[O-]
REMARK SMILES IDX 2 1 1 2 3 6 4 7 5 8
REMARK H PARENT 1 3 1 4 1 5
REMARK Flexibility Score: inf
ROOT
ATOM      1  C   UNL     1      35.297  41.871  30.965  1.00  0.00     0.312 C 
ENDROOT
BRANCH   1   2
ATOM      2  N   UNL     1      36.136  42.375  29.879  1.00  0.00    -0.353 N 
ATOM      3  H   UNL     1      36.432  41.574  29.277  1.00  0.00     0.344 HD
ATOM      4  H   UNL     1      35.597  43.056  29.296  1.00  0.00     0.344 HD
ATOM      5  H   UNL     1      36.988  42.839  30.270  1.00  0.00     0.344 HD
ENDBRANCH   1   2
BRANCH   1   6
ATOM      6  C   UNL     1      33.866  42.255  30.749  1.00  0.00     0.096 C 
ATOM      7  O   UNL     1      33.567  43.125  29.890  1.00  0.00    -0.544 OA
ATOM      8  O   UNL     1      32.868  41.690  31.533  1.00  0.00    -0.544 OA
ENDBRANCH   1   6
TORSDOF 2
ENDMDL
MODEL 6
REMARK VINA RESULT:    -2.045      2.502      2.817
REMARK INTER + INTRA:          -2.224
REMARK INTER:                  -2.224
REMARK INTRA:                   0.000
REMARK UNBOUND:                 0.000
REMARK SMILES [NH3+]CC(=O)[O-]
REMARK SMILES IDX 2 1 1 2 3 6 4 7 5 8
REMARK H PARENT 1 3 1 4 1 5
REMARK Flexibility Score: inf
ROOT
ATOM      1  C   UNL     1      23.699  43.524  40.086  1.00  0.00     0.312 C 
ENDROOT
BRANCH   1   2
ATOM      2  N   UNL     1      24.739  42.497  40.107  1.00  0.00    -0.353 N 
ATOM      3  H   UNL     1      24.540  41.794  39.359  1.00  0.00     0.344 HD
ATOM      4  H   UNL     1      25.674  42.930  39.925  1.00  0.00     0.344 HD
ATOM      5  H   UNL     1      24.747  42.013  41.034  1.00  0.00     0.344 HD
ENDBRANCH   1   2
BRANCH   1   6
ATOM      6  C   UNL     1      24.135  44.734  40.853  1.00  0.00     0.096 C 
ATOM      7  O   UNL     1      24.072  45.875  40.325  1.00  0.00    -0.544 OA
ATOM      8  O   UNL     1      24.659  44.595  42.132  1.00  0.00    -0.544 OA
ENDBRANCH   1   6
TORSDOF 2
ENDMDL
MODEL 7
REMARK VINA RESULT:    -1.961      4.735      5.152
REMARK INTER + INTRA:          -2.133
REMARK INTER:                  -2.133
REMARK INTRA:                   0.000
REMARK UNBOUND:                 0.000
REMARK SMILES [NH3+]CC(=O)[O-]
REMARK SMILES IDX 2 1 1 2 3 6 4 7 5 8
REMARK H PARENT 1 3 1 4 1 5
REMARK Flexibility Score: inf
ROOT
ATOM      1  C   UNL     1      24.586  41.753  38.153  1.00  0.00     0.312 C 
ENDROOT
BRANCH   1   2
ATOM      2  N   UNL     1      25.280  42.423  37.054  1.00  0.00    -0.353 N 
ATOM      3  H   UNL     1      25.505  43.403  37.340  1.00  0.00     0.344 HD
ATOM      4  H   UNL     1      26.171  41.921  36.834  1.00  0.00     0.344 HD
ATOM      5  H   UNL     1      24.669  42.449  36.206  1.00  0.00     0.344 HD
ENDBRANCH   1   2
BRANCH   1   6
ATOM      6  C   UNL     1      23.502  42.626  38.704  1.00  0.00     0.096 C 
ATOM      7  O   UNL     1      23.735  43.387  39.679  1.00  0.00    -0.544 OA
ATOM      8  O   UNL     1      22.219  42.561  38.173  1.00  0.00    -0.544 OA
ENDBRANCH   1   6
TORSDOF 2
ENDMDL
MODEL 8
REMARK VINA RESULT:    -1.948      4.375      4.956
REMARK INTER + INTRA:          -2.119
REMARK INTER:                  -2.119
REMARK INTRA:                   0.000
REMARK UNBOUND:                 0.000
REMARK SMILES [NH3+]CC(=O)[O-]
REMARK SMILES IDX 2 1 1 2 3 6 4 7 5 8
REMARK H PARENT 1 3 1 4 1 5
REMARK Flexibility Score: inf
ROOT
ATOM      1  C   UNL     1      29.108  42.591  41.465  1.00  0.00     0.312 C 
ENDROOT
BRANCH   1   2
ATOM      2  N   UNL     1      29.843  43.845  41.625  1.00  0.00    -0.353 N 
ATOM      3  H   UNL     1      30.015  44.012  42.642  1.00  0.00     0.344 HD
ATOM      4  H   UNL     1      30.763  43.787  41.131  1.00  0.00     0.344 HD
ATOM      5  H   UNL     1      29.284  44.641  41.240  1.00  0.00     0.344 HD
ENDBRANCH   1   2
BRANCH   1   6
ATOM      6  C   UNL     1      27.889  42.579  42.333  1.00  0.00     0.096 C 
ATOM      7  O   UNL     1      27.709  41.645  43.159  1.00  0.00    -0.544 OA
ATOM      8  O   UNL     1      26.925  43.570  42.194  1.00  0.00    -0.544 OA
ENDBRANCH   1   6
TORSDOF 2
ENDMDL
MODEL 9
REMARK VINA RESULT:    -1.834      3.105      3.351
REMARK INTER + INTRA:          -1.995
REMARK INTER:                  -1.995
REMARK INTRA:                   0.000
REMARK UNBOUND:                 0.000
REMARK SMILES [NH3+]CC(=O)[O-]
REMARK SMILES IDX 2 1 1 2 3 6 4 7 5 8
REMARK H PARENT 1 3 1 4 1 5
REMARK Flexibility Score: inf
ROOT
ATOM      1  C   UNL     1      24.148  43.754  40.780  1.00  0.00     0.312 C 
ENDROOT
BRANCH   1   2
ATOM      2  N   UNL     1      25.174  42.762  41.098  1.00  0.00    -0.353 N 
ATOM      3  H   UNL     1      25.600  42.996  42.024  1.00  0.00     0.344 HD
ATOM      4  H   UNL     1      24.747  41.809  41.153  1.00  0.00     0.344 HD
ATOM      5  H   UNL     1      25.923  42.773  40.368  1.00  0.00     0.344 HD
ENDBRANCH   1   2
BRANCH   1   6
ATOM      6  C   UNL     1      23.061  43.143  39.952  1.00  0.00     0.096 C 
ATOM      7  O   UNL     1      21.875  43.130  40.374  1.00  0.00    -0.544 OA
ATOM      8  O   UNL     1      23.366  42.539  38.738  1.00  0.00    -0.544 OA
ENDBRANCH   1   6
TORSDOF 2
ENDMDL
