MODEL 1
REMARK VINA RESULT:    -5.839      0.000      0.000
REMARK INTER + INTRA:         -10.754
REMARK INTER:                  -9.082
REMARK INTRA:                  -1.672
REMARK UNBOUND:                -1.672
REMARK SMILES COc1cc(CNC(=O)CCCCC=CC(C)C)ccc1O
REMARK SMILES IDX 11 1 12 2 13 3 14 4 15 5 16 6 17 7 18 8 10 9 8 10 9 11 7 12
REMARK SMILES IDX 6 14 5 15 4 16 19 17 3 18 20 19 21 20 2 21 1 22 22 23
REMARK H PARENT 7 13 22 24
REMARK Flexibility Score: inf
ROOT
ATOM      1  C   UNL     1      12.951  53.938  37.833  1.00  0.00     0.010 C 
ENDROOT
BRANCH   1   2
ATOM      2  C   UNL     1      13.904  52.800  37.414  1.00  0.00     0.005 C 
BRANCH   2   3
ATOM      3  C   UNL     1      15.189  53.277  36.714  1.00  0.00     0.027 C 
BRANCH   3   4
ATOM      4  C   UNL     1      15.248  52.866  35.268  1.00  0.00    -0.031 C 
ATOM      5  C   UNL     1      14.358  52.009  34.743  1.00  0.00    -0.028 C 
BRANCH   5   6
ATOM      6  C   UNL     1      14.431  51.592  33.292  1.00  0.00     0.005 C 
ATOM      7  C   UNL     1      14.517  50.066  33.177  1.00  0.00     0.012 C 
ATOM      8  C   UNL     1      13.216  52.118  32.519  1.00  0.00     0.012 C 
ENDBRANCH   5   6
ENDBRANCH   3   4
ENDBRANCH   2   3
ENDBRANCH   1   2
BRANCH   1   9
ATOM      9  C   UNL     1      11.621  53.965  37.063  1.00  0.00     0.100 C 
BRANCH   9  10
ATOM     10  C   UNL     1      11.799  54.462  35.658  1.00  0.00     0.220 C 
ATOM     11  O   UNL     1      11.159  53.911  34.722  1.00  0.00    -0.275 OA
ATOM     12  N   UNL     1      12.714  55.530  35.378  1.00  0.00    -0.352 N 
ATOM     13  H   UNL     1      13.261  55.952  36.161  1.00  0.00     0.163 HD
BRANCH  12  14
ATOM     14  C   UNL     1      12.927  56.046  34.028  1.00  0.00     0.151 C 
BRANCH  14  15
ATOM     15  C   UNL     1      14.357  56.479  33.855  1.00  0.00    -0.025 A 
ATOM     16  C   UNL     1      14.829  57.622  34.518  1.00  0.00     0.056 A 
ATOM     17  C   UNL     1      15.220  55.767  33.010  1.00  0.00     0.009 A 
ATOM     18  C   UNL     1      16.161  58.052  34.348  1.00  0.00     0.160 A 
ATOM     19  C   UNL     1      16.540  56.185  32.839  1.00  0.00     0.050 A 
ATOM     20  C   UNL     1      17.015  57.322  33.502  1.00  0.00     0.157 A 
BRANCH  18  21
ATOM     21  O   UNL     1      16.663  59.190  34.999  1.00  0.00    -0.493 OA
ATOM     22  C   UNL     1      16.725  60.491  34.420  1.00  0.00     0.278 C 
ENDBRANCH  18  21
BRANCH  20  23
ATOM     23  O   UNL     1      18.340  57.710  33.305  1.00  0.00    -0.504 OA
ATOM     24  H   UNL     1      19.060  57.053  33.026  1.00  0.00     0.293 HD
ENDBRANCH  20  23
ENDBRANCH  14  15
ENDBRANCH  12  14
ENDBRANCH   9  10
ENDBRANCH   1   9
TORSDOF 10
ENDMDL
MODEL 2
REMARK VINA RESULT:    -5.496      1.294      2.258
REMARK INTER + INTRA:         -10.220
REMARK INTER:                  -8.268
REMARK INTRA:                  -1.952
REMARK UNBOUND:                -1.672
REMARK SMILES COc1cc(CNC(=O)CCCCC=CC(C)C)ccc1O
REMARK SMILES IDX 11 1 12 2 13 3 14 4 15 5 16 6 17 7 18 8 10 9 8 10 9 11 7 12
REMARK SMILES IDX 6 14 5 15 4 16 19 17 3 18 20 19 21 20 2 21 1 22 22 23
REMARK H PARENT 7 13 22 24
REMARK Flexibility Score: inf
ROOT
ATOM      1  C   UNL     1      12.757  53.971  37.887  1.00  0.00     0.010 C 
ENDROOT
BRANCH   1   2
ATOM      2  C   UNL     1      13.823  52.953  37.434  1.00  0.00     0.005 C 
BRANCH   2   3
ATOM      3  C   UNL     1      14.954  53.557  36.584  1.00  0.00     0.027 C 
BRANCH   3   4
ATOM      4  C   UNL     1      14.965  53.030  35.175  1.00  0.00    -0.031 C 
ATOM      5  C   UNL     1      14.520  51.799  34.880  1.00  0.00    -0.028 C 
BRANCH   5   6
ATOM      6  C   UNL     1      14.545  51.273  33.464  1.00  0.00     0.005 C 
ATOM      7  C   UNL     1      14.160  49.790  33.436  1.00  0.00     0.012 C 
ATOM      8  C   UNL     1      13.601  52.086  32.570  1.00  0.00     0.012 C 
ENDBRANCH   5   6
ENDBRANCH   3   4
ENDBRANCH   2   3
ENDBRANCH   1   2
BRANCH   1   9
ATOM      9  C   UNL     1      11.432  53.886  37.113  1.00  0.00     0.100 C 
BRANCH   9  10
ATOM     10  C   UNL     1      11.570  54.405  35.711  1.00  0.00     0.220 C 
ATOM     11  O   UNL     1      11.266  53.657  34.742  1.00  0.00    -0.275 OA
ATOM     12  N   UNL     1      12.075  55.726  35.475  1.00  0.00    -0.352 N 
ATOM     13  H   UNL     1      12.353  56.319  36.288  1.00  0.00     0.163 HD
BRANCH  12  14
ATOM     14  C   UNL     1      12.232  56.276  34.130  1.00  0.00     0.151 C 
BRANCH  14  15
ATOM     15  C   UNL     1      13.688  56.321  33.752  1.00  0.00    -0.025 A 
ATOM     16  C   UNL     1      14.132  55.669  32.592  1.00  0.00     0.056 A 
ATOM     17  C   UNL     1      14.615  56.984  34.568  1.00  0.00     0.009 A 
ATOM     18  C   UNL     1      15.496  55.684  32.238  1.00  0.00     0.160 A 
ATOM     19  C   UNL     1      15.968  57.005  34.223  1.00  0.00     0.050 A 
ATOM     20  C   UNL     1      16.412  56.360  33.064  1.00  0.00     0.157 A 
BRANCH  18  21
ATOM     21  O   UNL     1      15.971  55.043  31.082  1.00  0.00    -0.493 OA
ATOM     22  C   UNL     1      15.822  55.548  29.758  1.00  0.00     0.278 C 
ENDBRANCH  18  21
BRANCH  20  23
ATOM     23  O   UNL     1      17.771  56.401  32.751  1.00  0.00    -0.504 OA
ATOM     24  H   UNL     1      18.279  57.274  32.667  1.00  0.00     0.293 HD
ENDBRANCH  20  23
ENDBRANCH  14  15
ENDBRANCH  12  14
ENDBRANCH   9  10
ENDBRANCH   1   9
TORSDOF 10
ENDMDL
MODEL 3
REMARK VINA RESULT:    -5.450      1.783      3.511
REMARK INTER + INTRA:         -10.149
REMARK INTER:                  -8.809
REMARK INTRA:                  -1.340
REMARK UNBOUND:                -1.672
REMARK SMILES COc1cc(CNC(=O)CCCCC=CC(C)C)ccc1O
REMARK SMILES IDX 11 1 12 2 13 3 14 4 15 5 16 6 17 7 18 8 10 9 8 10 9 11 7 12
REMARK SMILES IDX 6 14 5 15 4 16 19 17 3 18 20 19 21 20 2 21 1 22 22 23
REMARK H PARENT 7 13 22 24
REMARK Flexibility Score: inf
ROOT
ATOM      1  C   UNL     1      14.839  52.025  36.737  1.00  0.00     0.010 C 
ENDROOT
BRANCH   1   2
ATOM      2  C   UNL     1      14.235  53.323  37.310  1.00  0.00     0.005 C 
BRANCH   2   3
ATOM      3  C   UNL     1      12.785  53.182  37.804  1.00  0.00     0.027 C 
BRANCH   3   4
ATOM      4  C   UNL     1      11.812  53.988  36.986  1.00  0.00    -0.031 C 
ATOM      5  C   UNL     1      12.169  55.144  36.406  1.00  0.00    -0.028 C 
BRANCH   5   6
ATOM      6  C   UNL     1      11.184  55.954  35.596  1.00  0.00     0.005 C 
ATOM      7  C   UNL     1      11.561  57.439  35.622  1.00  0.00     0.012 C 
ATOM      8  C   UNL     1      11.127  55.443  34.152  1.00  0.00     0.012 C 
ENDBRANCH   5   6
ENDBRANCH   3   4
ENDBRANCH   2   3
ENDBRANCH   1   2
BRANCH   1   9
ATOM      9  C   UNL     1      15.552  52.201  35.388  1.00  0.00     0.100 C 
BRANCH   9  10
ATOM     10  C   UNL     1      14.866  53.215  34.520  1.00  0.00     0.220 C 
ATOM     11  O   UNL     1      13.783  52.909  33.950  1.00  0.00    -0.275 OA
ATOM     12  N   UNL     1      15.453  54.507  34.313  1.00  0.00    -0.352 N 
ATOM     13  H   UNL     1      16.367  54.731  34.765  1.00  0.00     0.163 HD
BRANCH  12  14
ATOM     14  C   UNL     1      14.827  55.527  33.474  1.00  0.00     0.151 C 
BRANCH  14  15
ATOM     15  C   UNL     1      15.539  56.843  33.635  1.00  0.00    -0.025 A 
ATOM     16  C   UNL     1      14.812  57.998  33.963  1.00  0.00     0.056 A 
ATOM     17  C   UNL     1      16.922  56.934  33.431  1.00  0.00     0.009 A 
ATOM     18  C   UNL     1      15.462  59.241  34.095  1.00  0.00     0.160 A 
ATOM     19  C   UNL     1      17.573  58.162  33.563  1.00  0.00     0.050 A 
ATOM     20  C   UNL     1      16.852  59.313  33.894  1.00  0.00     0.157 A 
BRANCH  18  21
ATOM     21  O   UNL     1      14.763  60.414  34.424  1.00  0.00    -0.493 OA
ATOM     22  C   UNL     1      13.358  60.589  34.263  1.00  0.00     0.278 C 
ENDBRANCH  18  21
BRANCH  20  23
ATOM     23  O   UNL     1      17.536  60.523  34.016  1.00  0.00    -0.504 OA
ATOM     24  H   UNL     1      18.125  60.888  33.276  1.00  0.00     0.293 HD
ENDBRANCH  20  23
ENDBRANCH  14  15
ENDBRANCH  12  14
ENDBRANCH   9  10
ENDBRANCH   1   9
TORSDOF 10
ENDMDL
MODEL 4
REMARK VINA RESULT:    -5.321      1.792      3.024
REMARK INTER + INTRA:          -9.948
REMARK INTER:                  -8.710
REMARK INTRA:                  -1.238
REMARK UNBOUND:                -1.672
REMARK SMILES COc1cc(CNC(=O)CCCCC=CC(C)C)ccc1O
REMARK SMILES IDX 11 1 12 2 13 3 14 4 15 5 16 6 17 7 18 8 10 9 8 10 9 11 7 12
REMARK SMILES IDX 6 14 5 15 4 16 19 17 3 18 20 19 21 20 2 21 1 22 22 23
REMARK H PARENT 7 13 22 24
REMARK Flexibility Score: inf
ROOT
ATOM      1  C   UNL     1      10.905  54.934  36.014  1.00  0.00     0.010 C 
ENDROOT
BRANCH   1   2
ATOM      2  C   UNL     1      10.969  54.110  37.316  1.00  0.00     0.005 C 
BRANCH   2   3
ATOM      3  C   UNL     1      12.379  53.987  37.918  1.00  0.00     0.027 C 
BRANCH   3   4
ATOM      4  C   UNL     1      13.381  53.433  36.941  1.00  0.00    -0.031 C 
ATOM      5  C   UNL     1      14.371  54.189  36.443  1.00  0.00    -0.028 C 
BRANCH   5   6
ATOM      6  C   UNL     1      15.366  53.629  35.453  1.00  0.00     0.005 C 
ATOM      7  C   UNL     1      15.855  52.250  35.906  1.00  0.00     0.012 C 
ATOM      8  C   UNL     1      14.742  53.541  34.055  1.00  0.00     0.012 C 
ENDBRANCH   5   6
ENDBRANCH   3   4
ENDBRANCH   2   3
ENDBRANCH   1   2
BRANCH   1   9
ATOM      9  C   UNL     1      10.985  56.454  36.224  1.00  0.00     0.100 C 
BRANCH   9  10
ATOM     10  C   UNL     1      11.572  57.153  35.032  1.00  0.00     0.220 C 
ATOM     11  O   UNL     1      11.419  56.654  33.885  1.00  0.00    -0.275 OA
ATOM     12  N   UNL     1      12.332  58.358  35.202  1.00  0.00    -0.352 N 
ATOM     13  H   UNL     1      12.478  58.738  36.163  1.00  0.00     0.163 HD
BRANCH  12  14
ATOM     14  C   UNL     1      12.929  59.073  34.076  1.00  0.00     0.151 C 
BRANCH  14  15
ATOM     15  C   UNL     1      14.402  58.778  33.994  1.00  0.00    -0.025 A 
ATOM     16  C   UNL     1      14.849  57.604  33.370  1.00  0.00     0.056 A 
ATOM     17  C   UNL     1      15.336  59.654  34.564  1.00  0.00     0.009 A 
ATOM     18  C   UNL     1      16.225  57.305  33.305  1.00  0.00     0.160 A 
ATOM     19  C   UNL     1      16.700  59.366  34.502  1.00  0.00     0.050 A 
ATOM     20  C   UNL     1      17.149  58.198  33.877  1.00  0.00     0.157 A 
BRANCH  18  21
ATOM     21  O   UNL     1      16.704  56.139  32.687  1.00  0.00    -0.493 OA
ATOM     22  C   UNL     1      16.279  55.668  31.411  1.00  0.00     0.278 C 
ENDBRANCH  18  21
BRANCH  20  23
ATOM     23  O   UNL     1      18.519  57.942  33.835  1.00  0.00    -0.504 OA
ATOM     24  H   UNL     1      19.209  58.663  34.015  1.00  0.00     0.293 HD
ENDBRANCH  20  23
ENDBRANCH  14  15
ENDBRANCH  12  14
ENDBRANCH   9  10
ENDBRANCH   1   9
TORSDOF 10
ENDMDL
MODEL 5
REMARK VINA RESULT:    -5.130      1.098      2.840
REMARK INTER + INTRA:          -9.652
REMARK INTER:                  -8.037
REMARK INTRA:                  -1.615
REMARK UNBOUND:                -1.672
REMARK SMILES COc1cc(CNC(=O)CCCCC=CC(C)C)ccc1O
REMARK SMILES IDX 11 1 12 2 13 3 14 4 15 5 16 6 17 7 18 8 10 9 8 10 9 11 7 12
REMARK SMILES IDX 6 14 5 15 4 16 19 17 3 18 20 19 21 20 2 21 1 22 22 23
REMARK H PARENT 7 13 22 24
REMARK Flexibility Score: inf
ROOT
ATOM      1  C   UNL     1      13.192  52.199  32.590  1.00  0.00     0.010 C 
ENDROOT
BRANCH   1   2
ATOM      2  C   UNL     1      13.608  50.863  33.238  1.00  0.00     0.005 C 
BRANCH   2   3
ATOM      3  C   UNL     1      14.917  50.933  34.044  1.00  0.00     0.027 C 
BRANCH   3   4
ATOM      4  C   UNL     1      15.005  52.166  34.902  1.00  0.00    -0.031 C 
ATOM      5  C   UNL     1      14.492  52.200  36.141  1.00  0.00    -0.028 C 
BRANCH   5   6
ATOM      6  C   UNL     1      14.574  53.446  36.992  1.00  0.00     0.005 C 
ATOM      7  C   UNL     1      14.872  54.671  36.121  1.00  0.00     0.012 C 
ATOM      8  C   UNL     1      13.270  53.651  37.773  1.00  0.00     0.012 C 
ENDBRANCH   5   6
ENDBRANCH   3   4
ENDBRANCH   2   3
ENDBRANCH   1   2
BRANCH   1   9
ATOM      9  C   UNL     1      11.878  52.783  33.132  1.00  0.00     0.100 C 
BRANCH   9  10
ATOM     10  C   UNL     1      12.059  54.180  33.651  1.00  0.00     0.220 C 
ATOM     11  O   UNL     1      11.659  54.464  34.812  1.00  0.00    -0.275 OA
ATOM     12  N   UNL     1      12.649  55.190  32.821  1.00  0.00    -0.352 N 
ATOM     13  H   UNL     1      12.943  54.944  31.850  1.00  0.00     0.163 HD
BRANCH  12  14
ATOM     14  C   UNL     1      12.842  56.565  33.277  1.00  0.00     0.151 C 
BRANCH  14  15
ATOM     15  C   UNL     1      14.308  56.903  33.305  1.00  0.00    -0.025 A 
ATOM     16  C   UNL     1      14.733  58.139  33.817  1.00  0.00     0.056 A 
ATOM     17  C   UNL     1      15.256  56.005  32.795  1.00  0.00     0.009 A 
ATOM     18  C   UNL     1      16.101  58.478  33.830  1.00  0.00     0.160 A 
ATOM     19  C   UNL     1      16.613  56.334  32.806  1.00  0.00     0.050 A 
ATOM     20  C   UNL     1      17.039  57.563  33.320  1.00  0.00     0.157 A 
BRANCH  18  21
ATOM     21  O   UNL     1      16.557  59.705  34.337  1.00  0.00    -0.493 OA
ATOM     22  C   UNL     1      15.711  60.748  34.814  1.00  0.00     0.278 C 
ENDBRANCH  18  21
BRANCH  20  23
ATOM     23  O   UNL     1      18.403  57.857  33.313  1.00  0.00    -0.504 OA
ATOM     24  H   UNL     1      19.074  57.297  32.799  1.00  0.00     0.293 HD
ENDBRANCH  20  23
ENDBRANCH  14  15
ENDBRANCH  12  14
ENDBRANCH   9  10
ENDBRANCH   1   9
TORSDOF 10
ENDMDL
MODEL 6
REMARK VINA RESULT:    -5.011      1.279      2.219
REMARK INTER + INTRA:          -9.466
REMARK INTER:                  -8.238
REMARK INTRA:                  -1.228
REMARK UNBOUND:                -1.672
REMARK SMILES COc1cc(CNC(=O)CCCCC=CC(C)C)ccc1O
REMARK SMILES IDX 11 1 12 2 13 3 14 4 15 5 16 6 17 7 18 8 10 9 8 10 9 11 7 12
REMARK SMILES IDX 6 14 5 15 4 16 19 17 3 18 20 19 21 20 2 21 1 22 22 23
REMARK H PARENT 7 13 22 24
REMARK Flexibility Score: inf
ROOT
ATOM      1  C   UNL     1      13.546  52.939  37.557  1.00  0.00     0.010 C 
ENDROOT
BRANCH   1   2
ATOM      2  C   UNL     1      14.749  53.804  37.132  1.00  0.00     0.005 C 
BRANCH   2   3
ATOM      3  C   UNL     1      15.594  53.197  35.997  1.00  0.00     0.027 C 
BRANCH   3   4
ATOM      4  C   UNL     1      15.025  51.904  35.478  1.00  0.00    -0.031 C 
ATOM      5  C   UNL     1      14.797  51.710  34.170  1.00  0.00    -0.028 C 
BRANCH   5   6
ATOM      6  C   UNL     1      14.215  50.413  33.658  1.00  0.00     0.005 C 
ATOM      7  C   UNL     1      12.901  50.673  32.914  1.00  0.00     0.012 C 
ATOM      8  C   UNL     1      15.215  49.699  32.742  1.00  0.00     0.012 C 
ENDBRANCH   5   6
ENDBRANCH   3   4
ENDBRANCH   2   3
ENDBRANCH   1   2
BRANCH   1   9
ATOM      9  C   UNL     1      12.192  53.663  37.495  1.00  0.00     0.100 C 
BRANCH   9  10
ATOM     10  C   UNL     1      11.990  54.357  36.179  1.00  0.00     0.220 C 
ATOM     11  O   UNL     1      11.931  53.673  35.122  1.00  0.00    -0.275 OA
ATOM     12  N   UNL     1      11.901  55.788  36.122  1.00  0.00    -0.352 N 
ATOM     13  H   UNL     1      11.987  56.340  37.004  1.00  0.00     0.163 HD
BRANCH  12  14
ATOM     14  C   UNL     1      11.711  56.511  34.867  1.00  0.00     0.151 C 
BRANCH  14  15
ATOM     15  C   UNL     1      12.871  57.436  34.618  1.00  0.00    -0.025 A 
ATOM     16  C   UNL     1      14.174  56.922  34.539  1.00  0.00     0.056 A 
ATOM     17  C   UNL     1      12.666  58.817  34.492  1.00  0.00     0.009 A 
ATOM     18  C   UNL     1      15.272  57.779  34.328  1.00  0.00     0.160 A 
ATOM     19  C   UNL     1      13.749  59.672  34.280  1.00  0.00     0.050 A 
ATOM     20  C   UNL     1      15.048  59.162  34.198  1.00  0.00     0.157 A 
BRANCH  18  21
ATOM     21  O   UNL     1      16.587  57.295  34.243  1.00  0.00    -0.493 OA
ATOM     22  C   UNL     1      17.259  56.987  33.025  1.00  0.00     0.278 C 
ENDBRANCH  18  21
BRANCH  20  23
ATOM     23  O   UNL     1      16.106  60.046  33.986  1.00  0.00    -0.504 OA
ATOM     24  H   UNL     1      16.001  61.049  34.094  1.00  0.00     0.293 HD
ENDBRANCH  20  23
ENDBRANCH  14  15
ENDBRANCH  12  14
ENDBRANCH   9  10
ENDBRANCH   1   9
TORSDOF 10
ENDMDL
MODEL 7
REMARK VINA RESULT:    -4.980      1.960      3.685
REMARK INTER + INTRA:          -9.418
REMARK INTER:                  -7.929
REMARK INTRA:                  -1.489
REMARK UNBOUND:                -1.672
REMARK SMILES COc1cc(CNC(=O)CCCCC=CC(C)C)ccc1O
REMARK SMILES IDX 11 1 12 2 13 3 14 4 15 5 16 6 17 7 18 8 10 9 8 10 9 11 7 12
REMARK SMILES IDX 6 14 5 15 4 16 19 17 3 18 20 19 21 20 2 21 1 22 22 23
REMARK H PARENT 7 13 22 24
REMARK Flexibility Score: inf
ROOT
ATOM      1  C   UNL     1      15.413  51.961  35.154  1.00  0.00     0.010 C 
ENDROOT
BRANCH   1   2
ATOM      2  C   UNL     1      14.966  52.168  36.615  1.00  0.00     0.005 C 
BRANCH   2   3
ATOM      3  C   UNL     1      14.894  53.642  37.051  1.00  0.00     0.027 C 
BRANCH   3   4
ATOM      4  C   UNL     1      13.488  54.177  37.060  1.00  0.00    -0.031 C 
ATOM      5  C   UNL     1      12.983  54.850  36.015  1.00  0.00    -0.028 C 
BRANCH   5   6
ATOM      6  C   UNL     1      11.573  55.394  36.037  1.00  0.00     0.005 C 
ATOM      7  C   UNL     1      10.963  55.246  37.435  1.00  0.00     0.012 C 
ATOM      8  C   UNL     1      11.557  56.863  35.600  1.00  0.00     0.012 C 
ENDBRANCH   5   6
ENDBRANCH   3   4
ENDBRANCH   2   3
ENDBRANCH   1   2
BRANCH   1   9
ATOM      9  C   UNL     1      14.258  51.789  34.156  1.00  0.00     0.100 C 
BRANCH   9  10
ATOM     10  C   UNL     1      14.315  52.806  33.054  1.00  0.00     0.220 C 
ATOM     11  O   UNL     1      13.760  52.553  31.950  1.00  0.00    -0.275 OA
ATOM     12  N   UNL     1      15.025  54.038  33.241  1.00  0.00    -0.352 N 
ATOM     13  H   UNL     1      15.508  54.215  34.150  1.00  0.00     0.163 HD
BRANCH  12  14
ATOM     14  C   UNL     1      15.115  55.057  32.198  1.00  0.00     0.151 C 
BRANCH  14  15
ATOM     15  C   UNL     1      15.459  56.392  32.802  1.00  0.00    -0.025 A 
ATOM     16  C   UNL     1      15.602  57.519  31.978  1.00  0.00     0.056 A 
ATOM     17  C   UNL     1      15.669  56.516  34.182  1.00  0.00     0.009 A 
ATOM     18  C   UNL     1      15.945  58.770  32.528  1.00  0.00     0.160 A 
ATOM     19  C   UNL     1      16.008  57.753  34.734  1.00  0.00     0.050 A 
ATOM     20  C   UNL     1      16.146  58.879  33.916  1.00  0.00     0.157 A 
BRANCH  18  21
ATOM     21  O   UNL     1      16.093  59.916  31.730  1.00  0.00    -0.493 OA
ATOM     22  C   UNL     1      15.191  60.306  30.698  1.00  0.00     0.278 C 
ENDBRANCH  18  21
BRANCH  20  23
ATOM     23  O   UNL     1      16.485  60.098  34.502  1.00  0.00    -0.504 OA
ATOM     24  H   UNL     1      17.003  60.812  34.003  1.00  0.00     0.293 HD
ENDBRANCH  20  23
ENDBRANCH  14  15
ENDBRANCH  12  14
ENDBRANCH   9  10
ENDBRANCH   1   9
TORSDOF 10
ENDMDL
MODEL 8
REMARK VINA RESULT:    -4.921      2.517      7.010
REMARK INTER + INTRA:          -9.326
REMARK INTER:                  -8.253
REMARK INTRA:                  -1.073
REMARK UNBOUND:                -1.672
REMARK SMILES COc1cc(CNC(=O)CCCCC=CC(C)C)ccc1O
REMARK SMILES IDX 11 1 12 2 13 3 14 4 15 5 16 6 17 7 18 8 10 9 8 10 9 11 7 12
REMARK SMILES IDX 6 14 5 15 4 16 19 17 3 18 20 19 21 20 2 21 1 22 22 23
REMARK H PARENT 7 13 22 24
REMARK Flexibility Score: inf
ROOT
ATOM      1  C   UNL     1      16.842  58.907  35.153  1.00  0.00     0.010 C 
ENDROOT
BRANCH   1   2
ATOM      2  C   UNL     1      16.478  60.383  34.893  1.00  0.00     0.005 C 
BRANCH   2   3
ATOM      3  C   UNL     1      15.307  60.583  33.914  1.00  0.00     0.027 C 
BRANCH   3   4
ATOM      4  C   UNL     1      13.969  60.577  34.603  1.00  0.00    -0.031 C 
ATOM      5  C   UNL     1      13.125  59.541  34.491  1.00  0.00    -0.028 C 
BRANCH   5   6
ATOM      6  C   UNL     1      11.778  59.547  35.175  1.00  0.00     0.005 C 
ATOM      7  C   UNL     1      11.497  58.186  35.820  1.00  0.00     0.012 C 
ATOM      8  C   UNL     1      11.715  60.659  36.229  1.00  0.00     0.012 C 
ENDBRANCH   5   6
ENDBRANCH   3   4
ENDBRANCH   2   3
ENDBRANCH   1   2
BRANCH   1   9
ATOM      9  C   UNL     1      17.517  58.203  33.966  1.00  0.00     0.100 C 
BRANCH   9  10
ATOM     10  C   UNL     1      16.704  57.046  33.464  1.00  0.00     0.220 C 
ATOM     11  O   UNL     1      17.192  56.280  32.590  1.00  0.00    -0.275 OA
ATOM     12  N   UNL     1      15.370  56.835  33.949  1.00  0.00    -0.352 N 
ATOM     13  H   UNL     1      14.970  57.500  34.647  1.00  0.00     0.163 HD
BRANCH  12  14
ATOM     14  C   UNL     1      14.535  55.728  33.488  1.00  0.00     0.151 C 
BRANCH  14  15
ATOM     15  C   UNL     1      14.656  54.559  34.428  1.00  0.00    -0.025 A 
ATOM     16  C   UNL     1      14.567  53.249  33.933  1.00  0.00     0.056 A 
ATOM     17  C   UNL     1      14.826  54.766  35.804  1.00  0.00     0.009 A 
ATOM     18  C   UNL     1      14.656  52.145  34.804  1.00  0.00     0.160 A 
ATOM     19  C   UNL     1      14.917  53.677  36.673  1.00  0.00     0.050 A 
ATOM     20  C   UNL     1      14.833  52.370  36.182  1.00  0.00     0.157 A 
BRANCH  18  21
ATOM     21  O   UNL     1      14.573  50.823  34.340  1.00  0.00    -0.493 OA
ATOM     22  C   UNL     1      14.539  50.450  32.965  1.00  0.00     0.278 C 
ENDBRANCH  18  21
BRANCH  20  23
ATOM     23  O   UNL     1      14.928  51.308  37.080  1.00  0.00    -0.504 OA
ATOM     24  H   UNL     1      15.131  51.447  38.063  1.00  0.00     0.293 HD
ENDBRANCH  20  23
ENDBRANCH  14  15
ENDBRANCH  12  14
ENDBRANCH   9  10
ENDBRANCH   1   9
TORSDOF 10
ENDMDL
MODEL 9
REMARK VINA RESULT:    -4.896      2.025      3.261
REMARK INTER + INTRA:          -9.287
REMARK INTER:                  -8.523
REMARK INTRA:                  -0.764
REMARK UNBOUND:                -1.672
REMARK SMILES COc1cc(CNC(=O)CCCCC=CC(C)C)ccc1O
REMARK SMILES IDX 11 1 12 2 13 3 14 4 15 5 16 6 17 7 18 8 10 9 8 10 9 11 7 12
REMARK SMILES IDX 6 14 5 15 4 16 19 17 3 18 20 19 21 20 2 21 1 22 22 23
REMARK H PARENT 7 13 22 24
REMARK Flexibility Score: inf
ROOT
ATOM      1  C   UNL     1      15.777  52.156  35.614  1.00  0.00     0.010 C 
ENDROOT
BRANCH   1   2
ATOM      2  C   UNL     1      14.601  51.413  34.948  1.00  0.00     0.005 C 
BRANCH   2   3
ATOM      3  C   UNL     1      14.689  51.338  33.413  1.00  0.00     0.027 C 
BRANCH   3   4
ATOM      4  C   UNL     1      14.370  49.967  32.880  1.00  0.00    -0.031 C 
ATOM      5  C   UNL     1      13.769  49.039  33.639  1.00  0.00    -0.028 C 
BRANCH   5   6
ATOM      6  C   UNL     1      13.462  47.661  33.100  1.00  0.00     0.005 C 
ATOM      7  C   UNL     1      14.708  46.771  33.166  1.00  0.00     0.012 C 
ATOM      8  C   UNL     1      12.308  47.022  33.881  1.00  0.00     0.012 C 
ENDBRANCH   5   6
ENDBRANCH   3   4
ENDBRANCH   2   3
ENDBRANCH   1   2
BRANCH   1   9
ATOM      9  C   UNL     1      15.362  53.385  36.438  1.00  0.00     0.100 C 
BRANCH   9  10
ATOM     10  C   UNL     1      14.753  54.454  35.579  1.00  0.00     0.220 C 
ATOM     11  O   UNL     1      13.615  54.911  35.875  1.00  0.00    -0.275 OA
ATOM     12  N   UNL     1      15.441  54.926  34.413  1.00  0.00    -0.352 N 
ATOM     13  H   UNL     1      16.367  54.511  34.164  1.00  0.00     0.163 HD
BRANCH  12  14
ATOM     14  C   UNL     1      14.889  55.960  33.541  1.00  0.00     0.151 C 
BRANCH  14  15
ATOM     15  C   UNL     1      15.458  57.305  33.903  1.00  0.00    -0.025 A 
ATOM     16  C   UNL     1      14.602  58.404  34.081  1.00  0.00     0.056 A 
ATOM     17  C   UNL     1      16.842  57.481  34.035  1.00  0.00     0.009 A 
ATOM     18  C   UNL     1      15.123  59.674  34.399  1.00  0.00     0.160 A 
ATOM     19  C   UNL     1      17.365  58.736  34.351  1.00  0.00     0.050 A 
ATOM     20  C   UNL     1      16.515  59.831  34.534  1.00  0.00     0.157 A 
BRANCH  18  21
ATOM     21  O   UNL     1      14.294  60.792  34.585  1.00  0.00    -0.493 OA
ATOM     22  C   UNL     1      12.898  60.819  34.301  1.00  0.00     0.278 C 
ENDBRANCH  18  21
BRANCH  20  23
ATOM     23  O   UNL     1      17.073  61.070  34.849  1.00  0.00    -0.504 OA
ATOM     24  H   UNL     1      16.522  61.829  35.231  1.00  0.00     0.293 HD
ENDBRANCH  20  23
ENDBRANCH  14  15
ENDBRANCH  12  14
ENDBRANCH   9  10
ENDBRANCH   1   9
TORSDOF 10
ENDMDL
