MODEL 1
REMARK VINA RESULT:    -1.803      0.000      0.000
REMARK INTER + INTRA:          -2.966
REMARK INTER:                  -2.752
REMARK INTRA:                  -0.214
REMARK UNBOUND:                -0.214
REMARK SMILES CC1=CCC[C@H](C)C(=O)C[C@@H](C(C)C)C(=O)C1
REMARK SMILES IDX 8 1 9 2 6 3 7 4 5 5 4 6 3 7 2 8 1 9 10 11 11 12 15 13 16 14
REMARK SMILES IDX 17 15 12 17 13 18 14 19
REMARK H PARENT
REMARK Flexibility Score: 70.00
ROOT
ATOM      1  C   UNL     1     121.434  86.080  54.850  1.00  0.00     0.136 C 
ATOM      2  O   UNL     1     120.610  86.578  54.099  1.00  0.00    -0.299 OA
ENDROOT
BRANCH   1   3
ATOM      3  C   UNL     1     122.906  86.150  54.505  1.00  0.00     0.053 C 
ATOM      4  C   UNL     1     123.557  87.300  55.282  1.00  0.00     0.016 C 
BRANCH   3   5
ATOM      5  C   UNL     1     123.628  84.818  54.816  1.00  0.00     0.015 C 
BRANCH   5   6
ATOM      6  C   UNL     1     124.622  84.919  55.981  1.00  0.00     0.028 C 
BRANCH   6   7
ATOM      7  C   UNL     1     124.460  83.775  56.949  1.00  0.00    -0.028 C 
ATOM      8  C   UNL     1     123.896  83.848  58.177  1.00  0.00    -0.070 CG0
ATOM      9  C   UNL     1     123.846  82.597  59.008  1.00  0.00     0.039 C 
ATOM     10  G   UNL     1     123.305  85.121  58.749  1.00  0.00     0.000 G0
ENDBRANCH   6   7
ENDBRANCH   5   6
ENDBRANCH   3   5
ENDBRANCH   1   3
BRANCH   1  11
ATOM     11  C   UNL     1     120.961  85.402  56.109  1.00  0.00     0.087 C 
BRANCH  11  12
ATOM     12  C   UNL     1     121.336  86.219  57.374  1.00  0.00     0.066 C 
BRANCH  12  13
ATOM     13  C   UNL     1     121.836  85.268  58.449  1.00  0.00     0.140 C 
ATOM     14  O   UNL     1     121.027  84.645  59.123  1.00  0.00    -0.299 OA
BRANCH  13  15
ATOM     15  C   UNL     1     123.300  85.133  58.764  1.00  0.00     0.106 CG0
ATOM     16  G   UNL     1     123.869  83.859  58.175  1.00  0.00     0.000 G0
ENDBRANCH  13  15
ENDBRANCH  12  13
BRANCH  12  17
ATOM     17  C   UNL     1     120.138  87.086  57.877  1.00  0.00    -0.006 C 
ATOM     18  C   UNL     1     120.251  88.561  57.442  1.00  0.00     0.008 C 
ATOM     19  C   UNL     1     118.798  86.533  57.357  1.00  0.00     0.008 C 
ENDBRANCH  12  17
ENDBRANCH  11  12
ENDBRANCH   1  11
TORSDOF 1
ENDMDL
MODEL 2
REMARK VINA RESULT:    -1.454     11.796     14.359
REMARK INTER + INTRA:          -2.432
REMARK INTER:                  -2.114
REMARK INTRA:                  -0.319
REMARK UNBOUND:                -0.214
REMARK SMILES CC1=CCC[C@H](C)C(=O)C[C@@H](C(C)C)C(=O)C1
REMARK SMILES IDX 8 1 9 2 6 3 7 4 5 5 4 6 3 7 2 8 1 9 10 11 11 12 15 13 16 14
REMARK SMILES IDX 17 15 12 17 13 18 14 19
REMARK H PARENT
REMARK Flexibility Score: 70.00
ROOT
ATOM      1  C   UNL     1     110.605  85.840  56.368  1.00  0.00     0.136 C 
ATOM      2  O   UNL     1     111.370  86.651  55.871  1.00  0.00    -0.299 OA
ENDROOT
BRANCH   1   3
ATOM      3  C   UNL     1     110.280  85.918  57.845  1.00  0.00     0.053 C 
ATOM      4  C   UNL     1     111.582  85.896  58.653  1.00  0.00     0.016 C 
BRANCH   3   5
ATOM      5  C   UNL     1     109.462  87.186  58.182  1.00  0.00     0.015 C 
BRANCH   5   6
ATOM      6  C   UNL     1     107.943  86.968  58.118  1.00  0.00     0.028 C 
BRANCH   6   7
ATOM      7  C   UNL     1     107.557  85.600  58.619  1.00  0.00    -0.028 C 
ATOM      8  C   UNL     1     106.921  84.644  57.903  1.00  0.00    -0.070 CG0
ATOM      9  C   UNL     1     106.600  83.345  58.588  1.00  0.00     0.039 C 
ATOM     10  G   UNL     1     106.526  84.813  56.450  1.00  0.00     0.000 G0
ENDBRANCH   6   7
ENDBRANCH   5   6
ENDBRANCH   3   5
ENDBRANCH   1   3
BRANCH   1  11
ATOM     11  C   UNL     1     110.000  84.773  55.494  1.00  0.00     0.087 C 
BRANCH  11  12
ATOM     12  C   UNL     1     108.624  85.211  54.927  1.00  0.00     0.066 C 
BRANCH  12  13
ATOM     13  C   UNL     1     107.543  84.304  55.493  1.00  0.00     0.140 C 
ATOM     14  O   UNL     1     107.472  83.144  55.111  1.00  0.00    -0.299 OA
BRANCH  13  15
ATOM     15  C   UNL     1     106.504  84.818  56.451  1.00  0.00     0.106 CG0
ATOM     16  G   UNL     1     106.950  84.634  57.887  1.00  0.00     0.000 G0
ENDBRANCH  13  15
ENDBRANCH  12  13
BRANCH  12  17
ATOM     17  C   UNL     1     108.618  85.216  53.365  1.00  0.00    -0.006 C 
ATOM     18  C   UNL     1     108.014  86.508  52.778  1.00  0.00     0.008 C 
ATOM     19  C   UNL     1     110.044  85.056  52.805  1.00  0.00     0.008 C 
ENDBRANCH  12  17
ENDBRANCH  11  12
ENDBRANCH   1  11
TORSDOF 1
ENDMDL
MODEL 3
REMARK VINA RESULT:    -1.444      1.574      2.064
REMARK INTER + INTRA:          -2.417
REMARK INTER:                  -2.679
REMARK INTRA:                   0.262
REMARK UNBOUND:                -0.214
REMARK SMILES CC1=CCC[C@H](C)C(=O)C[C@@H](C(C)C)C(=O)C1
REMARK SMILES IDX 8 1 9 2 6 3 7 4 5 5 4 6 3 7 2 8 1 9 10 11 11 12 15 13 16 14
REMARK SMILES IDX 17 15 12 17 13 18 14 19
REMARK H PARENT
REMARK Flexibility Score: 70.00
ROOT
ATOM      1  C   UNL     1     123.339  86.140  54.408  1.00  0.00     0.136 C 
ATOM      2  O   UNL     1     124.305  86.874  54.276  1.00  0.00    -0.299 OA
ENDROOT
BRANCH   1   3
ATOM      3  C   UNL     1     123.509  84.641  54.275  1.00  0.00     0.053 C 
ATOM      4  C   UNL     1     123.705  84.280  52.799  1.00  0.00     0.016 C 
BRANCH   3   5
ATOM      5  C   UNL     1     124.701  84.127  55.116  1.00  0.00     0.015 C 
BRANCH   5   6
ATOM      6  C   UNL     1     124.625  84.530  56.595  1.00  0.00     0.028 C 
BRANCH   6   7
ATOM      7  C   UNL     1     123.720  83.611  57.375  1.00  0.00    -0.028 C 
ATOM      8  C   UNL     1     122.638  83.987  58.095  1.00  0.00    -0.070 CG0
ATOM      9  C   UNL     1     121.870  82.921  58.826  1.00  0.00     0.039 C 
ATOM     10  G   UNL     1     122.158  85.420  58.194  1.00  0.00     0.000 G0
ENDBRANCH   6   7
ENDBRANCH   5   6
ENDBRANCH   3   5
ENDBRANCH   1   3
BRANCH   1  11
ATOM     11  C   UNL     1     121.992  86.748  54.698  1.00  0.00     0.087 C 
BRANCH  11  12
ATOM     12  C   UNL     1     121.839  87.108  56.200  1.00  0.00     0.066 C 
BRANCH  12  13
ATOM     13  C   UNL     1     121.415  85.867  56.967  1.00  0.00     0.140 C 
ATOM     14  O   UNL     1     120.423  85.248  56.607  1.00  0.00    -0.299 OA
BRANCH  13  15
ATOM     15  C   UNL     1     122.134  85.423  58.211  1.00  0.00     0.106 CG0
ATOM     16  G   UNL     1     122.603  83.988  58.086  1.00  0.00     0.000 G0
ENDBRANCH  13  15
ENDBRANCH  12  13
BRANCH  12  17
ATOM     17  C   UNL     1     120.840  88.291  56.410  1.00  0.00    -0.006 C 
ATOM     18  C   UNL     1     119.587  88.173  55.520  1.00  0.00     0.008 C 
ATOM     19  C   UNL     1     120.382  88.373  57.878  1.00  0.00     0.008 C 
ENDBRANCH  12  17
ENDBRANCH  11  12
ENDBRANCH   1  11
TORSDOF 1
ENDMDL
MODEL 4
REMARK VINA RESULT:    -1.370     12.471     15.235
REMARK INTER + INTRA:          -2.304
REMARK INTER:                  -2.417
REMARK INTRA:                   0.113
REMARK UNBOUND:                -0.214
REMARK SMILES CC1=CCC[C@H](C)C(=O)C[C@@H](C(C)C)C(=O)C1
REMARK SMILES IDX 8 1 9 2 6 3 7 4 5 5 4 6 3 7 2 8 1 9 10 11 11 12 15 13 16 14
REMARK SMILES IDX 17 15 12 17 13 18 14 19
REMARK H PARENT
REMARK Flexibility Score: 70.00
ROOT
ATOM      1  C   UNL     1     107.858  87.263  54.422  1.00  0.00     0.136 C 
ATOM      2  O   UNL     1     108.863  87.126  53.743  1.00  0.00    -0.299 OA
ENDROOT
BRANCH   1   3
ATOM      3  C   UNL     1     106.549  87.643  53.760  1.00  0.00     0.053 C 
ATOM      4  C   UNL     1     106.835  88.501  52.524  1.00  0.00     0.016 C 
BRANCH   3   5
ATOM      5  C   UNL     1     105.726  86.394  53.368  1.00  0.00     0.015 C 
BRANCH   5   6
ATOM      6  C   UNL     1     104.996  85.746  54.553  1.00  0.00     0.028 C 
BRANCH   6   7
ATOM      7  C   UNL     1     105.409  84.309  54.740  1.00  0.00    -0.028 C 
ATOM      8  C   UNL     1     106.174  83.828  55.748  1.00  0.00    -0.070 CG0
ATOM      9  C   UNL     1     106.499  82.360  55.751  1.00  0.00     0.039 C 
ATOM     10  G   UNL     1     106.708  84.690  56.873  1.00  0.00     0.000 G0
ENDBRANCH   6   7
ENDBRANCH   5   6
ENDBRANCH   3   5
ENDBRANCH   1   3
BRANCH   1  11
ATOM     11  C   UNL     1     107.944  87.053  55.910  1.00  0.00     0.087 C 
BRANCH  11  12
ATOM     12  C   UNL     1     108.962  85.939  56.272  1.00  0.00     0.066 C 
BRANCH  12  13
ATOM     13  C   UNL     1     108.215  84.755  56.862  1.00  0.00     0.140 C 
ATOM     14  O   UNL     1     108.845  83.787  57.263  1.00  0.00    -0.299 OA
BRANCH  13  15
ATOM     15  C   UNL     1     106.712  84.706  56.892  1.00  0.00     0.106 CG0
ATOM     16  G   UNL     1     106.174  83.848  55.766  1.00  0.00     0.000 G0
ENDBRANCH  13  15
ENDBRANCH  12  13
BRANCH  12  17
ATOM     17  C   UNL     1     110.073  86.465  57.237  1.00  0.00    -0.006 C 
ATOM     18  C   UNL     1     111.430  86.658  56.530  1.00  0.00     0.008 C 
ATOM     19  C   UNL     1     109.666  87.808  57.871  1.00  0.00     0.008 C 
ENDBRANCH  12  17
ENDBRANCH  11  12
ENDBRANCH   1  11
TORSDOF 1
ENDMDL
MODEL 5
REMARK VINA RESULT:    -1.280     12.757     15.441
REMARK INTER + INTRA:          -2.166
REMARK INTER:                  -2.029
REMARK INTRA:                  -0.137
REMARK UNBOUND:                -0.214
REMARK SMILES CC1=CCC[C@H](C)C(=O)C[C@@H](C(C)C)C(=O)C1
REMARK SMILES IDX 8 1 9 2 6 3 7 4 5 5 4 6 3 7 2 8 1 9 10 11 11 12 15 13 16 14
REMARK SMILES IDX 17 15 12 17 13 18 14 19
REMARK H PARENT
REMARK Flexibility Score: 70.00
ROOT
ATOM      1  C   UNL     1     109.025  85.255  55.366  1.00  0.00     0.136 C 
ATOM      2  O   UNL     1     109.190  86.230  54.651  1.00  0.00    -0.299 OA
ENDROOT
BRANCH   1   3
ATOM      3  C   UNL     1     109.523  85.277  56.796  1.00  0.00     0.053 C 
ATOM      4  C   UNL     1     111.053  85.360  56.800  1.00  0.00     0.016 C 
BRANCH   3   5
ATOM      5  C   UNL     1     108.920  86.458  57.591  1.00  0.00     0.015 C 
BRANCH   5   6
ATOM      6  C   UNL     1     107.574  86.127  58.251  1.00  0.00     0.028 C 
BRANCH   6   7
ATOM      7  C   UNL     1     107.474  84.666  58.606  1.00  0.00    -0.028 C 
ATOM      8  C   UNL     1     106.608  83.776  58.068  1.00  0.00    -0.070 CG0
ATOM      9  C   UNL     1     106.647  82.359  58.571  1.00  0.00     0.039 C 
ATOM     10  G   UNL     1     105.613  84.131  56.983  1.00  0.00     0.000 G0
ENDBRANCH   6   7
ENDBRANCH   5   6
ENDBRANCH   3   5
ENDBRANCH   1   3
BRANCH   1  11
ATOM     11  C   UNL     1     108.327  84.045  54.804  1.00  0.00     0.087 C 
BRANCH  11  12
ATOM     12  C   UNL     1     106.807  84.297  54.615  1.00  0.00     0.066 C 
BRANCH  12  13
ATOM     13  C   UNL     1     106.039  83.506  55.660  1.00  0.00     0.140 C 
ATOM     14  O   UNL     1     105.686  82.362  55.407  1.00  0.00    -0.299 OA
BRANCH  13  15
ATOM     15  C   UNL     1     105.627  84.120  56.969  1.00  0.00     0.106 CG0
ATOM     16  G   UNL     1     106.610  83.770  58.067  1.00  0.00     0.000 G0
ENDBRANCH  13  15
ENDBRANCH  12  13
BRANCH  12  17
ATOM     17  C   UNL     1     106.341  83.951  53.164  1.00  0.00    -0.006 C 
ATOM     18  C   UNL     1     105.001  84.619  52.798  1.00  0.00     0.008 C 
ATOM     19  C   UNL     1     107.393  84.384  52.126  1.00  0.00     0.008 C 
ENDBRANCH  12  17
ENDBRANCH  11  12
ENDBRANCH   1  11
TORSDOF 1
ENDMDL
MODEL 6
REMARK VINA RESULT:    -1.096     11.806     14.185
REMARK INTER + INTRA:          -1.886
REMARK INTER:                  -1.611
REMARK INTRA:                  -0.274
REMARK UNBOUND:                -0.214
REMARK SMILES CC1=CCC[C@H](C)C(=O)C[C@@H](C(C)C)C(=O)C1
REMARK SMILES IDX 8 1 9 2 6 3 7 4 5 5 4 6 3 7 2 8 1 9 10 11 11 12 15 13 16 14
REMARK SMILES IDX 17 15 12 17 13 18 14 19
REMARK H PARENT
REMARK Flexibility Score: 70.00
ROOT
ATOM      1  C   UNL     1     110.277  85.327  54.550  1.00  0.00     0.136 C 
ATOM      2  O   UNL     1     111.486  85.170  54.489  1.00  0.00    -0.299 OA
ENDROOT
BRANCH   1   3
ATOM      3  C   UNL     1     109.368  84.525  53.643  1.00  0.00     0.053 C 
ATOM      4  C   UNL     1     109.855  84.649  52.196  1.00  0.00     0.016 C 
BRANCH   3   5
ATOM      5  C   UNL     1     109.311  83.038  54.064  1.00  0.00     0.015 C 
BRANCH   5   6
ATOM      6  C   UNL     1     108.302  82.759  55.188  1.00  0.00     0.028 C 
BRANCH   6   7
ATOM      7  C   UNL     1     107.014  83.513  54.977  1.00  0.00    -0.028 C 
ATOM      8  C   UNL     1     106.419  84.334  55.873  1.00  0.00    -0.070 CG0
ATOM      9  C   UNL     1     105.119  84.981  55.485  1.00  0.00     0.039 C 
ATOM     10  G   UNL     1     107.000  84.639  57.239  1.00  0.00     0.000 G0
ENDBRANCH   6   7
ENDBRANCH   5   6
ENDBRANCH   3   5
ENDBRANCH   1   3
BRANCH   1  11
ATOM     11  C   UNL     1     109.717  86.323  55.530  1.00  0.00     0.087 C 
BRANCH  11  12
ATOM     12  C   UNL     1     109.406  85.665  56.901  1.00  0.00     0.066 C 
BRANCH  12  13
ATOM     13  C   UNL     1     107.927  85.829  57.207  1.00  0.00     0.140 C 
ATOM     14  O   UNL     1     107.491  86.937  57.486  1.00  0.00    -0.299 OA
BRANCH  13  15
ATOM     15  C   UNL     1     106.996  84.649  57.257  1.00  0.00     0.106 CG0
ATOM     16  G   UNL     1     106.433  84.341  55.884  1.00  0.00     0.000 G0
ENDBRANCH  13  15
ENDBRANCH  12  13
BRANCH  12  17
ATOM     17  C   UNL     1     110.303  86.250  58.038  1.00  0.00    -0.006 C 
ATOM     18  C   UNL     1     111.521  85.357  58.351  1.00  0.00     0.008 C 
ATOM     19  C   UNL     1     110.818  87.654  57.670  1.00  0.00     0.008 C 
ENDBRANCH  12  17
ENDBRANCH  11  12
ENDBRANCH   1  11
TORSDOF 1
ENDMDL
MODEL 7
REMARK VINA RESULT:    -1.069     12.244     14.135
REMARK INTER + INTRA:          -1.845
REMARK INTER:                  -2.134
REMARK INTRA:                   0.289
REMARK UNBOUND:                -0.214
REMARK SMILES CC1=CCC[C@H](C)C(=O)C[C@@H](C(C)C)C(=O)C1
REMARK SMILES IDX 8 1 9 2 6 3 7 4 5 5 4 6 3 7 2 8 1 9 10 11 11 12 15 13 16 14
REMARK SMILES IDX 17 15 12 17 13 18 14 19
REMARK H PARENT
REMARK Flexibility Score: 70.00
ROOT
ATOM      1  C   UNL     1     108.154  87.517  54.061  1.00  0.00     0.136 C 
ATOM      2  O   UNL     1     106.938  87.428  54.016  1.00  0.00    -0.299 OA
ENDROOT
BRANCH   1   3
ATOM      3  C   UNL     1     108.998  86.848  52.996  1.00  0.00     0.053 C 
ATOM      4  C   UNL     1     110.475  86.928  53.393  1.00  0.00     0.016 C 
BRANCH   3   5
ATOM      5  C   UNL     1     108.580  85.374  52.781  1.00  0.00     0.015 C 
BRANCH   5   6
ATOM      6  C   UNL     1     108.765  84.499  54.029  1.00  0.00     0.028 C 
BRANCH   6   7
ATOM      7  C   UNL     1     107.461  84.286  54.755  1.00  0.00    -0.028 C 
ATOM      8  C   UNL     1     107.236  84.528  56.067  1.00  0.00    -0.070 CG0
ATOM      9  C   UNL     1     105.868  84.230  56.616  1.00  0.00     0.039 C 
ATOM     10  G   UNL     1     108.285  85.090  57.004  1.00  0.00     0.000 G0
ENDBRANCH   6   7
ENDBRANCH   5   6
ENDBRANCH   3   5
ENDBRANCH   1   3
BRANCH   1  11
ATOM     11  C   UNL     1     108.791  88.293  55.183  1.00  0.00     0.087 C 
BRANCH  11  12
ATOM     12  C   UNL     1     109.433  87.353  56.237  1.00  0.00     0.066 C 
BRANCH  12  13
ATOM     13  C   UNL     1     108.334  86.595  56.962  1.00  0.00     0.140 C 
ATOM     14  O   UNL     1     107.490  87.219  57.592  1.00  0.00    -0.299 OA
BRANCH  13  15
ATOM     15  C   UNL     1     108.302  85.092  56.997  1.00  0.00     0.106 CG0
ATOM     16  G   UNL     1     107.234  84.549  56.070  1.00  0.00     0.000 G0
ENDBRANCH  13  15
ENDBRANCH  12  13
BRANCH  12  17
ATOM     17  C   UNL     1     110.350  88.138  57.229  1.00  0.00    -0.006 C 
ATOM     18  C   UNL     1     110.878  87.253  58.375  1.00  0.00     0.008 C 
ATOM     19  C   UNL     1     111.560  88.750  56.498  1.00  0.00     0.008 C 
ENDBRANCH  12  17
ENDBRANCH  11  12
ENDBRANCH   1  11
TORSDOF 1
ENDMDL
MODEL 8
REMARK VINA RESULT:    -1.048      8.099     10.945
REMARK INTER + INTRA:          -1.813
REMARK INTER:                  -1.971
REMARK INTRA:                   0.158
REMARK UNBOUND:                -0.214
REMARK SMILES CC1=CCC[C@H](C)C(=O)C[C@@H](C(C)C)C(=O)C1
REMARK SMILES IDX 8 1 9 2 6 3 7 4 5 5 4 6 3 7 2 8 1 9 10 11 11 12 15 13 16 14
REMARK SMILES IDX 17 15 12 17 13 18 14 19
REMARK H PARENT
REMARK Flexibility Score: 70.00
ROOT
ATOM      1  C   UNL     1     113.323  88.398  54.984  1.00  0.00     0.136 C 
ATOM      2  O   UNL     1     114.340  87.871  54.566  1.00  0.00    -0.299 OA
ENDROOT
BRANCH   1   3
ATOM      3  C   UNL     1     112.300  88.941  54.008  1.00  0.00     0.053 C 
ATOM      4  C   UNL     1     112.644  88.463  52.594  1.00  0.00     0.016 C 
BRANCH   3   5
ATOM      5  C   UNL     1     110.865  88.507  54.386  1.00  0.00     0.015 C 
BRANCH   5   6
ATOM      6  C   UNL     1     110.702  86.986  54.520  1.00  0.00     0.028 C 
BRANCH   6   7
ATOM      7  C   UNL     1     109.733  86.626  55.617  1.00  0.00    -0.028 C 
ATOM      8  C   UNL     1     110.039  85.968  56.759  1.00  0.00    -0.070 CG0
ATOM      9  C   UNL     1     108.926  85.680  57.728  1.00  0.00     0.039 C 
ATOM     10  G   UNL     1     111.441  85.517  57.114  1.00  0.00     0.000 G0
ENDBRANCH   6   7
ENDBRANCH   5   6
ENDBRANCH   3   5
ENDBRANCH   1   3
BRANCH   1  11
ATOM     11  C   UNL     1     113.108  88.499  56.471  1.00  0.00     0.087 C 
BRANCH  11  12
ATOM     12  C   UNL     1     113.477  87.176  57.193  1.00  0.00     0.066 C 
BRANCH  12  13
ATOM     13  C   UNL     1     112.222  86.580  57.809  1.00  0.00     0.140 C 
ATOM     14  O   UNL     1     111.877  86.932  58.929  1.00  0.00    -0.299 OA
BRANCH  13  15
ATOM     15  C   UNL     1     111.435  85.505  57.112  1.00  0.00     0.106 CG0
ATOM     16  G   UNL     1     110.039  85.985  56.774  1.00  0.00     0.000 G0
ENDBRANCH  13  15
ENDBRANCH  12  13
BRANCH  12  17
ATOM     17  C   UNL     1     114.600  87.393  58.258  1.00  0.00    -0.006 C 
ATOM     18  C   UNL     1     116.014  87.338  57.646  1.00  0.00     0.008 C 
ATOM     19  C   UNL     1     114.435  88.750  58.967  1.00  0.00     0.008 C 
ENDBRANCH  12  17
ENDBRANCH  11  12
ENDBRANCH   1  11
TORSDOF 1
ENDMDL
MODEL 9
REMARK VINA RESULT:    -0.947     10.675     13.169
REMARK INTER + INTRA:          -1.658
REMARK INTER:                  -2.238
REMARK INTRA:                   0.580
REMARK UNBOUND:                -0.214
REMARK SMILES CC1=CCC[C@H](C)C(=O)C[C@@H](C(C)C)C(=O)C1
REMARK SMILES IDX 8 1 9 2 6 3 7 4 5 5 4 6 3 7 2 8 1 9 10 11 11 12 15 13 16 14
REMARK SMILES IDX 17 15 12 17 13 18 14 19
REMARK H PARENT
REMARK Flexibility Score: 70.00
ROOT
ATOM      1  C   UNL     1     107.854  87.204  54.959  1.00  0.00     0.136 C 
ATOM      2  O   UNL     1     106.780  86.764  54.580  1.00  0.00    -0.299 OA
ENDROOT
BRANCH   1   3
ATOM      3  C   UNL     1     109.105  86.935  54.150  1.00  0.00     0.053 C 
ATOM      4  C   UNL     1     108.842  85.782  53.176  1.00  0.00     0.016 C 
BRANCH   3   5
ATOM      5  C   UNL     1     109.567  88.193  53.379  1.00  0.00     0.015 C 
BRANCH   5   6
ATOM      6  C   UNL     1     110.604  89.030  54.141  1.00  0.00     0.028 C 
BRANCH   6   7
ATOM      7  C   UNL     1     111.543  88.161  54.937  1.00  0.00    -0.028 C 
ATOM      8  C   UNL     1     111.519  87.989  56.279  1.00  0.00    -0.070 CG0
ATOM      9  C   UNL     1     112.557  87.094  56.896  1.00  0.00     0.039 C 
ATOM     10  G   UNL     1     110.496  88.643  57.185  1.00  0.00     0.000 G0
ENDBRANCH   6   7
ENDBRANCH   5   6
ENDBRANCH   3   5
ENDBRANCH   1   3
BRANCH   1  11
ATOM     11  C   UNL     1     107.908  88.008  56.231  1.00  0.00     0.087 C 
BRANCH  11  12
ATOM     12  C   UNL     1     108.343  87.137  57.440  1.00  0.00     0.066 C 
BRANCH  12  13
ATOM     13  C   UNL     1     109.688  87.629  57.948  1.00  0.00     0.140 C 
ATOM     14  O   UNL     1     110.100  87.239  59.032  1.00  0.00    -0.299 OA
BRANCH  13  15
ATOM     15  C   UNL     1     110.492  88.650  57.191  1.00  0.00     0.106 CG0
ATOM     16  G   UNL     1     111.501  87.982  56.280  1.00  0.00     0.000 G0
ENDBRANCH  13  15
ENDBRANCH  12  13
BRANCH  12  17
ATOM     17  C   UNL     1     108.381  85.619  57.073  1.00  0.00    -0.006 C 
ATOM     18  C   UNL     1     109.722  84.953  57.442  1.00  0.00     0.008 C 
ATOM     19  C   UNL     1     107.251  84.849  57.783  1.00  0.00     0.008 C 
ENDBRANCH  12  17
ENDBRANCH  11  12
ENDBRANCH   1  11
TORSDOF 1
ENDMDL
