MODEL 1
REMARK VINA RESULT:    -2.832      0.000      0.000
REMARK INTER + INTRA:          -3.357
REMARK INTER:                  -3.328
REMARK INTRA:                  -0.029
REMARK UNBOUND:                -0.029
REMARK SMILES O=C([O-])CCC(=O)[O-]
REMARK SMILES IDX 4 1 2 2 1 3 3 4 5 5 6 6 7 7 8 8
REMARK H PARENT
REMARK Flexibility Score: inf
ROOT
ATOM      1  C   UNL     1      38.577  37.322  19.198  1.00  0.00     0.059 C 
ENDROOT
BRANCH   1   2
ATOM      2  C   UNL     1      38.437  35.833  19.116  1.00  0.00     0.042 C 
ATOM      3  O   UNL     1      38.577  35.125  20.148  1.00  0.00    -0.550 OA
ATOM      4  O   UNL     1      38.193  35.223  17.891  1.00  0.00    -0.550 OA
ENDBRANCH   1   2
BRANCH   1   5
ATOM      5  C   UNL     1      37.699  37.910  20.308  1.00  0.00     0.059 C 
BRANCH   5   6
ATOM      6  C   UNL     1      37.305  39.324  20.007  1.00  0.00     0.042 C 
ATOM      7  O   UNL     1      36.179  39.758  20.366  1.00  0.00    -0.550 OA
ATOM      8  O   UNL     1      38.198  40.174  19.366  1.00  0.00    -0.550 OA
ENDBRANCH   5   6
ENDBRANCH   1   5
TORSDOF 3
ENDMDL
MODEL 2
REMARK VINA RESULT:    -2.816      0.101      4.194
REMARK INTER + INTRA:          -3.340
REMARK INTER:                  -3.310
REMARK INTRA:                  -0.030
REMARK UNBOUND:                -0.029
REMARK SMILES O=C([O-])CCC(=O)[O-]
REMARK SMILES IDX 4 1 2 2 1 3 3 4 5 5 6 6 7 7 8 8
REMARK H PARENT
REMARK Flexibility Score: inf
ROOT
ATOM      1  C   UNL     1      37.700  37.902  20.331  1.00  0.00     0.059 C 
ENDROOT
BRANCH   1   2
ATOM      2  C   UNL     1      37.313  39.313  20.009  1.00  0.00     0.042 C 
ATOM      3  O   UNL     1      36.183  39.753  20.350  1.00  0.00    -0.550 OA
ATOM      4  O   UNL     1      38.183  40.129  19.297  1.00  0.00    -0.550 OA
ENDBRANCH   1   2
BRANCH   1   5
ATOM      5  C   UNL     1      38.530  37.275  19.206  1.00  0.00     0.059 C 
BRANCH   5   6
ATOM      6  C   UNL     1      38.417  35.781  19.204  1.00  0.00     0.042 C 
ATOM      7  O   UNL     1      38.475  35.140  20.285  1.00  0.00    -0.550 OA
ATOM      8  O   UNL     1      38.207  35.101  18.010  1.00  0.00    -0.550 OA
ENDBRANCH   5   6
ENDBRANCH   1   5
TORSDOF 3
ENDMDL
MODEL 3
REMARK VINA RESULT:    -2.775      2.399      3.715
REMARK INTER + INTRA:          -3.291
REMARK INTER:                  -3.261
REMARK INTRA:                  -0.029
REMARK UNBOUND:                -0.029
REMARK SMILES O=C([O-])CCC(=O)[O-]
REMARK SMILES IDX 4 1 2 2 1 3 3 4 5 5 6 6 7 7 8 8
REMARK H PARENT
REMARK Flexibility Score: inf
ROOT
ATOM      1  C   UNL     1      39.302  38.925  18.492  1.00  0.00     0.059 C 
ENDROOT
BRANCH   1   2
ATOM      2  C   UNL     1      40.154  39.709  17.543  1.00  0.00     0.042 C 
ATOM      3  O   UNL     1      40.180  39.411  16.320  1.00  0.00    -0.550 OA
ATOM      4  O   UNL     1      40.953  40.744  18.016  1.00  0.00    -0.550 OA
ENDBRANCH   1   2
BRANCH   1   5
ATOM      5  C   UNL     1      38.414  39.840  19.343  1.00  0.00     0.059 C 
BRANCH   5   6
ATOM      6  C   UNL     1      37.340  39.069  20.046  1.00  0.00     0.042 C 
ATOM      7  O   UNL     1      36.263  39.634  20.371  1.00  0.00    -0.550 OA
ATOM      8  O   UNL     1      37.513  37.715  20.308  1.00  0.00    -0.550 OA
ENDBRANCH   5   6
ENDBRANCH   1   5
TORSDOF 3
ENDMDL
MODEL 4
REMARK VINA RESULT:    -2.756      2.406      3.893
REMARK INTER + INTRA:          -3.268
REMARK INTER:                  -3.238
REMARK INTRA:                  -0.030
REMARK UNBOUND:                -0.029
REMARK SMILES O=C([O-])CCC(=O)[O-]
REMARK SMILES IDX 4 1 2 2 1 3 3 4 5 5 6 6 7 7 8 8
REMARK H PARENT
REMARK Flexibility Score: inf
ROOT
ATOM      1  C   UNL     1      38.424  39.833  19.362  1.00  0.00     0.059 C 
ENDROOT
BRANCH   1   2
ATOM      2  C   UNL     1      37.333  39.058  20.036  1.00  0.00     0.042 C 
ATOM      3  O   UNL     1      36.269  39.635  20.384  1.00  0.00    -0.550 OA
ATOM      4  O   UNL     1      37.508  37.709  20.317  1.00  0.00    -0.550 OA
ENDBRANCH   1   2
BRANCH   1   5
ATOM      5  C   UNL     1      39.331  38.921  18.528  1.00  0.00     0.059 C 
BRANCH   5   6
ATOM      6  C   UNL     1      40.152  39.706  17.551  1.00  0.00     0.042 C 
ATOM      7  O   UNL     1      40.828  40.693  17.941  1.00  0.00    -0.550 OA
ATOM      8  O   UNL     1      40.201  39.321  16.216  1.00  0.00    -0.550 OA
ENDBRANCH   5   6
ENDBRANCH   1   5
TORSDOF 3
ENDMDL
MODEL 5
REMARK VINA RESULT:    -2.751      0.336      4.321
REMARK INTER + INTRA:          -3.263
REMARK INTER:                  -3.232
REMARK INTRA:                  -0.031
REMARK UNBOUND:                -0.029
REMARK SMILES O=C([O-])CCC(=O)[O-]
REMARK SMILES IDX 4 1 2 2 1 3 3 4 5 5 6 6 7 7 8 8
REMARK H PARENT
REMARK Flexibility Score: inf
ROOT
ATOM      1  C   UNL     1      37.594  37.655  20.228  1.00  0.00     0.059 C 
ENDROOT
BRANCH   1   2
ATOM      2  C   UNL     1      37.446  39.133  20.035  1.00  0.00     0.042 C 
ATOM      3  O   UNL     1      38.396  39.808  19.559  1.00  0.00    -0.550 OA
ATOM      4  O   UNL     1      36.272  39.771  20.419  1.00  0.00    -0.550 OA
ENDBRANCH   1   2
BRANCH   1   5
ATOM      5  C   UNL     1      38.510  37.036  19.166  1.00  0.00     0.059 C 
BRANCH   5   6
ATOM      6  C   UNL     1      38.479  35.539  19.216  1.00  0.00     0.042 C 
ATOM      7  O   UNL     1      38.252  34.875  18.170  1.00  0.00    -0.550 OA
ATOM      8  O   UNL     1      38.739  34.877  20.409  1.00  0.00    -0.550 OA
ENDBRANCH   5   6
ENDBRANCH   1   5
TORSDOF 3
ENDMDL
MODEL 6
REMARK VINA RESULT:    -2.613      2.129      3.008
REMARK INTER + INTRA:          -3.101
REMARK INTER:                  -3.054
REMARK INTRA:                  -0.046
REMARK UNBOUND:                -0.029
REMARK SMILES O=C([O-])CCC(=O)[O-]
REMARK SMILES IDX 4 1 2 2 1 3 3 4 5 5 6 6 7 7 8 8
REMARK H PARENT
REMARK Flexibility Score: inf
ROOT
ATOM      1  C   UNL     1      39.471  38.176  18.827  1.00  0.00     0.059 C 
ENDROOT
BRANCH   1   2
ATOM      2  C   UNL     1      39.910  38.410  17.414  1.00  0.00     0.042 C 
ATOM      3  O   UNL     1      40.271  37.442  16.694  1.00  0.00    -0.550 OA
ATOM      4  O   UNL     1      39.961  39.703  16.906  1.00  0.00    -0.550 OA
ENDBRANCH   1   2
BRANCH   1   5
ATOM      5  C   UNL     1      38.592  39.320  19.342  1.00  0.00     0.059 C 
BRANCH   5   6
ATOM      6  C   UNL     1      37.382  38.806  20.060  1.00  0.00     0.042 C 
ATOM      7  O   UNL     1      37.319  37.598  20.410  1.00  0.00    -0.550 OA
ATOM      8  O   UNL     1      36.342  39.670  20.378  1.00  0.00    -0.550 OA
ENDBRANCH   5   6
ENDBRANCH   1   5
TORSDOF 3
ENDMDL
MODEL 7
REMARK VINA RESULT:    -2.346      1.956      3.947
REMARK INTER + INTRA:          -2.787
REMARK INTER:                  -2.739
REMARK INTRA:                  -0.048
REMARK UNBOUND:                -0.029
REMARK SMILES O=C([O-])CCC(=O)[O-]
REMARK SMILES IDX 4 1 2 2 1 3 3 4 5 5 6 6 7 7 8 8
REMARK H PARENT
REMARK Flexibility Score: inf
ROOT
ATOM      1  C   UNL     1      37.877  39.550  19.187  1.00  0.00     0.059 C 
ENDROOT
BRANCH   1   2
ATOM      2  C   UNL     1      39.204  39.964  18.630  1.00  0.00     0.042 C 
ATOM      3  O   UNL     1      39.787  39.243  17.779  1.00  0.00    -0.550 OA
ATOM      4  O   UNL     1      39.817  41.127  19.082  1.00  0.00    -0.550 OA
ENDBRANCH   1   2
BRANCH   1   5
ATOM      5  C   UNL     1      38.038  38.648  20.416  1.00  0.00     0.059 C 
BRANCH   5   6
ATOM      6  C   UNL     1      37.804  37.207  20.077  1.00  0.00     0.042 C 
ATOM      7  O   UNL     1      38.088  36.772  18.931  1.00  0.00    -0.550 OA
ATOM      8  O   UNL     1      37.309  36.338  21.041  1.00  0.00    -0.550 OA
ENDBRANCH   5   6
ENDBRANCH   1   5
TORSDOF 3
ENDMDL
MODEL 8
REMARK VINA RESULT:    -2.200     21.876     24.064
REMARK INTER + INTRA:          -2.615
REMARK INTER:                  -2.570
REMARK INTRA:                  -0.045
REMARK UNBOUND:                -0.029
REMARK SMILES O=C([O-])CCC(=O)[O-]
REMARK SMILES IDX 4 1 2 2 1 3 3 4 5 5 6 6 7 7 8 8
REMARK H PARENT
REMARK Flexibility Score: inf
ROOT
ATOM      1  C   UNL     1      22.748  52.916  28.930  1.00  0.00     0.059 C 
ENDROOT
BRANCH   1   2
ATOM      2  C   UNL     1      23.569  52.693  27.697  1.00  0.00     0.042 C 
ATOM      3  O   UNL     1      23.959  53.673  27.009  1.00  0.00    -0.550 OA
ATOM      4  O   UNL     1      23.868  51.400  27.284  1.00  0.00    -0.550 OA
ENDBRANCH   1   2
BRANCH   1   5
ATOM      5  C   UNL     1      22.393  54.396  29.111  1.00  0.00     0.059 C 
BRANCH   5   6
ATOM      6  C   UNL     1      22.309  54.770  30.559  1.00  0.00     0.042 C 
ATOM      7  O   UNL     1      21.193  55.020  31.085  1.00  0.00    -0.550 OA
ATOM      8  O   UNL     1      23.459  54.804  31.337  1.00  0.00    -0.550 OA
ENDBRANCH   5   6
ENDBRANCH   1   5
TORSDOF 3
ENDMDL
MODEL 9
REMARK VINA RESULT:    -2.191      1.494      2.039
REMARK INTER + INTRA:          -2.605
REMARK INTER:                  -2.569
REMARK INTRA:                  -0.036
REMARK UNBOUND:                -0.029
REMARK SMILES O=C([O-])CCC(=O)[O-]
REMARK SMILES IDX 4 1 2 2 1 3 3 4 5 5 6 6 7 7 8 8
REMARK H PARENT
REMARK Flexibility Score: inf
ROOT
ATOM      1  C   UNL     1      38.786  36.763  18.883  1.00  0.00     0.059 C 
ENDROOT
BRANCH   1   2
ATOM      2  C   UNL     1      39.210  36.087  17.615  1.00  0.00     0.042 C 
ATOM      3  O   UNL     1      38.930  34.875  17.419  1.00  0.00    -0.550 OA
ATOM      4  O   UNL     1      39.950  36.784  16.668  1.00  0.00    -0.550 OA
ENDBRANCH   1   2
BRANCH   1   5
ATOM      5  C   UNL     1      39.268  38.217  18.936  1.00  0.00     0.059 C 
BRANCH   5   6
ATOM      6  C   UNL     1      38.315  39.087  19.697  1.00  0.00     0.042 C 
ATOM      7  O   UNL     1      37.994  40.218  19.249  1.00  0.00    -0.550 OA
ATOM      8  O   UNL     1      37.752  38.630  20.882  1.00  0.00    -0.550 OA
ENDBRANCH   5   6
ENDBRANCH   1   5
TORSDOF 3
ENDMDL
