MODEL 1
REMARK VINA RESULT:    -3.564      0.000      0.000
REMARK INTER + INTRA:          -4.991
REMARK INTER:                  -4.605
REMARK INTRA:                  -0.386
REMARK UNBOUND:                -0.386
REMARK SMILES CCO[C@H]1O[C@H](CO)[C@@H](O)[C@H](O)[C@@H]1O
REMARK SMILES IDX 4 1 13 2 11 3 9 4 6 5 5 6 3 7 2 8 1 9 14 10 12 12 7 14 8 15
REMARK SMILES IDX 10 17
REMARK H PARENT 14 11 12 13 8 16 10 18
REMARK Flexibility Score: inf
ROOT
ATOM      1  C   UNL     1       7.759   5.523   2.492  1.00  0.00     0.281 C 
ATOM      2  C   UNL     1       8.486   4.755   1.367  1.00  0.00     0.202 C 
ATOM      3  C   UNL     1       7.466   4.222   0.349  1.00  0.00     0.179 C 
ATOM      4  C   UNL     1       6.353   3.438   1.065  1.00  0.00     0.177 C 
ATOM      5  C   UNL     1       5.768   4.291   2.218  1.00  0.00     0.178 C 
ATOM      6  O   UNL     1       6.791   4.693   3.118  1.00  0.00    -0.341 OA
ENDROOT
BRANCH   1   7
ATOM      7  O   UNL     1       7.145   6.702   1.987  1.00  0.00    -0.350 OA
BRANCH   7   8
ATOM      8  C   UNL     1       8.112   7.666   1.629  1.00  0.00     0.160 C 
ATOM      9  C   UNL     1       7.421   8.837   0.949  1.00  0.00     0.035 C 
ENDBRANCH   7   8
ENDBRANCH   1   7
BRANCH   2  10
ATOM     10  O   UNL     1       9.211   3.681   1.914  1.00  0.00    -0.385 OA
ATOM     11  H   UNL     1       9.035   3.685   2.892  1.00  0.00     0.211 HD
ENDBRANCH   2  10
BRANCH   3  12
ATOM     12  O   UNL     1       8.103   3.388  -0.585  1.00  0.00    -0.387 OA
ATOM     13  H   UNL     1       8.115   3.881  -1.447  1.00  0.00     0.211 HD
ENDBRANCH   3  12
BRANCH   5  14
ATOM     14  C   UNL     1       4.725   3.500   3.024  1.00  0.00     0.191 C 
BRANCH  14  15
ATOM     15  O   UNL     1       4.938   2.118   2.900  1.00  0.00    -0.394 OA
ATOM     16  H   UNL     1       5.533   1.984   2.116  1.00  0.00     0.210 HD
ENDBRANCH  14  15
ENDBRANCH   5  14
BRANCH   4  17
ATOM     17  O   UNL     1       5.340   3.125   0.142  1.00  0.00    -0.387 OA
ATOM     18  H   UNL     1       5.142   2.158   0.248  1.00  0.00     0.211 HD
ENDBRANCH   4  17
TORSDOF 7
ENDMDL
MODEL 2
REMARK VINA RESULT:    -3.541      1.475      4.297
REMARK INTER + INTRA:          -4.961
REMARK INTER:                  -4.583
REMARK INTRA:                  -0.379
REMARK UNBOUND:                -0.386
REMARK SMILES CCO[C@H]1O[C@H](CO)[C@@H](O)[C@H](O)[C@@H]1O
REMARK SMILES IDX 4 1 13 2 11 3 9 4 6 5 5 6 3 7 2 8 1 9 14 10 12 12 7 14 8 15
REMARK SMILES IDX 10 17
REMARK H PARENT 14 11 12 13 8 16 10 18
REMARK Flexibility Score: inf
ROOT
ATOM      1  C   UNL     1       6.601   3.908   1.692  1.00  0.00     0.281 C 
ATOM      2  C   UNL     1       7.989   3.231   1.708  1.00  0.00     0.202 C 
ATOM      3  C   UNL     1       8.956   4.033   2.595  1.00  0.00     0.179 C 
ATOM      4  C   UNL     1       8.954   5.515   2.186  1.00  0.00     0.177 C 
ATOM      5  C   UNL     1       7.499   6.043   2.132  1.00  0.00     0.178 C 
ATOM      6  O   UNL     1       6.708   5.254   1.254  1.00  0.00    -0.341 OA
ENDROOT
BRANCH   1   7
ATOM      7  O   UNL     1       5.996   3.855   2.978  1.00  0.00    -0.350 OA
BRANCH   7   8
ATOM      8  C   UNL     1       4.960   2.896   3.013  1.00  0.00     0.160 C 
ATOM      9  C   UNL     1       4.370   2.750   1.620  1.00  0.00     0.035 C 
ENDBRANCH   7   8
ENDBRANCH   1   7
BRANCH   2  10
ATOM     10  O   UNL     1       8.500   3.159   0.400  1.00  0.00    -0.385 OA
ATOM     11  H   UNL     1       9.042   2.328   0.350  1.00  0.00     0.211 HD
ENDBRANCH   2  10
BRANCH   3  12
ATOM     12  O   UNL     1      10.257   3.515   2.485  1.00  0.00    -0.387 OA
ATOM     13  H   UNL     1      10.744   4.101   1.849  1.00  0.00     0.211 HD
ENDBRANCH   3  12
BRANCH   5  14
ATOM     14  C   UNL     1       7.450   7.493   1.625  1.00  0.00     0.191 C 
BRANCH  14  15
ATOM     15  O   UNL     1       8.596   7.801   0.875  1.00  0.00    -0.394 OA
ATOM     16  H   UNL     1       8.650   7.138   0.139  1.00  0.00     0.210 HD
ENDBRANCH  14  15
ENDBRANCH   5  14
BRANCH   4  17
ATOM     17  O   UNL     1       9.694   6.254   3.125  1.00  0.00    -0.387 OA
ATOM     18  H   UNL     1      10.637   6.254   2.814  1.00  0.00     0.211 HD
ENDBRANCH   4  17
TORSDOF 7
ENDMDL
MODEL 3
REMARK VINA RESULT:    -3.228      2.148      4.144
REMARK INTER + INTRA:          -4.557
REMARK INTER:                  -4.376
REMARK INTRA:                  -0.181
REMARK UNBOUND:                -0.386
REMARK SMILES CCO[C@H]1O[C@H](CO)[C@@H](O)[C@H](O)[C@@H]1O
REMARK SMILES IDX 4 1 13 2 11 3 9 4 6 5 5 6 3 7 2 8 1 9 14 10 12 12 7 14 8 15
REMARK SMILES IDX 10 17
REMARK H PARENT 14 11 12 13 8 16 10 18
REMARK Flexibility Score: inf
ROOT
ATOM      1  C   UNL     1      10.278   6.118   1.594  1.00  0.00     0.281 C 
ATOM      2  C   UNL     1       9.446   7.403   1.801  1.00  0.00     0.202 C 
ATOM      3  C   UNL     1       8.123   7.065   2.508  1.00  0.00     0.179 C 
ATOM      4  C   UNL     1       7.398   5.927   1.771  1.00  0.00     0.177 C 
ATOM      5  C   UNL     1       8.367   4.738   1.558  1.00  0.00     0.178 C 
ATOM      6  O   UNL     1       9.533   5.155   0.863  1.00  0.00    -0.341 OA
ENDROOT
BRANCH   1   7
ATOM      7  O   UNL     1      10.693   5.576   2.841  1.00  0.00    -0.350 OA
BRANCH   7   8
ATOM      8  C   UNL     1      11.921   4.890   2.713  1.00  0.00     0.160 C 
ATOM      9  C   UNL     1      12.811   5.641   1.735  1.00  0.00     0.035 C 
ENDBRANCH   7   8
ENDBRANCH   1   7
BRANCH   2  10
ATOM     10  O   UNL     1       9.177   8.003   0.559  1.00  0.00    -0.385 OA
ATOM     11  H   UNL     1       9.985   7.871  -0.004  1.00  0.00     0.211 HD
ENDBRANCH   2  10
BRANCH   3  12
ATOM     12  O   UNL     1       7.295   8.199   2.554  1.00  0.00    -0.387 OA
ATOM     13  H   UNL     1       7.235   8.547   1.626  1.00  0.00     0.211 HD
ENDBRANCH   3  12
BRANCH   5  14
ATOM     14  C   UNL     1       7.709   3.621   0.732  1.00  0.00     0.191 C 
BRANCH  14  15
ATOM     15  O   UNL     1       8.310   3.511  -0.531  1.00  0.00    -0.394 OA
ATOM     16  H   UNL     1       9.050   4.172  -0.561  1.00  0.00     0.210 HD
ENDBRANCH  14  15
ENDBRANCH   5  14
BRANCH   4  17
ATOM     17  O   UNL     1       6.294   5.510   2.536  1.00  0.00    -0.387 OA
ATOM     18  H   UNL     1       5.672   5.048   1.916  1.00  0.00     0.211 HD
ENDBRANCH   4  17
TORSDOF 7
ENDMDL
MODEL 4
REMARK VINA RESULT:    -3.007      2.987      5.512
REMARK INTER + INTRA:          -4.272
REMARK INTER:                  -3.903
REMARK INTRA:                  -0.369
REMARK UNBOUND:                -0.386
REMARK SMILES CCO[C@H]1O[C@H](CO)[C@@H](O)[C@H](O)[C@@H]1O
REMARK SMILES IDX 4 1 13 2 11 3 9 4 6 5 5 6 3 7 2 8 1 9 14 10 12 12 7 14 8 15
REMARK SMILES IDX 10 17
REMARK H PARENT 14 11 12 13 8 16 10 18
REMARK Flexibility Score: inf
ROOT
ATOM      1  C   UNL     1       9.058   5.420   2.232  1.00  0.00     0.281 C 
ATOM      2  C   UNL     1       9.151   6.930   1.920  1.00  0.00     0.202 C 
ATOM      3  C   UNL     1      10.463   7.235   1.180  1.00  0.00     0.179 C 
ATOM      4  C   UNL     1      11.660   6.649   1.948  1.00  0.00     0.177 C 
ATOM      5  C   UNL     1      11.400   5.156   2.266  1.00  0.00     0.178 C 
ATOM      6  O   UNL     1      10.185   4.997   2.985  1.00  0.00    -0.341 OA
ENDROOT
BRANCH   1   7
ATOM      7  O   UNL     1       8.951   4.661   1.035  1.00  0.00    -0.350 OA
BRANCH   7   8
ATOM      8  C   UNL     1       8.110   3.541   1.217  1.00  0.00     0.160 C 
ATOM      9  C   UNL     1       6.728   3.862   0.671  1.00  0.00     0.035 C 
ENDBRANCH   7   8
ENDBRANCH   1   7
BRANCH   2  10
ATOM     10  O   UNL     1       9.102   7.669   3.115  1.00  0.00    -0.385 OA
ATOM     11  H   UNL     1       8.311   7.342   3.621  1.00  0.00     0.211 HD
ENDBRANCH   2  10
BRANCH   3  12
ATOM     12  O   UNL     1      10.629   8.622   1.037  1.00  0.00    -0.387 OA
ATOM     13  H   UNL     1       9.996   8.914   0.330  1.00  0.00     0.211 HD
ENDBRANCH   3  12
BRANCH   5  14
ATOM     14  C   UNL     1      12.529   4.563   3.125  1.00  0.00     0.191 C 
BRANCH  14  15
ATOM     15  O   UNL     1      13.583   4.105   2.320  1.00  0.00    -0.394 OA
ATOM     16  H   UNL     1      14.206   4.868   2.192  1.00  0.00     0.210 HD
ENDBRANCH  14  15
ENDBRANCH   5  14
BRANCH   4  17
ATOM     17  O   UNL     1      12.820   6.774   1.163  1.00  0.00    -0.387 OA
ATOM     18  H   UNL     1      12.656   6.270   0.324  1.00  0.00     0.211 HD
ENDBRANCH   4  17
TORSDOF 7
ENDMDL
MODEL 5
REMARK VINA RESULT:    -2.975     10.908     12.950
REMARK INTER + INTRA:          -4.230
REMARK INTER:                  -3.924
REMARK INTRA:                  -0.306
REMARK UNBOUND:                -0.386
REMARK SMILES CCO[C@H]1O[C@H](CO)[C@@H](O)[C@H](O)[C@@H]1O
REMARK SMILES IDX 4 1 13 2 11 3 9 4 6 5 5 6 3 7 2 8 1 9 14 10 12 12 7 14 8 15
REMARK SMILES IDX 10 17
REMARK H PARENT 14 11 12 13 8 16 10 18
REMARK Flexibility Score: inf
ROOT
ATOM      1  C   UNL     1      17.853   8.364   1.299  1.00  0.00     0.281 C 
ATOM      2  C   UNL     1      17.809   7.071   0.455  1.00  0.00     0.202 C 
ATOM      3  C   UNL     1      18.996   6.164   0.818  1.00  0.00     0.179 C 
ATOM      4  C   UNL     1      20.314   6.952   0.743  1.00  0.00     0.177 C 
ATOM      5  C   UNL     1      20.193   8.260   1.564  1.00  0.00     0.178 C 
ATOM      6  O   UNL     1      19.090   9.036   1.117  1.00  0.00    -0.341 OA
ENDROOT
BRANCH   1   7
ATOM      7  O   UNL     1      17.645   8.077   2.676  1.00  0.00    -0.350 OA
BRANCH   7   8
ATOM      8  C   UNL     1      16.414   8.604   3.125  1.00  0.00     0.160 C 
ATOM      9  C   UNL     1      15.354   7.515   3.062  1.00  0.00     0.035 C 
ENDBRANCH   7   8
ENDBRANCH   1   7
BRANCH   2  10
ATOM     10  O   UNL     1      17.863   7.392  -0.913  1.00  0.00    -0.385 OA
ATOM     11  H   UNL     1      18.818   7.345  -1.181  1.00  0.00     0.211 HD
ENDBRANCH   2  10
BRANCH   3  12
ATOM     12  O   UNL     1      19.053   5.066  -0.056  1.00  0.00    -0.387 OA
ATOM     13  H   UNL     1      18.287   5.159  -0.681  1.00  0.00     0.211 HD
ENDBRANCH   3  12
BRANCH   5  14
ATOM     14  C   UNL     1      21.456   9.125   1.427  1.00  0.00     0.191 C 
BRANCH  14  15
ATOM     15  O   UNL     1      21.972   9.055   0.123  1.00  0.00    -0.394 OA
ATOM     16  H   UNL     1      21.875   9.958  -0.277  1.00  0.00     0.210 HD
ENDBRANCH  14  15
ENDBRANCH   5  14
BRANCH   4  17
ATOM     17  O   UNL     1      21.356   6.161   1.259  1.00  0.00    -0.387 OA
ATOM     18  H   UNL     1      22.197   6.671   1.129  1.00  0.00     0.211 HD
ENDBRANCH   4  17
TORSDOF 7
ENDMDL
MODEL 6
REMARK VINA RESULT:    -2.942     10.451     12.479
REMARK INTER + INTRA:          -4.188
REMARK INTER:                  -4.093
REMARK INTRA:                  -0.095
REMARK UNBOUND:                -0.386
REMARK SMILES CCO[C@H]1O[C@H](CO)[C@@H](O)[C@H](O)[C@@H]1O
REMARK SMILES IDX 4 1 13 2 11 3 9 4 6 5 5 6 3 7 2 8 1 9 14 10 12 12 7 14 8 15
REMARK SMILES IDX 10 17
REMARK H PARENT 14 11 12 13 8 16 10 18
REMARK Flexibility Score: inf
ROOT
ATOM      1  C   UNL     1      17.189   7.786   0.729  1.00  0.00     0.281 C 
ATOM      2  C   UNL     1      17.819   8.518   1.934  1.00  0.00     0.202 C 
ATOM      3  C   UNL     1      19.344   8.606   1.758  1.00  0.00     0.179 C 
ATOM      4  C   UNL     1      19.929   7.216   1.457  1.00  0.00     0.177 C 
ATOM      5  C   UNL     1      19.155   6.563   0.285  1.00  0.00     0.178 C 
ATOM      6  O   UNL     1      17.765   6.497   0.573  1.00  0.00    -0.341 OA
ENDROOT
BRANCH   1   7
ATOM      7  O   UNL     1      17.345   8.543  -0.464  1.00  0.00    -0.350 OA
BRANCH   7   8
ATOM      8  C   UNL     1      16.109   9.074  -0.894  1.00  0.00     0.160 C 
ATOM      9  C   UNL     1      15.151   9.124   0.285  1.00  0.00     0.035 C 
ENDBRANCH   7   8
ENDBRANCH   1   7
BRANCH   2  10
ATOM     10  O   UNL     1      17.520   7.828   3.122  1.00  0.00    -0.385 OA
ATOM     11  H   UNL     1      17.864   6.903   3.010  1.00  0.00     0.211 HD
ENDBRANCH   2  10
BRANCH   3  12
ATOM     12  O   UNL     1      19.937   9.125   2.921  1.00  0.00    -0.387 OA
ATOM     13  H   UNL     1      20.909   8.936   2.854  1.00  0.00     0.211 HD
ENDBRANCH   3  12
BRANCH   5  14
ATOM     14  C   UNL     1      19.643   5.129   0.024  1.00  0.00     0.191 C 
BRANCH  14  15
ATOM     15  O   UNL     1      20.882   5.133  -0.636  1.00  0.00    -0.394 OA
ATOM     16  H   UNL     1      20.720   4.817  -1.562  1.00  0.00     0.210 HD
ENDBRANCH  14  15
ENDBRANCH   5  14
BRANCH   4  17
ATOM     17  O   UNL     1      21.286   7.350   1.116  1.00  0.00    -0.387 OA
ATOM     18  H   UNL     1      21.717   7.869   1.843  1.00  0.00     0.211 HD
ENDBRANCH   4  17
TORSDOF 7
ENDMDL
MODEL 7
REMARK VINA RESULT:    -2.811      1.938      3.864
REMARK INTER + INTRA:          -4.018
REMARK INTER:                  -3.826
REMARK INTRA:                  -0.193
REMARK UNBOUND:                -0.386
REMARK SMILES CCO[C@H]1O[C@H](CO)[C@@H](O)[C@H](O)[C@@H]1O
REMARK SMILES IDX 4 1 13 2 11 3 9 4 6 5 5 6 3 7 2 8 1 9 14 10 12 12 7 14 8 15
REMARK SMILES IDX 10 17
REMARK H PARENT 14 11 12 13 8 16 10 18
REMARK Flexibility Score: inf
ROOT
ATOM      1  C   UNL     1       7.113   6.123   1.724  1.00  0.00     0.281 C 
ATOM      2  C   UNL     1       6.765   4.620   1.654  1.00  0.00     0.202 C 
ATOM      3  C   UNL     1       7.792   3.803   2.454  1.00  0.00     0.179 C 
ATOM      4  C   UNL     1       9.221   4.165   2.017  1.00  0.00     0.177 C 
ATOM      5  C   UNL     1       9.409   5.702   2.056  1.00  0.00     0.178 C 
ATOM      6  O   UNL     1       8.433   6.351   1.252  1.00  0.00    -0.341 OA
ENDROOT
BRANCH   1   7
ATOM      7  O   UNL     1       6.972   6.615   3.050  1.00  0.00    -0.350 OA
BRANCH   7   8
ATOM      8  C   UNL     1       5.955   7.591   3.125  1.00  0.00     0.160 C 
ATOM      9  C   UNL     1       6.582   8.973   3.022  1.00  0.00     0.035 C 
ENDBRANCH   7   8
ENDBRANCH   1   7
BRANCH   2  10
ATOM     10  O   UNL     1       6.762   4.193   0.314  1.00  0.00    -0.385 OA
ATOM     11  H   UNL     1       7.584   4.560  -0.105  1.00  0.00     0.211 HD
ENDBRANCH   2  10
BRANCH   3  12
ATOM     12  O   UNL     1       7.575   2.429   2.261  1.00  0.00    -0.387 OA
ATOM     13  H   UNL     1       8.441   1.976   2.434  1.00  0.00     0.211 HD
ENDBRANCH   3  12
BRANCH   5  14
ATOM     14  C   UNL     1      10.793   6.110   1.525  1.00  0.00     0.191 C 
BRANCH  14  15
ATOM     15  O   UNL     1      10.807   6.121   0.121  1.00  0.00    -0.394 OA
ATOM     16  H   UNL     1      11.433   5.407  -0.170  1.00  0.00     0.210 HD
ENDBRANCH  14  15
ENDBRANCH   5  14
BRANCH   4  17
ATOM     17  O   UNL     1      10.140   3.551   2.885  1.00  0.00    -0.387 OA
ATOM     18  H   UNL     1      11.033   3.622   2.458  1.00  0.00     0.211 HD
ENDBRANCH   4  17
TORSDOF 7
ENDMDL
MODEL 8
REMARK VINA RESULT:    -2.747      2.808      5.047
REMARK INTER + INTRA:          -3.936
REMARK INTER:                  -3.562
REMARK INTRA:                  -0.374
REMARK UNBOUND:                -0.386
REMARK SMILES CCO[C@H]1O[C@H](CO)[C@@H](O)[C@H](O)[C@@H]1O
REMARK SMILES IDX 4 1 13 2 11 3 9 4 6 5 5 6 3 7 2 8 1 9 14 10 12 12 7 14 8 15
REMARK SMILES IDX 10 17
REMARK H PARENT 14 11 12 13 8 16 10 18
REMARK Flexibility Score: inf
ROOT
ATOM      1  C   UNL     1       8.764   6.772   1.630  1.00  0.00     0.281 C 
ATOM      2  C   UNL     1       8.759   5.236   1.786  1.00  0.00     0.202 C 
ATOM      3  C   UNL     1       9.925   4.795   2.687  1.00  0.00     0.179 C 
ATOM      4  C   UNL     1      11.247   5.398   2.185  1.00  0.00     0.177 C 
ATOM      5  C   UNL     1      11.087   6.927   1.995  1.00  0.00     0.178 C 
ATOM      6  O   UNL     1      10.010   7.217   1.115  1.00  0.00    -0.341 OA
ENDROOT
BRANCH   1   7
ATOM      7  O   UNL     1       8.487   7.409   2.870  1.00  0.00    -0.350 OA
BRANCH   7   8
ATOM      8  C   UNL     1       7.116   7.728   2.984  1.00  0.00     0.160 C 
ATOM      9  C   UNL     1       6.761   8.775   1.940  1.00  0.00     0.035 C 
ENDBRANCH   7   8
ENDBRANCH   1   7
BRANCH   2  10
ATOM     10  O   UNL     1       8.881   4.627   0.525  1.00  0.00    -0.385 OA
ATOM     11  H   UNL     1       8.801   3.647   0.671  1.00  0.00     0.211 HD
ENDBRANCH   2  10
BRANCH   3  12
ATOM     12  O   UNL     1      10.023   3.393   2.701  1.00  0.00    -0.387 OA
ATOM     13  H   UNL     1      10.137   3.105   1.758  1.00  0.00     0.211 HD
ENDBRANCH   3  12
BRANCH   5  14
ATOM     14  C   UNL     1      12.358   7.551   1.394  1.00  0.00     0.191 C 
BRANCH  14  15
ATOM     15  O   UNL     1      13.299   6.560   1.074  1.00  0.00    -0.394 OA
ATOM     16  H   UNL     1      14.097   7.023   0.709  1.00  0.00     0.210 HD
ENDBRANCH  14  15
ENDBRANCH   5  14
BRANCH   4  17
ATOM     17  O   UNL     1      12.260   5.139   3.125  1.00  0.00    -0.387 OA
ATOM     18  H   UNL     1      11.812   4.822   3.952  1.00  0.00     0.211 HD
ENDBRANCH   4  17
TORSDOF 7
ENDMDL
MODEL 9
REMARK VINA RESULT:    -2.568      4.697      7.005
REMARK INTER + INTRA:          -3.704
REMARK INTER:                  -3.313
REMARK INTRA:                  -0.391
REMARK UNBOUND:                -0.386
REMARK SMILES CCO[C@H]1O[C@H](CO)[C@@H](O)[C@H](O)[C@@H]1O
REMARK SMILES IDX 4 1 13 2 11 3 9 4 6 5 5 6 3 7 2 8 1 9 14 10 12 12 7 14 8 15
REMARK SMILES IDX 10 17
REMARK H PARENT 14 11 12 13 8 16 10 18
REMARK Flexibility Score: inf
ROOT
ATOM      1  C   UNL     1      10.971   7.535   1.636  1.00  0.00     0.281 C 
ATOM      2  C   UNL     1      11.314   6.038   1.470  1.00  0.00     0.202 C 
ATOM      3  C   UNL     1      12.562   5.689   2.297  1.00  0.00     0.179 C 
ATOM      4  C   UNL     1      13.707   6.663   1.975  1.00  0.00     0.177 C 
ATOM      5  C   UNL     1      13.206   8.123   2.100  1.00  0.00     0.178 C 
ATOM      6  O   UNL     1      12.078   8.343   1.265  1.00  0.00    -0.341 OA
ENDROOT
BRANCH   1   7
ATOM      7  O   UNL     1      10.577   7.821   2.972  1.00  0.00    -0.350 OA
BRANCH   7   8
ATOM      8  C   UNL     1       9.436   8.651   2.999  1.00  0.00     0.160 C 
ATOM      9  C   UNL     1       8.261   7.904   2.388  1.00  0.00     0.035 C 
ENDBRANCH   7   8
ENDBRANCH   1   7
BRANCH   2  10
ATOM     10  O   UNL     1      11.550   5.749   0.114  1.00  0.00    -0.385 OA
ATOM     11  H   UNL     1      11.059   6.433  -0.414  1.00  0.00     0.211 HD
ENDBRANCH   2  10
BRANCH   3  12
ATOM     12  O   UNL     1      12.971   4.373   2.024  1.00  0.00    -0.387 OA
ATOM     13  H   UNL     1      12.613   4.143   1.127  1.00  0.00     0.211 HD
ENDBRANCH   3  12
BRANCH   5  14
ATOM     14  C   UNL     1      14.295   9.125   1.683  1.00  0.00     0.191 C 
BRANCH  14  15
ATOM     15  O   UNL     1      15.230   8.521   0.828  1.00  0.00    -0.394 OA
ATOM     16  H   UNL     1      15.872   8.026   1.401  1.00  0.00     0.210 HD
ENDBRANCH  14  15
ENDBRANCH   5  14
BRANCH   4  17
ATOM     17  O   UNL     1      14.767   6.444   2.872  1.00  0.00    -0.387 OA
ATOM     18  H   UNL     1      15.533   6.988   2.552  1.00  0.00     0.211 HD
ENDBRANCH   4  17
TORSDOF 7
ENDMDL
