MODEL 1
REMARK VINA RESULT:    -3.526      0.000      0.000
REMARK INTER + INTRA:          -5.921
REMARK INTER:                  -5.175
REMARK INTRA:                  -0.745
REMARK UNBOUND:                -0.745
REMARK SMILES O=C([O-])CCCCCCCC(=O)[O-]
REMARK SMILES IDX 7 1 6 2 5 3 4 4 2 5 1 6 3 7 8 8 9 9 10 10 11 11 12 12 13 13
REMARK H PARENT
REMARK Flexibility Score: inf
ROOT
ATOM      1  C   UNL     1      21.466   1.842  24.020  1.00  0.00     0.000 C 
ENDROOT
BRANCH   1   2
ATOM      2  C   UNL     1      21.322   3.319  23.615  1.00  0.00     0.000 C 
BRANCH   2   3
ATOM      3  C   UNL     1      20.149   4.069  24.275  1.00  0.00     0.006 C 
BRANCH   3   4
ATOM      4  C   UNL     1      20.448   5.545  24.596  1.00  0.00     0.053 C 
BRANCH   4   5
ATOM      5  C   UNL     1      19.521   6.490  23.891  1.00  0.00     0.041 C 
ATOM      6  O   UNL     1      18.310   6.184  23.724  1.00  0.00    -0.550 OA
ATOM      7  O   UNL     1      19.983   7.725  23.455  1.00  0.00    -0.550 OA
ENDBRANCH   4   5
ENDBRANCH   3   4
ENDBRANCH   2   3
ENDBRANCH   1   2
BRANCH   1   8
ATOM      8  C   UNL     1      20.901   1.545  25.417  1.00  0.00     0.000 C 
BRANCH   8   9
ATOM      9  C   UNL     1      22.011   1.586  26.477  1.00  0.00     0.006 C 
BRANCH   9  10
ATOM     10  C   UNL     1      22.022   2.909  27.256  1.00  0.00     0.053 C 
BRANCH  10  11
ATOM     11  C   UNL     1      23.105   3.825  26.776  1.00  0.00     0.041 C 
ATOM     12  O   UNL     1      24.025   3.388  26.035  1.00  0.00    -0.550 OA
ATOM     13  O   UNL     1      23.116   5.157  27.172  1.00  0.00    -0.550 OA
ENDBRANCH  10  11
ENDBRANCH   9  10
ENDBRANCH   8   9
ENDBRANCH   1   8
TORSDOF 8
ENDMDL
MODEL 2
REMARK VINA RESULT:    -3.485      0.175      4.705
REMARK INTER + INTRA:          -5.860
REMARK INTER:                  -5.103
REMARK INTRA:                  -0.757
REMARK UNBOUND:                -0.745
REMARK SMILES O=C([O-])CCCCCCCC(=O)[O-]
REMARK SMILES IDX 7 1 6 2 5 3 4 4 2 5 1 6 3 7 8 8 9 9 10 10 11 11 12 12 13 13
REMARK H PARENT
REMARK Flexibility Score: inf
ROOT
ATOM      1  C   UNL     1      21.473   1.956  24.021  1.00  0.00     0.000 C 
ENDROOT
BRANCH   1   2
ATOM      2  C   UNL     1      20.907   1.636  25.414  1.00  0.00     0.000 C 
BRANCH   2   3
ATOM      3  C   UNL     1      21.945   1.602  26.553  1.00  0.00     0.006 C 
BRANCH   3   4
ATOM      4  C   UNL     1      22.071   2.928  27.327  1.00  0.00     0.053 C 
BRANCH   4   5
ATOM      5  C   UNL     1      23.137   3.824  26.770  1.00  0.00     0.041 C 
ATOM      6  O   UNL     1      24.105   3.336  26.128  1.00  0.00    -0.550 OA
ATOM      7  O   UNL     1      23.039   5.201  26.922  1.00  0.00    -0.550 OA
ENDBRANCH   4   5
ENDBRANCH   3   4
ENDBRANCH   2   3
ENDBRANCH   1   2
BRANCH   1   8
ATOM      8  C   UNL     1      21.276   3.424  23.615  1.00  0.00     0.000 C 
BRANCH   8   9
ATOM      9  C   UNL     1      20.120   4.059  24.402  1.00  0.00     0.006 C 
BRANCH   9  10
ATOM     10  C   UNL     1      20.342   5.558  24.653  1.00  0.00     0.053 C 
BRANCH  10  11
ATOM     11  C   UNL     1      19.410   6.400  23.837  1.00  0.00     0.041 C 
ATOM     12  O   UNL     1      19.824   7.455  23.287  1.00  0.00    -0.550 OA
ATOM     13  O   UNL     1      18.076   6.036  23.709  1.00  0.00    -0.550 OA
ENDBRANCH  10  11
ENDBRANCH   9  10
ENDBRANCH   8   9
ENDBRANCH   1   8
TORSDOF 8
ENDMDL
MODEL 3
REMARK VINA RESULT:    -3.460      2.331      6.165
REMARK INTER + INTRA:          -5.823
REMARK INTER:                  -5.431
REMARK INTRA:                  -0.392
REMARK UNBOUND:                -0.745
REMARK SMILES O=C([O-])CCCCCCCC(=O)[O-]
REMARK SMILES IDX 7 1 6 2 5 3 4 4 2 5 1 6 3 7 8 8 9 9 10 10 11 11 12 12 13 13
REMARK H PARENT
REMARK Flexibility Score: inf
ROOT
ATOM      1  C   UNL     1      18.881   5.907  24.139  1.00  0.00     0.000 C 
ENDROOT
BRANCH   1   2
ATOM      2  C   UNL     1      19.363   4.485  24.471  1.00  0.00     0.000 C 
BRANCH   2   3
ATOM      3  C   UNL     1      20.893   4.298  24.491  1.00  0.00     0.006 C 
BRANCH   3   4
ATOM      4  C   UNL     1      21.390   3.092  23.673  1.00  0.00     0.053 C 
BRANCH   4   5
ATOM      5  C   UNL     1      21.404   1.820  24.467  1.00  0.00     0.041 C 
ATOM      6  O   UNL     1      20.871   0.777  24.004  1.00  0.00    -0.550 OA
ATOM      7  O   UNL     1      22.042   1.776  25.700  1.00  0.00    -0.550 OA
ENDBRANCH   4   5
ENDBRANCH   3   4
ENDBRANCH   2   3
ENDBRANCH   1   2
BRANCH   1   8
ATOM      8  C   UNL     1      20.029   6.861  23.777  1.00  0.00     0.000 C 
BRANCH   8   9
ATOM      9  C   UNL     1      19.959   8.145  24.615  1.00  0.00     0.006 C 
BRANCH   9  10
ATOM     10  C   UNL     1      20.340   9.391  23.802  1.00  0.00     0.053 C 
BRANCH  10  11
ATOM     11  C   UNL     1      19.457   9.562  22.605  1.00  0.00     0.041 C 
ATOM     12  O   UNL     1      18.212   9.691  22.747  1.00  0.00    -0.550 OA
ATOM     13  O   UNL     1      20.006   9.548  21.329  1.00  0.00    -0.550 OA
ENDBRANCH  10  11
ENDBRANCH   9  10
ENDBRANCH   8   9
ENDBRANCH   1   8
TORSDOF 8
ENDMDL
MODEL 4
REMARK VINA RESULT:    -3.431      2.237      3.782
REMARK INTER + INTRA:          -5.781
REMARK INTER:                  -5.381
REMARK INTRA:                  -0.400
REMARK UNBOUND:                -0.745
REMARK SMILES O=C([O-])CCCCCCCC(=O)[O-]
REMARK SMILES IDX 7 1 6 2 5 3 4 4 2 5 1 6 3 7 8 8 9 9 10 10 11 11 12 12 13 13
REMARK H PARENT
REMARK Flexibility Score: inf
ROOT
ATOM      1  C   UNL     1      18.744   5.816  24.041  1.00  0.00     0.000 C 
ENDROOT
BRANCH   1   2
ATOM      2  C   UNL     1      19.879   6.784  23.667  1.00  0.00     0.000 C 
BRANCH   2   3
ATOM      3  C   UNL     1      19.974   8.053  24.538  1.00  0.00     0.006 C 
BRANCH   3   4
ATOM      4  C   UNL     1      20.348   9.326  23.755  1.00  0.00     0.053 C 
BRANCH   4   5
ATOM      5  C   UNL     1      19.425   9.588  22.603  1.00  0.00     0.041 C 
ATOM      6  O   UNL     1      18.204   9.826  22.808  1.00  0.00    -0.550 OA
ATOM      7  O   UNL     1      19.919   9.611  21.305  1.00  0.00    -0.550 OA
ENDBRANCH   4   5
ENDBRANCH   3   4
ENDBRANCH   2   3
ENDBRANCH   1   2
BRANCH   1   8
ATOM      8  C   UNL     1      19.254   4.484  24.609  1.00  0.00     0.000 C 
BRANCH   8   9
ATOM      9  C   UNL     1      20.789   4.431  24.589  1.00  0.00     0.006 C 
BRANCH   9  10
ATOM     10  C   UNL     1      21.319   3.278  23.725  1.00  0.00     0.053 C 
BRANCH  10  11
ATOM     11  C   UNL     1      21.658   2.077  24.553  1.00  0.00     0.041 C 
ATOM     12  O   UNL     1      22.379   2.196  25.579  1.00  0.00    -0.550 OA
ATOM     13  O   UNL     1      21.204   0.821  24.174  1.00  0.00    -0.550 OA
ENDBRANCH  10  11
ENDBRANCH   9  10
ENDBRANCH   8   9
ENDBRANCH   1   8
TORSDOF 8
ENDMDL
MODEL 5
REMARK VINA RESULT:    -3.364      2.272      3.126
REMARK INTER + INTRA:          -5.683
REMARK INTER:                  -5.327
REMARK INTRA:                  -0.356
REMARK UNBOUND:                -0.745
REMARK SMILES O=C([O-])CCCCCCCC(=O)[O-]
REMARK SMILES IDX 7 1 6 2 5 3 4 4 2 5 1 6 3 7 8 8 9 9 10 10 11 11 12 12 13 13
REMARK H PARENT
REMARK Flexibility Score: inf
ROOT
ATOM      1  C   UNL     1      20.860   4.608  24.672  1.00  0.00     0.000 C 
ENDROOT
BRANCH   1   2
ATOM      2  C   UNL     1      19.341   4.850  24.633  1.00  0.00     0.000 C 
BRANCH   2   3
ATOM      3  C   UNL     1      18.901   6.150  23.932  1.00  0.00     0.006 C 
BRANCH   3   4
ATOM      4  C   UNL     1      20.011   7.212  23.823  1.00  0.00     0.053 C 
BRANCH   4   5
ATOM      5  C   UNL     1      19.523   8.500  23.229  1.00  0.00     0.041 C 
ATOM      6  O   UNL     1      18.294   8.780  23.243  1.00  0.00    -0.550 OA
ATOM      7  O   UNL     1      20.428   9.409  22.697  1.00  0.00    -0.550 OA
ENDBRANCH   4   5
ENDBRANCH   3   4
ENDBRANCH   2   3
ENDBRANCH   1   2
BRANCH   1   8
ATOM      8  C   UNL     1      21.333   3.596  23.619  1.00  0.00     0.000 C 
BRANCH   8   9
ATOM      9  C   UNL     1      22.016   2.393  24.284  1.00  0.00     0.006 C 
BRANCH   9  10
ATOM     10  C   UNL     1      21.041   1.233  24.530  1.00  0.00     0.053 C 
BRANCH  10  11
ATOM     11  C   UNL     1      20.284   1.408  25.811  1.00  0.00     0.041 C 
ATOM     12  O   UNL     1      20.901   1.500  26.905  1.00  0.00    -0.550 OA
ATOM     13  O   UNL     1      18.895   1.438  25.799  1.00  0.00    -0.550 OA
ENDBRANCH  10  11
ENDBRANCH   9  10
ENDBRANCH   8   9
ENDBRANCH   1   8
TORSDOF 8
ENDMDL
MODEL 6
REMARK VINA RESULT:    -3.359      2.219      5.427
REMARK INTER + INTRA:          -5.676
REMARK INTER:                  -5.260
REMARK INTRA:                  -0.416
REMARK UNBOUND:                -0.745
REMARK SMILES O=C([O-])CCCCCCCC(=O)[O-]
REMARK SMILES IDX 7 1 6 2 5 3 4 4 2 5 1 6 3 7 8 8 9 9 10 10 11 11 12 12 13 13
REMARK H PARENT
REMARK Flexibility Score: inf
ROOT
ATOM      1  C   UNL     1      20.829   4.657  24.490  1.00  0.00     0.000 C 
ENDROOT
BRANCH   1   2
ATOM      2  C   UNL     1      21.283   3.524  23.553  1.00  0.00     0.000 C 
BRANCH   2   3
ATOM      3  C   UNL     1      22.042   2.371  24.237  1.00  0.00     0.006 C 
BRANCH   3   4
ATOM      4  C   UNL     1      21.154   1.172  24.619  1.00  0.00     0.053 C 
BRANCH   4   5
ATOM      5  C   UNL     1      20.339   1.426  25.852  1.00  0.00     0.041 C 
ATOM      6  O   UNL     1      19.080   1.413  25.795  1.00  0.00    -0.550 OA
ATOM      7  O   UNL     1      20.969   1.635  27.072  1.00  0.00    -0.550 OA
ENDBRANCH   4   5
ENDBRANCH   3   4
ENDBRANCH   2   3
ENDBRANCH   1   2
BRANCH   1   8
ATOM      8  C   UNL     1      19.302   4.804  24.559  1.00  0.00     0.000 C 
BRANCH   8   9
ATOM      9  C   UNL     1      18.849   6.122  23.915  1.00  0.00     0.006 C 
BRANCH   9  10
ATOM     10  C   UNL     1      20.017   7.096  23.700  1.00  0.00     0.053 C 
BRANCH  10  11
ATOM     11  C   UNL     1      19.535   8.486  23.423  1.00  0.00     0.041 C 
ATOM     12  O   UNL     1      20.334   9.362  22.996  1.00  0.00    -0.550 OA
ATOM     13  O   UNL     1      18.210   8.824  23.665  1.00  0.00    -0.550 OA
ENDBRANCH  10  11
ENDBRANCH   9  10
ENDBRANCH   8   9
ENDBRANCH   1   8
TORSDOF 8
ENDMDL
MODEL 7
REMARK VINA RESULT:    -3.340      2.781      4.696
REMARK INTER + INTRA:          -5.648
REMARK INTER:                  -5.088
REMARK INTRA:                  -0.560
REMARK UNBOUND:                -0.745
REMARK SMILES O=C([O-])CCCCCCCC(=O)[O-]
REMARK SMILES IDX 7 1 6 2 5 3 4 4 2 5 1 6 3 7 8 8 9 9 10 10 11 11 12 12 13 13
REMARK H PARENT
REMARK Flexibility Score: inf
ROOT
ATOM      1  C   UNL     1      20.710   4.560  24.467  1.00  0.00     0.000 C 
ENDROOT
BRANCH   1   2
ATOM      2  C   UNL     1      21.353   3.248  23.988  1.00  0.00     0.000 C 
BRANCH   2   3
ATOM      3  C   UNL     1      22.776   2.982  24.518  1.00  0.00     0.006 C 
BRANCH   3   4
ATOM      4  C   UNL     1      22.903   3.076  26.050  1.00  0.00     0.053 C 
BRANCH   4   5
ATOM      5  C   UNL     1      24.054   3.935  26.482  1.00  0.00     0.041 C 
ATOM      6  O   UNL     1      23.844   5.059  27.011  1.00  0.00    -0.550 OA
ATOM      7  O   UNL     1      25.358   3.476  26.341  1.00  0.00    -0.550 OA
ENDBRANCH   4   5
ENDBRANCH   3   4
ENDBRANCH   2   3
ENDBRANCH   1   2
BRANCH   1   8
ATOM      8  C   UNL     1      19.321   4.356  25.089  1.00  0.00     0.000 C 
BRANCH   8   9
ATOM      9  C   UNL     1      19.109   2.889  25.486  1.00  0.00     0.006 C 
BRANCH   9  10
ATOM     10  C   UNL     1      18.671   2.739  26.950  1.00  0.00     0.053 C 
BRANCH  10  11
ATOM     11  C   UNL     1      19.066   1.409  27.513  1.00  0.00     0.041 C 
ATOM     12  O   UNL     1      18.211   0.493  27.636  1.00  0.00    -0.550 OA
ATOM     13  O   UNL     1      20.372   1.192  27.933  1.00  0.00    -0.550 OA
ENDBRANCH  10  11
ENDBRANCH   9  10
ENDBRANCH   8   9
ENDBRANCH   1   8
TORSDOF 8
ENDMDL
MODEL 8
REMARK VINA RESULT:    -3.310      1.597      2.606
REMARK INTER + INTRA:          -5.604
REMARK INTER:                  -5.203
REMARK INTRA:                  -0.400
REMARK UNBOUND:                -0.745
REMARK SMILES O=C([O-])CCCCCCCC(=O)[O-]
REMARK SMILES IDX 7 1 6 2 5 3 4 4 2 5 1 6 3 7 8 8 9 9 10 10 11 11 12 12 13 13
REMARK H PARENT
REMARK Flexibility Score: inf
ROOT
ATOM      1  C   UNL     1      19.815   4.052  24.561  1.00  0.00     0.000 C 
ENDROOT
BRANCH   1   2
ATOM      2  C   UNL     1      19.117   5.411  24.383  1.00  0.00     0.000 C 
BRANCH   2   3
ATOM      3  C   UNL     1      20.039   6.572  23.961  1.00  0.00     0.006 C 
BRANCH   3   4
ATOM      4  C   UNL     1      19.291   7.873  23.611  1.00  0.00     0.053 C 
BRANCH   4   5
ATOM      5  C   UNL     1      20.211   8.959  23.139  1.00  0.00     0.041 C 
ATOM      6  O   UNL     1      20.048   9.480  22.004  1.00  0.00    -0.550 OA
ATOM      7  O   UNL     1      21.222   9.425  23.970  1.00  0.00    -0.550 OA
ENDBRANCH   4   5
ENDBRANCH   3   4
ENDBRANCH   2   3
ENDBRANCH   1   2
BRANCH   1   8
ATOM      8  C   UNL     1      21.170   3.974  23.842  1.00  0.00     0.000 C 
BRANCH   8   9
ATOM      9  C   UNL     1      21.932   2.704  24.245  1.00  0.00     0.006 C 
BRANCH   9  10
ATOM     10  C   UNL     1      22.172   2.627  25.760  1.00  0.00     0.053 C 
BRANCH  10  11
ATOM     11  C   UNL     1      23.218   3.600  26.206  1.00  0.00     0.041 C 
ATOM     12  O   UNL     1      22.888   4.652  26.816  1.00  0.00    -0.550 OA
ATOM     13  O   UNL     1      24.556   3.363  25.919  1.00  0.00    -0.550 OA
ENDBRANCH  10  11
ENDBRANCH   9  10
ENDBRANCH   8   9
ENDBRANCH   1   8
TORSDOF 8
ENDMDL
MODEL 9
REMARK VINA RESULT:    -3.261      1.783      5.850
REMARK INTER + INTRA:          -5.532
REMARK INTER:                  -5.165
REMARK INTRA:                  -0.367
REMARK UNBOUND:                -0.745
REMARK SMILES O=C([O-])CCCCCCCC(=O)[O-]
REMARK SMILES IDX 7 1 6 2 5 3 4 4 2 5 1 6 3 7 8 8 9 9 10 10 11 11 12 12 13 13
REMARK H PARENT
REMARK Flexibility Score: inf
ROOT
ATOM      1  C   UNL     1      19.390   4.724  24.413  1.00  0.00     0.000 C 
ENDROOT
BRANCH   1   2
ATOM      2  C   UNL     1      20.863   4.503  24.033  1.00  0.00     0.000 C 
BRANCH   2   3
ATOM      3  C   UNL     1      21.277   3.032  23.836  1.00  0.00     0.006 C 
BRANCH   3   4
ATOM      4  C   UNL     1      22.687   2.700  24.362  1.00  0.00     0.053 C 
BRANCH   4   5
ATOM      5  C   UNL     1      22.846   3.007  25.821  1.00  0.00     0.041 C 
ATOM      6  O   UNL     1      23.750   3.795  26.209  1.00  0.00    -0.550 OA
ATOM      7  O   UNL     1      21.972   2.456  26.749  1.00  0.00    -0.550 OA
ENDBRANCH   4   5
ENDBRANCH   3   4
ENDBRANCH   2   3
ENDBRANCH   1   2
BRANCH   1   8
ATOM      8  C   UNL     1      18.904   6.153  24.129  1.00  0.00     0.000 C 
BRANCH   8   9
ATOM      9  C   UNL     1      20.084   7.076  23.793  1.00  0.00     0.006 C 
BRANCH   9  10
ATOM     10  C   UNL     1      19.832   8.525  24.234  1.00  0.00     0.053 C 
BRANCH  10  11
ATOM     11  C   UNL     1      19.448   9.396  23.078  1.00  0.00     0.041 C 
ATOM     12  O   UNL     1      20.208   9.496  22.078  1.00  0.00    -0.550 OA
ATOM     13  O   UNL     1      18.266  10.124  23.119  1.00  0.00    -0.550 OA
ENDBRANCH  10  11
ENDBRANCH   9  10
ENDBRANCH   8   9
ENDBRANCH   1   8
TORSDOF 8
ENDMDL
