MODEL 1
REMARK VINA RESULT:    -5.200      0.000      0.000
REMARK INTER + INTRA:          -9.306
REMARK INTER:                  -7.632
REMARK INTRA:                  -1.674
REMARK UNBOUND:                -1.674
REMARK SMILES Cc1cc2c(C(C)C)c(O)c(O)c(C=O)c2c(O)c1-c1c(C)cc2c(C(C)C)c(O)c(O)c(C=O)c2c1O
REMARK SMILES IDX 1 1 2 2 3 3 4 4 16 5 13 6 11 7 9 8 5 9 17 10 19 11 20 12
REMARK SMILES IDX 37 13 21 14 36 15 23 16 22 17 24 18 33 19 25 20 31 21 29 22
REMARK SMILES IDX 38 23 34 25 35 26 26 27 27 28 28 29 32 30 30 32 18 34 6 36
REMARK SMILES IDX 7 37 8 38 14 39 15 40 10 41 12 43
REMARK H PARENT 38 24 32 31 30 33 18 35 10 42 12 44
REMARK Flexibility Score: inf
ROOT
ATOM      1  C   UNL     1      60.319  31.993  55.687  1.00  0.00     0.045 C 
ATOM      2  C   UNL     1      60.424  30.888  56.709  1.00  0.00    -0.039 A 
ATOM      3  C   UNL     1      60.768  31.203  58.025  1.00  0.00     0.013 A 
ATOM      4  C   UNL     1      60.871  30.220  59.033  1.00  0.00    -0.006 A 
ATOM      5  C   UNL     1      60.617  28.858  58.680  1.00  0.00     0.039 A 
ATOM      6  C   UNL     1      60.656  27.861  59.698  1.00  0.00     0.072 A 
ATOM      7  C   UNL     1      61.094  28.195  60.992  1.00  0.00     0.169 A 
ATOM      8  C   UNL     1      61.403  29.520  61.317  1.00  0.00     0.162 A 
ATOM      9  C   UNL     1      61.234  30.561  60.376  1.00  0.00     0.008 A 
ATOM     10  C   UNL     1      60.376  28.529  57.313  1.00  0.00     0.132 A 
ATOM     11  C   UNL     1      60.243  29.545  56.345  1.00  0.00     0.031 A 
ENDROOT
BRANCH  11  12
ATOM     12  C   UNL     1      59.928  29.199  54.934  1.00  0.00     0.031 A 
ATOM     13  C   UNL     1      60.965  29.007  53.999  1.00  0.00     0.132 A 
ATOM     14  C   UNL     1      58.590  29.063  54.532  1.00  0.00    -0.039 A 
ATOM     15  C   UNL     1      60.662  28.730  52.632  1.00  0.00     0.039 A 
ATOM     16  C   UNL     1      58.302  28.659  53.227  1.00  0.00     0.013 A 
ATOM     17  C   UNL     1      57.458  29.284  55.506  1.00  0.00     0.045 C 
ATOM     18  C   UNL     1      59.314  28.434  52.273  1.00  0.00    -0.006 A 
ATOM     19  C   UNL     1      61.669  28.707  51.624  1.00  0.00     0.072 A 
ATOM     20  C   UNL     1      59.012  27.936  50.965  1.00  0.00     0.008 A 
ATOM     21  C   UNL     1      61.348  28.309  50.314  1.00  0.00     0.169 A 
ATOM     22  C   UNL     1      60.029  27.941  49.981  1.00  0.00     0.162 A 
BRANCH  13  23
ATOM     23  O   UNL     1      62.295  29.043  54.434  1.00  0.00    -0.507 OA
ATOM     24  H   UNL     1      63.077  28.710  53.886  1.00  0.00     0.293 HD
ENDBRANCH  13  23
BRANCH  19  25
ATOM     25  C   UNL     1      63.040  29.216  51.874  1.00  0.00     0.264 C 
ATOM     26  O   UNL     1      64.019  28.430  51.961  1.00  0.00    -0.298 OA
ENDBRANCH  19  25
BRANCH  20  27
ATOM     27  C   UNL     1      57.631  27.381  50.556  1.00  0.00     0.017 C 
ATOM     28  C   UNL     1      56.514  28.417  50.735  1.00  0.00     0.012 C 
ATOM     29  C   UNL     1      57.289  26.008  51.170  1.00  0.00     0.012 C 
ENDBRANCH  20  27
BRANCH  21  30
ATOM     30  O   UNL     1      62.371  28.300  49.356  1.00  0.00    -0.504 OA
ATOM     31  H   UNL     1      62.319  27.851  48.455  1.00  0.00     0.293 HD
ENDBRANCH  21  30
BRANCH  22  32
ATOM     32  O   UNL     1      59.689  27.600  48.666  1.00  0.00    -0.504 OA
ATOM     33  H   UNL     1      59.161  28.182  48.033  1.00  0.00     0.293 HD
ENDBRANCH  22  32
ENDBRANCH  11  12
BRANCH  10  34
ATOM     34  O   UNL     1      60.316  27.190  56.908  1.00  0.00    -0.507 OA
ATOM     35  H   UNL     1      61.078  26.699  56.458  1.00  0.00     0.293 HD
ENDBRANCH  10  34
BRANCH   9  36
ATOM     36  C   UNL     1      61.481  32.005  60.862  1.00  0.00     0.017 C 
ATOM     37  C   UNL     1      62.895  32.498  60.524  1.00  0.00     0.012 C 
ATOM     38  C   UNL     1      60.374  33.003  60.456  1.00  0.00     0.012 C 
ENDBRANCH   9  36
BRANCH   6  39
ATOM     39  C   UNL     1      60.180  26.481  59.470  1.00  0.00     0.264 C 
ATOM     40  O   UNL     1      61.000  25.526  59.411  1.00  0.00    -0.298 OA
ENDBRANCH   6  39
BRANCH   8  41
ATOM     41  O   UNL     1      61.869  29.811  62.605  1.00  0.00    -0.504 OA
ATOM     42  H   UNL     1      61.361  29.567  63.445  1.00  0.00     0.293 HD
ENDBRANCH   8  41
BRANCH   7  43
ATOM     43  O   UNL     1      61.208  27.229  61.999  1.00  0.00    -0.504 OA
ATOM     44  H   UNL     1      60.623  27.196  62.824  1.00  0.00     0.293 HD
ENDBRANCH   7  43
TORSDOF 11
ENDMDL
MODEL 2
REMARK VINA RESULT:    -5.184      0.312      8.993
REMARK INTER + INTRA:          -9.283
REMARK INTER:                  -7.639
REMARK INTRA:                  -1.644
REMARK UNBOUND:                -1.674
REMARK SMILES Cc1cc2c(C(C)C)c(O)c(O)c(C=O)c2c(O)c1-c1c(C)cc2c(C(C)C)c(O)c(O)c(C=O)c2c1O
REMARK SMILES IDX 1 1 2 2 3 3 4 4 16 5 13 6 11 7 9 8 5 9 17 10 19 11 20 12
REMARK SMILES IDX 37 13 21 14 36 15 23 16 22 17 24 18 33 19 25 20 31 21 29 22
REMARK SMILES IDX 38 23 34 25 35 26 26 27 27 28 28 29 32 30 30 32 18 34 6 36
REMARK SMILES IDX 7 37 8 38 14 39 15 40 10 41 12 43
REMARK H PARENT 38 24 32 31 30 33 18 35 10 42 12 44
REMARK Flexibility Score: inf
ROOT
ATOM      1  C   UNL     1      57.448  28.723  55.648  1.00  0.00     0.045 C 
ATOM      2  C   UNL     1      58.567  28.779  54.636  1.00  0.00    -0.039 A 
ATOM      3  C   UNL     1      58.320  28.384  53.321  1.00  0.00     0.013 A 
ATOM      4  C   UNL     1      59.317  28.423  52.322  1.00  0.00    -0.006 A 
ATOM      5  C   UNL     1      60.623  28.880  52.685  1.00  0.00     0.039 A 
ATOM      6  C   UNL     1      61.625  28.984  51.677  1.00  0.00     0.072 A 
ATOM      7  C   UNL     1      61.372  28.494  50.383  1.00  0.00     0.169 A 
ATOM      8  C   UNL     1      60.112  27.989  50.048  1.00  0.00     0.162 A 
ATOM      9  C   UNL     1      59.048  28.006  50.978  1.00  0.00     0.008 A 
ATOM     10  C   UNL     1      60.899  29.175  54.054  1.00  0.00     0.132 A 
ATOM     11  C   UNL     1      59.864  29.161  55.011  1.00  0.00     0.031 A 
ENDROOT
BRANCH  11  12
ATOM     12  C   UNL     1      60.146  29.532  56.423  1.00  0.00     0.031 A 
ATOM     13  C   UNL     1      60.511  28.544  57.360  1.00  0.00     0.132 A 
ATOM     14  C   UNL     1      60.046  30.873  56.824  1.00  0.00    -0.039 A 
ATOM     15  C   UNL     1      60.726  28.892  58.728  1.00  0.00     0.039 A 
ATOM     16  C   UNL     1      60.389  31.227  58.129  1.00  0.00     0.013 A 
ATOM     17  C   UNL     1      59.635  31.949  55.848  1.00  0.00     0.045 C 
ATOM     18  C   UNL     1      60.783  30.271  59.086  1.00  0.00    -0.006 A 
ATOM     19  C   UNL     1      60.919  27.905  59.737  1.00  0.00     0.072 A 
ATOM     20  C   UNL     1      61.216  30.655  60.395  1.00  0.00     0.008 A 
ATOM     21  C   UNL     1      61.251  28.290  61.048  1.00  0.00     0.169 A 
ATOM     22  C   UNL     1      61.384  29.653  61.380  1.00  0.00     0.162 A 
BRANCH  13  23
ATOM     23  O   UNL     1      60.708  27.228  56.926  1.00  0.00    -0.507 OA
ATOM     24  H   UNL     1      60.445  26.412  57.463  1.00  0.00     0.293 HD
ENDBRANCH  13  23
BRANCH  19  25
ATOM     25  C   UNL     1      60.657  26.466  59.487  1.00  0.00     0.264 C 
ATOM     26  O   UNL     1      61.602  25.639  59.397  1.00  0.00    -0.298 OA
ENDBRANCH  19  25
BRANCH  20  27
ATOM     27  C   UNL     1      61.521  32.112  60.804  1.00  0.00     0.017 C 
ATOM     28  C   UNL     1      60.361  33.061  60.480  1.00  0.00     0.012 C 
ATOM     29  C   UNL     1      62.888  32.637  60.318  1.00  0.00     0.012 C 
ENDBRANCH  20  27
BRANCH  21  30
ATOM     30  O   UNL     1      61.434  27.285  62.007  1.00  0.00    -0.504 OA
ATOM     31  H   UNL     1      61.109  27.327  62.961  1.00  0.00     0.293 HD
ENDBRANCH  21  30
BRANCH  22  32
ATOM     32  O   UNL     1      61.656  30.048  62.696  1.00  0.00    -0.504 OA
ATOM     33  H   UNL     1      61.052  29.886  63.488  1.00  0.00     0.293 HD
ENDBRANCH  22  32
ENDBRANCH  11  12
BRANCH  10  34
ATOM     34  O   UNL     1      62.210  29.437  54.470  1.00  0.00    -0.507 OA
ATOM     35  H   UNL     1      62.447  30.030  55.255  1.00  0.00     0.293 HD
ENDBRANCH  10  34
BRANCH   9  36
ATOM     36  C   UNL     1      57.662  27.543  50.481  1.00  0.00     0.017 C 
ATOM     37  C   UNL     1      57.347  26.099  50.898  1.00  0.00     0.012 C 
ATOM     38  C   UNL     1      56.518  28.532  50.797  1.00  0.00     0.012 C 
ENDBRANCH   9  36
BRANCH   6  39
ATOM     39  C   UNL     1      62.916  29.663  51.914  1.00  0.00     0.264 C 
ATOM     40  O   UNL     1      63.983  28.996  51.980  1.00  0.00    -0.298 OA
ENDBRANCH   6  39
BRANCH   8  41
ATOM     41  O   UNL     1      59.907  27.477  48.761  1.00  0.00    -0.504 OA
ATOM     42  H   UNL     1      58.987  27.298  48.378  1.00  0.00     0.293 HD
ENDBRANCH   8  41
BRANCH   7  43
ATOM     43  O   UNL     1      62.355  28.520  49.385  1.00  0.00    -0.504 OA
ATOM     44  H   UNL     1      62.748  27.694  48.953  1.00  0.00     0.293 HD
ENDBRANCH   7  43
TORSDOF 11
ENDMDL
MODEL 3
REMARK VINA RESULT:    -5.162      5.894      9.317
REMARK INTER + INTRA:          -9.250
REMARK INTER:                  -7.876
REMARK INTRA:                  -1.374
REMARK UNBOUND:                -1.674
REMARK SMILES Cc1cc2c(C(C)C)c(O)c(O)c(C=O)c2c(O)c1-c1c(C)cc2c(C(C)C)c(O)c(O)c(C=O)c2c1O
REMARK SMILES IDX 1 1 2 2 3 3 4 4 16 5 13 6 11 7 9 8 5 9 17 10 19 11 20 12
REMARK SMILES IDX 37 13 21 14 36 15 23 16 22 17 24 18 33 19 25 20 31 21 29 22
REMARK SMILES IDX 38 23 34 25 35 26 26 27 27 28 28 29 32 30 30 32 18 34 6 36
REMARK SMILES IDX 7 37 8 38 14 39 15 40 10 41 12 43
REMARK H PARENT 38 24 32 31 30 33 18 35 10 42 12 44
REMARK Flexibility Score: inf
ROOT
ATOM      1  C   UNL     1      65.601  28.094  51.472  1.00  0.00     0.045 C 
ATOM      2  C   UNL     1      64.153  27.861  51.113  1.00  0.00    -0.039 A 
ATOM      3  C   UNL     1      63.661  26.556  51.069  1.00  0.00     0.013 A 
ATOM      4  C   UNL     1      62.316  26.268  50.754  1.00  0.00    -0.006 A 
ATOM      5  C   UNL     1      61.438  27.360  50.465  1.00  0.00     0.039 A 
ATOM      6  C   UNL     1      60.063  27.092  50.205  1.00  0.00     0.072 A 
ATOM      7  C   UNL     1      59.618  25.763  50.079  1.00  0.00     0.169 A 
ATOM      8  C   UNL     1      60.495  24.697  50.299  1.00  0.00     0.162 A 
ATOM      9  C   UNL     1      61.830  24.921  50.705  1.00  0.00     0.008 A 
ATOM     10  C   UNL     1      61.973  28.681  50.402  1.00  0.00     0.132 A 
ATOM     11  C   UNL     1      63.313  28.929  50.762  1.00  0.00     0.031 A 
ENDROOT
BRANCH  11  12
ATOM     12  C   UNL     1      63.846  30.316  50.756  1.00  0.00     0.031 A 
ATOM     13  C   UNL     1      64.563  30.799  49.642  1.00  0.00     0.132 A 
ATOM     14  C   UNL     1      63.634  31.149  51.866  1.00  0.00    -0.039 A 
ATOM     15  C   UNL     1      65.123  32.112  49.659  1.00  0.00     0.039 A 
ATOM     16  C   UNL     1      64.066  32.476  51.822  1.00  0.00     0.013 A 
ATOM     17  C   UNL     1      62.890  30.652  53.082  1.00  0.00     0.045 C 
ATOM     18  C   UNL     1      64.763  33.000  50.716  1.00  0.00    -0.006 A 
ATOM     19  C   UNL     1      66.001  32.572  48.636  1.00  0.00     0.072 A 
ATOM     20  C   UNL     1      65.124  34.383  50.645  1.00  0.00     0.008 A 
ATOM     21  C   UNL     1      66.432  33.911  48.623  1.00  0.00     0.169 A 
ATOM     22  C   UNL     1      66.010  34.807  49.626  1.00  0.00     0.162 A 
BRANCH  13  23
ATOM     23  O   UNL     1      64.678  29.997  48.501  1.00  0.00    -0.507 OA
ATOM     24  H   UNL     1      63.969  29.341  48.199  1.00  0.00     0.293 HD
ENDBRANCH  13  23
BRANCH  19  25
ATOM     25  C   UNL     1      66.591  31.649  47.635  1.00  0.00     0.264 C 
ATOM     26  O   UNL     1      67.837  31.484  47.559  1.00  0.00    -0.298 OA
ENDBRANCH  19  25
BRANCH  20  27
ATOM     27  C   UNL     1      64.596  35.458  51.619  1.00  0.00     0.017 C 
ATOM     28  C   UNL     1      65.294  35.398  52.983  1.00  0.00     0.012 C 
ATOM     29  C   UNL     1      63.058  35.520  51.727  1.00  0.00     0.012 C 
ENDBRANCH  20  27
BRANCH  21  30
ATOM     30  O   UNL     1      67.293  34.319  47.597  1.00  0.00    -0.504 OA
ATOM     31  H   UNL     1      67.000  34.656  46.692  1.00  0.00     0.293 HD
ENDBRANCH  21  30
BRANCH  22  32
ATOM     32  O   UNL     1      66.481  36.125  49.655  1.00  0.00    -0.504 OA
ATOM     33  H   UNL     1      67.055  36.554  48.944  1.00  0.00     0.293 HD
ENDBRANCH  22  32
ENDBRANCH  11  12
BRANCH  10  34
ATOM     34  O   UNL     1      61.186  29.741  49.935  1.00  0.00    -0.507 OA
ATOM     35  H   UNL     1      60.199  29.844  50.135  1.00  0.00     0.293 HD
ENDBRANCH  10  34
BRANCH   9  36
ATOM     36  C   UNL     1      62.687  23.684  51.045  1.00  0.00     0.017 C 
ATOM     37  C   UNL     1      64.057  23.717  50.352  1.00  0.00     0.012 C 
ATOM     38  C   UNL     1      62.776  23.376  52.556  1.00  0.00     0.012 C 
ENDBRANCH   9  36
BRANCH   6  39
ATOM     39  C   UNL     1      59.049  28.165  50.132  1.00  0.00     0.264 C 
ATOM     40  O   UNL     1      58.679  28.617  49.016  1.00  0.00    -0.298 OA
ENDBRANCH   6  39
BRANCH   8  41
ATOM     41  O   UNL     1      60.026  23.388  50.130  1.00  0.00    -0.504 OA
ATOM     42  H   UNL     1      59.087  23.101  50.375  1.00  0.00     0.293 HD
ENDBRANCH   8  41
BRANCH   7  43
ATOM     43  O   UNL     1      58.287  25.464  49.758  1.00  0.00    -0.504 OA
ATOM     44  H   UNL     1      57.984  25.119  48.857  1.00  0.00     0.293 HD
ENDBRANCH   7  43
TORSDOF 11
ENDMDL
MODEL 4
REMARK VINA RESULT:    -5.107      6.653      9.880
REMARK INTER + INTRA:          -9.170
REMARK INTER:                  -7.364
REMARK INTRA:                  -1.807
REMARK UNBOUND:                -1.674
REMARK SMILES Cc1cc2c(C(C)C)c(O)c(O)c(C=O)c2c(O)c1-c1c(C)cc2c(C(C)C)c(O)c(O)c(C=O)c2c1O
REMARK SMILES IDX 1 1 2 2 3 3 4 4 16 5 13 6 11 7 9 8 5 9 17 10 19 11 20 12
REMARK SMILES IDX 37 13 21 14 36 15 23 16 22 17 24 18 33 19 25 20 31 21 29 22
REMARK SMILES IDX 38 23 34 25 35 26 26 27 27 28 28 29 32 30 30 32 18 34 6 36
REMARK SMILES IDX 7 37 8 38 14 39 15 40 10 41 12 43
REMARK H PARENT 38 24 32 31 30 33 18 35 10 42 12 44
REMARK Flexibility Score: inf
ROOT
ATOM      1  C   UNL     1      67.236  25.620  59.696  1.00  0.00     0.045 C 
ATOM      2  C   UNL     1      66.169  26.613  60.087  1.00  0.00    -0.039 A 
ATOM      3  C   UNL     1      64.905  26.150  60.456  1.00  0.00     0.013 A 
ATOM      4  C   UNL     1      63.867  27.023  60.844  1.00  0.00    -0.006 A 
ATOM      5  C   UNL     1      64.129  28.429  60.851  1.00  0.00     0.039 A 
ATOM      6  C   UNL     1      63.112  29.321  61.300  1.00  0.00     0.072 A 
ATOM      7  C   UNL     1      61.822  28.832  61.577  1.00  0.00     0.169 A 
ATOM      8  C   UNL     1      61.552  27.463  61.508  1.00  0.00     0.162 A 
ATOM      9  C   UNL     1      62.572  26.530  61.211  1.00  0.00     0.008 A 
ATOM     10  C   UNL     1      65.385  28.902  60.367  1.00  0.00     0.132 A 
ATOM     11  C   UNL     1      66.408  27.994  60.025  1.00  0.00     0.031 A 
ENDROOT
BRANCH  11  12
ATOM     12  C   UNL     1      67.736  28.495  59.583  1.00  0.00     0.031 A 
ATOM     13  C   UNL     1      67.999  28.704  58.214  1.00  0.00     0.132 A 
ATOM     14  C   UNL     1      68.733  28.759  60.534  1.00  0.00    -0.039 A 
ATOM     15  C   UNL     1      69.291  29.131  57.784  1.00  0.00     0.039 A 
ATOM     16  C   UNL     1      69.950  29.305  60.122  1.00  0.00     0.013 A 
ATOM     17  C   UNL     1      68.488  28.524  62.006  1.00  0.00     0.045 C 
ATOM     18  C   UNL     1      70.238  29.551  58.765  1.00  0.00    -0.006 A 
ATOM     19  C   UNL     1      69.651  29.181  56.407  1.00  0.00     0.072 A 
ATOM     20  C   UNL     1      71.453  30.190  58.361  1.00  0.00     0.008 A 
ATOM     21  C   UNL     1      70.890  29.723  56.019  1.00  0.00     0.169 A 
ATOM     22  C   UNL     1      71.790  30.211  56.987  1.00  0.00     0.162 A 
BRANCH  13  23
ATOM     23  O   UNL     1      66.965  28.536  57.285  1.00  0.00    -0.507 OA
ATOM     24  H   UNL     1      67.055  28.001  56.431  1.00  0.00     0.293 HD
ENDBRANCH  13  23
BRANCH  19  25
ATOM     25  C   UNL     1      68.812  28.558  55.354  1.00  0.00     0.264 C 
ATOM     26  O   UNL     1      68.124  29.263  54.569  1.00  0.00    -0.298 OA
ENDBRANCH  19  25
BRANCH  20  27
ATOM     27  C   UNL     1      72.429  30.875  59.342  1.00  0.00     0.017 C 
ATOM     28  C   UNL     1      73.120  29.868  60.270  1.00  0.00     0.012 C 
ATOM     29  C   UNL     1      71.833  32.083  60.095  1.00  0.00     0.012 C 
ENDBRANCH  20  27
BRANCH  21  30
ATOM     30  O   UNL     1      71.200  29.754  54.653  1.00  0.00    -0.504 OA
ATOM     31  H   UNL     1      71.718  29.044  54.159  1.00  0.00     0.293 HD
ENDBRANCH  21  30
BRANCH  22  32
ATOM     32  O   UNL     1      73.049  30.698  56.615  1.00  0.00    -0.504 OA
ATOM     33  H   UNL     1      73.388  30.771  55.666  1.00  0.00     0.293 HD
ENDBRANCH  22  32
ENDBRANCH  11  12
BRANCH  10  34
ATOM     34  O   UNL     1      65.600  30.273  60.180  1.00  0.00    -0.507 OA
ATOM     35  H   UNL     1      65.753  30.931  60.934  1.00  0.00     0.293 HD
ENDBRANCH  10  34
BRANCH   9  36
ATOM     36  C   UNL     1      62.208  25.032  61.280  1.00  0.00     0.017 C 
ATOM     37  C   UNL     1      62.283  24.353  59.904  1.00  0.00     0.012 C 
ATOM     38  C   UNL     1      62.954  24.253  62.385  1.00  0.00     0.012 C 
ENDBRANCH   9  36
BRANCH   6  39
ATOM     39  C   UNL     1      63.375  30.751  61.560  1.00  0.00     0.264 C 
ATOM     40  O   UNL     1      62.860  31.638  60.827  1.00  0.00    -0.298 OA
ENDBRANCH   6  39
BRANCH   8  41
ATOM     41  O   UNL     1      60.248  27.015  61.756  1.00  0.00    -0.504 OA
ATOM     42  H   UNL     1      60.043  26.173  62.278  1.00  0.00     0.293 HD
ENDBRANCH   8  41
BRANCH   7  43
ATOM     43  O   UNL     1      60.781  29.689  61.956  1.00  0.00    -0.504 OA
ATOM     44  H   UNL     1      60.054  30.011  61.331  1.00  0.00     0.293 HD
ENDBRANCH   7  43
TORSDOF 11
ENDMDL
MODEL 5
REMARK VINA RESULT:    -5.074      3.521      9.555
REMARK INTER + INTRA:          -9.122
REMARK INTER:                  -7.502
REMARK INTRA:                  -1.619
REMARK UNBOUND:                -1.674
REMARK SMILES Cc1cc2c(C(C)C)c(O)c(O)c(C=O)c2c(O)c1-c1c(C)cc2c(C(C)C)c(O)c(O)c(C=O)c2c1O
REMARK SMILES IDX 1 1 2 2 3 3 4 4 16 5 13 6 11 7 9 8 5 9 17 10 19 11 20 12
REMARK SMILES IDX 37 13 21 14 36 15 23 16 22 17 24 18 33 19 25 20 31 21 29 22
REMARK SMILES IDX 38 23 34 25 35 26 26 27 27 28 28 29 32 30 30 32 18 34 6 36
REMARK SMILES IDX 7 37 8 38 14 39 15 40 10 41 12 43
REMARK H PARENT 38 24 32 31 30 33 18 35 10 42 12 44
REMARK Flexibility Score: inf
ROOT
ATOM      1  C   UNL     1      56.776  24.973  55.197  1.00  0.00     0.045 C 
ATOM      2  C   UNL     1      57.523  26.099  54.524  1.00  0.00    -0.039 A 
ATOM      3  C   UNL     1      57.818  26.006  53.163  1.00  0.00     0.013 A 
ATOM      4  C   UNL     1      58.502  27.028  52.469  1.00  0.00    -0.006 A 
ATOM      5  C   UNL     1      58.907  28.189  53.198  1.00  0.00     0.039 A 
ATOM      6  C   UNL     1      59.544  29.257  52.501  1.00  0.00     0.072 A 
ATOM      7  C   UNL     1      59.908  29.096  51.152  1.00  0.00     0.169 A 
ATOM      8  C   UNL     1      59.565  27.932  50.458  1.00  0.00     0.162 A 
ATOM      9  C   UNL     1      58.803  26.912  51.073  1.00  0.00     0.008 A 
ATOM     10  C   UNL     1      58.703  28.228  54.610  1.00  0.00     0.132 A 
ATOM     11  C   UNL     1      57.981  27.204  55.257  1.00  0.00     0.031 A 
ENDROOT
BRANCH  11  12
ATOM     12  C   UNL     1      57.716  27.283  56.717  1.00  0.00     0.031 A 
ATOM     13  C   UNL     1      56.566  27.943  57.199  1.00  0.00     0.132 A 
ATOM     14  C   UNL     1      58.616  26.698  57.621  1.00  0.00    -0.039 A 
ATOM     15  C   UNL     1      56.341  28.067  58.603  1.00  0.00     0.039 A 
ATOM     16  C   UNL     1      58.322  26.705  58.985  1.00  0.00     0.013 A 
ATOM     17  C   UNL     1      59.867  26.004  57.136  1.00  0.00     0.045 C 
ATOM     18  C   UNL     1      57.171  27.332  59.500  1.00  0.00    -0.006 A 
ATOM     19  C   UNL     1      55.294  28.875  59.131  1.00  0.00     0.072 A 
ATOM     20  C   UNL     1      56.835  27.257  60.889  1.00  0.00     0.008 A 
ATOM     21  C   UNL     1      55.028  28.874  60.512  1.00  0.00     0.169 A 
ATOM     22  C   UNL     1      55.800  28.084  61.387  1.00  0.00     0.162 A 
BRANCH  13  23
ATOM     23  O   UNL     1      55.624  28.430  56.286  1.00  0.00    -0.507 OA
ATOM     24  H   UNL     1      54.660  28.628  56.521  1.00  0.00     0.293 HD
ENDBRANCH  13  23
BRANCH  19  25
ATOM     25  C   UNL     1      54.540  29.833  58.285  1.00  0.00     0.264 C 
ATOM     26  O   UNL     1      53.336  29.622  57.980  1.00  0.00    -0.298 OA
ENDBRANCH  19  25
BRANCH  20  27
ATOM     27  C   UNL     1      57.535  26.315  61.892  1.00  0.00     0.017 C 
ATOM     28  C   UNL     1      59.064  26.425  61.821  1.00  0.00     0.012 C 
ATOM     29  C   UNL     1      57.030  24.858  61.856  1.00  0.00     0.012 C 
ENDBRANCH  20  27
BRANCH  21  30
ATOM     30  O   UNL     1      53.987  29.683  60.986  1.00  0.00    -0.504 OA
ATOM     31  H   UNL     1      53.126  29.345  61.387  1.00  0.00     0.293 HD
ENDBRANCH  21  30
BRANCH  22  32
ATOM     32  O   UNL     1      55.581  28.122  62.770  1.00  0.00    -0.504 OA
ATOM     33  H   UNL     1      55.302  28.939  63.292  1.00  0.00     0.293 HD
ENDBRANCH  22  32
ENDBRANCH  11  12
BRANCH  10  34
ATOM     34  O   UNL     1      59.258  29.259  55.377  1.00  0.00    -0.507 OA
ATOM     35  H   UNL     1      59.551  29.154  56.340  1.00  0.00     0.293 HD
ENDBRANCH  10  34
BRANCH   9  36
ATOM     36  C   UNL     1      58.367  25.722  50.193  1.00  0.00     0.017 C 
ATOM     37  C   UNL     1      59.228  24.473  50.437  1.00  0.00     0.012 C 
ATOM     38  C   UNL     1      56.850  25.434  50.231  1.00  0.00     0.012 C 
ENDBRANCH   9  36
BRANCH   6  39
ATOM     39  C   UNL     1      59.780  30.576  53.123  1.00  0.00     0.264 C 
ATOM     40  O   UNL     1      60.949  30.939  53.423  1.00  0.00    -0.298 OA
ENDBRANCH   6  39
BRANCH   8  41
ATOM     41  O   UNL     1      59.974  27.791  49.126  1.00  0.00    -0.504 OA
ATOM     42  H   UNL     1      60.897  27.468  48.862  1.00  0.00     0.293 HD
ENDBRANCH   8  41
BRANCH   7  43
ATOM     43  O   UNL     1      60.594  30.098  50.454  1.00  0.00    -0.504 OA
ATOM     44  H   UNL     1      60.197  30.998  50.216  1.00  0.00     0.293 HD
ENDBRANCH   7  43
TORSDOF 11
ENDMDL
MODEL 6
REMARK VINA RESULT:    -5.069      6.353     10.176
REMARK INTER + INTRA:          -9.115
REMARK INTER:                  -7.405
REMARK INTRA:                  -1.710
REMARK UNBOUND:                -1.674
REMARK SMILES Cc1cc2c(C(C)C)c(O)c(O)c(C=O)c2c(O)c1-c1c(C)cc2c(C(C)C)c(O)c(O)c(C=O)c2c1O
REMARK SMILES IDX 1 1 2 2 3 3 4 4 16 5 13 6 11 7 9 8 5 9 17 10 19 11 20 12
REMARK SMILES IDX 37 13 21 14 36 15 23 16 22 17 24 18 33 19 25 20 31 21 29 22
REMARK SMILES IDX 38 23 34 25 35 26 26 27 27 28 28 29 32 30 30 32 18 34 6 36
REMARK SMILES IDX 7 37 8 38 14 39 15 40 10 41 12 43
REMARK H PARENT 38 24 32 31 30 33 18 35 10 42 12 44
REMARK Flexibility Score: inf
ROOT
ATOM      1  C   UNL     1      63.089  22.781  51.289  1.00  0.00     0.045 C 
ATOM      2  C   UNL     1      61.908  23.703  51.110  1.00  0.00    -0.039 A 
ATOM      3  C   UNL     1      62.128  25.041  50.777  1.00  0.00     0.013 A 
ATOM      4  C   UNL     1      61.069  25.953  50.582  1.00  0.00    -0.006 A 
ATOM      5  C   UNL     1      59.729  25.480  50.739  1.00  0.00     0.039 A 
ATOM      6  C   UNL     1      58.646  26.372  50.485  1.00  0.00     0.072 A 
ATOM      7  C   UNL     1      58.900  27.734  50.241  1.00  0.00     0.169 A 
ATOM      8  C   UNL     1      60.213  28.206  50.152  1.00  0.00     0.162 A 
ATOM      9  C   UNL     1      61.315  27.325  50.250  1.00  0.00     0.008 A 
ATOM     10  C   UNL     1      59.513  24.143  51.187  1.00  0.00     0.132 A 
ATOM     11  C   UNL     1      60.598  23.254  51.332  1.00  0.00     0.031 A 
ENDROOT
BRANCH  11  12
ATOM     12  C   UNL     1      60.360  21.844  51.738  1.00  0.00     0.031 A 
ATOM     13  C   UNL     1      60.249  21.503  53.102  1.00  0.00     0.132 A 
ATOM     14  C   UNL     1      60.247  20.846  50.757  1.00  0.00    -0.039 A 
ATOM     15  C   UNL     1      60.076  20.142  53.494  1.00  0.00     0.039 A 
ATOM     16  C   UNL     1      59.944  19.538  51.139  1.00  0.00     0.013 A 
ATOM     17  C   UNL     1      60.384  21.176  49.290  1.00  0.00     0.045 C 
ATOM     18  C   UNL     1      59.800  19.167  52.490  1.00  0.00    -0.006 A 
ATOM     19  C   UNL     1      60.139  19.734  54.857  1.00  0.00     0.072 A 
ATOM     20  C   UNL     1      59.404  17.843  52.865  1.00  0.00     0.008 A 
ATOM     21  C   UNL     1      59.842  18.406  55.213  1.00  0.00     0.169 A 
ATOM     22  C   UNL     1      59.492  17.464  54.226  1.00  0.00     0.162 A 
BRANCH  13  23
ATOM     23  O   UNL     1      60.259  22.520  54.064  1.00  0.00    -0.507 OA
ATOM     24  H   UNL     1      61.023  22.680  54.707  1.00  0.00     0.293 HD
ENDBRANCH  13  23
BRANCH  19  25
ATOM     25  C   UNL     1      60.635  20.638  55.924  1.00  0.00     0.264 C 
ATOM     26  O   UNL     1      59.848  21.142  56.768  1.00  0.00    -0.298 OA
ENDBRANCH  19  25
BRANCH  20  27
ATOM     27  C   UNL     1      58.874  16.792  51.867  1.00  0.00     0.017 C 
ATOM     28  C   UNL     1      60.006  16.102  51.095  1.00  0.00     0.012 C 
ATOM     29  C   UNL     1      57.736  17.295  50.955  1.00  0.00     0.012 C 
ENDBRANCH  20  27
BRANCH  21  30
ATOM     30  O   UNL     1      59.914  18.052  56.566  1.00  0.00    -0.504 OA
ATOM     31  H   UNL     1      60.729  18.154  57.151  1.00  0.00     0.293 HD
ENDBRANCH  21  30
BRANCH  22  32
ATOM     32  O   UNL     1      59.252  16.126  54.563  1.00  0.00    -0.504 OA
ATOM     33  H   UNL     1      58.976  15.403  53.915  1.00  0.00     0.293 HD
ENDBRANCH  22  32
ENDBRANCH  11  12
BRANCH  10  34
ATOM     34  O   UNL     1      58.227  23.712  51.534  1.00  0.00    -0.507 OA
ATOM     35  H   UNL     1      57.502  23.495  50.862  1.00  0.00     0.293 HD
ENDBRANCH  10  34
BRANCH   9  36
ATOM     36  C   UNL     1      62.721  27.916  50.014  1.00  0.00     0.017 C 
ATOM     37  C   UNL     1      63.555  27.961  51.303  1.00  0.00     0.012 C 
ATOM     38  C   UNL     1      63.475  27.289  48.821  1.00  0.00     0.012 C 
ENDBRANCH   9  36
BRANCH   6  39
ATOM     39  C   UNL     1      57.246  25.908  50.393  1.00  0.00     0.264 C 
ATOM     40  O   UNL     1      56.418  26.201  51.296  1.00  0.00    -0.298 OA
ENDBRANCH   6  39
BRANCH   8  41
ATOM     41  O   UNL     1      60.429  29.573  49.943  1.00  0.00    -0.504 OA
ATOM     42  H   UNL     1      60.400  30.257  50.689  1.00  0.00     0.293 HD
ENDBRANCH   8  41
BRANCH   7  43
ATOM     43  O   UNL     1      57.858  28.651  50.053  1.00  0.00    -0.504 OA
ATOM     44  H   UNL     1      57.989  29.651  49.976  1.00  0.00     0.293 HD
ENDBRANCH   7  43
TORSDOF 11
ENDMDL
MODEL 7
REMARK VINA RESULT:    -4.995      6.226      9.832
REMARK INTER + INTRA:          -9.005
REMARK INTER:                  -7.247
REMARK INTRA:                  -1.758
REMARK UNBOUND:                -1.674
REMARK SMILES Cc1cc2c(C(C)C)c(O)c(O)c(C=O)c2c(O)c1-c1c(C)cc2c(C(C)C)c(O)c(O)c(C=O)c2c1O
REMARK SMILES IDX 1 1 2 2 3 3 4 4 16 5 13 6 11 7 9 8 5 9 17 10 19 11 20 12
REMARK SMILES IDX 37 13 21 14 36 15 23 16 22 17 24 18 33 19 25 20 31 21 29 22
REMARK SMILES IDX 38 23 34 25 35 26 26 27 27 28 28 29 32 30 30 32 18 34 6 36
REMARK SMILES IDX 7 37 8 38 14 39 15 40 10 41 12 43
REMARK H PARENT 38 24 32 31 30 33 18 35 10 42 12 44
REMARK Flexibility Score: inf
ROOT
ATOM      1  C   UNL     1      60.314  21.038  49.382  1.00  0.00     0.045 C 
ATOM      2  C   UNL     1      60.526  20.731  50.845  1.00  0.00    -0.039 A 
ATOM      3  C   UNL     1      60.414  19.413  51.290  1.00  0.00     0.013 A 
ATOM      4  C   UNL     1      60.613  19.054  52.641  1.00  0.00    -0.006 A 
ATOM      5  C   UNL     1      60.934  20.087  53.576  1.00  0.00     0.039 A 
ATOM      6  C   UNL     1      61.198  19.735  54.932  1.00  0.00     0.072 A 
ATOM      7  C   UNL     1      60.989  18.414  55.368  1.00  0.00     0.169 A 
ATOM      8  C   UNL     1      60.613  17.418  54.461  1.00  0.00     0.162 A 
ATOM      9  C   UNL     1      60.486  17.697  53.082  1.00  0.00     0.008 A 
ATOM     10  C   UNL     1      60.936  21.445  53.137  1.00  0.00     0.132 A 
ATOM     11  C   UNL     1      60.772  21.755  51.771  1.00  0.00     0.031 A 
ENDROOT
BRANCH  11  12
ATOM     12  C   UNL     1      60.839  23.166  51.311  1.00  0.00     0.031 A 
ATOM     13  C   UNL     1      59.684  23.974  51.316  1.00  0.00     0.132 A 
ATOM     14  C   UNL     1      62.061  23.697  50.869  1.00  0.00    -0.039 A 
ATOM     15  C   UNL     1      59.736  25.312  50.822  1.00  0.00     0.039 A 
ATOM     16  C   UNL     1      62.137  25.045  50.514  1.00  0.00     0.013 A 
ATOM     17  C   UNL     1      63.310  22.850  50.831  1.00  0.00     0.045 C 
ATOM     18  C   UNL     1      61.008  25.888  50.531  1.00  0.00    -0.006 A 
ATOM     19  C   UNL     1      58.562  26.098  50.642  1.00  0.00     0.072 A 
ATOM     20  C   UNL     1      61.115  27.287  50.249  1.00  0.00     0.008 A 
ATOM     21  C   UNL     1      58.667  27.451  50.271  1.00  0.00     0.169 A 
ATOM     22  C   UNL     1      59.930  28.038  50.061  1.00  0.00     0.162 A 
BRANCH  13  23
ATOM     23  O   UNL     1      58.496  23.467  51.856  1.00  0.00    -0.507 OA
ATOM     24  H   UNL     1      58.198  23.624  52.810  1.00  0.00     0.293 HD
ENDBRANCH  13  23
BRANCH  19  25
ATOM     25  C   UNL     1      57.204  25.505  50.709  1.00  0.00     0.264 C 
ATOM     26  O   UNL     1      56.441  25.735  51.685  1.00  0.00    -0.298 OA
ENDBRANCH  19  25
BRANCH  20  27
ATOM     27  C   UNL     1      62.458  28.041  50.143  1.00  0.00     0.017 C 
ATOM     28  C   UNL     1      63.312  27.542  48.971  1.00  0.00     0.012 C 
ATOM     29  C   UNL     1      63.242  28.135  51.468  1.00  0.00     0.012 C 
ENDBRANCH  20  27
BRANCH  21  30
ATOM     30  O   UNL     1      57.485  28.185  50.108  1.00  0.00    -0.504 OA
ATOM     31  H   UNL     1      56.910  28.534  50.860  1.00  0.00     0.293 HD
ENDBRANCH  21  30
BRANCH  22  32
ATOM     32  O   UNL     1      60.042  29.367  49.634  1.00  0.00    -0.504 OA
ATOM     33  H   UNL     1      60.901  29.896  49.595  1.00  0.00     0.293 HD
ENDBRANCH  22  32
ENDBRANCH  11  12
BRANCH  10  34
ATOM     34  O   UNL     1      61.056  22.488  54.063  1.00  0.00    -0.507 OA
ATOM     35  H   UNL     1      61.858  23.102  54.125  1.00  0.00     0.293 HD
ENDBRANCH  10  34
BRANCH   9  36
ATOM     36  C   UNL     1      60.189  16.510  52.141  1.00  0.00     0.017 C 
ATOM     37  C   UNL     1      58.800  16.613  51.496  1.00  0.00     0.012 C 
ATOM     38  C   UNL     1      61.314  16.217  51.124  1.00  0.00     0.012 C 
ENDBRANCH   9  36
BRANCH   6  39
ATOM     39  C   UNL     1      61.762  20.697  55.902  1.00  0.00     0.264 C 
ATOM     40  O   UNL     1      61.048  21.155  56.834  1.00  0.00    -0.298 OA
ENDBRANCH   6  39
BRANCH   8  41
ATOM     41  O   UNL     1      60.379  16.122  54.937  1.00  0.00    -0.504 OA
ATOM     42  H   UNL     1      60.709  15.292  54.462  1.00  0.00     0.293 HD
ENDBRANCH   8  41
BRANCH   7  43
ATOM     43  O   UNL     1      61.175  18.047  56.707  1.00  0.00    -0.504 OA
ATOM     44  H   UNL     1      61.176  17.092  57.039  1.00  0.00     0.293 HD
ENDBRANCH   7  43
TORSDOF 11
ENDMDL
MODEL 8
REMARK VINA RESULT:    -4.981      6.144      8.869
REMARK INTER + INTRA:          -8.985
REMARK INTER:                  -7.400
REMARK INTRA:                  -1.585
REMARK UNBOUND:                -1.674
REMARK SMILES Cc1cc2c(C(C)C)c(O)c(O)c(C=O)c2c(O)c1-c1c(C)cc2c(C(C)C)c(O)c(O)c(C=O)c2c1O
REMARK SMILES IDX 1 1 2 2 3 3 4 4 16 5 13 6 11 7 9 8 5 9 17 10 19 11 20 12
REMARK SMILES IDX 37 13 21 14 36 15 23 16 22 17 24 18 33 19 25 20 31 21 29 22
REMARK SMILES IDX 38 23 34 25 35 26 26 27 27 28 28 29 32 30 30 32 18 34 6 36
REMARK SMILES IDX 7 37 8 38 14 39 15 40 10 41 12 43
REMARK H PARENT 38 24 32 31 30 33 18 35 10 42 12 44
REMARK Flexibility Score: inf
ROOT
ATOM      1  C   UNL     1      59.607  27.001  59.483  1.00  0.00     0.045 C 
ATOM      2  C   UNL     1      59.845  26.042  60.624  1.00  0.00    -0.039 A 
ATOM      3  C   UNL     1      58.763  25.352  61.174  1.00  0.00     0.013 A 
ATOM      4  C   UNL     1      58.917  24.431  62.233  1.00  0.00    -0.006 A 
ATOM      5  C   UNL     1      60.230  24.211  62.755  1.00  0.00     0.039 A 
ATOM      6  C   UNL     1      60.412  23.239  63.782  1.00  0.00     0.072 A 
ATOM      7  C   UNL     1      59.293  22.629  64.377  1.00  0.00     0.169 A 
ATOM      8  C   UNL     1      58.004  22.895  63.906  1.00  0.00     0.162 A 
ATOM      9  C   UNL     1      57.794  23.739  62.792  1.00  0.00     0.008 A 
ATOM     10  C   UNL     1      61.313  25.000  62.264  1.00  0.00     0.132 A 
ATOM     11  C   UNL     1      61.123  25.880  61.179  1.00  0.00     0.031 A 
ENDROOT
BRANCH  11  12
ATOM     12  C   UNL     1      62.269  26.651  60.632  1.00  0.00     0.031 A 
ATOM     13  C   UNL     1      62.490  27.984  61.037  1.00  0.00     0.132 A 
ATOM     14  C   UNL     1      63.135  26.049  59.705  1.00  0.00    -0.039 A 
ATOM     15  C   UNL     1      63.558  28.742  60.469  1.00  0.00     0.039 A 
ATOM     16  C   UNL     1      64.255  26.750  59.256  1.00  0.00     0.013 A 
ATOM     17  C   UNL     1      62.910  24.632  59.236  1.00  0.00     0.045 C 
ATOM     18  C   UNL     1      64.522  28.073  59.659  1.00  0.00    -0.006 A 
ATOM     19  C   UNL     1      63.706  30.137  60.715  1.00  0.00     0.072 A 
ATOM     20  C   UNL     1      65.718  28.750  59.260  1.00  0.00     0.008 A 
ATOM     21  C   UNL     1      64.839  30.822  60.238  1.00  0.00     0.169 A 
ATOM     22  C   UNL     1      65.830  30.140  59.505  1.00  0.00     0.162 A 
BRANCH  13  23
ATOM     23  O   UNL     1      61.684  28.538  62.038  1.00  0.00    -0.507 OA
ATOM     24  H   UNL     1      61.990  29.264  62.672  1.00  0.00     0.293 HD
ENDBRANCH  13  23
BRANCH  19  25
ATOM     25  C   UNL     1      62.636  30.940  61.356  1.00  0.00     0.264 C 
ATOM     26  O   UNL     1      61.738  31.493  60.668  1.00  0.00    -0.298 OA
ENDBRANCH  19  25
BRANCH  20  27
ATOM     27  C   UNL     1      66.913  28.051  58.578  1.00  0.00     0.017 C 
ATOM     28  C   UNL     1      66.595  27.634  57.137  1.00  0.00     0.012 C 
ATOM     29  C   UNL     1      67.550  26.919  59.411  1.00  0.00     0.012 C 
ENDBRANCH  20  27
BRANCH  21  30
ATOM     30  O   UNL     1      64.944  32.193  60.506  1.00  0.00    -0.504 OA
ATOM     31  H   UNL     1      64.604  32.651  61.338  1.00  0.00     0.293 HD
ENDBRANCH  21  30
BRANCH  22  32
ATOM     32  O   UNL     1      66.931  30.826  58.976  1.00  0.00    -0.504 OA
ATOM     33  H   UNL     1      67.880  30.748  59.311  1.00  0.00     0.293 HD
ENDBRANCH  22  32
ENDBRANCH  11  12
BRANCH  10  34
ATOM     34  O   UNL     1      62.566  24.945  62.886  1.00  0.00    -0.507 OA
ATOM     35  H   UNL     1      63.439  24.812  62.391  1.00  0.00     0.293 HD
ENDBRANCH  10  34
BRANCH   9  36
ATOM     36  C   UNL     1      56.349  23.875  62.266  1.00  0.00     0.017 C 
ATOM     37  C   UNL     1      55.809  25.305  62.419  1.00  0.00     0.012 C 
ATOM     38  C   UNL     1      56.136  23.290  60.853  1.00  0.00     0.012 C 
ENDBRANCH   9  36
BRANCH   6  39
ATOM     39  C   UNL     1      61.751  22.783  64.209  1.00  0.00     0.264 C 
ATOM     40  O   UNL     1      62.190  23.077  65.353  1.00  0.00    -0.298 OA
ENDBRANCH   6  39
BRANCH   8  41
ATOM     41  O   UNL     1      56.912  22.297  64.545  1.00  0.00    -0.504 OA
ATOM     42  H   UNL     1      56.509  22.654  65.402  1.00  0.00     0.293 HD
ENDBRANCH   8  41
BRANCH   7  43
ATOM     43  O   UNL     1      59.431  21.719  65.434  1.00  0.00    -0.504 OA
ATOM     44  H   UNL     1      60.091  20.953  65.441  1.00  0.00     0.293 HD
ENDBRANCH   7  43
TORSDOF 11
ENDMDL
MODEL 9
REMARK VINA RESULT:    -4.950      6.298      9.907
REMARK INTER + INTRA:          -8.939
REMARK INTER:                  -7.387
REMARK INTRA:                  -1.552
REMARK UNBOUND:                -1.674
REMARK SMILES Cc1cc2c(C(C)C)c(O)c(O)c(C=O)c2c(O)c1-c1c(C)cc2c(C(C)C)c(O)c(O)c(C=O)c2c1O
REMARK SMILES IDX 1 1 2 2 3 3 4 4 16 5 13 6 11 7 9 8 5 9 17 10 19 11 20 12
REMARK SMILES IDX 37 13 21 14 36 15 23 16 22 17 24 18 33 19 25 20 31 21 29 22
REMARK SMILES IDX 38 23 34 25 35 26 26 27 27 28 28 29 32 30 30 32 18 34 6 36
REMARK SMILES IDX 7 37 8 38 14 39 15 40 10 41 12 43
REMARK H PARENT 38 24 32 31 30 33 18 35 10 42 12 44
REMARK Flexibility Score: inf
ROOT
ATOM      1  C   UNL     1      63.310  24.058  59.874  1.00  0.00     0.045 C 
ATOM      2  C   UNL     1      63.383  25.539  60.156  1.00  0.00    -0.039 A 
ATOM      3  C   UNL     1      64.481  26.269  59.699  1.00  0.00     0.013 A 
ATOM      4  C   UNL     1      64.606  27.658  59.917  1.00  0.00    -0.006 A 
ATOM      5  C   UNL     1      63.567  28.328  60.636  1.00  0.00     0.039 A 
ATOM      6  C   UNL     1      63.646  29.741  60.811  1.00  0.00     0.072 A 
ATOM      7  C   UNL     1      64.807  30.432  60.420  1.00  0.00     0.169 A 
ATOM      8  C   UNL     1      65.849  29.762  59.773  1.00  0.00     0.162 A 
ATOM      9  C   UNL     1      65.745  28.390  59.448  1.00  0.00     0.008 A 
ATOM     10  C   UNL     1      62.504  27.559  61.196  1.00  0.00     0.132 A 
ATOM     11  C   UNL     1      62.397  26.180  60.921  1.00  0.00     0.031 A 
ENDROOT
BRANCH  11  12
ATOM     12  C   UNL     1      61.251  25.398  61.455  1.00  0.00     0.031 A 
ATOM     13  C   UNL     1      61.392  24.645  62.639  1.00  0.00     0.132 A 
ATOM     14  C   UNL     1      60.024  25.408  60.775  1.00  0.00    -0.039 A 
ATOM     15  C   UNL     1      60.310  23.849  63.121  1.00  0.00     0.039 A 
ATOM     16  C   UNL     1      58.929  24.737  61.323  1.00  0.00     0.013 A 
ATOM     17  C   UNL     1      59.850  26.186  59.493  1.00  0.00     0.045 C 
ATOM     18  C   UNL     1      59.026  23.996  62.517  1.00  0.00    -0.006 A 
ATOM     19  C   UNL     1      60.466  22.939  64.205  1.00  0.00     0.072 A 
ATOM     20  C   UNL     1      57.878  23.385  63.114  1.00  0.00     0.008 A 
ATOM     21  C   UNL     1      59.347  22.266  64.729  1.00  0.00     0.169 A 
ATOM     22  C   UNL     1      58.066  22.474  64.181  1.00  0.00     0.162 A 
BRANCH  13  23
ATOM     23  O   UNL     1      62.587  24.725  63.363  1.00  0.00    -0.507 OA
ATOM     24  H   UNL     1      62.799  25.463  64.022  1.00  0.00     0.293 HD
ENDBRANCH  13  23
BRANCH  19  25
ATOM     25  C   UNL     1      61.802  22.570  64.734  1.00  0.00     0.264 C 
ATOM     26  O   UNL     1      62.220  23.037  65.826  1.00  0.00    -0.298 OA
ENDBRANCH  19  25
BRANCH  20  27
ATOM     27  C   UNL     1      56.427  23.666  62.668  1.00  0.00     0.017 C 
ATOM     28  C   UNL     1      56.052  22.895  61.396  1.00  0.00     0.012 C 
ATOM     29  C   UNL     1      56.059  25.162  62.602  1.00  0.00     0.012 C 
ENDBRANCH  20  27
BRANCH  21  30
ATOM     30  O   UNL     1      59.548  21.382  65.798  1.00  0.00    -0.504 OA
ATOM     31  H   UNL     1      59.843  21.649  66.725  1.00  0.00     0.293 HD
ENDBRANCH  21  30
BRANCH  22  32
ATOM     32  O   UNL     1      56.957  21.763  64.657  1.00  0.00    -0.504 OA
ATOM     33  H   UNL     1      57.001  20.931  65.227  1.00  0.00     0.293 HD
ENDBRANCH  22  32
ENDBRANCH  11  12
BRANCH  10  34
ATOM     34  O   UNL     1      61.580  28.155  62.063  1.00  0.00    -0.507 OA
ATOM     35  H   UNL     1      61.722  29.050  62.514  1.00  0.00     0.293 HD
ENDBRANCH  10  34
BRANCH   9  36
ATOM     36  C   UNL     1      66.891  27.765  58.625  1.00  0.00     0.017 C 
ATOM     37  C   UNL     1      67.739  26.791  59.456  1.00  0.00     0.012 C 
ATOM     38  C   UNL     1      66.444  27.180  57.268  1.00  0.00     0.012 C 
ENDBRANCH   9  36
BRANCH   6  39
ATOM     39  C   UNL     1      62.514  30.537  61.328  1.00  0.00     0.264 C 
ATOM     40  O   UNL     1      62.040  31.486  60.649  1.00  0.00    -0.298 OA
ENDBRANCH   6  39
BRANCH   8  41
ATOM     41  O   UNL     1      67.005  30.475  59.430  1.00  0.00    -0.504 OA
ATOM     42  H   UNL     1      67.229  30.739  58.479  1.00  0.00     0.293 HD
ENDBRANCH   8  41
BRANCH   7  43
ATOM     43  O   UNL     1      64.947  31.809  60.637  1.00  0.00    -0.504 OA
ATOM     44  H   UNL     1      65.633  32.390  60.173  1.00  0.00     0.293 HD
ENDBRANCH   7  43
TORSDOF 11
ENDMDL
